# DDEC6 charges by PACMAN v1.1 (https://github.com/mtap-research/PACMAN-charge/)
data_BINMIW_ASR_pacman
_symmetry_space_group_name_H-M   'P 1'
_cell_length_a   12.29500000
_cell_length_b   30.75470000
_cell_length_c   26.16610000
_cell_angle_alpha   90.00000000
_cell_angle_beta   110.23400000
_cell_angle_gamma   90.00000000
_symmetry_Int_Tables_number   1
_chemical_formula_structural   Zn2H24C31(N2O5)2
_chemical_formula_sum   'Zn16 H192 C248 N32 O80'
_cell_volume   9283.57318488
_cell_formula_units_Z   8
loop_
 _symmetry_equiv_pos_site_id
 _symmetry_equiv_pos_as_xyz
  1  'x, y, z'
loop_
 _atom_site_type_symbol
 _atom_site_label
 _atom_site_symmetry_multiplicity
 _atom_site_fract_x
 _atom_site_fract_y
 _atom_site_fract_z
 _atom_site_occupancy
 _atom_site_charge
Zn  Zn1  1  0.37459000  0.26267000  0.79308000  1.0 0.7977690957
Zn  Zn2  1  0.62541000  0.76267000  0.70692000  1.0 0.7977690957
Zn  Zn3  1  0.62541000  0.73733000  0.20692000  1.0 0.7977690957
Zn  Zn4  1  0.37459000  0.23733000  0.29308000  1.0 0.7977690957
Zn  Zn5  1  0.12543000  0.27096000  0.74613000  1.0 0.7977690957
Zn  Zn6  1  0.87457000  0.77096000  0.75387000  1.0 0.7977690957
Zn  Zn7  1  0.87457000  0.72904000  0.25387000  1.0 0.7977690957
Zn  Zn8  1  0.12543000  0.22904000  0.24613000  1.0 0.7977690957
Zn  Zn9  1  0.71782000  0.14301000  0.93756000  1.0 0.728605803
Zn  Zn10  1  0.28218000  0.64301000  0.56244000  1.0 0.728605803
Zn  Zn11  1  0.28218000  0.85699000  0.06244000  1.0 0.728605803
Zn  Zn12  1  0.71782000  0.35699000  0.43756000  1.0 0.728605803
Zn  Zn13  1  0.76793000  0.12964000  0.07907000  1.0 0.728605803
Zn  Zn14  1  0.23207000  0.62964000  0.42093000  1.0 0.728605803
Zn  Zn15  1  0.23207000  0.87036000  0.92093000  1.0 0.728605803
Zn  Zn16  1  0.76793000  0.37036000  0.57907000  1.0 0.728605803
H  H1  1  0.52780000  0.21360000  0.88950000  1.0 0.1097396669
H  H2  1  0.47220000  0.71360000  0.61050000  1.0 0.1097396669
H  H3  1  0.47220000  0.78640000  0.11050000  1.0 0.1097396669
H  H4  1  0.52780000  0.28640000  0.38950000  1.0 0.1097396669
H  H5  1  0.53760000  0.18710000  0.83870000  1.0 0.1012964106
H  H6  1  0.46240000  0.68710000  0.66130000  1.0 0.1012964106
H  H7  1  0.46240000  0.81290000  0.16130000  1.0 0.1012964106
H  H8  1  0.53760000  0.31290000  0.33870000  1.0 0.1012964106
H  H9  1  0.60540000  0.27530000  0.77000000  1.0 0.1012964106
H  H10  1  0.39460000  0.77530000  0.73000000  1.0 0.1012964106
H  H11  1  0.39460000  0.72470000  0.23000000  1.0 0.1012964106
H  H12  1  0.60540000  0.22470000  0.27000000  1.0 0.1012964106
H  H13  1  0.58460000  0.22380000  0.76700000  1.0 0.1097396669
H  H14  1  0.41540000  0.72380000  0.73300000  1.0 0.1097396669
H  H15  1  0.41540000  0.77620000  0.23300000  1.0 0.1097396669
H  H16  1  0.58460000  0.27620000  0.26700000  1.0 0.1097396669
H  H17  1  0.56120000  0.29270000  0.89480000  1.0 0.1097396669
H  H18  1  0.43880000  0.79270000  0.60520000  1.0 0.1097396669
H  H19  1  0.43880000  0.70730000  0.10520000  1.0 0.1097396669
H  H20  1  0.56120000  0.20730000  0.39480000  1.0 0.1097396669
H  H21  1  0.59180000  0.31650000  0.84700000  1.0 0.1097396669
H  H22  1  0.40820000  0.81650000  0.65300000  1.0 0.1097396669
H  H23  1  0.40820000  0.68350000  0.15300000  1.0 0.1097396669
H  H24  1  0.59180000  0.18350000  0.34700000  1.0 0.1097396669
H  H25  1  0.72160000  0.17660000  0.82740000  1.0 0.079862862
H  H26  1  0.27840000  0.67660000  0.67260000  1.0 0.079862862
H  H27  1  0.27840000  0.82340000  0.17260000  1.0 0.079862862
H  H28  1  0.72160000  0.32340000  0.32740000  1.0 0.079862862
H  H29  1  0.83760000  0.19570000  0.87120000  1.0 0.092065484
H  H30  1  0.16240000  0.69570000  0.62880000  1.0 0.092065484
H  H31  1  0.16240000  0.80430000  0.12880000  1.0 0.092065484
H  H32  1  0.83760000  0.30430000  0.37120000  1.0 0.092065484
H  H33  1  0.86820000  0.27300000  0.87720000  1.0 0.1012964106
H  H34  1  0.13180000  0.77300000  0.62280000  1.0 0.1012964106
H  H35  1  0.13180000  0.72700000  0.12280000  1.0 0.1012964106
H  H36  1  0.86820000  0.22700000  0.37720000  1.0 0.1012964106
H  H37  1  0.77500000  0.30470000  0.83640000  1.0 0.1012964106
H  H38  1  0.22500000  0.80470000  0.66360000  1.0 0.1012964106
H  H39  1  0.22500000  0.69530000  0.16360000  1.0 0.1012964106
H  H40  1  0.77500000  0.19530000  0.33640000  1.0 0.1012964106
H  H41  1  0.82530000  0.23740000  0.94940000  1.0 0.1012964106
H  H42  1  0.17470000  0.73740000  0.55060000  1.0 0.1012964106
H  H43  1  0.17470000  0.76260000  0.05060000  1.0 0.1012964106
H  H44  1  0.82530000  0.26260000  0.44940000  1.0 0.1012964106
H  H45  1  0.70220000  0.24450000  0.95650000  1.0 0.1012964106
H  H46  1  0.29780000  0.74450000  0.54350000  1.0 0.1012964106
H  H47  1  0.29780000  0.75550000  0.04350000  1.0 0.1012964106
H  H48  1  0.70220000  0.25550000  0.45650000  1.0 0.1012964106
H  H49  1  0.96860000  0.30880000  0.64290000  1.0 0.1097396669
H  H50  1  0.03140000  0.80880000  0.85710000  1.0 0.1097396669
H  H51  1  0.03140000  0.69120000  0.35710000  1.0 0.1097396669
H  H52  1  0.96860000  0.19120000  0.14290000  1.0 0.1097396669
H  H53  1  0.95130000  0.34150000  0.68710000  1.0 0.1012964106
H  H54  1  0.04870000  0.84150000  0.81290000  1.0 0.1012964106
H  H55  1  0.04870000  0.65850000  0.31290000  1.0 0.1012964106
H  H56  1  0.95130000  0.15850000  0.18710000  1.0 0.1012964106
H  H57  1  0.90630000  0.31340000  0.76470000  1.0 0.1097396669
H  H58  1  0.09370000  0.81340000  0.73530000  1.0 0.1097396669
H  H59  1  0.09370000  0.68660000  0.23530000  1.0 0.1097396669
H  H60  1  0.90630000  0.18660000  0.26470000  1.0 0.1097396669
H  H61  1  0.89580000  0.26210000  0.77210000  1.0 0.1012964106
H  H62  1  0.10420000  0.76210000  0.72790000  1.0 0.1012964106
H  H63  1  0.10420000  0.73790000  0.22790000  1.0 0.1012964106
H  H64  1  0.89580000  0.23790000  0.27210000  1.0 0.1012964106
H  H65  1  0.92210000  0.21190000  0.70390000  1.0 0.1097396669
H  H66  1  0.07790000  0.71190000  0.79610000  1.0 0.1097396669
H  H67  1  0.07790000  0.78810000  0.29610000  1.0 0.1097396669
H  H68  1  0.92210000  0.28810000  0.20390000  1.0 0.1097396669
H  H69  1  0.94970000  0.23080000  0.65270000  1.0 0.1097396669
H  H70  1  0.05030000  0.73080000  0.84730000  1.0 0.1097396669
H  H71  1  0.05030000  0.76920000  0.34730000  1.0 0.1097396669
H  H72  1  0.94970000  0.26920000  0.15270000  1.0 0.1097396669
H  H73  1  0.80540000  0.26840000  0.58260000  1.0 0.1012964106
H  H74  1  0.19460000  0.76840000  0.91740000  1.0 0.1012964106
H  H75  1  0.19460000  0.73160000  0.41740000  1.0 0.1012964106
H  H76  1  0.80540000  0.23160000  0.08260000  1.0 0.1012964106
H  H77  1  0.67860000  0.27530000  0.58560000  1.0 0.1012964106
H  H78  1  0.32140000  0.77530000  0.91440000  1.0 0.1012964106
H  H79  1  0.32140000  0.72470000  0.41440000  1.0 0.1012964106
H  H80  1  0.67860000  0.22470000  0.08560000  1.0 0.1012964106
H  H81  1  0.73540000  0.22320000  0.71100000  1.0 0.1012964106
H  H82  1  0.26460000  0.72320000  0.78900000  1.0 0.092065484
H  H83  1  0.26460000  0.77680000  0.28900000  1.0 0.092065484
H  H84  1  0.73540000  0.27680000  0.21100000  1.0 0.092065484
H  H85  1  0.63670000  0.24830000  0.66370000  1.0 0.1012964106
H  H86  1  0.36330000  0.74830000  0.83630000  1.0 0.1012964106
H  H87  1  0.36330000  0.75170000  0.33630000  1.0 0.1012964106
H  H88  1  0.63670000  0.25170000  0.16370000  1.0 0.1012964106
H  H89  1  0.65130000  0.32540000  0.65280000  1.0 0.092065484
H  H90  1  0.34870000  0.82540000  0.84720000  1.0 0.092065484
H  H91  1  0.34870000  0.67460000  0.34720000  1.0 0.092065484
H  H92  1  0.65130000  0.17460000  0.15280000  1.0 0.092065484
H  H93  1  0.75990000  0.35140000  0.69330000  1.0 0.0738897174
H  H94  1  0.24010000  0.85140000  0.80670000  1.0 0.0738897174
H  H95  1  0.24010000  0.64860000  0.30670000  1.0 0.0738897174
H  H96  1  0.75990000  0.14860000  0.19330000  1.0 0.0738897174
H  H97  1  0.38020000  0.12580000  0.81950000  1.0 0.1180135364
H  H98  1  0.61980000  0.62580000  0.68050000  1.0 0.1180135364
H  H99  1  0.61980000  0.87420000  0.18050000  1.0 0.1180135364
H  H100  1  0.38020000  0.37420000  0.31950000  1.0 0.1180135364
H  H101  1  0.47410000  0.05610000  0.85670000  1.0 0.1097396669
H  H102  1  0.52590000  0.55610000  0.64330000  1.0 0.1012964106
H  H103  1  0.52590000  0.94390000  0.14330000  1.0 0.1012964106
H  H104  1  0.47410000  0.44390000  0.35670000  1.0 0.1097396669
H  H105  1  0.45970000  0.98380000  0.87400000  1.0 0.1012964106
H  H106  1  0.54030000  0.48380000  0.62600000  1.0 0.1012964106
H  H107  1  0.54030000  0.01620000  0.12600000  1.0 0.1012964106
H  H108  1  0.45970000  0.51620000  0.37400000  1.0 0.1012964106
H  H109  1  0.11100000  0.99200000  0.82120000  1.0 0.092065484
H  H110  1  0.88900000  0.49200000  0.67880000  1.0 0.092065484
H  H111  1  0.88900000  0.00800000  0.17880000  1.0 0.092065484
H  H112  1  0.11100000  0.50800000  0.32120000  1.0 0.092065484
H  H113  1  0.01610000  0.06400000  0.78870000  1.0 0.1180135364
H  H114  1  0.98390000  0.56400000  0.71130000  1.0 0.1180135364
H  H115  1  0.98390000  0.93600000  0.21130000  1.0 0.1180135364
H  H116  1  0.01610000  0.43600000  0.28870000  1.0 0.1180135364
H  H117  1  0.03070000  0.13630000  0.76880000  1.0 0.1097396669
H  H118  1  0.96930000  0.63630000  0.73120000  1.0 0.1097396669
H  H119  1  0.96930000  0.86370000  0.23120000  1.0 0.1097396669
H  H120  1  0.03070000  0.36370000  0.26880000  1.0 0.1097396669
H  H121  1  0.44570000  0.26090000  0.64560000  1.0 0.1012964106
H  H122  1  0.55430000  0.76090000  0.85440000  1.0 0.1012964106
H  H123  1  0.55430000  0.73910000  0.35440000  1.0 0.1012964106
H  H124  1  0.44570000  0.23910000  0.14560000  1.0 0.1012964106
H  H125  1  0.47280000  0.25280000  0.56330000  1.0 0.1012964106
H  H126  1  0.52720000  0.75280000  0.93670000  1.0 0.1012964106
H  H127  1  0.52720000  0.74720000  0.43670000  1.0 0.1012964106
H  H128  1  0.47280000  0.24720000  0.06330000  1.0 0.1012964106
H  H129  1  0.39150000  0.23790000  0.46380000  1.0 0.1097396669
H  H130  1  0.60850000  0.73790000  0.03620000  1.0 0.1097396669
H  H131  1  0.60850000  0.76210000  0.53620000  1.0 0.1097396669
H  H132  1  0.39150000  0.26210000  0.96380000  1.0 0.1097396669
H  H133  1  0.05350000  0.20560000  0.39400000  1.0 0.1012964106
H  H134  1  0.94650000  0.70560000  0.10600000  1.0 0.1012964106
H  H135  1  0.94650000  0.79440000  0.60600000  1.0 0.1012964106
H  H136  1  0.05350000  0.29440000  0.89400000  1.0 0.1012964106
H  H137  1  0.02760000  0.21130000  0.47740000  1.0 0.1012964106
H  H138  1  0.97240000  0.71130000  0.02260000  1.0 0.1012964106
H  H139  1  0.97240000  0.78870000  0.52260000  1.0 0.1012964106
H  H140  1  0.02760000  0.28870000  0.97740000  1.0 0.1012964106
H  H141  1  0.10570000  0.23020000  0.57680000  1.0 0.1180135364
H  H142  1  0.89430000  0.73020000  0.92320000  1.0 0.1180135364
H  H143  1  0.89430000  0.76980000  0.42320000  1.0 0.1180135364
H  H144  1  0.10570000  0.26980000  0.07680000  1.0 0.1180135364
H  H145  1  0.47250000  0.39330000  0.75630000  1.0 0.1180135364
H  H146  1  0.52750000  0.89330000  0.74370000  1.0 0.1180135364
H  H147  1  0.52750000  0.60670000  0.24370000  1.0 0.1180135364
H  H148  1  0.47250000  0.10670000  0.25630000  1.0 0.1180135364
H  H149  1  0.48620000  0.46290000  0.72570000  1.0 0.1180135364
H  H150  1  0.51380000  0.96290000  0.77430000  1.0 0.1180135364
H  H151  1  0.51380000  0.53710000  0.27430000  1.0 0.1180135364
H  H152  1  0.48620000  0.03710000  0.22570000  1.0 0.1180135364
H  H153  1  0.39110000  0.53020000  0.67920000  1.0 0.092065484
H  H154  1  0.60890000  0.03020000  0.82080000  1.0 0.092065484
H  H155  1  0.60890000  0.46980000  0.32080000  1.0 0.092065484
H  H156  1  0.39110000  0.96980000  0.17920000  1.0 0.092065484
H  H157  1  0.04470000  0.53710000  0.61730000  1.0 0.1097396669
H  H158  1  0.95530000  0.03710000  0.88270000  1.0 0.1097396669
H  H159  1  0.95530000  0.46290000  0.38270000  1.0 0.1097396669
H  H160  1  0.04470000  0.96290000  0.11730000  1.0 0.1097396669
H  H161  1  0.02960000  0.46840000  0.64830000  1.0 0.1097396669
H  H162  1  0.97040000  0.96840000  0.85170000  1.0 0.1097396669
H  H163  1  0.97040000  0.53160000  0.35170000  1.0 0.1097396669
H  H164  1  0.02960000  0.03160000  0.14830000  1.0 0.1097396669
H  H165  1  0.12290000  0.40230000  0.69870000  1.0 0.1180135364
H  H166  1  0.87710000  0.90230000  0.80130000  1.0 0.1180135364
H  H167  1  0.87710000  0.59770000  0.30130000  1.0 0.1180135364
H  H168  1  0.12290000  0.09770000  0.19870000  1.0 0.1180135364
H  H169  1  0.01960000  0.15910000  0.95120000  1.0 0.1097396669
H  H170  1  0.98040000  0.65910000  0.54880000  1.0 0.1097396669
H  H171  1  0.98040000  0.84090000  0.04880000  1.0 0.1097396669
H  H172  1  0.01960000  0.34090000  0.45120000  1.0 0.1097396669
H  H173  1  0.15930000  0.16240000  0.90200000  1.0 0.1097396669
H  H174  1  0.84070000  0.66240000  0.59800000  1.0 0.1097396669
H  H175  1  0.84070000  0.83760000  0.09800000  1.0 0.1097396669
H  H176  1  0.15930000  0.33760000  0.40200000  1.0 0.1097396669
H  H177  1  0.34800000  0.16070000  0.90390000  1.0 0.1097396669
H  H178  1  0.65200000  0.66070000  0.59610000  1.0 0.1097396669
H  H179  1  0.65200000  0.83930000  0.09610000  1.0 0.1097396669
H  H180  1  0.34800000  0.33930000  0.40390000  1.0 0.1097396669
H  H181  1  0.46700000  0.13970000  0.06680000  1.0 0.1012964106
H  H182  1  0.53300000  0.63970000  0.43320000  1.0 0.1012964106
H  H183  1  0.53300000  0.86030000  0.93320000  1.0 0.1012964106
H  H184  1  0.46700000  0.36030000  0.56680000  1.0 0.1012964106
H  H185  1  0.32560000  0.13330000  0.11610000  1.0 0.1097396669
H  H186  1  0.67440000  0.63330000  0.38390000  1.0 0.1097396669
H  H187  1  0.67440000  0.86670000  0.88390000  1.0 0.1097396669
H  H188  1  0.32560000  0.36670000  0.61610000  1.0 0.1097396669
H  H189  1  0.13600000  0.13640000  0.11390000  1.0 0.1097396669
H  H190  1  0.86400000  0.63640000  0.38610000  1.0 0.1097396669
H  H191  1  0.86400000  0.86360000  0.88610000  1.0 0.1097396669
H  H192  1  0.13600000  0.36360000  0.61390000  1.0 0.1097396669
C  C1  1  0.56980000  0.21190000  0.86340000  1.0 -0.0419984424
C  C2  1  0.43020000  0.71190000  0.63660000  1.0 -0.0419984424
C  C3  1  0.43020000  0.78810000  0.13660000  1.0 -0.0419984424
C  C4  1  0.56980000  0.28810000  0.36340000  1.0 -0.0419984424
C  C5  1  0.61650000  0.24850000  0.79210000  1.0 -0.0296966919
C  C6  1  0.38350000  0.74850000  0.70790000  1.0 -0.0296966919
C  C7  1  0.38350000  0.75150000  0.20790000  1.0 -0.0296966919
C  C8  1  0.61650000  0.25150000  0.29210000  1.0 -0.0296966919
C  C9  1  0.60230000  0.28940000  0.86850000  1.0 -0.0296966919
C  C10  1  0.39770000  0.78940000  0.63150000  1.0 -0.0296966919
C  C11  1  0.39770000  0.71060000  0.13150000  1.0 -0.0296966919
C  C12  1  0.60230000  0.21060000  0.36850000  1.0 -0.0296966919
C  C13  1  0.75390000  0.20130000  0.85230000  1.0 -0.0602258354
C  C14  1  0.24610000  0.70130000  0.64770000  1.0 -0.0602258354
C  C15  1  0.24610000  0.79870000  0.14770000  1.0 -0.0602258354
C  C16  1  0.75390000  0.29870000  0.35230000  1.0 -0.0492781684
C  C17  1  0.78430000  0.27750000  0.85770000  1.0 -0.0296966919
C  C18  1  0.21570000  0.77750000  0.64230000  1.0 -0.0296966919
C  C19  1  0.21570000  0.72250000  0.14230000  1.0 -0.0296966919
C  C20  1  0.78430000  0.22250000  0.35770000  1.0 -0.0296966919
C  C21  1  0.74150000  0.24200000  0.92940000  1.0 -0.0215464686
C  C22  1  0.25850000  0.74200000  0.57060000  1.0 -0.0215464686
C  C23  1  0.25850000  0.75800000  0.07060000  1.0 -0.0215464686
C  C24  1  0.74150000  0.25800000  0.42940000  1.0 -0.0215464686
C  C25  1  0.92480000  0.31370000  0.66780000  1.0 -0.0492781684
C  C26  1  0.07520000  0.81370000  0.83220000  1.0 -0.0492781684
C  C27  1  0.07520000  0.68630000  0.33220000  1.0 -0.0492781684
C  C28  1  0.92480000  0.18630000  0.16780000  1.0 -0.0492781684
C  C29  1  0.88080000  0.28580000  0.74490000  1.0 -0.0296966919
C  C30  1  0.11920000  0.78580000  0.75510000  1.0 -0.0296966919
C  C31  1  0.11920000  0.71420000  0.25510000  1.0 -0.0296966919
C  C32  1  0.88080000  0.21420000  0.24490000  1.0 -0.0296966919
C  C33  1  0.90660000  0.23630000  0.67770000  1.0 -0.0296966919
C  C34  1  0.09340000  0.73630000  0.82230000  1.0 -0.0296966919
C  C35  1  0.09340000  0.76370000  0.32230000  1.0 -0.0296966919
C  C36  1  0.90660000  0.26370000  0.17770000  1.0 -0.0296966919
C  C37  1  0.76230000  0.27390000  0.60770000  1.0 -0.0296966919
C  C38  1  0.23770000  0.77390000  0.89230000  1.0 -0.0296966919
C  C39  1  0.23770000  0.72610000  0.39230000  1.0 -0.0296966919
C  C40  1  0.76230000  0.22610000  0.10770000  1.0 -0.0296966919
C  C41  1  0.72110000  0.24730000  0.68440000  1.0 -0.0296966919
C  C42  1  0.27890000  0.74730000  0.81560000  1.0 -0.0296966919
C  C43  1  0.27890000  0.75270000  0.31560000  1.0 -0.0296966919
C  C44  1  0.72110000  0.25270000  0.18440000  1.0 -0.0296966919
C  C45  1  0.73530000  0.32350000  0.67380000  1.0 -0.0492781684
C  C46  1  0.26470000  0.82350000  0.82620000  1.0 -0.0492781684
C  C47  1  0.26470000  0.67650000  0.32620000  1.0 -0.0492781684
C  C48  1  0.73530000  0.17650000  0.17380000  1.0 -0.0492781684
C  C49  1  0.21900000  0.18560000  0.78200000  1.0 0.5676755867
C  C50  1  0.78100000  0.68560000  0.71800000  1.0 0.5676755867
C  C51  1  0.78100000  0.81440000  0.21800000  1.0 0.5676755867
C  C52  1  0.21900000  0.31440000  0.28200000  1.0 0.5676755867
C  C53  1  0.20840000  0.13820000  0.79210000  1.0 -0.0215464686
C  C54  1  0.79160000  0.63820000  0.70790000  1.0 -0.0215464686
C  C55  1  0.79160000  0.86180000  0.20790000  1.0 -0.0215464686
C  C56  1  0.20840000  0.36180000  0.29210000  1.0 -0.0215464686
C  C57  1  0.30640000  0.11300000  0.81330000  1.0 -0.1711659726
C  C58  1  0.69360000  0.61300000  0.68670000  1.0 -0.1711659726
C  C59  1  0.69360000  0.88700000  0.18670000  1.0 -0.1711659726
C  C60  1  0.30640000  0.38700000  0.31330000  1.0 -0.1711659726
C  C61  1  0.29980000  0.06890000  0.82590000  1.0 0.092065484
C  C62  1  0.70020000  0.56890000  0.67410000  1.0 0.092065484
C  C63  1  0.70020000  0.93110000  0.17410000  1.0 0.092065484
C  C64  1  0.29980000  0.43110000  0.32590000  1.0 0.092065484
C  C65  1  0.39980000  0.04330000  0.84890000  1.0 -0.1423505239
C  C66  1  0.60020000  0.54330000  0.65110000  1.0 -0.1423505239
C  C67  1  0.60020000  0.95670000  0.15110000  1.0 -0.1423505239
C  C68  1  0.39980000  0.45670000  0.34890000  1.0 -0.1423505239
C  C69  1  0.39140000  0.00090000  0.85990000  1.0 -0.1711659726
C  C70  1  0.60860000  0.50090000  0.64010000  1.0 -0.1711659726
C  C71  1  0.60860000  0.99910000  0.14010000  1.0 -0.1711659726
C  C72  1  0.39140000  0.49910000  0.35990000  1.0 -0.1711659726
C  C73  1  0.28280000  0.98160000  0.85070000  1.0 -0.0296966919
C  C74  1  0.71720000  0.48160000  0.64930000  1.0 -0.0296966919
C  C75  1  0.71720000  0.01840000  0.14930000  1.0 -0.0296966919
C  C76  1  0.28280000  0.51840000  0.35070000  1.0 -0.0296966919
C  C77  1  0.18440000  0.00530000  0.82830000  1.0 -0.2114700229
C  C78  1  0.81560000  0.50530000  0.67170000  1.0 -0.2114700229
C  C79  1  0.81560000  0.99470000  0.17170000  1.0 -0.2114700229
C  C80  1  0.18440000  0.49470000  0.32830000  1.0 -0.2114700229
C  C81  1  0.19060000  0.05000000  0.81530000  1.0 0.079862862
C  C82  1  0.80940000  0.55000000  0.68470000  1.0 0.079862862
C  C83  1  0.80940000  0.95000000  0.18470000  1.0 0.079862862
C  C84  1  0.19060000  0.45000000  0.31530000  1.0 0.079862862
C  C85  1  0.09020000  0.07630000  0.79460000  1.0 -0.1711659726
C  C86  1  0.90980000  0.57630000  0.70540000  1.0 -0.1711659726
C  C87  1  0.90980000  0.92370000  0.20540000  1.0 -0.1711659726
C  C88  1  0.09020000  0.42370000  0.29460000  1.0 -0.1711659726
C  C89  1  0.09890000  0.11920000  0.78310000  1.0 -0.1194140446
C  C90  1  0.90110000  0.61920000  0.71690000  1.0 -0.1194140446
C  C91  1  0.90110000  0.88080000  0.21690000  1.0 -0.1194140446
C  C92  1  0.09890000  0.38080000  0.28310000  1.0 -0.1194140446
C  C93  1  0.29050000  0.93610000  0.87250000  1.0 0.3254339209
C  C94  1  0.70950000  0.43610000  0.62750000  1.0 0.3238768263
C  C95  1  0.70950000  0.06390000  0.12750000  1.0 0.3238768263
C  C96  1  0.29050000  0.56390000  0.37250000  1.0 0.3238768263
C  C97  1  0.25910000  0.25230000  0.67350000  1.0 0.5676755867
C  C98  1  0.74090000  0.75230000  0.82650000  1.0 0.5676755867
C  C99  1  0.74090000  0.74770000  0.32650000  1.0 0.5676755867
C  C100  1  0.25910000  0.24770000  0.17350000  1.0 0.5676755867
C  C101  1  0.27220000  0.24650000  0.61900000  1.0 -0.0215464686
C  C102  1  0.72780000  0.74650000  0.88100000  1.0 -0.0215464686
C  C103  1  0.72780000  0.75350000  0.38100000  1.0 -0.0215464686
C  C104  1  0.27220000  0.25350000  0.11900000  1.0 -0.0215464686
C  C105  1  0.38180000  0.25300000  0.61420000  1.0 -0.1324181428
C  C106  1  0.61820000  0.75300000  0.88580000  1.0 -0.1324181428
C  C107  1  0.61820000  0.74700000  0.38580000  1.0 -0.1324181428
C  C108  1  0.38180000  0.24700000  0.11420000  1.0 -0.1324181428
C  C109  1  0.39800000  0.24840000  0.56550000  1.0 -0.1601666325
C  C110  1  0.60200000  0.74840000  0.93450000  1.0 -0.1601666325
C  C111  1  0.60200000  0.75160000  0.43450000  1.0 -0.1601666325
C  C112  1  0.39800000  0.25160000  0.06550000  1.0 -0.1601666325
C  C113  1  0.30460000  0.23710000  0.51840000  1.0 0.0738897174
C  C114  1  0.69540000  0.73710000  0.98160000  1.0 0.0738897174
C  C115  1  0.69540000  0.76290000  0.48160000  1.0 0.0738897174
C  C116  1  0.30460000  0.26290000  0.01840000  1.0 0.0738897174
C  C117  1  0.31730000  0.23330000  0.46660000  1.0 -0.1601666325
C  C118  1  0.68270000  0.73330000  0.03340000  1.0 -0.1601666325
C  C119  1  0.68270000  0.76670000  0.53340000  1.0 -0.1601666325
C  C120  1  0.31730000  0.26670000  0.96660000  1.0 -0.1601666325
C  C121  1  0.22680000  0.22320000  0.42120000  1.0 -0.0215464686
C  C122  1  0.77320000  0.72320000  0.07880000  1.0 -0.0215464686
C  C123  1  0.77320000  0.77680000  0.57880000  1.0 -0.0215464686
C  C124  1  0.22680000  0.27680000  0.92120000  1.0 -0.0215464686
C  C125  1  0.11650000  0.21400000  0.42540000  1.0 -0.1495091296
C  C126  1  0.88350000  0.71400000  0.07460000  1.0 -0.1495091296
C  C127  1  0.88350000  0.78600000  0.57460000  1.0 -0.1495091296
C  C128  1  0.11650000  0.28600000  0.92540000  1.0 -0.1495091296
C  C129  1  0.10140000  0.21730000  0.47500000  1.0 -0.1790692189
C  C130  1  0.89860000  0.71730000  0.02500000  1.0 -0.1711659726
C  C131  1  0.89860000  0.78270000  0.52500000  1.0 -0.1790692189
C  C132  1  0.10140000  0.28270000  0.97500000  1.0 -0.1790692189
C  C133  1  0.19350000  0.22940000  0.52220000  1.0 0.079862862
C  C134  1  0.80650000  0.72940000  0.97780000  1.0 0.079862862
C  C135  1  0.80650000  0.77060000  0.47780000  1.0 0.079862862
C  C136  1  0.19350000  0.27060000  0.02220000  1.0 0.079862862
C  C137  1  0.17960000  0.23480000  0.57370000  1.0 -0.1711659726
C  C138  1  0.82040000  0.73480000  0.92630000  1.0 -0.1711659726
C  C139  1  0.82040000  0.76520000  0.42630000  1.0 -0.1711659726
C  C140  1  0.17960000  0.26520000  0.07370000  1.0 -0.1711659726
C  C141  1  0.23840000  0.22290000  0.36550000  1.0 0.5784393734
C  C142  1  0.76160000  0.72290000  0.13450000  1.0 0.5784393734
C  C143  1  0.76160000  0.77710000  0.63450000  1.0 0.5784393734
C  C144  1  0.23840000  0.27710000  0.86550000  1.0 0.5784393734
C  C145  1  0.28360000  0.34650000  0.75100000  1.0 0.5784393734
C  C146  1  0.71640000  0.84650000  0.74900000  1.0 0.5784393734
C  C147  1  0.71640000  0.65350000  0.24900000  1.0 0.5784393734
C  C148  1  0.28360000  0.15350000  0.25100000  1.0 0.5784393734
C  C149  1  0.29320000  0.39180000  0.73120000  1.0 -0.0107694054
C  C150  1  0.70680000  0.89180000  0.76880000  1.0 -0.0107694054
C  C151  1  0.70680000  0.60820000  0.26880000  1.0 -0.0107694054
C  C152  1  0.29320000  0.10820000  0.23120000  1.0 -0.0107694054
C  C153  1  0.40420000  0.40970000  0.73860000  1.0 -0.1324181428
C  C154  1  0.59580000  0.90970000  0.76140000  1.0 -0.1324181428
C  C155  1  0.59580000  0.59030000  0.26140000  1.0 -0.1324181428
C  C156  1  0.40420000  0.09030000  0.23860000  1.0 -0.1324181428
C  C157  1  0.41190000  0.45080000  0.72010000  1.0 -0.1495091296
C  C158  1  0.58810000  0.95080000  0.77990000  1.0 -0.1495091296
C  C159  1  0.58810000  0.54920000  0.27990000  1.0 -0.1495091296
C  C160  1  0.41190000  0.04920000  0.22010000  1.0 -0.1495091296
C  C161  1  0.31350000  0.47530000  0.69320000  1.0 0.092065484
C  C162  1  0.68650000  0.97530000  0.80680000  1.0 0.092065484
C  C163  1  0.68650000  0.52470000  0.30680000  1.0 0.092065484
C  C164  1  0.31350000  0.02470000  0.19320000  1.0 0.092065484
C  C165  1  0.31750000  0.51730000  0.67310000  1.0 -0.225473594
C  C166  1  0.68250000  0.01730000  0.82690000  1.0 -0.225473594
C  C167  1  0.68250000  0.48270000  0.32690000  1.0 -0.225473594
C  C168  1  0.31750000  0.98270000  0.17310000  1.0 -0.225473594
C  C169  1  0.22100000  0.54040000  0.64520000  1.0 -0.0107694054
C  C170  1  0.77900000  0.04040000  0.85480000  1.0 -0.0107694054
C  C171  1  0.77900000  0.45960000  0.35480000  1.0 -0.0107694054
C  C172  1  0.22100000  0.95960000  0.14520000  1.0 -0.0215464686
C  C173  1  0.11310000  0.52140000  0.63650000  1.0 -0.1711659726
C  C174  1  0.88690000  0.02140000  0.86350000  1.0 -0.1711659726
C  C175  1  0.88690000  0.47860000  0.36350000  1.0 -0.1711659726
C  C176  1  0.11310000  0.97860000  0.13650000  1.0 -0.1711659726
C  C177  1  0.10410000  0.48080000  0.65510000  1.0 -0.1423505239
C  C178  1  0.89590000  0.98080000  0.84490000  1.0 -0.1423505239
C  C179  1  0.89590000  0.51920000  0.34490000  1.0 -0.1423505239
C  C180  1  0.10410000  0.01920000  0.15510000  1.0 -0.1423505239
C  C181  1  0.20380000  0.45680000  0.68420000  1.0 0.092065484
C  C182  1  0.79620000  0.95680000  0.81580000  1.0 0.092065484
C  C183  1  0.79620000  0.54320000  0.31580000  1.0 0.092065484
C  C184  1  0.20380000  0.04320000  0.18420000  1.0 0.092065484
C  C185  1  0.19680000  0.41470000  0.70420000  1.0 -0.1601666325
C  C186  1  0.80320000  0.91470000  0.79580000  1.0 -0.1601666325
C  C187  1  0.80320000  0.58530000  0.29580000  1.0 -0.1601666325
C  C188  1  0.19680000  0.08530000  0.20420000  1.0 -0.1601666325
C  C189  1  0.22300000  0.58370000  0.61910000  1.0 0.3102661258
C  C190  1  0.77700000  0.08370000  0.88090000  1.0 0.3102661258
C  C191  1  0.77700000  0.41630000  0.38090000  1.0 0.3102661258
C  C192  1  0.22300000  0.91630000  0.11910000  1.0 0.3102661258
C  C193  1  0.93890000  0.14980000  0.03200000  1.0 0.5622567347
C  C194  1  0.06110000  0.64980000  0.46800000  1.0 0.5622567347
C  C195  1  0.06110000  0.85020000  0.96800000  1.0 0.5622567347
C  C196  1  0.93890000  0.35020000  0.53200000  1.0 0.5622567347
C  C197  1  0.06030000  0.14860000  0.03200000  1.0 -0.0296966919
C  C198  1  0.93970000  0.64860000  0.46800000  1.0 -0.0296966919
C  C199  1  0.93970000  0.85140000  0.96800000  1.0 -0.0296966919
C  C200  1  0.06030000  0.35140000  0.53200000  1.0 -0.0296966919
C  C201  1  0.08200000  0.15420000  0.98420000  1.0 -0.1711659726
C  C202  1  0.91800000  0.65420000  0.51580000  1.0 -0.1711659726
C  C203  1  0.91800000  0.84580000  0.01580000  1.0 -0.1711659726
C  C204  1  0.08200000  0.34580000  0.48420000  1.0 -0.1711659726
C  C205  1  0.19620000  0.15250000  0.98420000  1.0 0.079862862
C  C206  1  0.80380000  0.65250000  0.51580000  1.0 0.079862862
C  C207  1  0.80380000  0.84750000  0.01580000  1.0 0.079862862
C  C208  1  0.19620000  0.34750000  0.48420000  1.0 0.079862862
C  C209  1  0.22090000  0.15810000  0.93560000  1.0 -0.1495091296
C  C210  1  0.77910000  0.65810000  0.56440000  1.0 -0.1495091296
C  C211  1  0.77910000  0.84190000  0.06440000  1.0 -0.1495091296
C  C212  1  0.22090000  0.34190000  0.43560000  1.0 -0.1495091296
C  C213  1  0.33240000  0.15720000  0.93670000  1.0 -0.1046202929
C  C214  1  0.66760000  0.65720000  0.56330000  1.0 -0.1046202929
C  C215  1  0.66760000  0.84280000  0.06330000  1.0 -0.1046202929
C  C216  1  0.33240000  0.34280000  0.43670000  1.0 -0.1046202929
C  C217  1  0.42530000  0.15110000  0.98640000  1.0 -0.0296966919
C  C218  1  0.57470000  0.65110000  0.51360000  1.0 -0.0296966919
C  C219  1  0.57470000  0.84890000  0.01360000  1.0 -0.0296966919
C  C220  1  0.42530000  0.34890000  0.48640000  1.0 -0.0296966919
C  C221  1  0.40420000  0.14460000  0.03390000  1.0 -0.1790692189
C  C222  1  0.59580000  0.64460000  0.46610000  1.0 -0.1790692189
C  C223  1  0.59580000  0.85540000  0.96610000  1.0 -0.1790692189
C  C224  1  0.40420000  0.35540000  0.53390000  1.0 -0.1790692189
C  C225  1  0.28850000  0.14510000  0.03420000  1.0 0.079862862
C  C226  1  0.71150000  0.64510000  0.46580000  1.0 0.079862862
C  C227  1  0.71150000  0.85490000  0.96580000  1.0 0.079862862
C  C228  1  0.28850000  0.35490000  0.53420000  1.0 0.079862862
C  C229  1  0.26430000  0.13880000  0.08270000  1.0 -0.1601666325
C  C230  1  0.73570000  0.63880000  0.41730000  1.0 -0.1601666325
C  C231  1  0.73570000  0.86120000  0.91730000  1.0 -0.1601666325
C  C232  1  0.26430000  0.36120000  0.58270000  1.0 -0.1601666325
C  C233  1  0.15220000  0.14060000  0.08130000  1.0 -0.1068499816
C  C234  1  0.84780000  0.64060000  0.41870000  1.0 -0.1068499816
C  C235  1  0.84780000  0.85940000  0.91870000  1.0 -0.1068499816
C  C236  1  0.15220000  0.35940000  0.58130000  1.0 -0.1068499816
C  C237  1  0.54780000  0.15150000  0.98850000  1.0 0.5622567347
C  C238  1  0.45220000  0.65150000  0.51150000  1.0 0.5622567347
C  C239  1  0.45220000  0.84850000  0.01150000  1.0 0.5622567347
C  C240  1  0.54780000  0.34850000  0.48850000  1.0 0.5622567347
C  C241  1  0.25500000  0.93670000  0.86700000  1.0 0.3238768263
C  C242  1  0.74500000  0.43670000  0.63300000  1.0 0.3238768263
C  C243  1  0.74500000  0.06330000  0.13300000  1.0 0.3238768263
C  C244  1  0.25500000  0.56330000  0.36700000  1.0 0.3238768263
C  C245  1  0.25900000  0.58260000  0.62600000  1.0 0.3102661258
C  C246  1  0.74100000  0.08260000  0.87400000  1.0 0.3102661258
C  C247  1  0.74100000  0.41740000  0.37400000  1.0 0.3102661258
C  C248  1  0.25900000  0.91740000  0.12600000  1.0 0.3102661258
N  N1  1  0.55090000  0.25248000  0.83130000  1.0 -0.1898797761
N  N2  1  0.44910000  0.75248000  0.66870000  1.0 -0.1898797761
N  N3  1  0.44910000  0.74752000  0.16870000  1.0 -0.1898797761
N  N4  1  0.55090000  0.24752000  0.33130000  1.0 -0.1898797761
N  N5  1  0.69440000  0.20387000  0.89380000  1.0 -0.2114700229
N  N6  1  0.30560000  0.70387000  0.60620000  1.0 -0.2114700229
N  N7  1  0.30560000  0.79613000  0.10620000  1.0 -0.2114700229
N  N8  1  0.69440000  0.29613000  0.39380000  1.0 -0.2114700229
N  N9  1  0.73930000  0.24150000  0.82050000  1.0 -0.1790692189
N  N10  1  0.26070000  0.74150000  0.67950000  1.0 -0.1790692189
N  N11  1  0.26070000  0.75850000  0.17950000  1.0 -0.1790692189
N  N12  1  0.73930000  0.25850000  0.32050000  1.0 -0.1790692189
N  N13  1  0.72550000  0.28251000  0.89810000  1.0 -0.1423505239
N  N14  1  0.27450000  0.78251000  0.60190000  1.0 -0.1423505239
N  N15  1  0.27450000  0.71749000  0.10190000  1.0 -0.1423505239
N  N16  1  0.72550000  0.21749000  0.39810000  1.0 -0.1423505239
N  N17  1  0.94880000  0.27765000  0.70800000  1.0 -0.1898797761
N  N18  1  0.05120000  0.77765000  0.79200000  1.0 -0.1898797761
N  N19  1  0.05120000  0.72235000  0.29200000  1.0 -0.1898797761
N  N20  1  0.94880000  0.22235000  0.20800000  1.0 -0.1898797761
N  N21  1  0.79970000  0.31662000  0.63570000  1.0 -0.2184342892
N  N22  1  0.20030000  0.81662000  0.86430000  1.0 -0.2184342892
N  N23  1  0.20030000  0.68338000  0.36430000  1.0 -0.2184342892
N  N24  1  0.79970000  0.18338000  0.13570000  1.0 -0.2184342892
N  N25  1  0.78240000  0.23820000  0.64640000  1.0 -0.1324181428
N  N26  1  0.21760000  0.73820000  0.85360000  1.0 -0.1324181428
N  N27  1  0.21760000  0.76180000  0.35360000  1.0 -0.1324181428
N  N28  1  0.78240000  0.26180000  0.14640000  1.0 -0.1324181428
N  N29  1  0.75620000  0.28800000  0.71370000  1.0 -0.1790692189
N  N30  1  0.24380000  0.78800000  0.78630000  1.0 -0.1790692189
N  N31  1  0.24380000  0.71200000  0.28630000  1.0 -0.1790692189
N  N32  1  0.75620000  0.21200000  0.21370000  1.0 -0.1790692189
O  O1  1  0.31960000  0.19973000  0.79070000  1.0 -0.54884906
O  O2  1  0.68040000  0.69973000  0.70930000  1.0 -0.54884906
O  O3  1  0.68040000  0.80027000  0.20930000  1.0 -0.54884906
O  O4  1  0.31960000  0.30027000  0.29070000  1.0 -0.54884906
O  O5  1  0.12680000  0.20706000  0.76560000  1.0 -0.54884906
O  O6  1  0.87320000  0.70706000  0.73440000  1.0 -0.54884906
O  O7  1  0.87320000  0.79294000  0.23440000  1.0 -0.54884906
O  O8  1  0.12680000  0.29294000  0.26560000  1.0 -0.54884906
O  O9  1  0.19620000  0.92100000  0.87120000  1.0 -0.0804229059
O  O10  1  0.80380000  0.42100000  0.62880000  1.0 -0.0804229059
O  O11  1  0.80380000  0.07900000  0.12880000  1.0 -0.0804229059
O  O12  1  0.19620000  0.57900000  0.37120000  1.0 -0.0804229059
O  O13  1  0.38250000  0.91510000  0.88750000  1.0 -0.1898797761
O  O14  1  0.61750000  0.41510000  0.61250000  1.0 -0.1898797761
O  O15  1  0.61750000  0.08490000  0.11250000  1.0 -0.1898797761
O  O16  1  0.38250000  0.58490000  0.38750000  1.0 -0.1898797761
O  O17  1  0.34901000  0.25657000  0.71241000  1.0 -0.5258026757
O  O18  1  0.65099000  0.75657000  0.78759000  1.0 -0.5258026757
O  O19  1  0.65099000  0.74343000  0.28759000  1.0 -0.5258026757
O  O20  1  0.34901000  0.24343000  0.21241000  1.0 -0.5258026757
O  O21  1  0.16029000  0.25300000  0.67609000  1.0 -0.5413952707
O  O22  1  0.83971000  0.75300000  0.82391000  1.0 -0.5413952707
O  O23  1  0.83971000  0.74700000  0.32391000  1.0 -0.5413952707
O  O24  1  0.16029000  0.24700000  0.17609000  1.0 -0.5413952707
O  O25  1  0.14748000  0.21533000  0.32518000  1.0 -0.5597086438
O  O26  1  0.85252000  0.71533000  0.17482000  1.0 -0.5597086438
O  O27  1  0.85252000  0.78467000  0.67482000  1.0 -0.5597086438
O  O28  1  0.14748000  0.28467000  0.82518000  1.0 -0.5597086438
O  O29  1  0.33690000  0.23083000  0.36280000  1.0 -0.5597086438
O  O30  1  0.66310000  0.73083000  0.13720000  1.0 -0.5597086438
O  O31  1  0.66310000  0.76917000  0.63720000  1.0 -0.5597086438
O  O32  1  0.33690000  0.26917000  0.86280000  1.0 -0.5597086438
O  O33  1  0.37397000  0.32791000  0.78047000  1.0 -0.5413952707
O  O34  1  0.62603000  0.82791000  0.71953000  1.0 -0.5413952707
O  O35  1  0.62603000  0.67209000  0.21953000  1.0 -0.5413952707
O  O36  1  0.37397000  0.17209000  0.28047000  1.0 -0.5413952707
O  O37  1  0.18240000  0.33063000  0.73600000  1.0 -0.54884906
O  O38  1  0.81760000  0.83063000  0.76400000  1.0 -0.54884906
O  O39  1  0.81760000  0.66937000  0.26400000  1.0 -0.54884906
O  O40  1  0.18240000  0.16937000  0.23600000  1.0 -0.54884906
O  O41  1  0.12580000  0.60420000  0.60320000  1.0 -0.1898797761
O  O42  1  0.87420000  0.10420000  0.89680000  1.0 -0.1898797761
O  O43  1  0.87420000  0.39580000  0.39680000  1.0 -0.1898797761
O  O44  1  0.12580000  0.89580000  0.10320000  1.0 -0.1898797761
O  O45  1  0.31440000  0.59590000  0.61660000  1.0 -0.0706990698
O  O46  1  0.68560000  0.09590000  0.88340000  1.0 -0.0706990698
O  O47  1  0.68560000  0.40410000  0.38340000  1.0 -0.0706990698
O  O48  1  0.31440000  0.90410000  0.11660000  1.0 -0.0706990698
O  O49  1  0.86130000  0.16596000  0.99080000  1.0 -0.5908845552
O  O50  1  0.13870000  0.66596000  0.50920000  1.0 -0.5908845552
O  O51  1  0.13870000  0.83404000  0.00920000  1.0 -0.5908845552
O  O52  1  0.86130000  0.33404000  0.49080000  1.0 -0.5908845552
O  O53  1  0.92305000  0.13515000  0.07305000  1.0 -0.5413952707
O  O54  1  0.07695000  0.63515000  0.42695000  1.0 -0.5413952707
O  O55  1  0.07695000  0.86485000  0.92695000  1.0 -0.5413952707
O  O56  1  0.92305000  0.36485000  0.57305000  1.0 -0.5413952707
O  O57  1  0.62710000  0.15999000  0.03150000  1.0 -0.5597086438
O  O58  1  0.37290000  0.65999000  0.46850000  1.0 -0.5597086438
O  O59  1  0.37290000  0.84001000  0.96850000  1.0 -0.5597086438
O  O60  1  0.62710000  0.34001000  0.53150000  1.0 -0.5597086438
O  O61  1  0.56200000  0.14480000  0.94300000  1.0 -0.5694356897
O  O62  1  0.43800000  0.64480000  0.55700000  1.0 -0.5694356897
O  O63  1  0.43800000  0.85520000  0.05700000  1.0 -0.5694356897
O  O64  1  0.56200000  0.35520000  0.44300000  1.0 -0.5694356897
O  O65  1  0.15600000  0.92010000  0.85500000  1.0 -0.1324181428
O  O66  1  0.84400000  0.42010000  0.64500000  1.0 -0.1324181428
O  O67  1  0.84400000  0.07990000  0.14500000  1.0 -0.1324181428
O  O68  1  0.15600000  0.57990000  0.35500000  1.0 -0.1324181428
O  O69  1  0.32990000  0.91350000  0.89990000  1.0 -0.0874993343
O  O70  1  0.67010000  0.41350000  0.60010000  1.0 -0.0874993343
O  O71  1  0.67010000  0.08650000  0.10010000  1.0 -0.0804229059
O  O72  1  0.32990000  0.58650000  0.39990000  1.0 -0.0874993343
O  O73  1  0.18110000  0.60510000  0.59410000  1.0 -0.0602258354
O  O74  1  0.81890000  0.10510000  0.90590000  1.0 -0.0602258354
O  O75  1  0.81890000  0.39490000  0.40590000  1.0 -0.0602258354
O  O76  1  0.18110000  0.89490000  0.09410000  1.0 -0.0602258354
O  O77  1  0.35880000  0.60160000  0.64280000  1.0 -0.1423505239
O  O78  1  0.64120000  0.10160000  0.85720000  1.0 -0.1423505239
O  O79  1  0.64120000  0.39840000  0.35720000  1.0 -0.1423505239
O  O80  1  0.35880000  0.89840000  0.14280000  1.0 -0.1423505239
