# DDEC6 charges by PACMAN v1.1 (https://github.com/mtap-research/PACMAN-charge/)
data_BIPBAF_ASR_pacman
_symmetry_space_group_name_H-M   'P 1'
_cell_length_a   23.37500000
_cell_length_b   18.69200000
_cell_length_c   32.32900000
_cell_angle_alpha   90.00000000
_cell_angle_beta   117.40500000
_cell_angle_gamma   90.00000000
_symmetry_Int_Tables_number   1
_chemical_formula_structural   Cu3H11(C13O7)2
_chemical_formula_sum   'Cu24 H88 C208 O112'
_cell_volume   12540.14859195
_cell_formula_units_Z   8
loop_
 _symmetry_equiv_pos_site_id
 _symmetry_equiv_pos_as_xyz
  1  'x, y, z'
loop_
 _atom_site_type_symbol
 _atom_site_label
 _atom_site_symmetry_multiplicity
 _atom_site_fract_x
 _atom_site_fract_y
 _atom_site_fract_z
 _atom_site_occupancy
 _atom_site_charge
Cu  Cu1  1  0.69019000  0.99983000  0.72105000  1.0 0.8478852585
Cu  Cu2  1  0.30981000  0.49983000  0.77895000  1.0 0.8478852585
Cu  Cu3  1  0.30981000  0.00017000  0.27895000  1.0 0.8478852585
Cu  Cu4  1  0.69019000  0.50017000  0.22105000  1.0 0.8478852585
Cu  Cu5  1  0.80829000  0.76593000  0.01478000  1.0 0.8332765922
Cu  Cu6  1  0.19171000  0.26593000  0.48522000  1.0 0.8332765922
Cu  Cu7  1  0.19171000  0.23407000  0.98522000  1.0 0.8332765922
Cu  Cu8  1  0.80829000  0.73407000  0.51478000  1.0 0.8332765922
Cu  Cu9  1  0.69829000  0.27196000  0.01088000  1.0 0.8798077181
Cu  Cu10  1  0.30171000  0.77196000  0.48912000  1.0 0.8798077181
Cu  Cu11  1  0.30171000  0.72804000  0.98912000  1.0 0.8798077181
Cu  Cu12  1  0.69829000  0.22804000  0.51088000  1.0 0.8798077181
Cu  Cu13  1  0.80355000  0.20174000  0.02266000  1.0 0.8588858172
Cu  Cu14  1  0.19645000  0.70174000  0.47734000  1.0 0.8588858172
Cu  Cu15  1  0.19645000  0.79826000  0.97734000  1.0 0.8588858172
Cu  Cu16  1  0.80355000  0.29826000  0.52266000  1.0 0.8588858172
Cu  Cu17  1  0.70415000  0.69658000  0.00348000  1.0 0.8588858172
Cu  Cu18  1  0.29585000  0.19658000  0.49652000  1.0 0.8588858172
Cu  Cu19  1  0.29585000  0.30342000  0.99652000  1.0 0.8588858172
Cu  Cu20  1  0.70415000  0.80342000  0.50348000  1.0 0.8588858172
Cu  Cu21  1  0.79467000  0.99939000  0.80222000  1.0 0.8588858172
Cu  Cu22  1  0.20533000  0.49939000  0.69778000  1.0 0.8588858172
Cu  Cu23  1  0.20533000  0.00061000  0.19778000  1.0 0.8588858172
Cu  Cu24  1  0.79467000  0.50061000  0.30222000  1.0 0.8588858172
H  H1  1  0.73280000  0.13480000  0.87790000  1.0 0.1473443203
H  H2  1  0.26720000  0.63480000  0.62210000  1.0 0.1473443203
H  H3  1  0.26720000  0.86520000  0.12210000  1.0 0.1473443203
H  H4  1  0.73280000  0.36520000  0.37790000  1.0 0.1473443203
H  H5  1  0.58050000  0.15950000  0.75320000  1.0 0.1194580675
H  H6  1  0.41950000  0.65950000  0.74680000  1.0 0.1194580675
H  H7  1  0.41950000  0.84050000  0.24680000  1.0 0.1194580675
H  H8  1  0.58050000  0.34050000  0.25320000  1.0 0.1194580675
H  H9  1  0.58620000  0.26430000  0.86300000  1.0 0.1473443203
H  H10  1  0.41380000  0.76430000  0.63700000  1.0 0.1473443203
H  H11  1  0.41380000  0.73570000  0.13700000  1.0 0.1473443203
H  H12  1  0.58620000  0.23570000  0.36300000  1.0 0.1473443203
H  H13  1  0.41460000  0.32790000  0.75230000  1.0 0.1299003651
H  H14  1  0.58540000  0.82790000  0.74770000  1.0 0.1299003651
H  H15  1  0.58540000  0.67210000  0.24770000  1.0 0.1299003651
H  H16  1  0.41460000  0.17210000  0.25230000  1.0 0.1299003651
H  H17  1  0.25880000  0.34430000  0.62600000  1.0 0.1473443203
H  H18  1  0.74120000  0.84430000  0.87400000  1.0 0.1473443203
H  H19  1  0.74120000  0.65570000  0.37400000  1.0 0.1473443203
H  H20  1  0.25880000  0.15570000  0.12600000  1.0 0.1473443203
H  H21  1  0.40520000  0.21370000  0.64370000  1.0 0.1299003651
H  H22  1  0.59480000  0.71370000  0.85630000  1.0 0.1299003651
H  H23  1  0.59480000  0.78630000  0.35630000  1.0 0.1299003651
H  H24  1  0.40520000  0.28630000  0.14370000  1.0 0.1299003651
H  H25  1  0.59180000  0.87080000  0.00930000  1.0 0.1299003651
H  H26  1  0.40820000  0.37080000  0.49070000  1.0 0.1299003651
H  H27  1  0.40820000  0.12920000  0.99070000  1.0 0.1299003651
H  H28  1  0.59180000  0.62920000  0.50930000  1.0 0.1299003651
H  H29  1  0.58900000  0.08320000  0.01450000  1.0 0.1194580675
H  H30  1  0.41100000  0.58320000  0.48550000  1.0 0.1194580675
H  H31  1  0.41100000  0.91680000  0.98550000  1.0 0.1194580675
H  H32  1  0.58900000  0.41680000  0.51450000  1.0 0.1194580675
H  H33  1  0.74890000  0.98210000  0.02690000  1.0 0.1299003651
H  H34  1  0.25110000  0.48210000  0.47310000  1.0 0.1299003651
H  H35  1  0.25110000  0.01790000  0.97310000  1.0 0.1299003651
H  H36  1  0.74890000  0.51790000  0.52690000  1.0 0.1299003651
H  H37  1  0.76660000  0.48240000  0.00200000  1.0 0.1299003651
H  H38  1  0.23340000  0.98240000  0.49800000  1.0 0.1299003651
H  H39  1  0.23340000  0.51760000  0.99800000  1.0 0.1299003651
H  H40  1  0.76660000  0.01760000  0.50200000  1.0 0.1299003651
H  H41  1  0.91570000  0.58500000  0.99830000  1.0 0.1194580675
H  H42  1  0.08430000  0.08500000  0.50170000  1.0 0.1299003651
H  H43  1  0.08430000  0.41500000  0.00170000  1.0 0.1299003651
H  H44  1  0.91570000  0.91500000  0.49830000  1.0 0.1299003651
H  H45  1  0.91110000  0.37120000  0.00250000  1.0 0.1299003651
H  H46  1  0.08890000  0.87120000  0.49750000  1.0 0.1299003651
H  H47  1  0.08890000  0.62880000  0.99750000  1.0 0.1299003651
H  H48  1  0.91110000  0.12880000  0.50250000  1.0 0.1299003651
H  H49  1  0.75190000  0.34180000  0.15020000  1.0 0.1422715857
H  H50  1  0.24810000  0.84180000  0.34980000  1.0 0.1473443203
H  H51  1  0.24810000  0.65820000  0.84980000  1.0 0.1473443203
H  H52  1  0.75190000  0.15820000  0.65020000  1.0 0.1422715857
H  H53  1  0.90530000  0.34410000  0.27610000  1.0 0.1473443203
H  H54  1  0.09470000  0.84410000  0.22390000  1.0 0.1473443203
H  H55  1  0.09470000  0.65590000  0.72390000  1.0 0.1473443203
H  H56  1  0.90530000  0.15590000  0.77610000  1.0 0.1473443203
H  H57  1  0.91120000  0.23430000  0.17290000  1.0 0.1194580675
H  H58  1  0.08880000  0.73430000  0.32710000  1.0 0.1194580675
H  H59  1  0.08880000  0.76570000  0.82710000  1.0 0.1194580675
H  H60  1  0.91120000  0.26570000  0.67290000  1.0 0.1194580675
H  H61  1  0.08010000  0.24090000  0.33610000  1.0 0.1299003651
H  H62  1  0.91990000  0.74090000  0.16390000  1.0 0.1299003651
H  H63  1  0.91990000  0.75910000  0.66390000  1.0 0.1299003651
H  H64  1  0.08010000  0.25910000  0.83610000  1.0 0.1299003651
H  H65  1  0.24220000  0.14140000  0.35480000  1.0 0.1422715857
H  H66  1  0.75780000  0.64140000  0.14520000  1.0 0.1422715857
H  H67  1  0.75780000  0.85860000  0.64520000  1.0 0.1422715857
H  H68  1  0.24220000  0.35860000  0.85480000  1.0 0.1422715857
H  H69  1  0.08690000  0.14160000  0.22860000  1.0 0.1299003651
H  H70  1  0.91310000  0.64160000  0.27140000  1.0 0.1299003651
H  H71  1  0.91310000  0.85840000  0.77140000  1.0 0.1299003651
H  H72  1  0.08690000  0.35840000  0.72860000  1.0 0.1299003651
H  H73  1  0.47600000  0.18000000  0.72370000  1.0 0.1194580675
H  H74  1  0.52400000  0.68000000  0.77630000  1.0 0.1194580675
H  H75  1  0.52400000  0.82000000  0.27630000  1.0 0.1194580675
H  H76  1  0.47600000  0.32000000  0.22370000  1.0 0.1194580675
H  H77  1  0.50790000  0.25190000  0.72060000  1.0 0.1473443203
H  H78  1  0.49210000  0.75190000  0.77940000  1.0 0.1473443203
H  H79  1  0.49210000  0.74810000  0.27940000  1.0 0.1473443203
H  H80  1  0.50790000  0.24810000  0.22060000  1.0 0.1473443203
H  H81  1  0.01460000  0.25120000  0.22220000  1.0 0.1299003651
H  H82  1  0.98540000  0.75120000  0.27780000  1.0 0.1299003651
H  H83  1  0.98540000  0.74880000  0.77780000  1.0 0.1299003651
H  H84  1  0.01460000  0.24880000  0.72220000  1.0 0.1299003651
H  H85  1  0.99000000  0.17630000  0.22850000  1.0 0.1062038633
H  H86  1  0.01000000  0.67630000  0.27150000  1.0 0.1062038633
H  H87  1  0.01000000  0.82370000  0.77150000  1.0 0.1062038633
H  H88  1  0.99000000  0.32370000  0.72850000  1.0 0.1062038633
C  C1  1  0.69610000  0.21750000  0.92920000  1.0 0.5789052819
C  C2  1  0.30390000  0.71750000  0.57080000  1.0 0.5789052819
C  C3  1  0.30390000  0.78250000  0.07080000  1.0 0.5789052819
C  C4  1  0.69610000  0.28250000  0.42920000  1.0 0.5789052819
C  C5  1  0.66640000  0.20410000  0.87900000  1.0 -0.0214201151
C  C6  1  0.33360000  0.70410000  0.62100000  1.0 -0.0214201151
C  C7  1  0.33360000  0.79590000  0.12100000  1.0 -0.0214201151
C  C8  1  0.66640000  0.29590000  0.37900000  1.0 -0.0214201151
C  C9  1  0.69330000  0.15650000  0.85926000  1.0 -0.1331004314
C  C10  1  0.30670000  0.65650000  0.64074000  1.0 -0.1331004314
C  C11  1  0.30670000  0.84350000  0.14074000  1.0 -0.1331004314
C  C12  1  0.69330000  0.34350000  0.35926000  1.0 -0.1331004314
C  C13  1  0.66180000  0.14190000  0.81300000  1.0 0.0062780523
C  C14  1  0.33820000  0.64190000  0.68700000  1.0 0.0062780523
C  C15  1  0.33820000  0.85810000  0.18700000  1.0 0.0062780523
C  C16  1  0.66180000  0.35810000  0.31300000  1.0 0.0062780523
C  C17  1  0.69130000  0.08700000  0.79400000  1.0 0.5789052819
C  C18  1  0.30870000  0.58700000  0.70600000  1.0 0.5789052819
C  C19  1  0.30870000  0.91300000  0.20600000  1.0 0.5789052819
C  C20  1  0.69130000  0.41300000  0.29400000  1.0 0.5789052819
C  C21  1  0.60180000  0.17160000  0.78460000  1.0 -0.2701137885
C  C22  1  0.39820000  0.67160000  0.71540000  1.0 -0.2701137885
C  C23  1  0.39820000  0.82840000  0.21540000  1.0 -0.2701137885
C  C24  1  0.60180000  0.32840000  0.28460000  1.0 -0.2701137885
C  C25  1  0.57320000  0.21900000  0.80270000  1.0 0.2706757798
C  C26  1  0.42680000  0.71900000  0.69730000  1.0 0.2706757798
C  C27  1  0.42680000  0.78100000  0.19730000  1.0 0.2706757798
C  C28  1  0.57320000  0.28100000  0.30270000  1.0 0.2706757798
C  C29  1  0.60530000  0.23400000  0.85010000  1.0 -0.250812158
C  C30  1  0.39470000  0.73400000  0.64990000  1.0 -0.250812158
C  C31  1  0.39470000  0.76600000  0.14990000  1.0 -0.250812158
C  C32  1  0.60530000  0.26600000  0.35010000  1.0 -0.250812158
C  C33  1  0.41790000  0.26010000  0.70370000  1.0 -0.0214201151
C  C34  1  0.58210000  0.76010000  0.79630000  1.0 -0.0214201151
C  C35  1  0.58210000  0.73990000  0.29630000  1.0 -0.0214201151
C  C36  1  0.41790000  0.23990000  0.20370000  1.0 -0.0214201151
C  C37  1  0.39210000  0.31310000  0.72142000  1.0 -0.176516285
C  C38  1  0.60790000  0.81310000  0.77858000  1.0 -0.176516285
C  C39  1  0.60790000  0.68690000  0.27858000  1.0 -0.176516285
C  C40  1  0.39210000  0.18690000  0.22142000  1.0 -0.176516285
C  C41  1  0.33210000  0.34310000  0.69180000  1.0 -0.0214201151
C  C42  1  0.66790000  0.84310000  0.80820000  1.0 -0.0214201151
C  C43  1  0.66790000  0.65690000  0.30820000  1.0 -0.0214201151
C  C44  1  0.33210000  0.15690000  0.19180000  1.0 -0.0214201151
C  C45  1  0.30460000  0.40140000  0.70880000  1.0 0.5789052819
C  C46  1  0.69540000  0.90140000  0.79120000  1.0 0.5789052819
C  C47  1  0.69540000  0.59860000  0.29120000  1.0 0.5789052819
C  C48  1  0.30460000  0.09860000  0.20880000  1.0 0.5789052819
C  C49  1  0.29880000  0.32430000  0.64514000  1.0 -0.1097987459
C  C50  1  0.70120000  0.82430000  0.85486000  1.0 -0.1097987459
C  C51  1  0.70120000  0.67570000  0.35486000  1.0 -0.1097987459
C  C52  1  0.29880000  0.17570000  0.14514000  1.0 -0.1097987459
C  C53  1  0.32630000  0.27540000  0.62780000  1.0 -0.0120043377
C  C54  1  0.67370000  0.77540000  0.87220000  1.0 -0.0120043377
C  C55  1  0.67370000  0.72460000  0.37220000  1.0 -0.0120043377
C  C56  1  0.32630000  0.22460000  0.12780000  1.0 -0.0120043377
C  C57  1  0.29220000  0.25560000  0.57680000  1.0 0.5722621694
C  C58  1  0.70780000  0.75560000  0.92320000  1.0 0.5722621694
C  C59  1  0.70780000  0.74440000  0.42320000  1.0 0.5722621694
C  C60  1  0.29220000  0.24440000  0.07680000  1.0 0.5722621694
C  C61  1  0.38640000  0.24460000  0.65644000  1.0 -0.1704307542
C  C62  1  0.61360000  0.74460000  0.84356000  1.0 -0.1704307542
C  C63  1  0.61360000  0.75540000  0.34356000  1.0 -0.1704307542
C  C64  1  0.38640000  0.25540000  0.15644000  1.0 -0.1704307542
C  C65  1  0.70810000  0.84760000  0.01580000  1.0 0.5722621694
C  C66  1  0.29190000  0.34760000  0.48420000  1.0 0.5722621694
C  C67  1  0.29190000  0.15240000  0.98420000  1.0 0.5722621694
C  C68  1  0.70810000  0.65240000  0.51580000  1.0 0.5722621694
C  C69  1  0.67570000  0.91510000  0.01720000  1.0 -0.0497598221
C  C70  1  0.32430000  0.41510000  0.48280000  1.0 -0.0497598221
C  C71  1  0.32430000  0.08490000  0.98280000  1.0 -0.0497598221
C  C72  1  0.67570000  0.58490000  0.51720000  1.0 -0.0497598221
C  C73  1  0.61290000  0.91390000  0.01180000  1.0 -0.120546446
C  C74  1  0.38710000  0.41390000  0.48820000  1.0 -0.120546446
C  C75  1  0.38710000  0.08610000  0.98820000  1.0 -0.120546446
C  C76  1  0.61290000  0.58610000  0.51180000  1.0 -0.120546446
C  C77  1  0.58180000  0.98020000  0.01030000  1.0 0.0898779742
C  C78  1  0.41820000  0.48020000  0.48970000  1.0 0.0898779742
C  C79  1  0.41820000  0.01980000  0.98970000  1.0 0.0898779742
C  C80  1  0.58180000  0.51980000  0.51030000  1.0 0.0898779742
C  C81  1  0.61060000  0.04120000  0.01480000  1.0 -0.120546446
C  C82  1  0.38940000  0.54120000  0.48520000  1.0 -0.1097987459
C  C83  1  0.38940000  0.95880000  0.98520000  1.0 -0.1097987459
C  C84  1  0.61060000  0.45880000  0.51480000  1.0 -0.120546446
C  C85  1  0.67460000  0.04510000  0.02030000  1.0 -0.0302284619
C  C86  1  0.32540000  0.54510000  0.47970000  1.0 -0.0302284619
C  C87  1  0.32540000  0.95490000  0.97970000  1.0 -0.0302284619
C  C88  1  0.67460000  0.45490000  0.52030000  1.0 -0.0302284619
C  C89  1  0.70660000  0.98090000  0.02220000  1.0 -0.0907737459
C  C90  1  0.29340000  0.48090000  0.47780000  1.0 -0.0907737459
C  C91  1  0.29340000  0.01910000  0.97780000  1.0 -0.0907737459
C  C92  1  0.70660000  0.51910000  0.52220000  1.0 -0.0907737459
C  C93  1  0.70520000  0.11600000  0.02220000  1.0 0.5789052819
C  C94  1  0.29480000  0.61600000  0.47780000  1.0 0.5789052819
C  C95  1  0.29480000  0.88400000  0.97780000  1.0 0.5789052819
C  C96  1  0.70520000  0.38400000  0.52220000  1.0 0.5789052819
C  C97  1  0.83560000  0.41620000  0.00400000  1.0 -0.0302284619
C  C98  1  0.16440000  0.91620000  0.49600000  1.0 -0.0302284619
C  C99  1  0.16440000  0.58380000  0.99600000  1.0 -0.0302284619
C  C100  1  0.83560000  0.08380000  0.50400000  1.0 -0.0302284619
C  C101  1  0.80460000  0.34770000  0.00750000  1.0 0.5789052819
C  C102  1  0.19540000  0.84770000  0.49250000  1.0 0.5789052819
C  C103  1  0.19540000  0.65230000  0.99250000  1.0 0.5789052819
C  C104  1  0.80460000  0.15230000  0.50750000  1.0 0.5789052819
C  C105  1  0.80650000  0.48130000  0.00220000  1.0 -0.0965950147
C  C106  1  0.19350000  0.98130000  0.49780000  1.0 -0.0965950147
C  C107  1  0.19350000  0.51870000  0.99780000  1.0 -0.0965950147
C  C108  1  0.80650000  0.01870000  0.50220000  1.0 -0.0965950147
C  C109  1  0.83600000  0.54490000  0.00070000  1.0 -0.0302284619
C  C110  1  0.16400000  0.04490000  0.49930000  1.0 -0.0302284619
C  C111  1  0.16400000  0.45510000  0.99930000  1.0 -0.0302284619
C  C112  1  0.83600000  0.95510000  0.50070000  1.0 -0.0302284619
C  C113  1  0.80510000  0.61510000  0.00130000  1.0 0.5789052819
C  C114  1  0.19490000  0.11510000  0.49870000  1.0 0.5789052819
C  C115  1  0.19490000  0.38490000  0.99870000  1.0 0.5789052819
C  C116  1  0.80510000  0.88490000  0.50130000  1.0 0.5789052819
C  C117  1  0.89560000  0.54320000  0.00040000  1.0 -0.120546446
C  C118  1  0.10440000  0.04320000  0.49960000  1.0 -0.120546446
C  C119  1  0.10440000  0.45680000  0.99960000  1.0 -0.120546446
C  C120  1  0.89560000  0.95680000  0.50040000  1.0 -0.120546446
C  C121  1  0.92440000  0.47480000  0.00330000  1.0 0.098751232
C  C122  1  0.07560000  0.97480000  0.49670000  1.0 0.098751232
C  C123  1  0.07560000  0.52520000  0.99670000  1.0 0.098751232
C  C124  1  0.92440000  0.02520000  0.50330000  1.0 0.098751232
C  C125  1  0.89290000  0.41510000  0.00320000  1.0 -0.1097987459
C  C126  1  0.10710000  0.91510000  0.49680000  1.0 -0.1097987459
C  C127  1  0.10710000  0.58490000  0.99680000  1.0 -0.1097987459
C  C128  1  0.89290000  0.08490000  0.50320000  1.0 -0.1097987459
C  C129  1  0.98500000  0.47000000  0.00040000  1.0 -0.0907737459
C  C130  1  0.01500000  0.97000000  0.49960000  1.0 -0.0907737459
C  C131  1  0.01500000  0.53000000  0.99960000  1.0 -0.0907737459
C  C132  1  0.98500000  0.03000000  0.50040000  1.0 -0.0907737459
C  C133  1  0.51630000  0.96880000  0.00310000  1.0 -0.0497598221
C  C134  1  0.48370000  0.46880000  0.49690000  1.0 -0.0497598221
C  C135  1  0.48370000  0.03120000  0.99690000  1.0 -0.0497598221
C  C136  1  0.51630000  0.53120000  0.50310000  1.0 -0.0497598221
C  C137  1  0.79390000  0.32770000  0.16996000  1.0 -0.1401380461
C  C138  1  0.20610000  0.82770000  0.33004000  1.0 -0.1452248618
C  C139  1  0.20610000  0.67230000  0.83004000  1.0 -0.1401380461
C  C140  1  0.79390000  0.17230000  0.66996000  1.0 -0.1401380461
C  C141  1  0.82280000  0.35140000  0.21593000  1.0 -0.0120043377
C  C142  1  0.17720000  0.85140000  0.28407000  1.0 -0.0120043377
C  C143  1  0.17720000  0.64860000  0.78407000  1.0 -0.0120043377
C  C144  1  0.82280000  0.14860000  0.71593000  1.0 -0.0120043377
C  C145  1  0.79240000  0.40460000  0.23410000  1.0 0.5789052819
C  C146  1  0.20760000  0.90460000  0.26590000  1.0 0.5789052819
C  C147  1  0.20760000  0.59540000  0.76590000  1.0 0.5789052819
C  C148  1  0.79240000  0.09540000  0.73410000  1.0 0.5789052819
C  C149  1  0.88470000  0.32840000  0.24530000  1.0 -0.2283172831
C  C150  1  0.11530000  0.82840000  0.25470000  1.0 -0.2283172831
C  C151  1  0.11530000  0.67160000  0.75470000  1.0 -0.2283172831
C  C152  1  0.88470000  0.17160000  0.74530000  1.0 -0.2283172831
C  C153  1  0.91600000  0.28200000  0.22920000  1.0 0.2706757798
C  C154  1  0.08400000  0.78200000  0.27080000  1.0 0.2774839873
C  C155  1  0.08400000  0.71800000  0.77080000  1.0 0.2774839873
C  C156  1  0.91600000  0.21800000  0.72920000  1.0 0.2774839873
C  C157  1  0.88810000  0.26250000  0.18370000  1.0 -0.2607373894
C  C158  1  0.11190000  0.76250000  0.31630000  1.0 -0.2607373894
C  C159  1  0.11190000  0.73750000  0.81630000  1.0 -0.2607373894
C  C160  1  0.88810000  0.23750000  0.68370000  1.0 -0.2607373894
C  C161  1  0.07710000  0.19950000  0.27780000  1.0 0.0021524436
C  C162  1  0.92290000  0.69950000  0.22220000  1.0 0.0021524436
C  C163  1  0.92290000  0.80050000  0.72220000  1.0 0.0021524436
C  C164  1  0.07710000  0.30050000  0.77780000  1.0 0.0021524436
C  C165  1  0.10330000  0.21500000  0.32430000  1.0 -0.1401380461
C  C166  1  0.89670000  0.71500000  0.17570000  1.0 -0.1401380461
C  C167  1  0.89670000  0.78500000  0.67570000  1.0 -0.1401380461
C  C168  1  0.10330000  0.28500000  0.82430000  1.0 -0.1401380461
C  C169  1  0.16610000  0.19090000  0.35371000  1.0 -0.0497598221
C  C170  1  0.83390000  0.69090000  0.14629000  1.0 -0.0497598221
C  C171  1  0.83390000  0.80910000  0.64629000  1.0 -0.0497598221
C  C172  1  0.16610000  0.30910000  0.85371000  1.0 -0.0497598221
C  C173  1  0.19510000  0.20850000  0.40300000  1.0 0.5722621694
C  C174  1  0.80490000  0.70850000  0.09700000  1.0 0.5722621694
C  C175  1  0.80490000  0.79150000  0.59700000  1.0 0.5789052819
C  C176  1  0.19510000  0.29150000  0.90300000  1.0 0.5722621694
C  C177  1  0.19960000  0.15390000  0.33550000  1.0 -0.0907737459
C  C178  1  0.80040000  0.65390000  0.16450000  1.0 -0.0907737459
C  C179  1  0.80040000  0.84610000  0.66450000  1.0 -0.0907737459
C  C180  1  0.19960000  0.34610000  0.83550000  1.0 -0.0907737459
C  C181  1  0.17110000  0.13460000  0.28850000  1.0 -0.0214201151
C  C182  1  0.82890000  0.63460000  0.21150000  1.0 -0.0214201151
C  C183  1  0.82890000  0.86540000  0.71150000  1.0 -0.0214201151
C  C184  1  0.17110000  0.36540000  0.78850000  1.0 -0.0214201151
C  C185  1  0.20490000  0.08680000  0.26870000  1.0 0.5722621694
C  C186  1  0.79510000  0.58680000  0.23130000  1.0 0.5789052819
C  C187  1  0.79510000  0.91320000  0.73130000  1.0 0.5789052819
C  C188  1  0.20490000  0.41320000  0.76870000  1.0 0.5789052819
C  C189  1  0.10790000  0.15610000  0.25960000  1.0 -0.176516285
C  C190  1  0.89210000  0.65610000  0.24040000  1.0 -0.176516285
C  C191  1  0.89210000  0.84390000  0.74040000  1.0 -0.1704307542
C  C192  1  0.10790000  0.34390000  0.75960000  1.0 -0.176516285
C  C193  1  0.47840000  0.23080000  0.73056000  1.0 0.0021524436
C  C194  1  0.52160000  0.73080000  0.76944000  1.0 0.0021524436
C  C195  1  0.52160000  0.76920000  0.26944000  1.0 0.0062780523
C  C196  1  0.47840000  0.26920000  0.23056000  1.0 0.0021524436
C  C197  1  0.01230000  0.21920000  0.24500000  1.0 0.0726911369
C  C198  1  0.98770000  0.71920000  0.25500000  1.0 0.0726911369
C  C199  1  0.98770000  0.78080000  0.75500000  1.0 0.0726911369
C  C200  1  0.01230000  0.28080000  0.74500000  1.0 0.0726911369
C  C201  1  0.79750000  0.26160000  0.10280000  1.0 0.5722621694
C  C202  1  0.20250000  0.76160000  0.39720000  1.0 0.5722621694
C  C203  1  0.20250000  0.73840000  0.89720000  1.0 0.5789052819
C  C204  1  0.79750000  0.23840000  0.60280000  1.0 0.5722621694
C  C205  1  0.82530000  0.28380000  0.15260000  1.0 0.0021524436
C  C206  1  0.17470000  0.78380000  0.34740000  1.0 -0.0003547054
C  C207  1  0.17470000  0.71620000  0.84740000  1.0 0.0021524436
C  C208  1  0.82530000  0.21620000  0.65260000  1.0 0.0021524436
O  O1  1  0.74830000  0.35340000  0.00643000  1.0 -0.5569125723
O  O2  1  0.25170000  0.85340000  0.49357000  1.0 -0.5569125723
O  O3  1  0.25170000  0.64660000  0.99357000  1.0 -0.5569125723
O  O4  1  0.74830000  0.14660000  0.50643000  1.0 -0.5569125723
O  O5  1  0.83521000  0.28860000  0.01366000  1.0 -0.528144986
O  O6  1  0.16479000  0.78860000  0.48634000  1.0 -0.528144986
O  O7  1  0.16479000  0.71140000  0.98634000  1.0 -0.528144986
O  O8  1  0.83521000  0.21140000  0.51366000  1.0 -0.528144986
O  O9  1  0.73760000  0.28500000  0.07723000  1.0 -0.538111724
O  O10  1  0.26240000  0.78500000  0.42277000  1.0 -0.538111724
O  O11  1  0.26240000  0.71500000  0.92277000  1.0 -0.538111724
O  O12  1  0.73760000  0.21500000  0.57723000  1.0 -0.538111724
O  O13  1  0.82830000  0.23010000  0.08773000  1.0 -0.469019115
O  O14  1  0.17170000  0.73010000  0.41227000  1.0 -0.469019115
O  O15  1  0.17170000  0.76990000  0.91227000  1.0 -0.469019115
O  O16  1  0.82830000  0.26990000  0.58773000  1.0 -0.469019115
O  O17  1  0.76252000  0.11443000  0.02912000  1.0 -0.528144986
O  O18  1  0.23748000  0.61443000  0.47088000  1.0 -0.5211886446
O  O19  1  0.23748000  0.88557000  0.97088000  1.0 -0.5211886446
O  O20  1  0.76252000  0.38557000  0.52912000  1.0 -0.528144986
O  O21  1  0.67162000  0.17200000  0.01636000  1.0 -0.5537453399
O  O22  1  0.32838000  0.67200000  0.48364000  1.0 -0.5537453399
O  O23  1  0.32838000  0.82800000  0.98364000  1.0 -0.5537453399
O  O24  1  0.67162000  0.32800000  0.51636000  1.0 -0.5537453399
O  O25  1  0.75120000  0.19210000  0.95307000  1.0 -0.5211886446
O  O26  1  0.24880000  0.69210000  0.54693000  1.0 -0.5211886446
O  O27  1  0.24880000  0.80790000  0.04693000  1.0 -0.5211886446
O  O28  1  0.75120000  0.30790000  0.45307000  1.0 -0.5211886446
O  O29  1  0.66740000  0.25510000  0.94560000  1.0 -0.5211886446
O  O30  1  0.33260000  0.75510000  0.55440000  1.0 -0.5211886446
O  O31  1  0.33260000  0.74490000  0.05440000  1.0 -0.5211886446
O  O32  1  0.66740000  0.24490000  0.44560000  1.0 -0.5211886446
O  O33  1  0.75058000  0.61330000  0.00016000  1.0 -0.528144986
O  O34  1  0.24942000  0.11330000  0.49984000  1.0 -0.528144986
O  O35  1  0.24942000  0.38670000  0.99984000  1.0 -0.528144986
O  O36  1  0.75058000  0.88670000  0.50016000  1.0 -0.528144986
O  O37  1  0.83850000  0.67090000  0.00623000  1.0 -0.528144986
O  O38  1  0.16150000  0.17090000  0.49377000  1.0 -0.528144986
O  O39  1  0.16150000  0.32910000  0.99377000  1.0 -0.528144986
O  O40  1  0.83850000  0.82910000  0.50623000  1.0 -0.528144986
O  O41  1  0.73490000  0.42320000  0.20530000  1.0 -0.528144986
O  O42  1  0.26510000  0.92320000  0.29470000  1.0 -0.528144986
O  O43  1  0.26510000  0.57680000  0.79470000  1.0 -0.528144986
O  O44  1  0.73490000  0.07680000  0.70530000  1.0 -0.5211886446
O  O45  1  0.82041000  0.42780000  0.27380000  1.0 -0.5024316647
O  O46  1  0.17959000  0.92780000  0.22620000  1.0 -0.5024316647
O  O47  1  0.17959000  0.57220000  0.72620000  1.0 -0.5024316647
O  O48  1  0.82041000  0.07220000  0.77380000  1.0 -0.5024316647
O  O49  1  0.17620000  0.06620000  0.22831000  1.0 -0.5024316647
O  O50  1  0.82380000  0.56620000  0.27169000  1.0 -0.5024316647
O  O51  1  0.82380000  0.93380000  0.77169000  1.0 -0.5024316647
O  O52  1  0.17620000  0.43380000  0.72831000  1.0 -0.5024316647
O  O53  1  0.26192000  0.06940000  0.29706000  1.0 -0.5109999429
O  O54  1  0.73808000  0.56940000  0.20294000  1.0 -0.5109999429
O  O55  1  0.73808000  0.93060000  0.70294000  1.0 -0.5109999429
O  O56  1  0.26192000  0.43060000  0.79706000  1.0 -0.5109999429
O  O57  1  0.16177000  0.24060000  0.41884000  1.0 -0.5211886446
O  O58  1  0.83823000  0.74060000  0.08116000  1.0 -0.5211886446
O  O59  1  0.83823000  0.75940000  0.58116000  1.0 -0.5211886446
O  O60  1  0.16177000  0.25940000  0.91884000  1.0 -0.5211886446
O  O61  1  0.25294000  0.18670000  0.42961000  1.0 -0.528144986
O  O62  1  0.74706000  0.68670000  0.07039000  1.0 -0.528144986
O  O63  1  0.74706000  0.81330000  0.57039000  1.0 -0.528144986
O  O64  1  0.25294000  0.31330000  0.92961000  1.0 -0.528144986
O  O65  1  0.67480000  0.79250000  0.00927000  1.0 -0.5211886446
O  O66  1  0.32520000  0.29250000  0.49073000  1.0 -0.5211886446
O  O67  1  0.32520000  0.20750000  0.99073000  1.0 -0.5211886446
O  O68  1  0.67480000  0.70750000  0.50927000  1.0 -0.5211886446
O  O69  1  0.76440000  0.85250000  0.02150000  1.0 -0.5109999429
O  O70  1  0.23560000  0.35250000  0.47850000  1.0 -0.5109999429
O  O71  1  0.23560000  0.14750000  0.97850000  1.0 -0.5109999429
O  O72  1  0.76440000  0.64750000  0.52150000  1.0 -0.5109999429
O  O73  1  0.74821000  0.06880000  0.82054000  1.0 -0.5109999429
O  O74  1  0.25179000  0.56880000  0.67946000  1.0 -0.5109999429
O  O75  1  0.25179000  0.93120000  0.17946000  1.0 -0.5109999429
O  O76  1  0.74821000  0.43120000  0.32054000  1.0 -0.5109999429
O  O77  1  0.65931000  0.07300000  0.75129000  1.0 -0.5211886446
O  O78  1  0.34069000  0.57300000  0.74871000  1.0 -0.5211886446
O  O79  1  0.34069000  0.92700000  0.24871000  1.0 -0.5211886446
O  O80  1  0.65931000  0.42700000  0.25129000  1.0 -0.528144986
O  O81  1  0.32799000  0.21680000  0.56428000  1.0 -0.5569125723
O  O82  1  0.67201000  0.71680000  0.93572000  1.0 -0.5569125723
O  O83  1  0.67201000  0.78320000  0.43572000  1.0 -0.5569125723
O  O84  1  0.32799000  0.28320000  0.06428000  1.0 -0.5537453399
O  O85  1  0.23975000  0.27900000  0.55337000  1.0 -0.4625035227
O  O86  1  0.76025000  0.77900000  0.94663000  1.0 -0.4625035227
O  O87  1  0.76025000  0.72100000  0.44663000  1.0 -0.4625035227
O  O88  1  0.23975000  0.22100000  0.05337000  1.0 -0.4625035227
O  O89  1  0.24775000  0.42270000  0.68124000  1.0 -0.528144986
O  O90  1  0.75225000  0.92270000  0.81876000  1.0 -0.528144986
O  O91  1  0.75225000  0.57730000  0.31876000  1.0 -0.528144986
O  O92  1  0.24775000  0.07730000  0.18124000  1.0 -0.528144986
O  O93  1  0.33762000  0.42027000  0.75051000  1.0 -0.528144986
O  O94  1  0.66238000  0.92027000  0.74949000  1.0 -0.528144986
O  O95  1  0.66238000  0.57973000  0.24949000  1.0 -0.528144986
O  O96  1  0.33762000  0.07973000  0.25051000  1.0 -0.528144986
O  O97  1  0.50580000  0.23880000  0.78000000  1.0 0.0427481792
O  O98  1  0.49420000  0.73880000  0.72000000  1.0 0.0427481792
O  O99  1  0.49420000  0.76120000  0.22000000  1.0 0.0576265994
O  O100  1  0.50580000  0.26120000  0.28000000  1.0 0.0481018908
O  O101  1  0.97290000  0.25400000  0.26380000  1.0 -0.0965950147
O  O102  1  0.02710000  0.75400000  0.23620000  1.0 -0.0907737459
O  O103  1  0.02710000  0.74600000  0.73620000  1.0 -0.0907737459
O  O104  1  0.97290000  0.24600000  0.76380000  1.0 -0.0907737459
O  O105  1  0.51490000  0.26260000  0.77230000  1.0 0.0481018908
O  O106  1  0.48510000  0.76260000  0.72770000  1.0 0.0481018908
O  O107  1  0.48510000  0.73740000  0.22770000  1.0 0.0427481792
O  O108  1  0.51490000  0.23740000  0.27230000  1.0 0.0576265994
O  O109  1  0.98640000  0.26900000  0.26160000  1.0 -0.0406591008
O  O110  1  0.01360000  0.76900000  0.23840000  1.0 -0.0550971032
O  O111  1  0.01360000  0.73100000  0.73840000  1.0 -0.0406591008
O  O112  1  0.98640000  0.23100000  0.76160000  1.0 -0.0497598221
