# DDEC6 charges by PACMAN v1.1 (https://github.com/mtap-research/PACMAN-charge/)
data_BIPLIX_FSR_pacman
_symmetry_space_group_name_H-M   'P 1'
_cell_length_a   16.08200000
_cell_length_b   17.07400000
_cell_length_c   27.87800000
_cell_angle_alpha   92.58600000
_cell_angle_beta   105.96900000
_cell_angle_gamma   117.00000000
_symmetry_Int_Tables_number   1
_chemical_formula_structural   Zn3CoH22C42(N3O11)2
_chemical_formula_sum   'Zn12 Co4 H88 C168 N24 O88'
_cell_volume   6426.87241602
_cell_formula_units_Z   4
loop_
 _symmetry_equiv_pos_site_id
 _symmetry_equiv_pos_as_xyz
  1  'x, y, z'
loop_
 _atom_site_type_symbol
 _atom_site_label
 _atom_site_symmetry_multiplicity
 _atom_site_fract_x
 _atom_site_fract_y
 _atom_site_fract_z
 _atom_site_occupancy
 _atom_site_charge
Zn  Zn1  1  0.41551000  0.36207000  0.73604000  1.0 0.9821522287
Zn  Zn2  1  0.58449000  0.63793000  0.26396000  1.0 0.9821522287
Zn  Zn3  1  0.47203000  0.21738000  0.79810000  1.0 1.0905644944
Zn  Zn4  1  0.52797000  0.78262000  0.20190000  1.0 1.0905644944
Zn  Zn5  1  0.28991000  0.23499000  0.80717000  1.0 1.2314896635
Zn  Zn6  1  0.71009000  0.76501000  0.19283000  1.0 1.2314896635
Zn  Zn7  1  0.35300000  0.77531000  0.24348000  1.0 0.9562802366
Zn  Zn8  1  0.64700000  0.22469000  0.75652000  1.0 0.9562802366
Zn  Zn9  1  0.57437000  0.93078000  0.31092000  1.0 1.0258757523
Zn  Zn10  1  0.42563000  0.06922000  0.68908000  1.0 1.0258757523
Zn  Zn11  1  0.07160000  0.55760000  0.60934000  1.0 1.473253136
Zn  Zn12  1  0.92840000  0.44240000  0.39066000  1.0 1.473253136
Co  Co1  1  0.12351000  0.66048000  0.87833000  1.0 0.5761277429
Co  Co2  1  0.87649000  0.33952000  0.12167000  1.0 0.5761277429
Co  Co3  1  0.25804000  0.25439000  0.38569000  1.0 0.571573948
Co  Co4  1  0.74196000  0.74561000  0.61431000  1.0 0.571573948
H  H1  1  0.32040000  0.45560000  0.88620000  1.0 0.1294327165
H  H2  1  0.67960000  0.54440000  0.11380000  1.0 0.1294327165
H  H3  1  0.27190000  0.55180000  0.91550000  1.0 0.139404655
H  H4  1  0.72810000  0.44820000  0.08450000  1.0 0.139404655
H  H5  1  0.25840000  0.64600000  0.78790000  1.0 0.139404655
H  H6  1  0.74160000  0.35400000  0.21210000  1.0 0.139404655
H  H7  1  0.29160000  0.54290000  0.75380000  1.0 0.1294327165
H  H8  1  0.70840000  0.45710000  0.24620000  1.0 0.1294327165
H  H9  1  0.42730000  0.92480000  0.96560000  1.0 0.1498374692
H  H10  1  0.57270000  0.07520000  0.03440000  1.0 0.1498374692
H  H11  1  0.35770000  0.00190000  0.99810000  1.0 0.1294327165
H  H12  1  0.64230000  0.99810000  0.00190000  1.0 0.1294327165
H  H13  1  0.18340000  0.92930000  0.97860000  1.0 0.1498374692
H  H14  1  0.81660000  0.07070000  0.02140000  1.0 0.1498374692
H  H15  1  0.88240000  0.68130000  0.81500000  1.0 0.139404655
H  H16  1  0.11760000  0.31870000  0.18500000  1.0 0.139404655
H  H17  1  0.71610000  0.58100000  0.78160000  1.0 0.1206197722
H  H18  1  0.28390000  0.41900000  0.21840000  1.0 0.1206197722
H  H19  1  0.74730000  0.42990000  0.88280000  1.0 0.1206197722
H  H20  1  0.25270000  0.57010000  0.11720000  1.0 0.1206197722
H  H21  1  0.91750000  0.53170000  0.91850000  1.0 0.139404655
H  H22  1  0.08250000  0.46830000  0.08150000  1.0 0.139404655
H  H23  1  0.13490000  0.67680000  0.08900000  1.0 0.1206197722
H  H24  1  0.86510000  0.32320000  0.91100000  1.0 0.1206197722
H  H25  1  0.05390000  0.61110000  0.00320000  1.0 0.1498374692
H  H26  1  0.94610000  0.38890000  0.99680000  1.0 0.1498374692
H  H27  1  0.31590000  0.67670000  0.98340000  1.0 0.1294327165
H  H28  1  0.68410000  0.32330000  0.01660000  1.0 0.1294327165
H  H29  1  0.39430000  0.74450000  0.06940000  1.0 0.1294327165
H  H30  1  0.60570000  0.25550000  0.93060000  1.0 0.1294327165
H  H31  1  0.96300000  0.33920000  0.84970000  1.0 0.1598188943
H  H32  1  0.03700000  0.66080000  0.15030000  1.0 0.1598188943
H  H33  1  0.89250000  0.32090000  0.76270000  1.0 0.139404655
H  H34  1  0.10750000  0.67910000  0.23730000  1.0 0.139404655
H  H35  1  0.92790000  0.44220000  0.72200000  1.0 0.1598188943
H  H36  1  0.07210000  0.55780000  0.27800000  1.0 0.1598188943
H  H37  1  0.03620000  0.80850000  0.81430000  1.0 0.139404655
H  H38  1  0.96380000  0.19150000  0.18570000  1.0 0.139404655
H  H39  1  0.11780000  0.95910000  0.81120000  1.0 0.139404655
H  H40  1  0.88220000  0.04090000  0.18880000  1.0 0.139404655
H  H41  1  0.34200000  0.93640000  0.78920000  1.0 0.139404655
H  H42  1  0.65800000  0.06360000  0.21080000  1.0 0.139404655
H  H43  1  0.26280000  0.78350000  0.79350000  1.0 0.139404655
H  H44  1  0.73720000  0.21650000  0.20650000  1.0 0.139404655
H  H45  1  0.41940000  0.21170000  0.57910000  1.0 0.139404655
H  H46  1  0.58060000  0.78830000  0.42090000  1.0 0.139404655
H  H47  1  0.40530000  0.20640000  0.49390000  1.0 0.139404655
H  H48  1  0.59470000  0.79360000  0.50610000  1.0 0.139404655
H  H49  1  0.40590000  0.44430000  0.50280000  1.0 0.139404655
H  H50  1  0.59410000  0.55570000  0.49720000  1.0 0.139404655
H  H51  1  0.41130000  0.44320000  0.58760000  1.0 0.1206197722
H  H52  1  0.58870000  0.55680000  0.41240000  1.0 0.1206197722
H  H53  1  0.55570000  0.41440000  0.34480000  1.0 0.1498374692
H  H54  1  0.44430000  0.58560000  0.65520000  1.0 0.1498374692
H  H55  1  0.47760000  0.36610000  0.25720000  1.0 0.139404655
H  H56  1  0.52240000  0.63390000  0.74280000  1.0 0.139404655
H  H57  1  0.30780000  0.27860000  0.22410000  1.0 0.1598188943
H  H58  1  0.69220000  0.72140000  0.77590000  1.0 0.1598188943
H  H59  1  0.04730000  0.02790000  0.31480000  1.0 0.139404655
H  H60  1  0.95270000  0.97210000  0.68520000  1.0 0.139404655
H  H61  1  0.88840000  0.94590000  0.31870000  1.0 0.1498374692
H  H62  1  0.11160000  0.05410000  0.68130000  1.0 0.1498374692
H  H63  1  0.86160000  0.16840000  0.32690000  1.0 0.1294327165
H  H64  1  0.13840000  0.83160000  0.67310000  1.0 0.1294327165
H  H65  1  0.01960000  0.25380000  0.32400000  1.0 0.1498374692
H  H66  1  0.98040000  0.74620000  0.67600000  1.0 0.1498374692
H  H67  1  0.22250000  0.92850000  0.27260000  1.0 0.1294327165
H  H68  1  0.77750000  0.07150000  0.72740000  1.0 0.1294327165
H  H69  1  0.16280000  0.00640000  0.30790000  1.0 0.139404655
H  H70  1  0.83720000  0.99360000  0.69210000  1.0 0.139404655
H  H71  1  0.44310000  0.18720000  0.39510000  1.0 0.1294327165
H  H72  1  0.55690000  0.81280000  0.60490000  1.0 0.1294327165
H  H73  1  0.50280000  0.11430000  0.35290000  1.0 0.1107546887
H  H74  1  0.49720000  0.88570000  0.64710000  1.0 0.1107546887
H  H75  1  0.10590000  0.04260000  0.48300000  1.0 0.1598188943
H  H76  1  0.89410000  0.95740000  0.51700000  1.0 0.1598188943
H  H77  1  0.05360000  0.12970000  0.51880000  1.0 0.139404655
H  H78  1  0.94640000  0.87030000  0.48120000  1.0 0.139404655
H  H79  1  0.07970000  0.26630000  0.49610000  1.0 0.1598188943
H  H80  1  0.92030000  0.73370000  0.50390000  1.0 0.1598188943
H  H81  1  0.35320000  0.52310000  0.44530000  1.0 0.1294327165
H  H82  1  0.64680000  0.47690000  0.55470000  1.0 0.1294327165
H  H83  1  0.37630000  0.65200000  0.41340000  1.0 0.1206197722
H  H84  1  0.62370000  0.34800000  0.58660000  1.0 0.1206197722
H  H85  1  0.22020000  0.50640000  0.27100000  1.0 0.1107546887
H  H86  1  0.77980000  0.49360000  0.72900000  1.0 0.1107546887
H  H87  1  0.18590000  0.37430000  0.30260000  1.0 0.139404655
H  H88  1  0.81410000  0.62570000  0.69740000  1.0 0.139404655
C  C1  1  0.33700000  0.42340000  0.79640000  1.0 0.5909318875
C  C2  1  0.66300000  0.57660000  0.20360000  1.0 0.5909318875
C  C3  1  0.31160000  0.48880000  0.81590000  1.0 -0.041177408
C  C4  1  0.68840000  0.51120000  0.18410000  1.0 -0.041177408
C  C5  1  0.30670000  0.49360000  0.86530000  1.0 -0.0632999886
C  C6  1  0.69330000  0.50640000  0.13470000  1.0 -0.0632999886
C  C7  1  0.28180000  0.55360000  0.88350000  1.0 -0.1496272763
C  C8  1  0.71820000  0.44640000  0.11650000  1.0 -0.1496272763
C  C9  1  0.27110000  0.61580000  0.85670000  1.0 0.2195437005
C  C10  1  0.72890000  0.38420000  0.14330000  1.0 0.2195437005
C  C11  1  0.27200000  0.60760000  0.80850000  1.0 -0.1602216964
C  C12  1  0.72800000  0.39240000  0.19150000  1.0 -0.1602216964
C  C13  1  0.29170000  0.54600000  0.78800000  1.0 -0.0632999886
C  C14  1  0.70830000  0.45400000  0.21200000  1.0 -0.0632999886
C  C15  1  0.32820000  0.75800000  0.90400000  1.0 0.4091814509
C  C16  1  0.67180000  0.24200000  0.09600000  1.0 0.4091814509
C  C17  1  0.29700000  0.81480000  0.92570000  1.0 0.0798273883
C  C18  1  0.70300000  0.18520000  0.07430000  1.0 0.0798273883
C  C19  1  0.35760000  0.89810000  0.95740000  1.0 -0.1178034922
C  C20  1  0.64240000  0.10190000  0.04260000  1.0 -0.1178034922
C  C21  1  0.31670000  0.94360000  0.97740000  1.0 -0.041177408
C  C22  1  0.68330000  0.05640000  0.02260000  1.0 -0.041177408
C  C23  1  0.21430000  0.90090000  0.96610000  1.0 -0.1024504402
C  C24  1  0.78570000  0.09910000  0.03390000  1.0 -0.1024504402
C  C25  1  0.15780000  0.81340000  0.93530000  1.0 0.1107546887
C  C26  1  0.84220000  0.18660000  0.06470000  1.0 0.1107546887
C  C27  1  0.04930000  0.75750000  0.91950000  1.0 0.4299683919
C  C28  1  0.95070000  0.24250000  0.08050000  1.0 0.4299683919
C  C29  1  0.91550000  0.61650000  0.86980000  1.0 0.2381652719
C  C30  1  0.08450000  0.38350000  0.13020000  1.0 0.2381652719
C  C31  1  0.85510000  0.62960000  0.82910000  1.0 -0.1496272763
C  C32  1  0.14490000  0.37040000  0.17090000  1.0 -0.1496272763
C  C33  1  0.75710000  0.56970000  0.80890000  1.0 -0.0796668996
C  C34  1  0.24290000  0.43030000  0.19110000  1.0 -0.0796668996
C  C35  1  0.71640000  0.49210000  0.82770000  1.0 -0.020994582
C  C36  1  0.28360000  0.50790000  0.17230000  1.0 -0.020994582
C  C37  1  0.77550000  0.48110000  0.86840000  1.0 -0.0796668996
C  C38  1  0.22450000  0.51890000  0.13160000  1.0 -0.0796668996
C  C39  1  0.87700000  0.54190000  0.89040000  1.0 -0.1496272763
C  C40  1  0.12300000  0.45810000  0.10960000  1.0 -0.1496272763
C  C41  1  0.61030000  0.42250000  0.80430000  1.0 0.6072135618
C  C42  1  0.38970000  0.57750000  0.19570000  1.0 0.6072135618
C  C43  1  0.32840000  0.76250000  0.14040000  1.0 0.5909318875
C  C44  1  0.67160000  0.23750000  0.85960000  1.0 0.5909318875
C  C45  1  0.27530000  0.72360000  0.08710000  1.0 -0.0796668996
C  C46  1  0.72470000  0.27640000  0.91290000  1.0 -0.0796668996
C  C47  1  0.17210000  0.67880000  0.06740000  1.0 -0.0689151451
C  C48  1  0.82790000  0.32120000  0.93260000  1.0 -0.0689151451
C  C49  1  0.12390000  0.63730000  0.01670000  1.0 -0.1602216964
C  C50  1  0.87610000  0.36270000  0.98330000  1.0 -0.1602216964
C  C51  1  0.17550000  0.63330000  0.98570000  1.0 0.2292276784
C  C52  1  0.82450000  0.36670000  0.01430000  1.0 0.2292276784
C  C53  1  0.27850000  0.67620000  0.00460000  1.0 -0.1661957824
C  C54  1  0.72150000  0.32380000  0.99540000  1.0 -0.1661957824
C  C55  1  0.32430000  0.71810000  0.05570000  1.0 -0.0632999886
C  C56  1  0.67570000  0.28190000  0.94430000  1.0 -0.0632999886
C  C57  1  0.08120000  0.50490000  0.91930000  1.0 0.4299683919
C  C58  1  0.91880000  0.49510000  0.08070000  1.0 0.4299683919
C  C59  1  0.03060000  0.47660000  0.86160000  1.0 0.1206197722
C  C60  1  0.96940000  0.52340000  0.13840000  1.0 0.1206197722
C  C61  1  0.97400000  0.38950000  0.83380000  1.0 -0.1178034922
C  C62  1  0.02600000  0.61050000  0.16620000  1.0 -0.1178034922
C  C63  1  0.93500000  0.37990000  0.78250000  1.0 -0.020994582
C  C64  1  0.06500000  0.62010000  0.21750000  1.0 -0.020994582
C  C65  1  0.95380000  0.45080000  0.75800000  1.0 -0.0933747948
C  C66  1  0.04620000  0.54920000  0.24200000  1.0 -0.0933747948
C  C67  1  0.01330000  0.53640000  0.78890000  1.0 0.1206197722
C  C68  1  0.98670000  0.46360000  0.21110000  1.0 0.1206197722
C  C69  1  0.04650000  0.62360000  0.77260000  1.0 0.42290095
C  C70  1  0.95350000  0.37640000  0.22740000  1.0 0.42290095
C  C71  1  0.14320000  0.78350000  0.80520000  1.0 0.2101977816
C  C72  1  0.85680000  0.21650000  0.19480000  1.0 0.2101977816
C  C73  1  0.09920000  0.83440000  0.80990000  1.0 -0.1419336944
C  C74  1  0.90080000  0.16560000  0.19010000  1.0 -0.1419336944
C  C75  1  0.14790000  0.92330000  0.80810000  1.0 -0.0689151451
C  C76  1  0.85210000  0.07670000  0.19190000  1.0 -0.0689151451
C  C77  1  0.23770000  0.96190000  0.80200000  1.0 -0.0302754632
C  C78  1  0.76230000  0.03810000  0.19800000  1.0 -0.0302754632
C  C79  1  0.28050000  0.91030000  0.79530000  1.0 -0.0796668996
C  C80  1  0.71950000  0.08970000  0.20470000  1.0 -0.0796668996
C  C81  1  0.23350000  0.81970000  0.79740000  1.0 -0.1419336944
C  C82  1  0.76650000  0.18030000  0.20260000  1.0 -0.1419336944
C  C83  1  0.28930000  0.06010000  0.80090000  1.0 0.5909318875
C  C84  1  0.71070000  0.93990000  0.19910000  1.0 0.5909318875
C  C85  1  0.42030000  0.32670000  0.64570000  1.0 0.5351277641
C  C86  1  0.57970000  0.67330000  0.35430000  1.0 0.5351277641
C  C87  1  0.41330000  0.32630000  0.59040000  1.0 -0.0071835469
C  C88  1  0.58670000  0.67370000  0.40960000  1.0 -0.0071835469
C  C89  1  0.41430000  0.25800000  0.56310000  1.0 -0.0796668996
C  C90  1  0.58570000  0.74200000  0.43690000  1.0 -0.0796668996
C  C91  1  0.40820000  0.25580000  0.51290000  1.0 -0.1602216964
C  C92  1  0.59180000  0.74420000  0.48710000  1.0 -0.1602216964
C  C93  1  0.40610000  0.32650000  0.48950000  1.0 0.2381652719
C  C94  1  0.59390000  0.67350000  0.51050000  1.0 0.2381652719
C  C95  1  0.40730000  0.39590000  0.51780000  1.0 -0.1760074632
C  C96  1  0.59270000  0.60410000  0.48220000  1.0 -0.1760074632
C  C97  1  0.41080000  0.39540000  0.56850000  1.0 -0.1024504402
C  C98  1  0.58920000  0.60460000  0.43150000  1.0 -0.1024504402
C  C99  1  0.46730000  0.36070000  0.41990000  1.0 0.42290095
C  C100  1  0.53270000  0.63930000  0.58010000  1.0 0.42290095
C  C101  1  0.43070000  0.34550000  0.36320000  1.0 0.1206197722
C  C102  1  0.56930000  0.65450000  0.63680000  1.0 0.1206197722
C  C103  1  0.48630000  0.37540000  0.33110000  1.0 -0.1178034922
C  C104  1  0.51370000  0.62460000  0.66890000  1.0 -0.1178034922
C  C105  1  0.43980000  0.34810000  0.27950000  1.0 -0.020994582
C  C106  1  0.56020000  0.65190000  0.72050000  1.0 -0.020994582
C  C107  1  0.33980000  0.29530000  0.25990000  1.0 -0.1178034922
C  C108  1  0.66020000  0.70470000  0.74010000  1.0 -0.1178034922
C  C109  1  0.28460000  0.26600000  0.29200000  1.0 0.0954633406
C  C110  1  0.71540000  0.73400000  0.70800000  1.0 0.0954633406
C  C111  1  0.17790000  0.21010000  0.28110000  1.0 0.42290095
C  C112  1  0.82210000  0.78990000  0.71890000  1.0 0.42290095
C  C113  1  0.04950000  0.14840000  0.31940000  1.0 0.2381652719
C  C114  1  0.95050000  0.85160000  0.68060000  1.0 0.2381652719
C  C115  1  0.01010000  0.05690000  0.31770000  1.0 -0.1661957824
C  C116  1  0.98990000  0.94310000  0.68230000  1.0 -0.1661957824
C  C117  1  0.91590000  0.00870000  0.32010000  1.0 -0.0689151451
C  C118  1  0.08410000  0.99130000  0.67990000  1.0 -0.0689151451
C  C119  1  0.86140000  0.04900000  0.32460000  1.0 -0.0071835469
C  C120  1  0.13860000  0.95100000  0.67540000  1.0 -0.0071835469
C  C121  1  0.75660000  0.99560000  0.32400000  1.0 0.5343015245
C  C122  1  0.24340000  0.00440000  0.67600000  1.0 0.5343015245
C  C123  1  0.90050000  0.14060000  0.32510000  1.0 -0.0796668996
C  C124  1  0.09950000  0.85940000  0.67490000  1.0 -0.0796668996
C  C125  1  0.99320000  0.19120000  0.32300000  1.0 -0.1496272763
C  C126  1  0.00680000  0.80880000  0.67700000  1.0 -0.1496272763
C  C127  1  0.40240000  0.95620000  0.28640000  1.0 0.5983761004
C  C128  1  0.59760000  0.04380000  0.71360000  1.0 0.5983761004
C  C129  1  0.36760000  0.01350000  0.30790000  1.0 -0.0302754632
C  C130  1  0.63240000  0.98650000  0.69210000  1.0 -0.0302754632
C  C131  1  0.26780000  0.98260000  0.29680000  1.0 -0.0796668996
C  C132  1  0.73220000  0.01740000  0.70320000  1.0 -0.0796668996
C  C133  1  0.23180000  0.02610000  0.31910000  1.0 -0.1419336944
C  C134  1  0.76820000  0.97390000  0.68090000  1.0 -0.1419336944
C  C135  1  0.29770000  0.10180000  0.35970000  1.0 0.2381652719
C  C136  1  0.70230000  0.89820000  0.64030000  1.0 0.2381652719
C  C137  1  0.39760000  0.13420000  0.37010000  1.0 -0.1760074632
C  C138  1  0.60240000  0.86580000  0.62990000  1.0 -0.1760074632
C  C139  1  0.43350000  0.09100000  0.34490000  1.0 -0.0796668996
C  C140  1  0.56650000  0.90900000  0.65510000  1.0 -0.0796668996
C  C141  1  0.21690000  0.09140000  0.41800000  1.0 0.4299683919
C  C142  1  0.78310000  0.90860000  0.58200000  1.0 0.4299683919
C  C143  1  0.17120000  0.13340000  0.44340000  1.0 0.1206197722
C  C144  1  0.82880000  0.86660000  0.55660000  1.0 0.1206197722
C  C145  1  0.11950000  0.09980000  0.47500000  1.0 -0.1312400797
C  C146  1  0.88050000  0.90020000  0.52500000  1.0 -0.1312400797
C  C147  1  0.08750000  0.15080000  0.49510000  1.0 -0.041177408
C  C148  1  0.91250000  0.84920000  0.50490000  1.0 -0.041177408
C  C149  1  0.10260000  0.23120000  0.48220000  1.0 -0.110824334
C  C150  1  0.89740000  0.76880000  0.51780000  1.0 -0.110824334
C  C151  1  0.15320000  0.25930000  0.44780000  1.0 0.1294327165
C  C152  1  0.84680000  0.74070000  0.55220000  1.0 0.1294327165
C  C153  1  0.17860000  0.34510000  0.42880000  1.0 0.4299683919
C  C154  1  0.82140000  0.65490000  0.57120000  1.0 0.4299683919
C  C155  1  0.25750000  0.43370000  0.37690000  1.0 0.2505352548
C  C156  1  0.74250000  0.56630000  0.62310000  1.0 0.2505352548
C  C157  1  0.32220000  0.51910000  0.41030000  1.0 -0.1312400797
C  C158  1  0.67780000  0.48090000  0.58970000  1.0 -0.1312400797
C  C159  1  0.33860000  0.59530000  0.39080000  1.0 -0.0796668996
C  C160  1  0.66140000  0.40470000  0.60920000  1.0 -0.0796668996
C  C161  1  0.30260000  0.59220000  0.34020000  1.0 -0.020994582
C  C162  1  0.69740000  0.40780000  0.65980000  1.0 -0.020994582
C  C163  1  0.24490000  0.50920000  0.30650000  1.0 -0.0689151451
C  C164  1  0.75510000  0.49080000  0.69350000  1.0 -0.0689151451
C  C165  1  0.22390000  0.43070000  0.32550000  1.0 -0.1661957824
C  C166  1  0.77610000  0.56930000  0.67450000  1.0 -0.1661957824
C  C167  1  0.32520000  0.67670000  0.32020000  1.0 0.5500247529
C  C168  1  0.67480000  0.32330000  0.67980000  1.0 0.5500247529
N  N1  1  0.25170000  0.67830000  0.87840000  1.0 -0.4004673659
N  N2  1  0.74830000  0.32170000  0.12160000  1.0 -0.4004673659
N  N3  1  0.20150000  0.77520000  0.91760000  1.0 -0.1602216964
N  N4  1  0.79850000  0.22480000  0.08240000  1.0 -0.1602216964
N  N5  1  0.01770000  0.67850000  0.89090000  1.0 -0.4296129921
N  N6  1  0.98230000  0.32150000  0.10910000  1.0 -0.4296129921
N  N7  1  0.09840000  0.69160000  0.81160000  1.0 -0.4075640911
N  N8  1  0.90160000  0.30840000  0.18840000  1.0 -0.4075640911
N  N9  1  0.04690000  0.54530000  0.83850000  1.0 -0.1901517758
N  N10  1  0.95310000  0.45470000  0.16150000  1.0 -0.1901517758
N  N11  1  0.12510000  0.59230000  0.93200000  1.0 -0.4296129921
N  N12  1  0.87490000  0.40770000  0.06800000  1.0 -0.4296129921
N  N13  1  0.39040000  0.32020000  0.43760000  1.0 -0.421863901
N  N14  1  0.60960000  0.67980000  0.56240000  1.0 -0.421863901
N  N15  1  0.33300000  0.29420000  0.34330000  1.0 -0.1954130033
N  N16  1  0.66700000  0.70580000  0.65670000  1.0 -0.1954130033
N  N17  1  0.15100000  0.20110000  0.32200000  1.0 -0.4075640911
N  N18  1  0.84900000  0.79890000  0.67800000  1.0 -0.4075640911
N  N19  1  0.22930000  0.35380000  0.39710000  1.0 -0.4296129921
N  N20  1  0.77070000  0.64620000  0.60290000  1.0 -0.4296129921
N  N21  1  0.18510000  0.21000000  0.42980000  1.0 -0.1901517758
N  N22  1  0.81490000  0.79000000  0.57020000  1.0 -0.1901517758
N  N23  1  0.26060000  0.14090000  0.38820000  1.0 -0.421863901
N  N24  1  0.73940000  0.85910000  0.61180000  1.0 -0.421863901
O  O1  1  0.41610000  0.78250000  0.90860000  1.0 -0.4296129921
O  O2  1  0.58390000  0.21750000  0.09140000  1.0 -0.4296129921
O  O3  1  0.99310000  0.78230000  0.93070000  1.0 -0.4415541737
O  O4  1  0.00690000  0.21770000  0.06930000  1.0 -0.4415541737
O  O5  1  0.15780000  0.21370000  0.75120000  1.0 -0.4004673659
O  O6  1  0.84220000  0.78630000  0.24880000  1.0 -0.4004673659
O  O7  1  0.02690000  0.62900000  0.72650000  1.0 -0.3360101157
O  O8  1  0.97310000  0.37100000  0.27350000  1.0 -0.3360101157
O  O9  1  0.23460000  0.23250000  0.86710000  1.0 -0.4877306768
O  O10  1  0.76540000  0.76750000  0.13290000  1.0 -0.4877306768
O  O11  1  0.07540000  0.44710000  0.94610000  1.0 -0.4485625574
O  O12  1  0.92460000  0.55290000  0.05390000  1.0 -0.4485625574
O  O13  1  0.54570000  0.90180000  0.37600000  1.0 -0.1312400797
O  O14  1  0.45430000  0.09820000  0.62400000  1.0 -0.1312400797
O  O15  1  0.34770000  0.42650000  0.75310000  1.0 -0.511237795
O  O16  1  0.65230000  0.57350000  0.24690000  1.0 -0.511237795
O  O17  1  0.35120000  0.37240000  0.82380000  1.0 -0.5366287578
O  O18  1  0.64880000  0.62760000  0.17620000  1.0 -0.5366287578
O  O19  1  0.55340000  0.44750000  0.77620000  1.0 -0.5202011813
O  O20  1  0.44660000  0.55250000  0.22380000  1.0 -0.5202011813
O  O21  1  0.58570000  0.34640000  0.81380000  1.0 -0.5295287405
O  O22  1  0.41430000  0.65360000  0.18620000  1.0 -0.5295287405
O  O23  1  0.42100000  0.81020000  0.15640000  1.0 -0.511237795
O  O24  1  0.57900000  0.18980000  0.84360000  1.0 -0.511237795
O  O25  1  0.27810000  0.74440000  0.17110000  1.0 -0.5295287405
O  O26  1  0.72190000  0.25560000  0.82890000  1.0 -0.5295287405
O  O27  1  0.37600000  0.09260000  0.79620000  1.0 -0.511237795
O  O28  1  0.62400000  0.90740000  0.20380000  1.0 -0.5202011813
O  O29  1  0.24610000  0.10310000  0.80550000  1.0 -0.511237795
O  O30  1  0.75390000  0.89690000  0.19450000  1.0 -0.511237795
O  O31  1  0.36150000  0.24490000  0.75500000  1.0 -0.7831162461
O  O32  1  0.63850000  0.75510000  0.24500000  1.0 -0.7831162461
O  O33  1  0.43700000  0.26070000  0.86420000  1.0 -0.3677982041
O  O34  1  0.56300000  0.73930000  0.13580000  1.0 -0.3677982041
O  O35  1  0.12000000  0.17530000  0.23510000  1.0 -0.4597199508
O  O36  1  0.88000000  0.82470000  0.76490000  1.0 -0.4597199508
O  O37  1  0.55430000  0.40040000  0.44590000  1.0 -0.4004673659
O  O38  1  0.44570000  0.59960000  0.55410000  1.0 -0.4004673659
O  O39  1  0.21100000  0.01790000  0.42710000  1.0 -0.4415541737
O  O40  1  0.78900000  0.98210000  0.57290000  1.0 -0.4415541737
O  O41  1  0.14970000  0.39790000  0.44120000  1.0 -0.3360101157
O  O42  1  0.85030000  0.60210000  0.55880000  1.0 -0.3360101157
O  O43  1  0.38930000  0.37200000  0.66420000  1.0 -0.4834034094
O  O44  1  0.61070000  0.62800000  0.33580000  1.0 -0.4834034094
O  O45  1  0.45640000  0.28590000  0.66960000  1.0 -0.358672435
O  O46  1  0.54360000  0.71410000  0.33040000  1.0 -0.358672435
O  O47  1  0.70650000  0.03280000  0.32330000  1.0 -0.4877306768
O  O48  1  0.29350000  0.96720000  0.67670000  1.0 -0.4877306768
O  O49  1  0.72330000  0.91350000  0.32460000  1.0 -0.4415541737
O  O50  1  0.27670000  0.08650000  0.67540000  1.0 -0.4415541737
O  O51  1  0.29960000  0.66820000  0.27230000  1.0 -0.5295287405
O  O52  1  0.70040000  0.33180000  0.72770000  1.0 -0.5295287405
O  O53  1  0.36850000  0.74880000  0.35020000  1.0 -0.4075640911
O  O54  1  0.63150000  0.25120000  0.64980000  1.0 -0.4075640911
O  O55  1  0.49490000  0.99300000  0.29260000  1.0 -0.5454313108
O  O56  1  0.50510000  0.00700000  0.70740000  1.0 -0.5454313108
O  O57  1  0.33750000  0.87630000  0.26580000  1.0 -0.5366287578
O  O58  1  0.66250000  0.12370000  0.73420000  1.0 -0.5295287405
O  O59  1  0.49700000  0.81340000  0.26740000  1.0 -0.7512618849
O  O60  1  0.50300000  0.18660000  0.73260000  1.0 -0.7512618849
O  O61  1  0.18350000  0.58730000  0.58830000  1.0 -0.6188415834
O  O62  1  0.81650000  0.41270000  0.41170000  1.0 -0.6188415834
O  O63  1  0.98890000  0.45810000  0.54670000  1.0 -0.5851945826
O  O64  1  0.01110000  0.54190000  0.45330000  1.0 -0.5843071887
O  O65  1  0.94440000  0.52750000  0.63100000  1.0 -0.3765796372
O  O66  1  0.05560000  0.47250000  0.36900000  1.0 -0.3765796372
O  O67  1  0.09750000  0.46320000  0.65240000  1.0 -0.5041058311
O  O68  1  0.90250000  0.53680000  0.34760000  1.0 -0.5041058311
O  O69  1  0.15730000  0.65870000  0.67500000  1.0 -0.4075640911
O  O70  1  0.84270000  0.34130000  0.32500000  1.0 -0.4075640911
O  O71  1  0.04100000  0.64820000  0.56600000  1.0 -0.4296129921
O  O72  1  0.95900000  0.35180000  0.43400000  1.0 -0.4296129921
O  O73  1  0.39500000  0.14120000  0.92530000  1.0 0.0798273883
O  O74  1  0.60500000  0.85880000  0.07470000  1.0 0.0798273883
O  O75  1  0.55200000  0.43200000  0.92190000  1.0 0.1294327165
O  O76  1  0.44800000  0.56800000  0.07810000  1.0 0.1294327165
O  O77  1  0.35720000  0.96120000  0.44870000  1.0 0.3102973899
O  O78  1  0.64280000  0.03880000  0.55130000  1.0 0.3102973899
O  O79  1  0.76730000  0.58080000  0.36580000  1.0 0.2292276784
O  O80  1  0.23270000  0.41920000  0.63420000  1.0 0.2292276784
O  O81  1  0.55470000  0.02730000  0.44400000  1.0 0.1294327165
O  O82  1  0.44530000  0.97270000  0.55600000  1.0 0.1294327165
O  O83  1  0.29940000  0.78430000  0.42340000  1.0 0.1206197722
O  O84  1  0.70060000  0.21570000  0.57660000  1.0 0.1206197722
O  O85  1  0.75050000  0.50720000  0.45490000  1.0 0.277527695
O  O86  1  0.24950000  0.49280000  0.54510000  1.0 0.277527695
O  O87  1  0.32950000  0.80820000  0.68780000  1.0 0.139404655
O  O88  1  0.67050000  0.19180000  0.31220000  1.0 0.139404655
