# DDEC6 charges by PACMAN v1.1 (https://github.com/mtap-research/PACMAN-charge/)
data_BIVRIL_ASR_pacman
_symmetry_space_group_name_H-M   'P 1'
_cell_length_a   28.25740000
_cell_length_b   28.25740000
_cell_length_c   29.06480000
_cell_angle_alpha   90.00000000
_cell_angle_beta   90.00000000
_cell_angle_gamma   120.00000000
_symmetry_Int_Tables_number   1
_chemical_formula_structural   Co8H60C102(N2O9)3
_chemical_formula_sum   'Co32 H240 C408 N24 O108'
_cell_volume   20098.44090576
_cell_formula_units_Z   4
loop_
 _symmetry_equiv_pos_site_id
 _symmetry_equiv_pos_as_xyz
  1  'x, y, z'
loop_
 _atom_site_type_symbol
 _atom_site_label
 _atom_site_symmetry_multiplicity
 _atom_site_fract_x
 _atom_site_fract_y
 _atom_site_fract_z
 _atom_site_occupancy
 _atom_site_charge
Co  Co1  1  0.33333333  0.66666667  0.29985000  1.0 1.0490177223
Co  Co2  1  0.66666667  0.33333333  0.79985000  1.0 1.0490177223
Co  Co3  1  0.66666667  0.33333333  0.20015000  1.0 1.0490177223
Co  Co4  1  0.33333333  0.66666667  0.70015000  1.0 1.0490177223
Co  Co5  1  0.66666667  0.33333333  0.70015000  1.0 1.0490177223
Co  Co6  1  0.33333333  0.66666667  0.20015000  1.0 1.0490177223
Co  Co7  1  0.33333333  0.66666667  0.79985000  1.0 1.0490177223
Co  Co8  1  0.66666667  0.33333333  0.29985000  1.0 1.0490177223
Co  Co9  1  0.47500000  0.74353000  0.75000000  1.0 1.0268655602
Co  Co10  1  0.25647000  0.73147000  0.75000000  1.0 1.0268655602
Co  Co11  1  0.26853000  0.52500000  0.75000000  1.0 1.0268655602
Co  Co12  1  0.52500000  0.25647000  0.25000000  1.0 1.0268655602
Co  Co13  1  0.74353000  0.26853000  0.25000000  1.0 1.0268655602
Co  Co14  1  0.73147000  0.47500000  0.25000000  1.0 1.0268655602
Co  Co15  1  0.74353000  0.47500000  0.75000000  1.0 1.0268655602
Co  Co16  1  0.73147000  0.25647000  0.75000000  1.0 1.0268655602
Co  Co17  1  0.52500000  0.26853000  0.75000000  1.0 1.0268655602
Co  Co18  1  0.25647000  0.52500000  0.25000000  1.0 1.0268655602
Co  Co19  1  0.26853000  0.74353000  0.25000000  1.0 1.0268655602
Co  Co20  1  0.47500000  0.73147000  0.25000000  1.0 1.0268655602
Co  Co21  1  0.40088000  0.59509000  0.75000000  1.0 1.0268655602
Co  Co22  1  0.40491000  0.80579000  0.75000000  1.0 1.0268655602
Co  Co23  1  0.19421000  0.59912000  0.75000000  1.0 1.0268655602
Co  Co24  1  0.59912000  0.40491000  0.25000000  1.0 1.0268655602
Co  Co25  1  0.59509000  0.19421000  0.25000000  1.0 1.0268655602
Co  Co26  1  0.80579000  0.40088000  0.25000000  1.0 1.0268655602
Co  Co27  1  0.59509000  0.40088000  0.75000000  1.0 1.0268655602
Co  Co28  1  0.80579000  0.40491000  0.75000000  1.0 1.0268655602
Co  Co29  1  0.59912000  0.19421000  0.75000000  1.0 1.0268655602
Co  Co30  1  0.40491000  0.59912000  0.25000000  1.0 1.0268655602
Co  Co31  1  0.19421000  0.59509000  0.25000000  1.0 1.0244300315
Co  Co32  1  0.40088000  0.80579000  0.25000000  1.0 1.0268655602
H  H1  1  0.52766000  0.67105000  0.34286000  1.0 0.1235784891
H  H2  1  0.32895000  0.85661000  0.34286000  1.0 0.1235784891
H  H3  1  0.14339000  0.47234000  0.34286000  1.0 0.1235784891
H  H4  1  0.47234000  0.32895000  0.84286000  1.0 0.1235784891
H  H5  1  0.67105000  0.14339000  0.84286000  1.0 0.1235784891
H  H6  1  0.85661000  0.52766000  0.84286000  1.0 0.1235784891
H  H7  1  0.67105000  0.52766000  0.15714000  1.0 0.1235784891
H  H8  1  0.85661000  0.32895000  0.15714000  1.0 0.1235784891
H  H9  1  0.47234000  0.14339000  0.15714000  1.0 0.1235784891
H  H10  1  0.32895000  0.47234000  0.65714000  1.0 0.1235784891
H  H11  1  0.14339000  0.67105000  0.65714000  1.0 0.1235784891
H  H12  1  0.52766000  0.85661000  0.65714000  1.0 0.1235784891
H  H13  1  0.47234000  0.32895000  0.65714000  1.0 0.1235784891
H  H14  1  0.67105000  0.14339000  0.65714000  1.0 0.1235784891
H  H15  1  0.85661000  0.52766000  0.65714000  1.0 0.1235784891
H  H16  1  0.52766000  0.67105000  0.15714000  1.0 0.1235784891
H  H17  1  0.32895000  0.85661000  0.15714000  1.0 0.1235784891
H  H18  1  0.14339000  0.47234000  0.15714000  1.0 0.1235784891
H  H19  1  0.32895000  0.47234000  0.84286000  1.0 0.1235784891
H  H20  1  0.14339000  0.67105000  0.84286000  1.0 0.1235784891
H  H21  1  0.52766000  0.85661000  0.84286000  1.0 0.1235784891
H  H22  1  0.67105000  0.52766000  0.34286000  1.0 0.1235784891
H  H23  1  0.85661000  0.32895000  0.34286000  1.0 0.1235784891
H  H24  1  0.47234000  0.14339000  0.34286000  1.0 0.1235784891
H  H25  1  0.52570000  0.57257000  0.45025000  1.0 0.1235784891
H  H26  1  0.42743000  0.95313000  0.45025000  1.0 0.1235784891
H  H27  1  0.04687000  0.47430000  0.45025000  1.0 0.1235784891
H  H28  1  0.47430000  0.42743000  0.95025000  1.0 0.1235784891
H  H29  1  0.57257000  0.04687000  0.95025000  1.0 0.1235784891
H  H30  1  0.95313000  0.52570000  0.95025000  1.0 0.1235784891
H  H31  1  0.57257000  0.52570000  0.04975000  1.0 0.1235784891
H  H32  1  0.95313000  0.42743000  0.04975000  1.0 0.1235784891
H  H33  1  0.47430000  0.04687000  0.04975000  1.0 0.1235784891
H  H34  1  0.42743000  0.47430000  0.54975000  1.0 0.1235784891
H  H35  1  0.04687000  0.57257000  0.54975000  1.0 0.1235784891
H  H36  1  0.52570000  0.95313000  0.54975000  1.0 0.1235784891
H  H37  1  0.47430000  0.42743000  0.54975000  1.0 0.1235784891
H  H38  1  0.57257000  0.04687000  0.54975000  1.0 0.1235784891
H  H39  1  0.95313000  0.52570000  0.54975000  1.0 0.1235784891
H  H40  1  0.52570000  0.57257000  0.04975000  1.0 0.1235784891
H  H41  1  0.42743000  0.95313000  0.04975000  1.0 0.1235784891
H  H42  1  0.04687000  0.47430000  0.04975000  1.0 0.1235784891
H  H43  1  0.42743000  0.47430000  0.95025000  1.0 0.1235784891
H  H44  1  0.04687000  0.57257000  0.95025000  1.0 0.1235784891
H  H45  1  0.52570000  0.95313000  0.95025000  1.0 0.1235784891
H  H46  1  0.57257000  0.52570000  0.45025000  1.0 0.1235784891
H  H47  1  0.95313000  0.42743000  0.45025000  1.0 0.1235784891
H  H48  1  0.47430000  0.04687000  0.45025000  1.0 0.1235784891
H  H49  1  0.57575000  0.67272000  0.40702000  1.0 0.1286161177
H  H50  1  0.32728000  0.90303000  0.40702000  1.0 0.1286161177
H  H51  1  0.09697000  0.42425000  0.40702000  1.0 0.1286161177
H  H52  1  0.42425000  0.32728000  0.90702000  1.0 0.1286161177
H  H53  1  0.67272000  0.09697000  0.90702000  1.0 0.1286161177
H  H54  1  0.90303000  0.57575000  0.90702000  1.0 0.1286161177
H  H55  1  0.67272000  0.57575000  0.09298000  1.0 0.1286161177
H  H56  1  0.90303000  0.32728000  0.09298000  1.0 0.1286161177
H  H57  1  0.42425000  0.09697000  0.09298000  1.0 0.1286161177
H  H58  1  0.32728000  0.42425000  0.59298000  1.0 0.1286161177
H  H59  1  0.09697000  0.67272000  0.59298000  1.0 0.1286161177
H  H60  1  0.57575000  0.90303000  0.59298000  1.0 0.1286161177
H  H61  1  0.42425000  0.32728000  0.59298000  1.0 0.1286161177
H  H62  1  0.67272000  0.09697000  0.59298000  1.0 0.1286161177
H  H63  1  0.90303000  0.57575000  0.59298000  1.0 0.1286161177
H  H64  1  0.57575000  0.67272000  0.09298000  1.0 0.1286161177
H  H65  1  0.32728000  0.90303000  0.09298000  1.0 0.1286161177
H  H66  1  0.09697000  0.42425000  0.09298000  1.0 0.1286161177
H  H67  1  0.32728000  0.42425000  0.90702000  1.0 0.1286161177
H  H68  1  0.09697000  0.67272000  0.90702000  1.0 0.1286161177
H  H69  1  0.57575000  0.90303000  0.90702000  1.0 0.1286161177
H  H70  1  0.67272000  0.57575000  0.40702000  1.0 0.1286161177
H  H71  1  0.90303000  0.32728000  0.40702000  1.0 0.1286161177
H  H72  1  0.42425000  0.09697000  0.40702000  1.0 0.1286161177
H  H73  1  0.64166000  0.68887000  0.52865000  1.0 0.1286161177
H  H74  1  0.31113000  0.95279000  0.52865000  1.0 0.1286161177
H  H75  1  0.04721000  0.35834000  0.52865000  1.0 0.1286161177
H  H76  1  0.35834000  0.31113000  0.02865000  1.0 0.1286161177
H  H77  1  0.68887000  0.04721000  0.02865000  1.0 0.1286161177
H  H78  1  0.95279000  0.64166000  0.02865000  1.0 0.1286161177
H  H79  1  0.68887000  0.64166000  0.97135000  1.0 0.1286161177
H  H80  1  0.95279000  0.31113000  0.97135000  1.0 0.1286161177
H  H81  1  0.35834000  0.04721000  0.97135000  1.0 0.1286161177
H  H82  1  0.31113000  0.35834000  0.47135000  1.0 0.1286161177
H  H83  1  0.04721000  0.68887000  0.47135000  1.0 0.1286161177
H  H84  1  0.64166000  0.95279000  0.47135000  1.0 0.1286161177
H  H85  1  0.35834000  0.31113000  0.47135000  1.0 0.1286161177
H  H86  1  0.68887000  0.04721000  0.47135000  1.0 0.1286161177
H  H87  1  0.95279000  0.64166000  0.47135000  1.0 0.1286161177
H  H88  1  0.64166000  0.68887000  0.97135000  1.0 0.1286161177
H  H89  1  0.31113000  0.95279000  0.97135000  1.0 0.1286161177
H  H90  1  0.04721000  0.35834000  0.97135000  1.0 0.1286161177
H  H91  1  0.31113000  0.35834000  0.02865000  1.0 0.1286161177
H  H92  1  0.04721000  0.68887000  0.02865000  1.0 0.1286161177
H  H93  1  0.64166000  0.95279000  0.02865000  1.0 0.1286161177
H  H94  1  0.68887000  0.64166000  0.52865000  1.0 0.1286161177
H  H95  1  0.95279000  0.31113000  0.52865000  1.0 0.1286161177
H  H96  1  0.35834000  0.04721000  0.52865000  1.0 0.1286161177
H  H97  1  0.40781000  0.66143000  0.42310000  1.0 0.1235784891
H  H98  1  0.33857000  0.74638000  0.42310000  1.0 0.1235784891
H  H99  1  0.25362000  0.59219000  0.42310000  1.0 0.1235784891
H  H100  1  0.59219000  0.33857000  0.92310000  1.0 0.1235784891
H  H101  1  0.66143000  0.25362000  0.92310000  1.0 0.1235784891
H  H102  1  0.74638000  0.40781000  0.92310000  1.0 0.1235784891
H  H103  1  0.66143000  0.40781000  0.07690000  1.0 0.1235784891
H  H104  1  0.74638000  0.33857000  0.07690000  1.0 0.1235784891
H  H105  1  0.59219000  0.25362000  0.07690000  1.0 0.1235784891
H  H106  1  0.33857000  0.59219000  0.57690000  1.0 0.1235784891
H  H107  1  0.25362000  0.66143000  0.57690000  1.0 0.1235784891
H  H108  1  0.40781000  0.74638000  0.57690000  1.0 0.1235784891
H  H109  1  0.59219000  0.33857000  0.57690000  1.0 0.1235784891
H  H110  1  0.66143000  0.25362000  0.57690000  1.0 0.1235784891
H  H111  1  0.74638000  0.40781000  0.57690000  1.0 0.1235784891
H  H112  1  0.40781000  0.66143000  0.07690000  1.0 0.1235784891
H  H113  1  0.33857000  0.74638000  0.07690000  1.0 0.1235784891
H  H114  1  0.25362000  0.59219000  0.07690000  1.0 0.1235784891
H  H115  1  0.33857000  0.59219000  0.92310000  1.0 0.1235784891
H  H116  1  0.25362000  0.66143000  0.92310000  1.0 0.1235784891
H  H117  1  0.40781000  0.74638000  0.92310000  1.0 0.1235784891
H  H118  1  0.66143000  0.40781000  0.42310000  1.0 0.1235784891
H  H119  1  0.74638000  0.33857000  0.42310000  1.0 0.1235784891
H  H120  1  0.59219000  0.25362000  0.42310000  1.0 0.1235784891
H  H121  1  0.45599000  0.66305000  0.48772000  1.0 0.1235784891
H  H122  1  0.33695000  0.79294000  0.48772000  1.0 0.1235784891
H  H123  1  0.20706000  0.54401000  0.48772000  1.0 0.1235784891
H  H124  1  0.54401000  0.33695000  0.98772000  1.0 0.1235784891
H  H125  1  0.66305000  0.20706000  0.98772000  1.0 0.1235784891
H  H126  1  0.79294000  0.45599000  0.98772000  1.0 0.1235784891
H  H127  1  0.66305000  0.45599000  0.01228000  1.0 0.1235784891
H  H128  1  0.79294000  0.33695000  0.01228000  1.0 0.1235784891
H  H129  1  0.54401000  0.20706000  0.01228000  1.0 0.1235784891
H  H130  1  0.33695000  0.54401000  0.51228000  1.0 0.1235784891
H  H131  1  0.20706000  0.66305000  0.51228000  1.0 0.1235784891
H  H132  1  0.45599000  0.79294000  0.51228000  1.0 0.1235784891
H  H133  1  0.54401000  0.33695000  0.51228000  1.0 0.1235784891
H  H134  1  0.66305000  0.20706000  0.51228000  1.0 0.1235784891
H  H135  1  0.79294000  0.45599000  0.51228000  1.0 0.1235784891
H  H136  1  0.45599000  0.66305000  0.01228000  1.0 0.1235784891
H  H137  1  0.33695000  0.79294000  0.01228000  1.0 0.1235784891
H  H138  1  0.20706000  0.54401000  0.01228000  1.0 0.1235784891
H  H139  1  0.33695000  0.54401000  0.98772000  1.0 0.1235784891
H  H140  1  0.20706000  0.66305000  0.98772000  1.0 0.1235784891
H  H141  1  0.45599000  0.79294000  0.98772000  1.0 0.1235784891
H  H142  1  0.66305000  0.45599000  0.48772000  1.0 0.1235784891
H  H143  1  0.79294000  0.33695000  0.48772000  1.0 0.1235784891
H  H144  1  0.54401000  0.20706000  0.48772000  1.0 0.1235784891
H  H145  1  0.53218000  0.74934000  0.61534000  1.0 0.1139041209
H  H146  1  0.25066000  0.78284000  0.61534000  1.0 0.1139041209
H  H147  1  0.21716000  0.46782000  0.61534000  1.0 0.1139041209
H  H148  1  0.46782000  0.25066000  0.11534000  1.0 0.1139041209
H  H149  1  0.74934000  0.21716000  0.11534000  1.0 0.1139041209
H  H150  1  0.78284000  0.53218000  0.11534000  1.0 0.1139041209
H  H151  1  0.74934000  0.53218000  0.88466000  1.0 0.1139041209
H  H152  1  0.78284000  0.25066000  0.88466000  1.0 0.1139041209
H  H153  1  0.46782000  0.21716000  0.88466000  1.0 0.1139041209
H  H154  1  0.25066000  0.46782000  0.38466000  1.0 0.1139041209
H  H155  1  0.21716000  0.74934000  0.38466000  1.0 0.1139041209
H  H156  1  0.53218000  0.78284000  0.38466000  1.0 0.1139041209
H  H157  1  0.46782000  0.25066000  0.38466000  1.0 0.1139041209
H  H158  1  0.74934000  0.21716000  0.38466000  1.0 0.1139041209
H  H159  1  0.78284000  0.53218000  0.38466000  1.0 0.1139041209
H  H160  1  0.53218000  0.74934000  0.88466000  1.0 0.1139041209
H  H161  1  0.25066000  0.78284000  0.88466000  1.0 0.1139041209
H  H162  1  0.21716000  0.46782000  0.88466000  1.0 0.1139041209
H  H163  1  0.25066000  0.46782000  0.11534000  1.0 0.1139041209
H  H164  1  0.21716000  0.74934000  0.11534000  1.0 0.1139041209
H  H165  1  0.53218000  0.78284000  0.11534000  1.0 0.1139041209
H  H166  1  0.74934000  0.53218000  0.61534000  1.0 0.1139041209
H  H167  1  0.78284000  0.25066000  0.61534000  1.0 0.1139041209
H  H168  1  0.46782000  0.21716000  0.61534000  1.0 0.1139041209
H  H169  1  0.56061000  0.74684000  0.54068000  1.0 0.1286161177
H  H170  1  0.25316000  0.81377000  0.54068000  1.0 0.1286161177
H  H171  1  0.18623000  0.43939000  0.54068000  1.0 0.1286161177
H  H172  1  0.43939000  0.25316000  0.04068000  1.0 0.1286161177
H  H173  1  0.74684000  0.18623000  0.04068000  1.0 0.1286161177
H  H174  1  0.81377000  0.56061000  0.04068000  1.0 0.1286161177
H  H175  1  0.74684000  0.56061000  0.95932000  1.0 0.1286161177
H  H176  1  0.81377000  0.25316000  0.95932000  1.0 0.1286161177
H  H177  1  0.43939000  0.18623000  0.95932000  1.0 0.1286161177
H  H178  1  0.25316000  0.43939000  0.45932000  1.0 0.1286161177
H  H179  1  0.18623000  0.74684000  0.45932000  1.0 0.1286161177
H  H180  1  0.56061000  0.81377000  0.45932000  1.0 0.1286161177
H  H181  1  0.43939000  0.25316000  0.45932000  1.0 0.1286161177
H  H182  1  0.74684000  0.18623000  0.45932000  1.0 0.1286161177
H  H183  1  0.81377000  0.56061000  0.45932000  1.0 0.1286161177
H  H184  1  0.56061000  0.74684000  0.95932000  1.0 0.1286161177
H  H185  1  0.25316000  0.81377000  0.95932000  1.0 0.1286161177
H  H186  1  0.18623000  0.43939000  0.95932000  1.0 0.1286161177
H  H187  1  0.25316000  0.43939000  0.04068000  1.0 0.1286161177
H  H188  1  0.18623000  0.74684000  0.04068000  1.0 0.1286161177
H  H189  1  0.56061000  0.81377000  0.04068000  1.0 0.1286161177
H  H190  1  0.74684000  0.56061000  0.54068000  1.0 0.1286161177
H  H191  1  0.81377000  0.25316000  0.54068000  1.0 0.1286161177
H  H192  1  0.43939000  0.18623000  0.54068000  1.0 0.1286161177
H  H193  1  0.49241000  0.58585000  0.54949000  1.0 0.1235784891
H  H194  1  0.41415000  0.90656000  0.54949000  1.0 0.1235784891
H  H195  1  0.09344000  0.50759000  0.54949000  1.0 0.1235784891
H  H196  1  0.50759000  0.41415000  0.04949000  1.0 0.1235784891
H  H197  1  0.58585000  0.09344000  0.04949000  1.0 0.1235784891
H  H198  1  0.90656000  0.49241000  0.04949000  1.0 0.1235784891
H  H199  1  0.58585000  0.49241000  0.95051000  1.0 0.1235784891
H  H200  1  0.90656000  0.41415000  0.95051000  1.0 0.1235784891
H  H201  1  0.50759000  0.09344000  0.95051000  1.0 0.1235784891
H  H202  1  0.41415000  0.50759000  0.45051000  1.0 0.1235784891
H  H203  1  0.09344000  0.58585000  0.45051000  1.0 0.1235784891
H  H204  1  0.49241000  0.90656000  0.45051000  1.0 0.1235784891
H  H205  1  0.50759000  0.41415000  0.45051000  1.0 0.1235784891
H  H206  1  0.58585000  0.09344000  0.45051000  1.0 0.1235784891
H  H207  1  0.90656000  0.49241000  0.45051000  1.0 0.1235784891
H  H208  1  0.49241000  0.58585000  0.95051000  1.0 0.1235784891
H  H209  1  0.41415000  0.90656000  0.95051000  1.0 0.1235784891
H  H210  1  0.09344000  0.50759000  0.95051000  1.0 0.1235784891
H  H211  1  0.41415000  0.50759000  0.04949000  1.0 0.1235784891
H  H212  1  0.09344000  0.58585000  0.04949000  1.0 0.1235784891
H  H213  1  0.49241000  0.90656000  0.04949000  1.0 0.1235784891
H  H214  1  0.58585000  0.49241000  0.54949000  1.0 0.1235784891
H  H215  1  0.90656000  0.41415000  0.54949000  1.0 0.1235784891
H  H216  1  0.50759000  0.09344000  0.54949000  1.0 0.1235784891
H  H217  1  0.46399000  0.58817000  0.62403000  1.0 0.1139041209
H  H218  1  0.41183000  0.87582000  0.62403000  1.0 0.1139041209
H  H219  1  0.12418000  0.53601000  0.62403000  1.0 0.1139041209
H  H220  1  0.53601000  0.41183000  0.12403000  1.0 0.1139041209
H  H221  1  0.58817000  0.12418000  0.12403000  1.0 0.1139041209
H  H222  1  0.87582000  0.46399000  0.12403000  1.0 0.1139041209
H  H223  1  0.58817000  0.46399000  0.87597000  1.0 0.1139041209
H  H224  1  0.87582000  0.41183000  0.87597000  1.0 0.1139041209
H  H225  1  0.53601000  0.12418000  0.87597000  1.0 0.1139041209
H  H226  1  0.41183000  0.53601000  0.37597000  1.0 0.1139041209
H  H227  1  0.12418000  0.58817000  0.37597000  1.0 0.1139041209
H  H228  1  0.46399000  0.87582000  0.37597000  1.0 0.1139041209
H  H229  1  0.53601000  0.41183000  0.37597000  1.0 0.1139041209
H  H230  1  0.58817000  0.12418000  0.37597000  1.0 0.1139041209
H  H231  1  0.87582000  0.46399000  0.37597000  1.0 0.1139041209
H  H232  1  0.46399000  0.58817000  0.87597000  1.0 0.1139041209
H  H233  1  0.41183000  0.87582000  0.87597000  1.0 0.1139041209
H  H234  1  0.12418000  0.53601000  0.87597000  1.0 0.1139041209
H  H235  1  0.41183000  0.53601000  0.12403000  1.0 0.1139041209
H  H236  1  0.12418000  0.58817000  0.12403000  1.0 0.1139041209
H  H237  1  0.46399000  0.87582000  0.12403000  1.0 0.1139041209
H  H238  1  0.58817000  0.46399000  0.62403000  1.0 0.1139041209
H  H239  1  0.87582000  0.41183000  0.62403000  1.0 0.1139041209
H  H240  1  0.53601000  0.12418000  0.62403000  1.0 0.1139041209
C  C1  1  0.51306000  0.66915000  0.37194000  1.0 -0.0832796575
C  C2  1  0.33085000  0.84391000  0.37194000  1.0 -0.0832796575
C  C3  1  0.15609000  0.48694000  0.37194000  1.0 -0.0832796575
C  C4  1  0.48694000  0.33085000  0.87194000  1.0 -0.0832796575
C  C5  1  0.66915000  0.15609000  0.87194000  1.0 -0.0832796575
C  C6  1  0.84391000  0.51306000  0.87194000  1.0 -0.0832796575
C  C7  1  0.66915000  0.51306000  0.12806000  1.0 -0.0832796575
C  C8  1  0.84391000  0.33085000  0.12806000  1.0 -0.0832796575
C  C9  1  0.48694000  0.15609000  0.12806000  1.0 -0.0832796575
C  C10  1  0.33085000  0.48694000  0.62806000  1.0 -0.0832796575
C  C11  1  0.15609000  0.66915000  0.62806000  1.0 -0.0832796575
C  C12  1  0.51306000  0.84391000  0.62806000  1.0 -0.0832796575
C  C13  1  0.48694000  0.33085000  0.62806000  1.0 -0.0832796575
C  C14  1  0.66915000  0.15609000  0.62806000  1.0 -0.0832796575
C  C15  1  0.84391000  0.51306000  0.62806000  1.0 -0.0832796575
C  C16  1  0.51306000  0.66915000  0.12806000  1.0 -0.0832796575
C  C17  1  0.33085000  0.84391000  0.12806000  1.0 -0.0832796575
C  C18  1  0.15609000  0.48694000  0.12806000  1.0 -0.0832796575
C  C19  1  0.33085000  0.48694000  0.87194000  1.0 -0.0832796575
C  C20  1  0.15609000  0.66915000  0.87194000  1.0 -0.0832796575
C  C21  1  0.51306000  0.84391000  0.87194000  1.0 -0.0832796575
C  C22  1  0.66915000  0.51306000  0.37194000  1.0 -0.0832796575
C  C23  1  0.84391000  0.33085000  0.37194000  1.0 -0.0832796575
C  C24  1  0.48694000  0.15609000  0.37194000  1.0 -0.0832796575
C  C25  1  0.47860000  0.67016000  0.67613000  1.0 0.60096472
C  C26  1  0.32984000  0.80844000  0.67613000  1.0 0.60096472
C  C27  1  0.19156000  0.52140000  0.67613000  1.0 0.60096472
C  C28  1  0.52140000  0.32984000  0.17613000  1.0 0.60096472
C  C29  1  0.67016000  0.19156000  0.17613000  1.0 0.60096472
C  C30  1  0.80844000  0.47860000  0.17613000  1.0 0.60096472
C  C31  1  0.67016000  0.47860000  0.82387000  1.0 0.60096472
C  C32  1  0.80844000  0.32984000  0.82387000  1.0 0.60096472
C  C33  1  0.52140000  0.19156000  0.82387000  1.0 0.60096472
C  C34  1  0.32984000  0.52140000  0.32387000  1.0 0.60096472
C  C35  1  0.19156000  0.67016000  0.32387000  1.0 0.60096472
C  C36  1  0.47860000  0.80844000  0.32387000  1.0 0.60096472
C  C37  1  0.52140000  0.32984000  0.32387000  1.0 0.60096472
C  C38  1  0.67016000  0.19156000  0.32387000  1.0 0.60096472
C  C39  1  0.80844000  0.47860000  0.32387000  1.0 0.60096472
C  C40  1  0.47860000  0.67016000  0.82387000  1.0 0.60096472
C  C41  1  0.32984000  0.80844000  0.82387000  1.0 0.60096472
C  C42  1  0.19156000  0.52140000  0.82387000  1.0 0.60096472
C  C43  1  0.32984000  0.52140000  0.17613000  1.0 0.60096472
C  C44  1  0.19156000  0.67016000  0.17613000  1.0 0.60096472
C  C45  1  0.47860000  0.80844000  0.17613000  1.0 0.60096472
C  C46  1  0.67016000  0.47860000  0.67613000  1.0 0.60096472
C  C47  1  0.80844000  0.32984000  0.67613000  1.0 0.60096472
C  C48  1  0.52140000  0.19156000  0.67613000  1.0 0.60096472
C  C49  1  0.49612000  0.66909000  0.62729000  1.0 -0.0286014319
C  C50  1  0.33091000  0.82703000  0.62729000  1.0 -0.0286014319
C  C51  1  0.17297000  0.50388000  0.62729000  1.0 -0.0286014319
C  C52  1  0.50388000  0.33091000  0.12729000  1.0 -0.0286014319
C  C53  1  0.66909000  0.17297000  0.12729000  1.0 -0.0286014319
C  C54  1  0.82703000  0.49612000  0.12729000  1.0 -0.0286014319
C  C55  1  0.66909000  0.49612000  0.87271000  1.0 -0.0286014319
C  C56  1  0.82703000  0.33091000  0.87271000  1.0 -0.0286014319
C  C57  1  0.50388000  0.17297000  0.87271000  1.0 -0.0286014319
C  C58  1  0.33091000  0.50388000  0.37271000  1.0 -0.0286014319
C  C59  1  0.17297000  0.66909000  0.37271000  1.0 -0.0286014319
C  C60  1  0.49612000  0.82703000  0.37271000  1.0 -0.0286014319
C  C61  1  0.50388000  0.33091000  0.37271000  1.0 -0.0286014319
C  C62  1  0.66909000  0.17297000  0.37271000  1.0 -0.0286014319
C  C63  1  0.82703000  0.49612000  0.37271000  1.0 -0.0286014319
C  C64  1  0.49612000  0.66909000  0.87271000  1.0 -0.0286014319
C  C65  1  0.33091000  0.82703000  0.87271000  1.0 -0.0286014319
C  C66  1  0.17297000  0.50388000  0.87271000  1.0 -0.0286014319
C  C67  1  0.33091000  0.50388000  0.12729000  1.0 -0.0286014319
C  C68  1  0.17297000  0.66909000  0.12729000  1.0 -0.0286014319
C  C69  1  0.49612000  0.82703000  0.12729000  1.0 -0.0286014319
C  C70  1  0.66909000  0.49612000  0.62729000  1.0 -0.0286014319
C  C71  1  0.82703000  0.33091000  0.62729000  1.0 -0.0286014319
C  C72  1  0.50388000  0.17297000  0.62729000  1.0 -0.0286014319
C  C73  1  0.57834000  0.63515000  0.49012000  1.0 0.1521605954
C  C74  1  0.36485000  0.94319000  0.49012000  1.0 0.1521605954
C  C75  1  0.05681000  0.42166000  0.49012000  1.0 0.1521605954
C  C76  1  0.42166000  0.36485000  0.99012000  1.0 0.1521605954
C  C77  1  0.63515000  0.05681000  0.99012000  1.0 0.1521605954
C  C78  1  0.94319000  0.57834000  0.99012000  1.0 0.1521605954
C  C79  1  0.63515000  0.57834000  0.00988000  1.0 0.1521605954
C  C80  1  0.94319000  0.36485000  0.00988000  1.0 0.1521605954
C  C81  1  0.42166000  0.05681000  0.00988000  1.0 0.1521605954
C  C82  1  0.36485000  0.42166000  0.50988000  1.0 0.1521605954
C  C83  1  0.05681000  0.63515000  0.50988000  1.0 0.1521605954
C  C84  1  0.57834000  0.94319000  0.50988000  1.0 0.1521605954
C  C85  1  0.42166000  0.36485000  0.50988000  1.0 0.1521605954
C  C86  1  0.63515000  0.05681000  0.50988000  1.0 0.1521605954
C  C87  1  0.94319000  0.57834000  0.50988000  1.0 0.1521605954
C  C88  1  0.57834000  0.63515000  0.00988000  1.0 0.1521605954
C  C89  1  0.36485000  0.94319000  0.00988000  1.0 0.1521605954
C  C90  1  0.05681000  0.42166000  0.00988000  1.0 0.1521605954
C  C91  1  0.36485000  0.42166000  0.99012000  1.0 0.1521605954
C  C92  1  0.05681000  0.63515000  0.99012000  1.0 0.1521605954
C  C93  1  0.57834000  0.94319000  0.99012000  1.0 0.1521605954
C  C94  1  0.63515000  0.57834000  0.49012000  1.0 0.1521605954
C  C95  1  0.94319000  0.36485000  0.49012000  1.0 0.1521605954
C  C96  1  0.42166000  0.05681000  0.49012000  1.0 0.1521605954
C  C97  1  0.43080000  0.66513000  0.33563000  1.0 0.5874231109
C  C98  1  0.33487000  0.76567000  0.33563000  1.0 0.5874231109
C  C99  1  0.23433000  0.56920000  0.33563000  1.0 0.5874231109
C  C100  1  0.56920000  0.33487000  0.83563000  1.0 0.5874231109
C  C101  1  0.66513000  0.23433000  0.83563000  1.0 0.5874231109
C  C102  1  0.76567000  0.43080000  0.83563000  1.0 0.5874231109
C  C103  1  0.66513000  0.43080000  0.16437000  1.0 0.5874231109
C  C104  1  0.76567000  0.33487000  0.16437000  1.0 0.5874231109
C  C105  1  0.56920000  0.23433000  0.16437000  1.0 0.5874231109
C  C106  1  0.33487000  0.56920000  0.66437000  1.0 0.5874231109
C  C107  1  0.23433000  0.66513000  0.66437000  1.0 0.5874231109
C  C108  1  0.43080000  0.76567000  0.66437000  1.0 0.5874231109
C  C109  1  0.56920000  0.33487000  0.66437000  1.0 0.5874231109
C  C110  1  0.66513000  0.23433000  0.66437000  1.0 0.5874231109
C  C111  1  0.76567000  0.43080000  0.66437000  1.0 0.5874231109
C  C112  1  0.43080000  0.66513000  0.16437000  1.0 0.5874231109
C  C113  1  0.33487000  0.76567000  0.16437000  1.0 0.5874231109
C  C114  1  0.23433000  0.56920000  0.16437000  1.0 0.5874231109
C  C115  1  0.33487000  0.56920000  0.83563000  1.0 0.5874231109
C  C116  1  0.23433000  0.66513000  0.83563000  1.0 0.5874231109
C  C117  1  0.43080000  0.76567000  0.83563000  1.0 0.5874231109
C  C118  1  0.66513000  0.43080000  0.33563000  1.0 0.5874231109
C  C119  1  0.76567000  0.33487000  0.33563000  1.0 0.5874231109
C  C120  1  0.56920000  0.23433000  0.33563000  1.0 0.5874231109
C  C121  1  0.51976000  0.66559000  0.45438000  1.0 0.1878565649
C  C122  1  0.33441000  0.85417000  0.45438000  1.0 0.1878565649
C  C123  1  0.14583000  0.48024000  0.45438000  1.0 0.1878565649
C  C124  1  0.48024000  0.33441000  0.95438000  1.0 0.1878565649
C  C125  1  0.66559000  0.14583000  0.95438000  1.0 0.1878565649
C  C126  1  0.85417000  0.51976000  0.95438000  1.0 0.1878565649
C  C127  1  0.66559000  0.51976000  0.04562000  1.0 0.1878565649
C  C128  1  0.85417000  0.33441000  0.04562000  1.0 0.1878565649
C  C129  1  0.48024000  0.14583000  0.04562000  1.0 0.1878565649
C  C130  1  0.33441000  0.48024000  0.54562000  1.0 0.1878565649
C  C131  1  0.14583000  0.66559000  0.54562000  1.0 0.1878565649
C  C132  1  0.51976000  0.85417000  0.54562000  1.0 0.1878565649
C  C133  1  0.48024000  0.33441000  0.54562000  1.0 0.1878565649
C  C134  1  0.66559000  0.14583000  0.54562000  1.0 0.1878565649
C  C135  1  0.85417000  0.51976000  0.54562000  1.0 0.1878565649
C  C136  1  0.51976000  0.66559000  0.04562000  1.0 0.1878565649
C  C137  1  0.33441000  0.85417000  0.04562000  1.0 0.1878565649
C  C138  1  0.14583000  0.48024000  0.04562000  1.0 0.1878565649
C  C139  1  0.33441000  0.48024000  0.95438000  1.0 0.1878565649
C  C140  1  0.14583000  0.66559000  0.95438000  1.0 0.1878565649
C  C141  1  0.51976000  0.85417000  0.95438000  1.0 0.1878565649
C  C142  1  0.66559000  0.51976000  0.45438000  1.0 0.1878565649
C  C143  1  0.85417000  0.33441000  0.45438000  1.0 0.1878565649
C  C144  1  0.48024000  0.14583000  0.45438000  1.0 0.1878565649
C  C145  1  0.52959000  0.66569000  0.53843000  1.0 0.1629837092
C  C146  1  0.33431000  0.86390000  0.53843000  1.0 0.1629837092
C  C147  1  0.13610000  0.47041000  0.53843000  1.0 0.1629837092
C  C148  1  0.47041000  0.33431000  0.03843000  1.0 0.1629837092
C  C149  1  0.66569000  0.13610000  0.03843000  1.0 0.1629837092
C  C150  1  0.86390000  0.52959000  0.03843000  1.0 0.1629837092
C  C151  1  0.66569000  0.52959000  0.96157000  1.0 0.1629837092
C  C152  1  0.86390000  0.33431000  0.96157000  1.0 0.1629837092
C  C153  1  0.47041000  0.13610000  0.96157000  1.0 0.1629837092
C  C154  1  0.33431000  0.47041000  0.46157000  1.0 0.1629837092
C  C155  1  0.13610000  0.66569000  0.46157000  1.0 0.1629837092
C  C156  1  0.52959000  0.86390000  0.46157000  1.0 0.1629837092
C  C157  1  0.47041000  0.33431000  0.46157000  1.0 0.1629837092
C  C158  1  0.66569000  0.13610000  0.46157000  1.0 0.1629837092
C  C159  1  0.86390000  0.52959000  0.46157000  1.0 0.1629837092
C  C160  1  0.52959000  0.66569000  0.96157000  1.0 0.1629837092
C  C161  1  0.33431000  0.86390000  0.96157000  1.0 0.1629837092
C  C162  1  0.13610000  0.47041000  0.96157000  1.0 0.1629837092
C  C163  1  0.33431000  0.47041000  0.03843000  1.0 0.1629837092
C  C164  1  0.13610000  0.66569000  0.03843000  1.0 0.1629837092
C  C165  1  0.52959000  0.86390000  0.03843000  1.0 0.1629837092
C  C166  1  0.66569000  0.52959000  0.53843000  1.0 0.1629837092
C  C167  1  0.86390000  0.33431000  0.53843000  1.0 0.1629837092
C  C168  1  0.47041000  0.13610000  0.53843000  1.0 0.1629837092
C  C169  1  0.55841000  0.58645000  0.46637000  1.0 -0.1724362107
C  C170  1  0.41355000  0.97196000  0.46637000  1.0 -0.1724362107
C  C171  1  0.02804000  0.44159000  0.46637000  1.0 -0.1724362107
C  C172  1  0.44159000  0.41355000  0.96637000  1.0 -0.1724362107
C  C173  1  0.58645000  0.02804000  0.96637000  1.0 -0.1724362107
C  C174  1  0.97196000  0.55841000  0.96637000  1.0 -0.1724362107
C  C175  1  0.58645000  0.55841000  0.03363000  1.0 -0.1724362107
C  C176  1  0.97196000  0.41355000  0.03363000  1.0 -0.1724362107
C  C177  1  0.44159000  0.02804000  0.03363000  1.0 -0.1724362107
C  C178  1  0.41355000  0.44159000  0.53363000  1.0 -0.1724362107
C  C179  1  0.02804000  0.58645000  0.53363000  1.0 -0.1724362107
C  C180  1  0.55841000  0.97196000  0.53363000  1.0 -0.1724362107
C  C181  1  0.44159000  0.41355000  0.53363000  1.0 -0.1724362107
C  C182  1  0.58645000  0.02804000  0.53363000  1.0 -0.1724362107
C  C183  1  0.97196000  0.55841000  0.53363000  1.0 -0.1724362107
C  C184  1  0.55841000  0.58645000  0.03363000  1.0 -0.1724362107
C  C185  1  0.41355000  0.97196000  0.03363000  1.0 -0.1724362107
C  C186  1  0.02804000  0.44159000  0.03363000  1.0 -0.1724362107
C  C187  1  0.41355000  0.44159000  0.96637000  1.0 -0.1724362107
C  C188  1  0.02804000  0.58645000  0.96637000  1.0 -0.1724362107
C  C189  1  0.55841000  0.97196000  0.96637000  1.0 -0.1724362107
C  C190  1  0.58645000  0.55841000  0.46637000  1.0 -0.1724362107
C  C191  1  0.97196000  0.41355000  0.46637000  1.0 -0.1724362107
C  C192  1  0.44159000  0.02804000  0.46637000  1.0 -0.1724362107
C  C193  1  0.46288000  0.66584000  0.37618000  1.0 -0.0518758208
C  C194  1  0.33416000  0.79704000  0.37618000  1.0 -0.0518758208
C  C195  1  0.20296000  0.53712000  0.37618000  1.0 -0.0518758208
C  C196  1  0.53712000  0.33416000  0.87618000  1.0 -0.0518758208
C  C197  1  0.66584000  0.20296000  0.87618000  1.0 -0.0518758208
C  C198  1  0.79704000  0.46288000  0.87618000  1.0 -0.0518758208
C  C199  1  0.66584000  0.46288000  0.12382000  1.0 -0.0518758208
C  C200  1  0.79704000  0.33416000  0.12382000  1.0 -0.0518758208
C  C201  1  0.53712000  0.20296000  0.12382000  1.0 -0.0518758208
C  C202  1  0.33416000  0.53712000  0.62382000  1.0 -0.0518758208
C  C203  1  0.20296000  0.66584000  0.62382000  1.0 -0.0518758208
C  C204  1  0.46288000  0.79704000  0.62382000  1.0 -0.0518758208
C  C205  1  0.53712000  0.33416000  0.62382000  1.0 -0.0518758208
C  C206  1  0.66584000  0.20296000  0.62382000  1.0 -0.0518758208
C  C207  1  0.79704000  0.46288000  0.62382000  1.0 -0.0518758208
C  C208  1  0.46288000  0.66584000  0.12382000  1.0 -0.0518758208
C  C209  1  0.33416000  0.79704000  0.12382000  1.0 -0.0518758208
C  C210  1  0.20296000  0.53712000  0.12382000  1.0 -0.0518758208
C  C211  1  0.33416000  0.53712000  0.87618000  1.0 -0.0518758208
C  C212  1  0.20296000  0.66584000  0.87618000  1.0 -0.0518758208
C  C213  1  0.46288000  0.79704000  0.87618000  1.0 -0.0518758208
C  C214  1  0.66584000  0.46288000  0.37618000  1.0 -0.0518758208
C  C215  1  0.79704000  0.33416000  0.37618000  1.0 -0.0518758208
C  C216  1  0.53712000  0.20296000  0.37618000  1.0 -0.0518758208
C  C217  1  0.54159000  0.66965000  0.41030000  1.0 -0.2007107723
C  C218  1  0.33035000  0.87194000  0.41030000  1.0 -0.2007107723
C  C219  1  0.12806000  0.45841000  0.41030000  1.0 -0.2007107723
C  C220  1  0.45841000  0.33035000  0.91030000  1.0 -0.2007107723
C  C221  1  0.66965000  0.12806000  0.91030000  1.0 -0.2007107723
C  C222  1  0.87194000  0.54159000  0.91030000  1.0 -0.2007107723
C  C223  1  0.66965000  0.54159000  0.08970000  1.0 -0.2007107723
C  C224  1  0.87194000  0.33035000  0.08970000  1.0 -0.2007107723
C  C225  1  0.45841000  0.12806000  0.08970000  1.0 -0.2007107723
C  C226  1  0.33035000  0.45841000  0.58970000  1.0 -0.2007107723
C  C227  1  0.12806000  0.66965000  0.58970000  1.0 -0.2007107723
C  C228  1  0.54159000  0.87194000  0.58970000  1.0 -0.2007107723
C  C229  1  0.45841000  0.33035000  0.58970000  1.0 -0.2007107723
C  C230  1  0.66965000  0.12806000  0.58970000  1.0 -0.2007107723
C  C231  1  0.87194000  0.54159000  0.58970000  1.0 -0.2007107723
C  C232  1  0.54159000  0.66965000  0.08970000  1.0 -0.2007107723
C  C233  1  0.33035000  0.87194000  0.08970000  1.0 -0.2007107723
C  C234  1  0.12806000  0.45841000  0.08970000  1.0 -0.2007107723
C  C235  1  0.33035000  0.45841000  0.91030000  1.0 -0.2007107723
C  C236  1  0.12806000  0.66965000  0.91030000  1.0 -0.2007107723
C  C237  1  0.54159000  0.87194000  0.91030000  1.0 -0.2007107723
C  C238  1  0.66965000  0.54159000  0.41030000  1.0 -0.2007107723
C  C239  1  0.87194000  0.33035000  0.41030000  1.0 -0.2007107723
C  C240  1  0.45841000  0.12806000  0.41030000  1.0 -0.2007107723
C  C241  1  0.62746000  0.65578000  0.51308000  1.0 -0.1584726498
C  C242  1  0.34422000  0.97168000  0.51308000  1.0 -0.1584726498
C  C243  1  0.02832000  0.37254000  0.51308000  1.0 -0.1584726498
C  C244  1  0.37254000  0.34422000  0.01308000  1.0 -0.1584726498
C  C245  1  0.65578000  0.02832000  0.01308000  1.0 -0.1584726498
C  C246  1  0.97168000  0.62746000  0.01308000  1.0 -0.1584726498
C  C247  1  0.65578000  0.62746000  0.98692000  1.0 -0.1584726498
C  C248  1  0.97168000  0.34422000  0.98692000  1.0 -0.1584726498
C  C249  1  0.37254000  0.02832000  0.98692000  1.0 -0.1584726498
C  C250  1  0.34422000  0.37254000  0.48692000  1.0 -0.1584726498
C  C251  1  0.02832000  0.65578000  0.48692000  1.0 -0.1584726498
C  C252  1  0.62746000  0.97168000  0.48692000  1.0 -0.1584726498
C  C253  1  0.37254000  0.34422000  0.48692000  1.0 -0.1584726498
C  C254  1  0.65578000  0.02832000  0.48692000  1.0 -0.1584726498
C  C255  1  0.97168000  0.62746000  0.48692000  1.0 -0.1584726498
C  C256  1  0.62746000  0.65578000  0.98692000  1.0 -0.1584726498
C  C257  1  0.34422000  0.97168000  0.98692000  1.0 -0.1584726498
C  C258  1  0.02832000  0.37254000  0.98692000  1.0 -0.1584726498
C  C259  1  0.34422000  0.37254000  0.01308000  1.0 -0.1584726498
C  C260  1  0.02832000  0.65578000  0.01308000  1.0 -0.1584726498
C  C261  1  0.62746000  0.97168000  0.01308000  1.0 -0.1584726498
C  C262  1  0.65578000  0.62746000  0.51308000  1.0 -0.1584726498
C  C263  1  0.97168000  0.34422000  0.51308000  1.0 -0.1584726498
C  C264  1  0.37254000  0.02832000  0.51308000  1.0 -0.1584726498
C  C265  1  0.44150000  0.66339000  0.41996000  1.0 -0.0889233602
C  C266  1  0.33661000  0.77811000  0.41996000  1.0 -0.0889233602
C  C267  1  0.22189000  0.55850000  0.41996000  1.0 -0.0889233602
C  C268  1  0.55850000  0.33661000  0.91996000  1.0 -0.0889233602
C  C269  1  0.66339000  0.22189000  0.91996000  1.0 -0.0889233602
C  C270  1  0.77811000  0.44150000  0.91996000  1.0 -0.0889233602
C  C271  1  0.66339000  0.44150000  0.08004000  1.0 -0.0889233602
C  C272  1  0.77811000  0.33661000  0.08004000  1.0 -0.0889233602
C  C273  1  0.55850000  0.22189000  0.08004000  1.0 -0.0889233602
C  C274  1  0.33661000  0.55850000  0.58004000  1.0 -0.0889233602
C  C275  1  0.22189000  0.66339000  0.58004000  1.0 -0.0889233602
C  C276  1  0.44150000  0.77811000  0.58004000  1.0 -0.0889233602
C  C277  1  0.55850000  0.33661000  0.58004000  1.0 -0.0889233602
C  C278  1  0.66339000  0.22189000  0.58004000  1.0 -0.0889233602
C  C279  1  0.77811000  0.44150000  0.58004000  1.0 -0.0889233602
C  C280  1  0.44150000  0.66339000  0.08004000  1.0 -0.0889233602
C  C281  1  0.33661000  0.77811000  0.08004000  1.0 -0.0889233602
C  C282  1  0.22189000  0.55850000  0.08004000  1.0 -0.0889233602
C  C283  1  0.33661000  0.55850000  0.91996000  1.0 -0.0889233602
C  C284  1  0.22189000  0.66339000  0.91996000  1.0 -0.0889233602
C  C285  1  0.44150000  0.77811000  0.91996000  1.0 -0.0889233602
C  C286  1  0.66339000  0.44150000  0.41996000  1.0 -0.0889233602
C  C287  1  0.77811000  0.33661000  0.41996000  1.0 -0.0889233602
C  C288  1  0.55850000  0.22189000  0.41996000  1.0 -0.0889233602
C  C289  1  0.47013000  0.66388000  0.45865000  1.0 -0.2095904885
C  C290  1  0.33612000  0.80625000  0.45865000  1.0 -0.2095904885
C  C291  1  0.19375000  0.52987000  0.45865000  1.0 -0.2095904885
C  C292  1  0.52987000  0.33612000  0.95865000  1.0 -0.2095904885
C  C293  1  0.66388000  0.19375000  0.95865000  1.0 -0.2095904885
C  C294  1  0.80625000  0.47013000  0.95865000  1.0 -0.2095904885
C  C295  1  0.66388000  0.47013000  0.04135000  1.0 -0.2095904885
C  C296  1  0.80625000  0.33612000  0.04135000  1.0 -0.2095904885
C  C297  1  0.52987000  0.19375000  0.04135000  1.0 -0.2095904885
C  C298  1  0.33612000  0.52987000  0.54135000  1.0 -0.2095904885
C  C299  1  0.19375000  0.66388000  0.54135000  1.0 -0.2095904885
C  C300  1  0.47013000  0.80625000  0.54135000  1.0 -0.2095904885
C  C301  1  0.52987000  0.33612000  0.54135000  1.0 -0.2095904885
C  C302  1  0.66388000  0.19375000  0.54135000  1.0 -0.2095904885
C  C303  1  0.80625000  0.47013000  0.54135000  1.0 -0.2095904885
C  C304  1  0.47013000  0.66388000  0.04135000  1.0 -0.2095904885
C  C305  1  0.33612000  0.80625000  0.04135000  1.0 -0.2095904885
C  C306  1  0.19375000  0.52987000  0.04135000  1.0 -0.2095904885
C  C307  1  0.33612000  0.52987000  0.95865000  1.0 -0.2095904885
C  C308  1  0.19375000  0.66388000  0.95865000  1.0 -0.2095904885
C  C309  1  0.47013000  0.80625000  0.95865000  1.0 -0.2095904885
C  C310  1  0.66388000  0.47013000  0.45865000  1.0 -0.2095904885
C  C311  1  0.80625000  0.33612000  0.45865000  1.0 -0.2095904885
C  C312  1  0.52987000  0.19375000  0.45865000  1.0 -0.2095904885
C  C313  1  0.52429000  0.71610000  0.60235000  1.0 -0.0832796575
C  C314  1  0.28390000  0.80819000  0.60235000  1.0 -0.0832796575
C  C315  1  0.19181000  0.47571000  0.60235000  1.0 -0.0832796575
C  C316  1  0.47571000  0.28390000  0.10235000  1.0 -0.0832796575
C  C317  1  0.71610000  0.19181000  0.10235000  1.0 -0.0832796575
C  C318  1  0.80819000  0.52429000  0.10235000  1.0 -0.0832796575
C  C319  1  0.71610000  0.52429000  0.89765000  1.0 -0.0832796575
C  C320  1  0.80819000  0.28390000  0.89765000  1.0 -0.0832796575
C  C321  1  0.47571000  0.19181000  0.89765000  1.0 -0.0832796575
C  C322  1  0.28390000  0.47571000  0.39765000  1.0 -0.0832796575
C  C323  1  0.19181000  0.71610000  0.39765000  1.0 -0.0832796575
C  C324  1  0.52429000  0.80819000  0.39765000  1.0 -0.0832796575
C  C325  1  0.47571000  0.28390000  0.39765000  1.0 -0.0832796575
C  C326  1  0.71610000  0.19181000  0.39765000  1.0 -0.0832796575
C  C327  1  0.80819000  0.52429000  0.39765000  1.0 -0.0832796575
C  C328  1  0.52429000  0.71610000  0.89765000  1.0 -0.0832796575
C  C329  1  0.28390000  0.80819000  0.89765000  1.0 -0.0832796575
C  C330  1  0.19181000  0.47571000  0.89765000  1.0 -0.0832796575
C  C331  1  0.28390000  0.47571000  0.10235000  1.0 -0.0832796575
C  C332  1  0.19181000  0.71610000  0.10235000  1.0 -0.0832796575
C  C333  1  0.52429000  0.80819000  0.10235000  1.0 -0.0832796575
C  C334  1  0.71610000  0.52429000  0.60235000  1.0 -0.0832796575
C  C335  1  0.80819000  0.28390000  0.60235000  1.0 -0.0832796575
C  C336  1  0.47571000  0.19181000  0.60235000  1.0 -0.0832796575
C  C337  1  0.54137000  0.71470000  0.55748000  1.0 -0.1901395334
C  C338  1  0.28530000  0.82667000  0.55748000  1.0 -0.1901395334
C  C339  1  0.17333000  0.45863000  0.55748000  1.0 -0.1901395334
C  C340  1  0.45863000  0.28530000  0.05748000  1.0 -0.1901395334
C  C341  1  0.71470000  0.17333000  0.05748000  1.0 -0.1901395334
C  C342  1  0.82667000  0.54137000  0.05748000  1.0 -0.1901395334
C  C343  1  0.71470000  0.54137000  0.94252000  1.0 -0.1901395334
C  C344  1  0.82667000  0.28530000  0.94252000  1.0 -0.1901395334
C  C345  1  0.45863000  0.17333000  0.94252000  1.0 -0.1901395334
C  C346  1  0.28530000  0.45863000  0.44252000  1.0 -0.1901395334
C  C347  1  0.17333000  0.71470000  0.44252000  1.0 -0.1901395334
C  C348  1  0.54137000  0.82667000  0.44252000  1.0 -0.1901395334
C  C349  1  0.45863000  0.28530000  0.44252000  1.0 -0.1901395334
C  C350  1  0.71470000  0.17333000  0.44252000  1.0 -0.1901395334
C  C351  1  0.82667000  0.54137000  0.44252000  1.0 -0.1901395334
C  C352  1  0.54137000  0.71470000  0.94252000  1.0 -0.1901395334
C  C353  1  0.28530000  0.82667000  0.94252000  1.0 -0.1901395334
C  C354  1  0.17333000  0.45863000  0.94252000  1.0 -0.1901395334
C  C355  1  0.28530000  0.45863000  0.05748000  1.0 -0.1901395334
C  C356  1  0.17333000  0.71470000  0.05748000  1.0 -0.1901395334
C  C357  1  0.54137000  0.82667000  0.05748000  1.0 -0.1901395334
C  C358  1  0.71470000  0.54137000  0.55748000  1.0 -0.1901395334
C  C359  1  0.82667000  0.28530000  0.55748000  1.0 -0.1901395334
C  C360  1  0.45863000  0.17333000  0.55748000  1.0 -0.1901395334
C  C361  1  0.50090000  0.61914000  0.56272000  1.0 -0.2007107723
C  C362  1  0.38086000  0.88176000  0.56272000  1.0 -0.2007107723
C  C363  1  0.11824000  0.49910000  0.56272000  1.0 -0.2007107723
C  C364  1  0.49910000  0.38086000  0.06272000  1.0 -0.2007107723
C  C365  1  0.61914000  0.11824000  0.06272000  1.0 -0.2007107723
C  C366  1  0.88176000  0.50090000  0.06272000  1.0 -0.2007107723
C  C367  1  0.61914000  0.50090000  0.93728000  1.0 -0.2007107723
C  C368  1  0.88176000  0.38086000  0.93728000  1.0 -0.2007107723
C  C369  1  0.49910000  0.11824000  0.93728000  1.0 -0.2007107723
C  C370  1  0.38086000  0.49910000  0.43728000  1.0 -0.2007107723
C  C371  1  0.11824000  0.61914000  0.43728000  1.0 -0.2007107723
C  C372  1  0.50090000  0.88176000  0.43728000  1.0 -0.2007107723
C  C373  1  0.49910000  0.38086000  0.43728000  1.0 -0.2007107723
C  C374  1  0.61914000  0.11824000  0.43728000  1.0 -0.2007107723
C  C375  1  0.88176000  0.50090000  0.43728000  1.0 -0.2007107723
C  C376  1  0.50090000  0.61914000  0.93728000  1.0 -0.2007107723
C  C377  1  0.38086000  0.88176000  0.93728000  1.0 -0.2007107723
C  C378  1  0.11824000  0.49910000  0.93728000  1.0 -0.2007107723
C  C379  1  0.38086000  0.49910000  0.06272000  1.0 -0.2007107723
C  C380  1  0.11824000  0.61914000  0.06272000  1.0 -0.2007107723
C  C381  1  0.50090000  0.88176000  0.06272000  1.0 -0.2007107723
C  C382  1  0.61914000  0.50090000  0.56272000  1.0 -0.2007107723
C  C383  1  0.88176000  0.38086000  0.56272000  1.0 -0.2007107723
C  C384  1  0.49910000  0.11824000  0.56272000  1.0 -0.2007107723
C  C385  1  0.48380000  0.62050000  0.60759000  1.0 -0.0889233602
C  C386  1  0.37950000  0.86330000  0.60759000  1.0 -0.0889233602
C  C387  1  0.13670000  0.51620000  0.60759000  1.0 -0.0889233602
C  C388  1  0.51620000  0.37950000  0.10759000  1.0 -0.0889233602
C  C389  1  0.62050000  0.13670000  0.10759000  1.0 -0.0889233602
C  C390  1  0.86330000  0.48380000  0.10759000  1.0 -0.0889233602
C  C391  1  0.62050000  0.48380000  0.89241000  1.0 -0.0889233602
C  C392  1  0.86330000  0.37950000  0.89241000  1.0 -0.0889233602
C  C393  1  0.51620000  0.13670000  0.89241000  1.0 -0.0889233602
C  C394  1  0.37950000  0.51620000  0.39241000  1.0 -0.0889233602
C  C395  1  0.13670000  0.62050000  0.39241000  1.0 -0.0889233602
C  C396  1  0.48380000  0.86330000  0.39241000  1.0 -0.0889233602
C  C397  1  0.51620000  0.37950000  0.39241000  1.0 -0.0889233602
C  C398  1  0.62050000  0.13670000  0.39241000  1.0 -0.0889233602
C  C399  1  0.86330000  0.48380000  0.39241000  1.0 -0.0889233602
C  C400  1  0.48380000  0.62050000  0.89241000  1.0 -0.0889233602
C  C401  1  0.37950000  0.86330000  0.89241000  1.0 -0.0889233602
C  C402  1  0.13670000  0.51620000  0.89241000  1.0 -0.0889233602
C  C403  1  0.37950000  0.51620000  0.10759000  1.0 -0.0889233602
C  C404  1  0.13670000  0.62050000  0.10759000  1.0 -0.0889233602
C  C405  1  0.48380000  0.86330000  0.10759000  1.0 -0.0889233602
C  C406  1  0.62050000  0.48380000  0.60759000  1.0 -0.0889233602
C  C407  1  0.86330000  0.37950000  0.60759000  1.0 -0.0889233602
C  C408  1  0.51620000  0.13670000  0.60759000  1.0 -0.0889233602
N  N1  1  0.54908000  0.66408000  0.49303000  1.0 -0.1901395334
N  N2  1  0.33592000  0.88500000  0.49303000  1.0 -0.1901395334
N  N3  1  0.11500000  0.45092000  0.49303000  1.0 -0.1901395334
N  N4  1  0.45092000  0.33592000  0.99303000  1.0 -0.1901395334
N  N5  1  0.66408000  0.11500000  0.99303000  1.0 -0.1901395334
N  N6  1  0.88500000  0.54908000  0.99303000  1.0 -0.1901395334
N  N7  1  0.66408000  0.54908000  0.00697000  1.0 -0.1901395334
N  N8  1  0.88500000  0.33592000  0.00697000  1.0 -0.1901395334
N  N9  1  0.45092000  0.11500000  0.00697000  1.0 -0.1901395334
N  N10  1  0.33592000  0.45092000  0.50697000  1.0 -0.1901395334
N  N11  1  0.11500000  0.66408000  0.50697000  1.0 -0.1901395334
N  N12  1  0.54908000  0.88500000  0.50697000  1.0 -0.1901395334
N  N13  1  0.45092000  0.33592000  0.50697000  1.0 -0.1901395334
N  N14  1  0.66408000  0.11500000  0.50697000  1.0 -0.1901395334
N  N15  1  0.88500000  0.54908000  0.50697000  1.0 -0.1901395334
N  N16  1  0.54908000  0.66408000  0.00697000  1.0 -0.1901395334
N  N17  1  0.33592000  0.88500000  0.00697000  1.0 -0.1901395334
N  N18  1  0.11500000  0.45092000  0.00697000  1.0 -0.1901395334
N  N19  1  0.33592000  0.45092000  0.99303000  1.0 -0.1901395334
N  N20  1  0.11500000  0.66408000  0.99303000  1.0 -0.1901395334
N  N21  1  0.54908000  0.88500000  0.99303000  1.0 -0.1901395334
N  N22  1  0.66408000  0.54908000  0.49303000  1.0 -0.1901395334
N  N23  1  0.88500000  0.33592000  0.49303000  1.0 -0.1901395334
N  N24  1  0.45092000  0.11500000  0.49303000  1.0 -0.1901395334
O  O1  1  0.33173000  0.61056000  0.25000000  1.0 -0.7644505849
O  O2  1  0.38944000  0.72117000  0.25000000  1.0 -0.7644505849
O  O3  1  0.27883000  0.66827000  0.25000000  1.0 -0.7709230757
O  O4  1  0.66827000  0.38944000  0.75000000  1.0 -0.7709230757
O  O5  1  0.61056000  0.27883000  0.75000000  1.0 -0.7709230757
O  O6  1  0.72117000  0.33173000  0.75000000  1.0 -0.7709230757
O  O7  1  0.61056000  0.33173000  0.25000000  1.0 -0.7709230757
O  O8  1  0.72117000  0.38944000  0.25000000  1.0 -0.7709230757
O  O9  1  0.66827000  0.27883000  0.25000000  1.0 -0.7709230757
O  O10  1  0.38944000  0.66827000  0.75000000  1.0 -0.7709230757
O  O11  1  0.27883000  0.61056000  0.75000000  1.0 -0.7644505849
O  O12  1  0.33173000  0.72117000  0.75000000  1.0 -0.7644505849
O  O13  1  0.44957000  0.66473000  0.29512000  1.0 -0.6070753436
O  O14  1  0.33527000  0.78484000  0.29512000  1.0 -0.6070753436
O  O15  1  0.21516000  0.55043000  0.29512000  1.0 -0.6070753436
O  O16  1  0.55043000  0.33527000  0.79512000  1.0 -0.6070753436
O  O17  1  0.66473000  0.21516000  0.79512000  1.0 -0.6070753436
O  O18  1  0.78484000  0.44957000  0.79512000  1.0 -0.6070753436
O  O19  1  0.66473000  0.44957000  0.20488000  1.0 -0.6070753436
O  O20  1  0.78484000  0.33527000  0.20488000  1.0 -0.6070753436
O  O21  1  0.55043000  0.21516000  0.20488000  1.0 -0.6070753436
O  O22  1  0.33527000  0.55043000  0.70488000  1.0 -0.6070753436
O  O23  1  0.21516000  0.66473000  0.70488000  1.0 -0.6070753436
O  O24  1  0.44957000  0.78484000  0.70488000  1.0 -0.6070753436
O  O25  1  0.55043000  0.33527000  0.70488000  1.0 -0.6070753436
O  O26  1  0.66473000  0.21516000  0.70488000  1.0 -0.6070753436
O  O27  1  0.78484000  0.44957000  0.70488000  1.0 -0.6070753436
O  O28  1  0.44957000  0.66473000  0.20488000  1.0 -0.6070753436
O  O29  1  0.33527000  0.78484000  0.20488000  1.0 -0.6070753436
O  O30  1  0.21516000  0.55043000  0.20488000  1.0 -0.6070753436
O  O31  1  0.33527000  0.55043000  0.79512000  1.0 -0.6070753436
O  O32  1  0.21516000  0.66473000  0.79512000  1.0 -0.6070753436
O  O33  1  0.44957000  0.78484000  0.79512000  1.0 -0.6070753436
O  O34  1  0.66473000  0.44957000  0.29512000  1.0 -0.6070753436
O  O35  1  0.78484000  0.33527000  0.29512000  1.0 -0.6070753436
O  O36  1  0.55043000  0.21516000  0.29512000  1.0 -0.6070753436
O  O37  1  0.49513000  0.71604000  0.69396000  1.0 -0.5459952206
O  O38  1  0.28396000  0.77909000  0.69396000  1.0 -0.5459952206
O  O39  1  0.22091000  0.50487000  0.69396000  1.0 -0.5459952206
O  O40  1  0.50487000  0.28396000  0.19396000  1.0 -0.5448810946
O  O41  1  0.71604000  0.22091000  0.19396000  1.0 -0.5448810946
O  O42  1  0.77909000  0.49513000  0.19396000  1.0 -0.5459952206
O  O43  1  0.71604000  0.49513000  0.80604000  1.0 -0.5448810946
O  O44  1  0.77909000  0.28396000  0.80604000  1.0 -0.5448810946
O  O45  1  0.50487000  0.22091000  0.80604000  1.0 -0.5448810946
O  O46  1  0.28396000  0.50487000  0.30604000  1.0 -0.5459952206
O  O47  1  0.22091000  0.71604000  0.30604000  1.0 -0.5459952206
O  O48  1  0.49513000  0.77909000  0.30604000  1.0 -0.5459952206
O  O49  1  0.50487000  0.28396000  0.30604000  1.0 -0.5448810946
O  O50  1  0.71604000  0.22091000  0.30604000  1.0 -0.5448810946
O  O51  1  0.77909000  0.49513000  0.30604000  1.0 -0.5459952206
O  O52  1  0.49513000  0.71604000  0.80604000  1.0 -0.5459952206
O  O53  1  0.28396000  0.77909000  0.80604000  1.0 -0.5459952206
O  O54  1  0.22091000  0.50487000  0.80604000  1.0 -0.5459952206
O  O55  1  0.28396000  0.50487000  0.19396000  1.0 -0.5459952206
O  O56  1  0.22091000  0.71604000  0.19396000  1.0 -0.5459952206
O  O57  1  0.49513000  0.77909000  0.19396000  1.0 -0.5459952206
O  O58  1  0.71604000  0.49513000  0.69396000  1.0 -0.5448810946
O  O59  1  0.77909000  0.28396000  0.69396000  1.0 -0.5448810946
O  O60  1  0.50487000  0.22091000  0.69396000  1.0 -0.5448810946
O  O61  1  0.44950000  0.62510000  0.69496000  1.0 -0.5448810946
O  O62  1  0.37490000  0.82440000  0.69496000  1.0 -0.5448810946
O  O63  1  0.17560000  0.55050000  0.69496000  1.0 -0.5459952206
O  O64  1  0.55050000  0.37490000  0.19496000  1.0 -0.5448810946
O  O65  1  0.62510000  0.17560000  0.19496000  1.0 -0.5448810946
O  O66  1  0.82440000  0.44950000  0.19496000  1.0 -0.5448810946
O  O67  1  0.62510000  0.44950000  0.80504000  1.0 -0.5448810946
O  O68  1  0.82440000  0.37490000  0.80504000  1.0 -0.5448810946
O  O69  1  0.55050000  0.17560000  0.80504000  1.0 -0.5448810946
O  O70  1  0.37490000  0.55050000  0.30504000  1.0 -0.5448810946
O  O71  1  0.17560000  0.62510000  0.30504000  1.0 -0.5459952206
O  O72  1  0.44950000  0.82440000  0.30504000  1.0 -0.5448810946
O  O73  1  0.55050000  0.37490000  0.30504000  1.0 -0.5448810946
O  O74  1  0.62510000  0.17560000  0.30504000  1.0 -0.5448810946
O  O75  1  0.82440000  0.44950000  0.30504000  1.0 -0.5448810946
O  O76  1  0.44950000  0.62510000  0.80504000  1.0 -0.5448810946
O  O77  1  0.37490000  0.82440000  0.80504000  1.0 -0.5448810946
O  O78  1  0.17560000  0.55050000  0.80504000  1.0 -0.5459952206
O  O79  1  0.37490000  0.55050000  0.19496000  1.0 -0.5448810946
O  O80  1  0.17560000  0.62510000  0.19496000  1.0 -0.5459952206
O  O81  1  0.44950000  0.82440000  0.19496000  1.0 -0.5448810946
O  O82  1  0.62510000  0.44950000  0.69496000  1.0 -0.5448810946
O  O83  1  0.82440000  0.37490000  0.69496000  1.0 -0.5448810946
O  O84  1  0.55050000  0.17560000  0.69496000  1.0 -0.5448810946
O  O85  1  0.38760000  0.66499000  0.34250000  1.0 -0.4702352299
O  O86  1  0.33501000  0.72261000  0.34250000  1.0 -0.4702352299
O  O87  1  0.27739000  0.61240000  0.34250000  1.0 -0.4702352299
O  O88  1  0.61240000  0.33501000  0.84250000  1.0 -0.4702352299
O  O89  1  0.66499000  0.27739000  0.84250000  1.0 -0.4702352299
O  O90  1  0.72261000  0.38760000  0.84250000  1.0 -0.4702352299
O  O91  1  0.66499000  0.38760000  0.15750000  1.0 -0.4702352299
O  O92  1  0.72261000  0.33501000  0.15750000  1.0 -0.4702352299
O  O93  1  0.61240000  0.27739000  0.15750000  1.0 -0.4702352299
O  O94  1  0.33501000  0.61240000  0.65750000  1.0 -0.4702352299
O  O95  1  0.27739000  0.66499000  0.65750000  1.0 -0.4702352299
O  O96  1  0.38760000  0.72261000  0.65750000  1.0 -0.4702352299
O  O97  1  0.61240000  0.33501000  0.65750000  1.0 -0.4702352299
O  O98  1  0.66499000  0.27739000  0.65750000  1.0 -0.4702352299
O  O99  1  0.72261000  0.38760000  0.65750000  1.0 -0.4702352299
O  O100  1  0.38760000  0.66499000  0.15750000  1.0 -0.4702352299
O  O101  1  0.33501000  0.72261000  0.15750000  1.0 -0.4702352299
O  O102  1  0.27739000  0.61240000  0.15750000  1.0 -0.4702352299
O  O103  1  0.33501000  0.61240000  0.84250000  1.0 -0.4702352299
O  O104  1  0.27739000  0.66499000  0.84250000  1.0 -0.4702352299
O  O105  1  0.38760000  0.72261000  0.84250000  1.0 -0.4702352299
O  O106  1  0.66499000  0.38760000  0.34250000  1.0 -0.4702352299
O  O107  1  0.72261000  0.33501000  0.34250000  1.0 -0.4702352299
O  O108  1  0.61240000  0.27739000  0.34250000  1.0 -0.4702352299
