# DDEC6 charges by PACMAN v1.1 (https://github.com/mtap-research/PACMAN-charge/)
data_BIWSEG_ASR_pacman
_symmetry_space_group_name_H-M   'P 1'
_cell_length_a   29.03000000
_cell_length_b   29.03000000
_cell_length_c   29.03000000
_cell_angle_alpha   90.00000000
_cell_angle_beta   90.00000000
_cell_angle_gamma   90.00000000
_symmetry_Int_Tables_number   1
_chemical_formula_structural   Cu12H8C104N32Cl5O24
_chemical_formula_sum   'Cu36 H24 C312 N96 Cl15 O72'
_cell_volume   24464.76832700
_cell_formula_units_Z   3
loop_
 _symmetry_equiv_pos_site_id
 _symmetry_equiv_pos_as_xyz
  1  'x, y, z'
loop_
 _atom_site_type_symbol
 _atom_site_label
 _atom_site_symmetry_multiplicity
 _atom_site_fract_x
 _atom_site_fract_y
 _atom_site_fract_z
 _atom_site_occupancy
 _atom_site_charge
Cu  Cu1  1  0.41256000  0.00000000  0.50000000  1.0 0.5406495063
Cu  Cu2  1  0.50000000  0.41256000  0.00000000  1.0 0.5406495063
Cu  Cu3  1  0.00000000  0.50000000  0.41256000  1.0 0.5406495063
Cu  Cu4  1  0.00000000  0.41256000  0.50000000  1.0 0.5406495063
Cu  Cu5  1  0.00000000  0.58744000  0.50000000  1.0 0.5406495063
Cu  Cu6  1  0.41256000  0.50000000  0.00000000  1.0 0.5406495063
Cu  Cu7  1  0.58744000  0.50000000  0.00000000  1.0 0.5406495063
Cu  Cu8  1  0.50000000  0.00000000  0.58744000  1.0 0.5406495063
Cu  Cu9  1  0.50000000  0.00000000  0.41256000  1.0 0.5406495063
Cu  Cu10  1  0.58744000  0.00000000  0.50000000  1.0 0.5406495063
Cu  Cu11  1  0.50000000  0.58744000  0.00000000  1.0 0.5406495063
Cu  Cu12  1  0.00000000  0.50000000  0.58744000  1.0 0.5406495063
Cu  Cu13  1  0.33480000  0.08900000  0.50000000  1.0 0.3719740737
Cu  Cu14  1  0.50000000  0.33480000  0.08900000  1.0 0.3719740737
Cu  Cu15  1  0.08900000  0.50000000  0.33480000  1.0 0.3719740737
Cu  Cu16  1  0.08900000  0.33480000  0.50000000  1.0 0.3719740737
Cu  Cu17  1  0.08900000  0.66520000  0.50000000  1.0 0.3719740737
Cu  Cu18  1  0.91100000  0.33480000  0.50000000  1.0 0.3751175631
Cu  Cu19  1  0.33480000  0.50000000  0.91100000  1.0 0.3719740737
Cu  Cu20  1  0.66520000  0.50000000  0.08900000  1.0 0.3719740737
Cu  Cu21  1  0.33480000  0.50000000  0.08900000  1.0 0.3719740737
Cu  Cu22  1  0.50000000  0.08900000  0.66520000  1.0 0.3719740737
Cu  Cu23  1  0.50000000  0.91100000  0.33480000  1.0 0.3719740737
Cu  Cu24  1  0.50000000  0.08900000  0.33480000  1.0 0.3719740737
Cu  Cu25  1  0.66520000  0.91100000  0.50000000  1.0 0.3719740737
Cu  Cu26  1  0.66520000  0.08900000  0.50000000  1.0 0.3719740737
Cu  Cu27  1  0.33480000  0.91100000  0.50000000  1.0 0.3719740737
Cu  Cu28  1  0.50000000  0.66520000  0.91100000  1.0 0.3719740737
Cu  Cu29  1  0.50000000  0.66520000  0.08900000  1.0 0.3719740737
Cu  Cu30  1  0.50000000  0.33480000  0.91100000  1.0 0.3719740737
Cu  Cu31  1  0.91100000  0.50000000  0.66520000  1.0 0.3719740737
Cu  Cu32  1  0.08900000  0.50000000  0.66520000  1.0 0.3719740737
Cu  Cu33  1  0.91100000  0.50000000  0.33480000  1.0 0.3751175631
Cu  Cu34  1  0.91100000  0.66520000  0.50000000  1.0 0.3719740737
Cu  Cu35  1  0.66520000  0.50000000  0.91100000  1.0 0.3719740737
Cu  Cu36  1  0.50000000  0.91100000  0.66520000  1.0 0.3719740737
H  H1  1  0.36750000  0.27110000  0.72890000  1.0 0.1272036871
H  H2  1  0.72890000  0.36750000  0.27110000  1.0 0.1272036871
H  H3  1  0.27110000  0.72890000  0.36750000  1.0 0.1272036871
H  H4  1  0.27110000  0.36750000  0.27110000  1.0 0.1272036871
H  H5  1  0.27110000  0.63250000  0.72890000  1.0 0.1272036871
H  H6  1  0.72890000  0.36750000  0.72890000  1.0 0.1272036871
H  H7  1  0.36750000  0.72890000  0.72890000  1.0 0.1272036871
H  H8  1  0.63250000  0.72890000  0.27110000  1.0 0.1272036871
H  H9  1  0.36750000  0.27110000  0.27110000  1.0 0.1272036871
H  H10  1  0.72890000  0.27110000  0.63250000  1.0 0.1272036871
H  H11  1  0.72890000  0.72890000  0.36750000  1.0 0.1272036871
H  H12  1  0.27110000  0.27110000  0.36750000  1.0 0.1272036871
H  H13  1  0.63250000  0.72890000  0.72890000  1.0 0.1272036871
H  H14  1  0.63250000  0.27110000  0.27110000  1.0 0.1272036871
H  H15  1  0.36750000  0.72890000  0.27110000  1.0 0.1272036871
H  H16  1  0.72890000  0.63250000  0.72890000  1.0 0.1272036871
H  H17  1  0.27110000  0.63250000  0.27110000  1.0 0.1272036871
H  H18  1  0.27110000  0.36750000  0.72890000  1.0 0.1272036871
H  H19  1  0.72890000  0.72890000  0.63250000  1.0 0.1272036871
H  H20  1  0.27110000  0.27110000  0.63250000  1.0 0.1272036871
H  H21  1  0.72890000  0.27110000  0.36750000  1.0 0.1272036871
H  H22  1  0.72890000  0.63250000  0.27110000  1.0 0.1272036871
H  H23  1  0.63250000  0.27110000  0.72890000  1.0 0.1272036871
H  H24  1  0.27110000  0.72890000  0.63250000  1.0 0.1272036871
C  C1  1  0.40530000  0.10320000  0.59470000  1.0 0.2703773296
C  C2  1  0.59470000  0.40530000  0.10320000  1.0 0.2703773296
C  C3  1  0.10320000  0.59470000  0.40530000  1.0 0.2703773296
C  C4  1  0.10320000  0.40530000  0.40530000  1.0 0.2703773296
C  C5  1  0.10320000  0.59470000  0.59470000  1.0 0.2703773296
C  C6  1  0.89680000  0.40530000  0.59470000  1.0 0.2703773296
C  C7  1  0.40530000  0.59470000  0.89680000  1.0 0.2703773296
C  C8  1  0.59470000  0.59470000  0.10320000  1.0 0.2703773296
C  C9  1  0.40530000  0.40530000  0.10320000  1.0 0.2703773296
C  C10  1  0.59470000  0.10320000  0.59470000  1.0 0.2703773296
C  C11  1  0.59470000  0.89680000  0.40530000  1.0 0.2703773296
C  C12  1  0.40530000  0.10320000  0.40530000  1.0 0.2703773296
C  C13  1  0.59470000  0.89680000  0.59470000  1.0 0.2703773296
C  C14  1  0.59470000  0.10320000  0.40530000  1.0 0.2703773296
C  C15  1  0.40530000  0.89680000  0.40530000  1.0 0.2703773296
C  C16  1  0.59470000  0.59470000  0.89680000  1.0 0.2703773296
C  C17  1  0.40530000  0.59470000  0.10320000  1.0 0.2703773296
C  C18  1  0.40530000  0.40530000  0.89680000  1.0 0.2703773296
C  C19  1  0.89680000  0.59470000  0.59470000  1.0 0.2703773296
C  C20  1  0.10320000  0.40530000  0.59470000  1.0 0.2703773296
C  C21  1  0.89680000  0.40530000  0.40530000  1.0 0.2703773296
C  C22  1  0.89680000  0.59470000  0.40530000  1.0 0.2703773296
C  C23  1  0.59470000  0.40530000  0.89680000  1.0 0.2703773296
C  C24  1  0.40530000  0.89680000  0.59470000  1.0 0.2703773296
C  C25  1  0.38440000  0.14500000  0.61560000  1.0 0.0333266391
C  C26  1  0.61560000  0.38440000  0.14500000  1.0 0.0333266391
C  C27  1  0.14500000  0.61560000  0.38440000  1.0 0.0333266391
C  C28  1  0.14500000  0.38440000  0.38440000  1.0 0.0333266391
C  C29  1  0.14500000  0.61560000  0.61560000  1.0 0.0333266391
C  C30  1  0.85500000  0.38440000  0.61560000  1.0 0.0333266391
C  C31  1  0.38440000  0.61560000  0.85500000  1.0 0.0333266391
C  C32  1  0.61560000  0.61560000  0.14500000  1.0 0.0333266391
C  C33  1  0.38440000  0.38440000  0.14500000  1.0 0.0333266391
C  C34  1  0.61560000  0.14500000  0.61560000  1.0 0.0333266391
C  C35  1  0.61560000  0.85500000  0.38440000  1.0 0.0333266391
C  C36  1  0.38440000  0.14500000  0.38440000  1.0 0.0333266391
C  C37  1  0.61560000  0.85500000  0.61560000  1.0 0.0333266391
C  C38  1  0.61560000  0.14500000  0.38440000  1.0 0.0333266391
C  C39  1  0.38440000  0.85500000  0.38440000  1.0 0.0333266391
C  C40  1  0.61560000  0.61560000  0.85500000  1.0 0.0333266391
C  C41  1  0.38440000  0.61560000  0.14500000  1.0 0.0333266391
C  C42  1  0.38440000  0.38440000  0.85500000  1.0 0.0333266391
C  C43  1  0.85500000  0.61560000  0.61560000  1.0 0.0333266391
C  C44  1  0.14500000  0.38440000  0.61560000  1.0 0.0333266391
C  C45  1  0.85500000  0.38440000  0.38440000  1.0 0.0333266391
C  C46  1  0.85500000  0.61560000  0.38440000  1.0 0.0333266391
C  C47  1  0.61560000  0.38440000  0.85500000  1.0 0.0333266391
C  C48  1  0.38440000  0.85500000  0.61560000  1.0 0.0333266391
C  C49  1  0.33540000  0.15230000  0.60960000  1.0 -0.0892534746
C  C50  1  0.60960000  0.33540000  0.15230000  1.0 -0.0892534746
C  C51  1  0.15230000  0.60960000  0.33540000  1.0 -0.0892534746
C  C52  1  0.15230000  0.33540000  0.39040000  1.0 -0.0892534746
C  C53  1  0.15230000  0.66460000  0.60960000  1.0 -0.0892534746
C  C54  1  0.84770000  0.33540000  0.60960000  1.0 -0.0892534746
C  C55  1  0.33540000  0.60960000  0.84770000  1.0 -0.0892534746
C  C56  1  0.66460000  0.60960000  0.15230000  1.0 -0.0892534746
C  C57  1  0.33540000  0.39040000  0.15230000  1.0 -0.0892534746
C  C58  1  0.60960000  0.15230000  0.66460000  1.0 -0.0892534746
C  C59  1  0.60960000  0.84770000  0.33540000  1.0 -0.0892534746
C  C60  1  0.39040000  0.15230000  0.33540000  1.0 -0.0892534746
C  C61  1  0.66460000  0.84770000  0.60960000  1.0 -0.0892534746
C  C62  1  0.66460000  0.15230000  0.39040000  1.0 -0.0892534746
C  C63  1  0.33540000  0.84770000  0.39040000  1.0 -0.0892534746
C  C64  1  0.60960000  0.66460000  0.84770000  1.0 -0.0892534746
C  C65  1  0.39040000  0.66460000  0.15230000  1.0 -0.0892534746
C  C66  1  0.39040000  0.33540000  0.84770000  1.0 -0.0892534746
C  C67  1  0.84770000  0.60960000  0.66460000  1.0 -0.0892534746
C  C68  1  0.15230000  0.39040000  0.66460000  1.0 -0.0892534746
C  C69  1  0.84770000  0.39040000  0.33540000  1.0 -0.0892534746
C  C70  1  0.84770000  0.66460000  0.39040000  1.0 -0.0892534746
C  C71  1  0.66460000  0.39040000  0.84770000  1.0 -0.0892534746
C  C72  1  0.39040000  0.84770000  0.66460000  1.0 -0.0892534746
C  C73  1  0.66460000  0.84770000  0.39040000  1.0 -0.0892534746
C  C74  1  0.39040000  0.66460000  0.84770000  1.0 -0.0892534746
C  C75  1  0.84770000  0.39040000  0.66460000  1.0 -0.0892534746
C  C76  1  0.84770000  0.66460000  0.60960000  1.0 -0.0892534746
C  C77  1  0.84770000  0.33540000  0.39040000  1.0 -0.0892534746
C  C78  1  0.15230000  0.66460000  0.39040000  1.0 -0.0892534746
C  C79  1  0.66460000  0.39040000  0.15230000  1.0 -0.0892534746
C  C80  1  0.33540000  0.39040000  0.84770000  1.0 -0.0892534746
C  C81  1  0.66460000  0.60960000  0.84770000  1.0 -0.0892534746
C  C82  1  0.39040000  0.84770000  0.33540000  1.0 -0.0892534746
C  C83  1  0.39040000  0.15230000  0.66460000  1.0 -0.0892534746
C  C84  1  0.60960000  0.84770000  0.66460000  1.0 -0.0892534746
C  C85  1  0.33540000  0.15230000  0.39040000  1.0 -0.0892534746
C  C86  1  0.33540000  0.84770000  0.60960000  1.0 -0.0892534746
C  C87  1  0.66460000  0.15230000  0.60960000  1.0 -0.0892534746
C  C88  1  0.39040000  0.33540000  0.15230000  1.0 -0.0892534746
C  C89  1  0.60960000  0.33540000  0.84770000  1.0 -0.0892534746
C  C90  1  0.60960000  0.66460000  0.15230000  1.0 -0.0892534746
C  C91  1  0.15230000  0.39040000  0.33540000  1.0 -0.0892534746
C  C92  1  0.84770000  0.60960000  0.33540000  1.0 -0.0892534746
C  C93  1  0.15230000  0.60960000  0.66460000  1.0 -0.0892534746
C  C94  1  0.15230000  0.33540000  0.60960000  1.0 -0.0892534746
C  C95  1  0.33540000  0.60960000  0.15230000  1.0 -0.0892534746
C  C96  1  0.60960000  0.15230000  0.33540000  1.0 -0.0892534746
C  C97  1  0.31290000  0.18830000  0.63110000  1.0 -0.0721488147
C  C98  1  0.63110000  0.31290000  0.18830000  1.0 -0.0721488147
C  C99  1  0.18830000  0.63110000  0.31290000  1.0 -0.0721488147
C  C100  1  0.18830000  0.31290000  0.36890000  1.0 -0.0721488147
C  C101  1  0.18830000  0.68710000  0.63110000  1.0 -0.0721488147
C  C102  1  0.81170000  0.31290000  0.63110000  1.0 -0.0721488147
C  C103  1  0.31290000  0.63110000  0.81170000  1.0 -0.0721488147
C  C104  1  0.68710000  0.63110000  0.18830000  1.0 -0.0721488147
C  C105  1  0.31290000  0.36890000  0.18830000  1.0 -0.0721488147
C  C106  1  0.63110000  0.18830000  0.68710000  1.0 -0.0721488147
C  C107  1  0.63110000  0.81170000  0.31290000  1.0 -0.0721488147
C  C108  1  0.36890000  0.18830000  0.31290000  1.0 -0.0721488147
C  C109  1  0.68710000  0.81170000  0.63110000  1.0 -0.0721488147
C  C110  1  0.68710000  0.18830000  0.36890000  1.0 -0.0721488147
C  C111  1  0.31290000  0.81170000  0.36890000  1.0 -0.0721488147
C  C112  1  0.63110000  0.68710000  0.81170000  1.0 -0.0721488147
C  C113  1  0.36890000  0.68710000  0.18830000  1.0 -0.0721488147
C  C114  1  0.36890000  0.31290000  0.81170000  1.0 -0.0721488147
C  C115  1  0.81170000  0.63110000  0.68710000  1.0 -0.0721488147
C  C116  1  0.18830000  0.36890000  0.68710000  1.0 -0.0721488147
C  C117  1  0.81170000  0.36890000  0.31290000  1.0 -0.0721488147
C  C118  1  0.81170000  0.68710000  0.36890000  1.0 -0.0721488147
C  C119  1  0.68710000  0.36890000  0.81170000  1.0 -0.0721488147
C  C120  1  0.36890000  0.81170000  0.68710000  1.0 -0.0721488147
C  C121  1  0.68710000  0.81170000  0.36890000  1.0 -0.0721488147
C  C122  1  0.36890000  0.68710000  0.81170000  1.0 -0.0721488147
C  C123  1  0.81170000  0.36890000  0.68710000  1.0 -0.0721488147
C  C124  1  0.81170000  0.68710000  0.63110000  1.0 -0.0721488147
C  C125  1  0.81170000  0.31290000  0.36890000  1.0 -0.0721488147
C  C126  1  0.18830000  0.68710000  0.36890000  1.0 -0.0721488147
C  C127  1  0.68710000  0.36890000  0.18830000  1.0 -0.0721488147
C  C128  1  0.31290000  0.36890000  0.81170000  1.0 -0.0721488147
C  C129  1  0.68710000  0.63110000  0.81170000  1.0 -0.0721488147
C  C130  1  0.36890000  0.81170000  0.31290000  1.0 -0.0721488147
C  C131  1  0.36890000  0.18830000  0.68710000  1.0 -0.0721488147
C  C132  1  0.63110000  0.81170000  0.68710000  1.0 -0.0721488147
C  C133  1  0.31290000  0.18830000  0.36890000  1.0 -0.0721488147
C  C134  1  0.31290000  0.81170000  0.63110000  1.0 -0.0721488147
C  C135  1  0.68710000  0.18830000  0.63110000  1.0 -0.0721488147
C  C136  1  0.36890000  0.31290000  0.18830000  1.0 -0.0721488147
C  C137  1  0.63110000  0.31290000  0.81170000  1.0 -0.0721488147
C  C138  1  0.63110000  0.68710000  0.18830000  1.0 -0.0721488147
C  C139  1  0.18830000  0.36890000  0.31290000  1.0 -0.0721488147
C  C140  1  0.81170000  0.63110000  0.31290000  1.0 -0.0721488147
C  C141  1  0.18830000  0.63110000  0.68710000  1.0 -0.0721488147
C  C142  1  0.18830000  0.31290000  0.63110000  1.0 -0.0721488147
C  C143  1  0.31290000  0.63110000  0.18830000  1.0 -0.0721488147
C  C144  1  0.63110000  0.18830000  0.31290000  1.0 -0.0721488147
C  C145  1  0.34450000  0.22290000  0.65550000  1.0 0.0556703751
C  C146  1  0.65550000  0.34450000  0.22290000  1.0 0.0556703751
C  C147  1  0.22290000  0.65550000  0.34450000  1.0 0.0556703751
C  C148  1  0.22290000  0.34450000  0.34450000  1.0 0.0543182645
C  C149  1  0.22290000  0.65550000  0.65550000  1.0 0.0556703751
C  C150  1  0.77710000  0.34450000  0.65550000  1.0 0.0556703751
C  C151  1  0.34450000  0.65550000  0.77710000  1.0 0.0556703751
C  C152  1  0.65550000  0.65550000  0.22290000  1.0 0.0556703751
C  C153  1  0.34450000  0.34450000  0.22290000  1.0 0.0543182645
C  C154  1  0.65550000  0.22290000  0.65550000  1.0 0.0556703751
C  C155  1  0.65550000  0.77710000  0.34450000  1.0 0.0556703751
C  C156  1  0.34450000  0.22290000  0.34450000  1.0 0.0543182645
C  C157  1  0.65550000  0.77710000  0.65550000  1.0 0.0556703751
C  C158  1  0.65550000  0.22290000  0.34450000  1.0 0.0556703751
C  C159  1  0.34450000  0.77710000  0.34450000  1.0 0.0543182645
C  C160  1  0.65550000  0.65550000  0.77710000  1.0 0.0556703751
C  C161  1  0.34450000  0.65550000  0.22290000  1.0 0.0556703751
C  C162  1  0.34450000  0.34450000  0.77710000  1.0 0.0543182645
C  C163  1  0.77710000  0.65550000  0.65550000  1.0 0.0556703751
C  C164  1  0.22290000  0.34450000  0.65550000  1.0 0.0556703751
C  C165  1  0.77710000  0.34450000  0.34450000  1.0 0.0556703751
C  C166  1  0.77710000  0.65550000  0.34450000  1.0 0.0556703751
C  C167  1  0.65550000  0.34450000  0.77710000  1.0 0.0556703751
C  C168  1  0.34450000  0.77710000  0.65550000  1.0 0.0543182645
C  C169  1  0.32210000  0.26450000  0.67790000  1.0 0.0720574757
C  C170  1  0.67790000  0.32210000  0.26450000  1.0 0.0720574757
C  C171  1  0.26450000  0.67790000  0.32210000  1.0 0.0720574757
C  C172  1  0.26450000  0.32210000  0.32210000  1.0 0.0720574757
C  C173  1  0.26450000  0.67790000  0.67790000  1.0 0.0720574757
C  C174  1  0.73550000  0.32210000  0.67790000  1.0 0.0720574757
C  C175  1  0.32210000  0.67790000  0.73550000  1.0 0.0720574757
C  C176  1  0.67790000  0.67790000  0.26450000  1.0 0.0720574757
C  C177  1  0.32210000  0.32210000  0.26450000  1.0 0.0720574757
C  C178  1  0.67790000  0.26450000  0.67790000  1.0 0.0720574757
C  C179  1  0.67790000  0.73550000  0.32210000  1.0 0.0720574757
C  C180  1  0.32210000  0.26450000  0.32210000  1.0 0.0720574757
C  C181  1  0.67790000  0.73550000  0.67790000  1.0 0.0720574757
C  C182  1  0.67790000  0.26450000  0.32210000  1.0 0.0720574757
C  C183  1  0.32210000  0.73550000  0.32210000  1.0 0.0720574757
C  C184  1  0.67790000  0.67790000  0.73550000  1.0 0.0720574757
C  C185  1  0.32210000  0.67790000  0.26450000  1.0 0.0720574757
C  C186  1  0.32210000  0.32210000  0.73550000  1.0 0.0720574757
C  C187  1  0.73550000  0.67790000  0.67790000  1.0 0.0720574757
C  C188  1  0.26450000  0.32210000  0.67790000  1.0 0.0720574757
C  C189  1  0.73550000  0.32210000  0.32210000  1.0 0.0720574757
C  C190  1  0.73550000  0.67790000  0.32210000  1.0 0.0720574757
C  C191  1  0.67790000  0.32210000  0.73550000  1.0 0.0720574757
C  C192  1  0.32210000  0.73550000  0.67790000  1.0 0.0720574757
C  C193  1  0.34060000  0.28430000  0.71570000  1.0 -0.2447767268
C  C194  1  0.71570000  0.34060000  0.28430000  1.0 -0.2447767268
C  C195  1  0.28430000  0.71570000  0.34060000  1.0 -0.2447767268
C  C196  1  0.28430000  0.34060000  0.28430000  1.0 -0.2447767268
C  C197  1  0.28430000  0.65940000  0.71570000  1.0 -0.2447767268
C  C198  1  0.71570000  0.34060000  0.71570000  1.0 -0.2447767268
C  C199  1  0.34060000  0.71570000  0.71570000  1.0 -0.2453078997
C  C200  1  0.65940000  0.71570000  0.28430000  1.0 -0.2447767268
C  C201  1  0.34060000  0.28430000  0.28430000  1.0 -0.2447767268
C  C202  1  0.71570000  0.28430000  0.65940000  1.0 -0.2447767268
C  C203  1  0.71570000  0.71570000  0.34060000  1.0 -0.2447767268
C  C204  1  0.28430000  0.28430000  0.34060000  1.0 -0.2447767268
C  C205  1  0.65940000  0.71570000  0.71570000  1.0 -0.2447767268
C  C206  1  0.65940000  0.28430000  0.28430000  1.0 -0.2447767268
C  C207  1  0.34060000  0.71570000  0.28430000  1.0 -0.2447767268
C  C208  1  0.71570000  0.65940000  0.71570000  1.0 -0.2447767268
C  C209  1  0.28430000  0.65940000  0.28430000  1.0 -0.2447767268
C  C210  1  0.28430000  0.34060000  0.71570000  1.0 -0.2453078997
C  C211  1  0.71570000  0.71570000  0.65940000  1.0 -0.2447767268
C  C212  1  0.28430000  0.28430000  0.65940000  1.0 -0.2447767268
C  C213  1  0.71570000  0.28430000  0.34060000  1.0 -0.2447767268
C  C214  1  0.71570000  0.65940000  0.28430000  1.0 -0.2447767268
C  C215  1  0.65940000  0.28430000  0.71570000  1.0 -0.2447767268
C  C216  1  0.28430000  0.71570000  0.65940000  1.0 -0.2447767268
C  C217  1  0.36480000  0.17810000  0.58660000  1.0 -0.0829423109
C  C218  1  0.58660000  0.36480000  0.17810000  1.0 -0.0829423109
C  C219  1  0.17810000  0.58660000  0.36480000  1.0 -0.0829423109
C  C220  1  0.17810000  0.36480000  0.41340000  1.0 -0.0829423109
C  C221  1  0.17810000  0.63520000  0.58660000  1.0 -0.0829423109
C  C222  1  0.82190000  0.36480000  0.58660000  1.0 -0.0829423109
C  C223  1  0.36480000  0.58660000  0.82190000  1.0 -0.0829423109
C  C224  1  0.63520000  0.58660000  0.17810000  1.0 -0.0829423109
C  C225  1  0.36480000  0.41340000  0.17810000  1.0 -0.0829423109
C  C226  1  0.58660000  0.17810000  0.63520000  1.0 -0.0829423109
C  C227  1  0.58660000  0.82190000  0.36480000  1.0 -0.0829423109
C  C228  1  0.41340000  0.17810000  0.36480000  1.0 -0.0829423109
C  C229  1  0.63520000  0.82190000  0.58660000  1.0 -0.0829423109
C  C230  1  0.63520000  0.17810000  0.41340000  1.0 -0.0829423109
C  C231  1  0.36480000  0.82190000  0.41340000  1.0 -0.0829423109
C  C232  1  0.58660000  0.63520000  0.82190000  1.0 -0.0829423109
C  C233  1  0.41340000  0.63520000  0.17810000  1.0 -0.0829423109
C  C234  1  0.41340000  0.36480000  0.82190000  1.0 -0.0829423109
C  C235  1  0.82190000  0.58660000  0.63520000  1.0 -0.0829423109
C  C236  1  0.17810000  0.41340000  0.63520000  1.0 -0.0829423109
C  C237  1  0.82190000  0.41340000  0.36480000  1.0 -0.0829423109
C  C238  1  0.82190000  0.63520000  0.41340000  1.0 -0.0829423109
C  C239  1  0.63520000  0.41340000  0.82190000  1.0 -0.0829423109
C  C240  1  0.41340000  0.82190000  0.63520000  1.0 -0.0829423109
C  C241  1  0.63520000  0.82190000  0.41340000  1.0 -0.0829423109
C  C242  1  0.41340000  0.63520000  0.82190000  1.0 -0.0829423109
C  C243  1  0.82190000  0.41340000  0.63520000  1.0 -0.0829423109
C  C244  1  0.82190000  0.63520000  0.58660000  1.0 -0.0829423109
C  C245  1  0.82190000  0.36480000  0.41340000  1.0 -0.0829423109
C  C246  1  0.17810000  0.63520000  0.41340000  1.0 -0.0829423109
C  C247  1  0.63520000  0.41340000  0.17810000  1.0 -0.0829423109
C  C248  1  0.36480000  0.41340000  0.82190000  1.0 -0.0829423109
C  C249  1  0.63520000  0.58660000  0.82190000  1.0 -0.0829423109
C  C250  1  0.41340000  0.82190000  0.36480000  1.0 -0.0829423109
C  C251  1  0.41340000  0.17810000  0.63520000  1.0 -0.0829423109
C  C252  1  0.58660000  0.82190000  0.63520000  1.0 -0.0829423109
C  C253  1  0.36480000  0.17810000  0.41340000  1.0 -0.0829423109
C  C254  1  0.36480000  0.82190000  0.58660000  1.0 -0.0829423109
C  C255  1  0.63520000  0.17810000  0.58660000  1.0 -0.0829423109
C  C256  1  0.41340000  0.36480000  0.17810000  1.0 -0.0829423109
C  C257  1  0.58660000  0.36480000  0.82190000  1.0 -0.0829423109
C  C258  1  0.58660000  0.63520000  0.17810000  1.0 -0.0829423109
C  C259  1  0.17810000  0.41340000  0.36480000  1.0 -0.0829423109
C  C260  1  0.82190000  0.58660000  0.36480000  1.0 -0.0829423109
C  C261  1  0.17810000  0.58660000  0.63520000  1.0 -0.0829423109
C  C262  1  0.17810000  0.36480000  0.58660000  1.0 -0.0829423109
C  C263  1  0.36480000  0.58660000  0.17810000  1.0 -0.0829423109
C  C264  1  0.58660000  0.17810000  0.36480000  1.0 -0.0829423109
C  C265  1  0.34160000  0.21590000  0.60940000  1.0 -0.0582346169
C  C266  1  0.60940000  0.34160000  0.21590000  1.0 -0.0582346169
C  C267  1  0.21590000  0.60940000  0.34160000  1.0 -0.0582346169
C  C268  1  0.21590000  0.34160000  0.39060000  1.0 -0.0582346169
C  C269  1  0.21590000  0.65840000  0.60940000  1.0 -0.0582346169
C  C270  1  0.78410000  0.34160000  0.60940000  1.0 -0.0582346169
C  C271  1  0.34160000  0.60940000  0.78410000  1.0 -0.0582346169
C  C272  1  0.65840000  0.60940000  0.21590000  1.0 -0.0582346169
C  C273  1  0.34160000  0.39060000  0.21590000  1.0 -0.0582346169
C  C274  1  0.60940000  0.21590000  0.65840000  1.0 -0.0582346169
C  C275  1  0.60940000  0.78410000  0.34160000  1.0 -0.0582346169
C  C276  1  0.39060000  0.21590000  0.34160000  1.0 -0.0582346169
C  C277  1  0.65840000  0.78410000  0.60940000  1.0 -0.0582346169
C  C278  1  0.65840000  0.21590000  0.39060000  1.0 -0.0582346169
C  C279  1  0.34160000  0.78410000  0.39060000  1.0 -0.0582346169
C  C280  1  0.60940000  0.65840000  0.78410000  1.0 -0.0582346169
C  C281  1  0.39060000  0.65840000  0.21590000  1.0 -0.0582346169
C  C282  1  0.39060000  0.34160000  0.78410000  1.0 -0.0582346169
C  C283  1  0.78410000  0.60940000  0.65840000  1.0 -0.0582346169
C  C284  1  0.21590000  0.39060000  0.65840000  1.0 -0.0582346169
C  C285  1  0.78410000  0.39060000  0.34160000  1.0 -0.0582346169
C  C286  1  0.78410000  0.65840000  0.39060000  1.0 -0.0582346169
C  C287  1  0.65840000  0.39060000  0.78410000  1.0 -0.0582346169
C  C288  1  0.39060000  0.78410000  0.65840000  1.0 -0.0582346169
C  C289  1  0.65840000  0.78410000  0.39060000  1.0 -0.0582346169
C  C290  1  0.39060000  0.65840000  0.78410000  1.0 -0.0582346169
C  C291  1  0.78410000  0.39060000  0.65840000  1.0 -0.0582346169
C  C292  1  0.78410000  0.65840000  0.60940000  1.0 -0.0582346169
C  C293  1  0.78410000  0.34160000  0.39060000  1.0 -0.0582346169
C  C294  1  0.21590000  0.65840000  0.39060000  1.0 -0.0582346169
C  C295  1  0.65840000  0.39060000  0.21590000  1.0 -0.0582346169
C  C296  1  0.34160000  0.39060000  0.78410000  1.0 -0.0582346169
C  C297  1  0.65840000  0.60940000  0.78410000  1.0 -0.0582346169
C  C298  1  0.39060000  0.78410000  0.34160000  1.0 -0.0582346169
C  C299  1  0.39060000  0.21590000  0.65840000  1.0 -0.0582346169
C  C300  1  0.60940000  0.78410000  0.65840000  1.0 -0.0582346169
C  C301  1  0.34160000  0.21590000  0.39060000  1.0 -0.0582346169
C  C302  1  0.34160000  0.78410000  0.60940000  1.0 -0.0582346169
C  C303  1  0.65840000  0.21590000  0.60940000  1.0 -0.0582346169
C  C304  1  0.39060000  0.34160000  0.21590000  1.0 -0.0582346169
C  C305  1  0.60940000  0.34160000  0.78410000  1.0 -0.0582346169
C  C306  1  0.60940000  0.65840000  0.21590000  1.0 -0.0582346169
C  C307  1  0.21590000  0.39060000  0.34160000  1.0 -0.0582346169
C  C308  1  0.78410000  0.60940000  0.34160000  1.0 -0.0582346169
C  C309  1  0.21590000  0.60940000  0.65840000  1.0 -0.0582346169
C  C310  1  0.21590000  0.34160000  0.60940000  1.0 -0.0582346169
C  C311  1  0.34160000  0.60940000  0.21590000  1.0 -0.0582346169
C  C312  1  0.60940000  0.21590000  0.34160000  1.0 -0.0582346169
N  N1  1  0.41720000  0.04750000  0.55050000  1.0 -0.0243616135
N  N2  1  0.55050000  0.41720000  0.04750000  1.0 -0.0243616135
N  N3  1  0.04750000  0.55050000  0.41720000  1.0 -0.0243616135
N  N4  1  0.04750000  0.41720000  0.44950000  1.0 -0.0243616135
N  N5  1  0.04750000  0.58280000  0.55050000  1.0 -0.0243616135
N  N6  1  0.95250000  0.41720000  0.55050000  1.0 -0.0243616135
N  N7  1  0.41720000  0.55050000  0.95250000  1.0 -0.0243616135
N  N8  1  0.58280000  0.55050000  0.04750000  1.0 -0.0243616135
N  N9  1  0.41720000  0.44950000  0.04750000  1.0 -0.0243616135
N  N10  1  0.55050000  0.04750000  0.58280000  1.0 -0.0243616135
N  N11  1  0.55050000  0.95250000  0.41720000  1.0 -0.0243616135
N  N12  1  0.44950000  0.04750000  0.41720000  1.0 -0.0243616135
N  N13  1  0.58280000  0.95250000  0.55050000  1.0 -0.0243616135
N  N14  1  0.58280000  0.04750000  0.44950000  1.0 -0.0243616135
N  N15  1  0.41720000  0.95250000  0.44950000  1.0 -0.0254711806
N  N16  1  0.55050000  0.58280000  0.95250000  1.0 -0.0243616135
N  N17  1  0.44950000  0.58280000  0.04750000  1.0 -0.0243616135
N  N18  1  0.44950000  0.41720000  0.95250000  1.0 -0.0243616135
N  N19  1  0.95250000  0.55050000  0.58280000  1.0 -0.0243616135
N  N20  1  0.04750000  0.44950000  0.58280000  1.0 -0.0243616135
N  N21  1  0.95250000  0.44950000  0.41720000  1.0 -0.0254711806
N  N22  1  0.95250000  0.58280000  0.44950000  1.0 -0.0254711806
N  N23  1  0.58280000  0.44950000  0.95250000  1.0 -0.0243616135
N  N24  1  0.44950000  0.95250000  0.58280000  1.0 -0.0254711806
N  N25  1  0.58280000  0.95250000  0.44950000  1.0 -0.0254711806
N  N26  1  0.44950000  0.58280000  0.95250000  1.0 -0.0243616135
N  N27  1  0.95250000  0.44950000  0.58280000  1.0 -0.0254711806
N  N28  1  0.95250000  0.58280000  0.55050000  1.0 -0.0243616135
N  N29  1  0.95250000  0.41720000  0.44950000  1.0 -0.0254711806
N  N30  1  0.04750000  0.58280000  0.44950000  1.0 -0.0243616135
N  N31  1  0.58280000  0.44950000  0.04750000  1.0 -0.0243616135
N  N32  1  0.41720000  0.44950000  0.95250000  1.0 -0.0243616135
N  N33  1  0.58280000  0.55050000  0.95250000  1.0 -0.0243616135
N  N34  1  0.44950000  0.95250000  0.41720000  1.0 -0.0254711806
N  N35  1  0.44950000  0.04750000  0.58280000  1.0 -0.0243616135
N  N36  1  0.55050000  0.95250000  0.58280000  1.0 -0.0243616135
N  N37  1  0.41720000  0.04750000  0.44950000  1.0 -0.0243616135
N  N38  1  0.41720000  0.95250000  0.55050000  1.0 -0.0243616135
N  N39  1  0.58280000  0.04750000  0.55050000  1.0 -0.0243616135
N  N40  1  0.44950000  0.41720000  0.04750000  1.0 -0.0243616135
N  N41  1  0.55050000  0.41720000  0.95250000  1.0 -0.0243616135
N  N42  1  0.55050000  0.58280000  0.04750000  1.0 -0.0243616135
N  N43  1  0.04750000  0.44950000  0.41720000  1.0 -0.0243616135
N  N44  1  0.95250000  0.55050000  0.41720000  1.0 -0.0243616135
N  N45  1  0.04750000  0.55050000  0.58280000  1.0 -0.0243616135
N  N46  1  0.04750000  0.41720000  0.55050000  1.0 -0.0243616135
N  N47  1  0.41720000  0.55050000  0.04750000  1.0 -0.0243616135
N  N48  1  0.55050000  0.04750000  0.41720000  1.0 -0.0243616135
N  N49  1  0.38840000  0.08280000  0.55690000  1.0 -0.2663166399
N  N50  1  0.55690000  0.38840000  0.08280000  1.0 -0.2663166399
N  N51  1  0.08280000  0.55690000  0.38840000  1.0 -0.2663166399
N  N52  1  0.08280000  0.38840000  0.44310000  1.0 -0.2648991566
N  N53  1  0.08280000  0.61160000  0.55690000  1.0 -0.2663166399
N  N54  1  0.91720000  0.38840000  0.55690000  1.0 -0.2663166399
N  N55  1  0.38840000  0.55690000  0.91720000  1.0 -0.2663166399
N  N56  1  0.61160000  0.55690000  0.08280000  1.0 -0.2663166399
N  N57  1  0.38840000  0.44310000  0.08280000  1.0 -0.2648991566
N  N58  1  0.55690000  0.08280000  0.61160000  1.0 -0.2663166399
N  N59  1  0.55690000  0.91720000  0.38840000  1.0 -0.2663166399
N  N60  1  0.44310000  0.08280000  0.38840000  1.0 -0.2648991566
N  N61  1  0.61160000  0.91720000  0.55690000  1.0 -0.2663166399
N  N62  1  0.61160000  0.08280000  0.44310000  1.0 -0.2648991566
N  N63  1  0.38840000  0.91720000  0.44310000  1.0 -0.2648991566
N  N64  1  0.55690000  0.61160000  0.91720000  1.0 -0.2663166399
N  N65  1  0.44310000  0.61160000  0.08280000  1.0 -0.2648991566
N  N66  1  0.44310000  0.38840000  0.91720000  1.0 -0.2648991566
N  N67  1  0.91720000  0.55690000  0.61160000  1.0 -0.2663166399
N  N68  1  0.08280000  0.44310000  0.61160000  1.0 -0.2663166399
N  N69  1  0.91720000  0.44310000  0.38840000  1.0 -0.2648991566
N  N70  1  0.91720000  0.61160000  0.44310000  1.0 -0.2648991566
N  N71  1  0.61160000  0.44310000  0.91720000  1.0 -0.2648991566
N  N72  1  0.44310000  0.91720000  0.61160000  1.0 -0.2648991566
N  N73  1  0.61160000  0.91720000  0.44310000  1.0 -0.2648991566
N  N74  1  0.44310000  0.61160000  0.91720000  1.0 -0.2648991566
N  N75  1  0.91720000  0.44310000  0.61160000  1.0 -0.2648991566
N  N76  1  0.91720000  0.61160000  0.55690000  1.0 -0.2663166399
N  N77  1  0.91720000  0.38840000  0.44310000  1.0 -0.2648991566
N  N78  1  0.08280000  0.61160000  0.44310000  1.0 -0.2663166399
N  N79  1  0.61160000  0.44310000  0.08280000  1.0 -0.2648991566
N  N80  1  0.38840000  0.44310000  0.91720000  1.0 -0.2648991566
N  N81  1  0.61160000  0.55690000  0.91720000  1.0 -0.2663166399
N  N82  1  0.44310000  0.91720000  0.38840000  1.0 -0.2648991566
N  N83  1  0.44310000  0.08280000  0.61160000  1.0 -0.2648991566
N  N84  1  0.55690000  0.91720000  0.61160000  1.0 -0.2663166399
N  N85  1  0.38840000  0.08280000  0.44310000  1.0 -0.2648991566
N  N86  1  0.38840000  0.91720000  0.55690000  1.0 -0.2663166399
N  N87  1  0.61160000  0.08280000  0.55690000  1.0 -0.2663166399
N  N88  1  0.44310000  0.38840000  0.08280000  1.0 -0.2648991566
N  N89  1  0.55690000  0.38840000  0.91720000  1.0 -0.2663166399
N  N90  1  0.55690000  0.61160000  0.08280000  1.0 -0.2663166399
N  N91  1  0.08280000  0.44310000  0.38840000  1.0 -0.2648991566
N  N92  1  0.91720000  0.55690000  0.38840000  1.0 -0.2663166399
N  N93  1  0.08280000  0.55690000  0.61160000  1.0 -0.2663166399
N  N94  1  0.08280000  0.38840000  0.55690000  1.0 -0.2663166399
N  N95  1  0.38840000  0.55690000  0.08280000  1.0 -0.2663166399
N  N96  1  0.55690000  0.08280000  0.38840000  1.0 -0.2663166399
Cl  Cl1  1  0.50000000  0.00000000  0.50000000  1.0 -0.5505923898
Cl  Cl2  1  0.50000000  0.50000000  0.00000000  1.0 -0.5505923898
Cl  Cl3  1  0.00000000  0.50000000  0.50000000  1.0 -0.5505923898
Cl  Cl4  1  0.32850000  0.00000000  0.50000000  1.0 -0.6371812941
Cl  Cl5  1  0.50000000  0.32850000  0.00000000  1.0 -0.6371812941
Cl  Cl6  1  0.00000000  0.50000000  0.32850000  1.0 -0.6371812941
Cl  Cl7  1  0.00000000  0.32850000  0.50000000  1.0 -0.6371812941
Cl  Cl8  1  0.00000000  0.67150000  0.50000000  1.0 -0.6371812941
Cl  Cl9  1  0.32850000  0.50000000  0.00000000  1.0 -0.6371812941
Cl  Cl10  1  0.67150000  0.50000000  0.00000000  1.0 -0.6371812941
Cl  Cl11  1  0.50000000  0.00000000  0.67150000  1.0 -0.6371812941
Cl  Cl12  1  0.50000000  0.00000000  0.32850000  1.0 -0.6371812941
Cl  Cl13  1  0.67150000  0.00000000  0.50000000  1.0 -0.6371812941
Cl  Cl14  1  0.50000000  0.67150000  0.00000000  1.0 -0.6371812941
Cl  Cl15  1  0.00000000  0.50000000  0.67150000  1.0 -0.6371812941
O  O1  1  0.27440000  0.11300000  0.50000000  1.0 0.2552408803
O  O2  1  0.50000000  0.27440000  0.11300000  1.0 0.2552408803
O  O3  1  0.11300000  0.50000000  0.27440000  1.0 0.2519199976
O  O4  1  0.11300000  0.27440000  0.50000000  1.0 0.2552408803
O  O5  1  0.11300000  0.72560000  0.50000000  1.0 0.2519199976
O  O6  1  0.88700000  0.27440000  0.50000000  1.0 0.2519199976
O  O7  1  0.27440000  0.50000000  0.88700000  1.0 0.2519199976
O  O8  1  0.72560000  0.50000000  0.11300000  1.0 0.2552408803
O  O9  1  0.27440000  0.50000000  0.11300000  1.0 0.2552408803
O  O10  1  0.50000000  0.11300000  0.72560000  1.0 0.2552408803
O  O11  1  0.50000000  0.88700000  0.27440000  1.0 0.2519199976
O  O12  1  0.50000000  0.11300000  0.27440000  1.0 0.2552408803
O  O13  1  0.72560000  0.88700000  0.50000000  1.0 0.2519199976
O  O14  1  0.72560000  0.11300000  0.50000000  1.0 0.2552408803
O  O15  1  0.27440000  0.88700000  0.50000000  1.0 0.2519199976
O  O16  1  0.50000000  0.72560000  0.88700000  1.0 0.2519199976
O  O17  1  0.50000000  0.72560000  0.11300000  1.0 0.2552408803
O  O18  1  0.50000000  0.27440000  0.88700000  1.0 0.2519199976
O  O19  1  0.88700000  0.50000000  0.72560000  1.0 0.2519199976
O  O20  1  0.11300000  0.50000000  0.72560000  1.0 0.2519199976
O  O21  1  0.88700000  0.50000000  0.27440000  1.0 0.2519199976
O  O22  1  0.88700000  0.72560000  0.50000000  1.0 0.2519199976
O  O23  1  0.72560000  0.50000000  0.88700000  1.0 0.2519199976
O  O24  1  0.50000000  0.88700000  0.72560000  1.0 0.2519199976
O  O25  1  0.26120000  0.10010000  0.47800000  1.0 0.1793436918
O  O26  1  0.47800000  0.26120000  0.10010000  1.0 0.1793436918
O  O27  1  0.10010000  0.47800000  0.26120000  1.0 0.1793436918
O  O28  1  0.10010000  0.26120000  0.52200000  1.0 0.1793436918
O  O29  1  0.10010000  0.73880000  0.47800000  1.0 0.1793436918
O  O30  1  0.89990000  0.26120000  0.47800000  1.0 0.1854758698
O  O31  1  0.26120000  0.47800000  0.89990000  1.0 0.1854758698
O  O32  1  0.73880000  0.47800000  0.10010000  1.0 0.1793436918
O  O33  1  0.26120000  0.52200000  0.10010000  1.0 0.1793436918
O  O34  1  0.47800000  0.10010000  0.73880000  1.0 0.1793436918
O  O35  1  0.47800000  0.89990000  0.26120000  1.0 0.1854758698
O  O36  1  0.52200000  0.10010000  0.26120000  1.0 0.1793436918
O  O37  1  0.73880000  0.89990000  0.47800000  1.0 0.1854758698
O  O38  1  0.73880000  0.10010000  0.52200000  1.0 0.1793436918
O  O39  1  0.26120000  0.89990000  0.52200000  1.0 0.1854758698
O  O40  1  0.47800000  0.73880000  0.89990000  1.0 0.1854758698
O  O41  1  0.52200000  0.73880000  0.10010000  1.0 0.1793436918
O  O42  1  0.52200000  0.26120000  0.89990000  1.0 0.1854758698
O  O43  1  0.89990000  0.47800000  0.73880000  1.0 0.1854758698
O  O44  1  0.10010000  0.52200000  0.73880000  1.0 0.1793436918
O  O45  1  0.89990000  0.52200000  0.26120000  1.0 0.1793436918
O  O46  1  0.89990000  0.73880000  0.52200000  1.0 0.1793436918
O  O47  1  0.73880000  0.52200000  0.89990000  1.0 0.1854758698
O  O48  1  0.52200000  0.89990000  0.73880000  1.0 0.1854758698
O  O49  1  0.73880000  0.89990000  0.52200000  1.0 0.1793436918
O  O50  1  0.52200000  0.73880000  0.89990000  1.0 0.1854758698
O  O51  1  0.89990000  0.52200000  0.73880000  1.0 0.1793436918
O  O52  1  0.89990000  0.73880000  0.47800000  1.0 0.1854758698
O  O53  1  0.89990000  0.26120000  0.52200000  1.0 0.1854758698
O  O54  1  0.10010000  0.73880000  0.52200000  1.0 0.1793436918
O  O55  1  0.73880000  0.52200000  0.10010000  1.0 0.1793436918
O  O56  1  0.26120000  0.52200000  0.89990000  1.0 0.1854758698
O  O57  1  0.73880000  0.47800000  0.89990000  1.0 0.1854758698
O  O58  1  0.52200000  0.89990000  0.26120000  1.0 0.1854758698
O  O59  1  0.52200000  0.10010000  0.73880000  1.0 0.1793436918
O  O60  1  0.47800000  0.89990000  0.73880000  1.0 0.1854758698
O  O61  1  0.26120000  0.10010000  0.52200000  1.0 0.1793436918
O  O62  1  0.26120000  0.89990000  0.47800000  1.0 0.1854758698
O  O63  1  0.73880000  0.10010000  0.47800000  1.0 0.1793436918
O  O64  1  0.52200000  0.26120000  0.10010000  1.0 0.1793436918
O  O65  1  0.47800000  0.26120000  0.89990000  1.0 0.1854758698
O  O66  1  0.47800000  0.73880000  0.10010000  1.0 0.1793436918
O  O67  1  0.10010000  0.52200000  0.26120000  1.0 0.1793436918
O  O68  1  0.89990000  0.47800000  0.26120000  1.0 0.1854758698
O  O69  1  0.10010000  0.47800000  0.73880000  1.0 0.1793436918
O  O70  1  0.10010000  0.26120000  0.47800000  1.0 0.1793436918
O  O71  1  0.26120000  0.47800000  0.10010000  1.0 0.1793436918
O  O72  1  0.47800000  0.10010000  0.26120000  1.0 0.1793436918
