# DDEC6 charges by PACMAN v1.1 (https://github.com/mtap-research/PACMAN-charge/)
data_BIWSIK_FSR_pacman
_symmetry_space_group_name_H-M   'P 1'
_cell_length_a   25.23170000
_cell_length_b   25.23170000
_cell_length_c   25.23170000
_cell_angle_alpha   109.47100000
_cell_angle_beta   109.47100000
_cell_angle_gamma   109.47100000
_symmetry_Int_Tables_number   1
_chemical_formula_structural   Mn4H32C64N40ClO4
_chemical_formula_sum   'Mn12 H96 C192 N120 Cl3 O12'
_cell_volume   12365.77083686
_cell_formula_units_Z   3
loop_
 _symmetry_equiv_pos_site_id
 _symmetry_equiv_pos_as_xyz
  1  'x, y, z'
loop_
 _atom_site_type_symbol
 _atom_site_label
 _atom_site_symmetry_multiplicity
 _atom_site_fract_x
 _atom_site_fract_y
 _atom_site_fract_z
 _atom_site_occupancy
 _atom_site_charge
Mn  Mn1  1  0.09420000  0.59420000  0.50000000  1.0 0.6272960746
Mn  Mn2  1  0.50000000  0.09420000  0.59420000  1.0 0.6272960746
Mn  Mn3  1  0.59420000  0.50000000  0.09420000  1.0 0.6272960746
Mn  Mn4  1  0.40580000  0.90580000  0.50000000  1.0 0.6272960746
Mn  Mn5  1  0.59420000  0.09420000  0.50000000  1.0 0.6272960746
Mn  Mn6  1  0.09420000  0.50000000  0.59420000  1.0 0.6272960746
Mn  Mn7  1  0.90580000  0.50000000  0.40580000  1.0 0.6272960746
Mn  Mn8  1  0.50000000  0.59420000  0.09420000  1.0 0.6272960746
Mn  Mn9  1  0.50000000  0.40580000  0.90580000  1.0 0.6272960746
Mn  Mn10  1  0.90580000  0.40580000  0.50000000  1.0 0.6272960746
Mn  Mn11  1  0.50000000  0.90580000  0.40580000  1.0 0.6272960746
Mn  Mn12  1  0.40580000  0.50000000  0.90580000  1.0 0.6272960746
H  H1  1  0.27090000  0.44660000  0.54290000  1.0 0.1268014636
H  H2  1  0.54290000  0.27090000  0.44660000  1.0 0.1268014636
H  H3  1  0.44660000  0.54290000  0.27090000  1.0 0.1268014636
H  H4  1  0.27200000  0.09630000  0.54290000  1.0 0.1268014636
H  H5  1  0.72800000  0.27090000  0.82430000  1.0 0.1268014636
H  H6  1  0.44660000  0.90370000  0.17570000  1.0 0.1268014636
H  H7  1  0.90370000  0.17570000  0.44660000  1.0 0.1268014636
H  H8  1  0.27090000  0.82430000  0.72800000  1.0 0.1268014636
H  H9  1  0.09630000  0.54290000  0.27200000  1.0 0.1268014636
H  H10  1  0.82430000  0.72800000  0.27090000  1.0 0.1268014636
H  H11  1  0.17570000  0.44660000  0.90370000  1.0 0.1268014636
H  H12  1  0.54290000  0.27200000  0.09630000  1.0 0.1268014636
H  H13  1  0.90370000  0.72800000  0.45710000  1.0 0.1268014636
H  H14  1  0.09630000  0.55340000  0.82430000  1.0 0.1268014636
H  H15  1  0.72910000  0.27200000  0.17570000  1.0 0.1268014636
H  H16  1  0.45710000  0.90370000  0.72800000  1.0 0.1268014636
H  H17  1  0.82430000  0.09630000  0.55340000  1.0 0.1268014636
H  H18  1  0.17570000  0.72910000  0.27200000  1.0 0.1268014636
H  H19  1  0.72800000  0.45710000  0.90370000  1.0 0.1268014636
H  H20  1  0.55340000  0.82430000  0.09630000  1.0 0.1268014636
H  H21  1  0.27200000  0.17570000  0.72910000  1.0 0.1268014636
H  H22  1  0.55340000  0.72910000  0.45710000  1.0 0.1268014636
H  H23  1  0.72910000  0.45710000  0.55340000  1.0 0.1268014636
H  H24  1  0.45710000  0.55340000  0.72910000  1.0 0.1268014636
H  H25  1  0.72910000  0.55340000  0.45710000  1.0 0.1268014636
H  H26  1  0.45710000  0.72910000  0.55340000  1.0 0.1268014636
H  H27  1  0.55340000  0.45710000  0.72910000  1.0 0.1268014636
H  H28  1  0.72800000  0.90370000  0.45710000  1.0 0.1268014636
H  H29  1  0.27200000  0.72910000  0.17570000  1.0 0.1268014636
H  H30  1  0.55340000  0.09630000  0.82430000  1.0 0.1268014636
H  H31  1  0.09630000  0.82430000  0.55340000  1.0 0.1268014636
H  H32  1  0.72910000  0.17570000  0.27200000  1.0 0.1268014636
H  H33  1  0.90370000  0.45710000  0.72800000  1.0 0.1268014636
H  H34  1  0.17570000  0.27200000  0.72910000  1.0 0.1268014636
H  H35  1  0.82430000  0.55340000  0.09630000  1.0 0.1268014636
H  H36  1  0.45710000  0.72800000  0.90370000  1.0 0.1268014636
H  H37  1  0.09630000  0.27200000  0.54290000  1.0 0.1268014636
H  H38  1  0.90370000  0.44660000  0.17570000  1.0 0.1268014636
H  H39  1  0.27090000  0.72800000  0.82430000  1.0 0.1268014636
H  H40  1  0.54290000  0.09630000  0.27200000  1.0 0.1268014636
H  H41  1  0.17570000  0.90370000  0.44660000  1.0 0.1268014636
H  H42  1  0.82430000  0.27090000  0.72800000  1.0 0.1268014636
H  H43  1  0.27200000  0.54290000  0.09630000  1.0 0.1268014636
H  H44  1  0.44660000  0.17570000  0.90370000  1.0 0.1268014636
H  H45  1  0.72800000  0.82430000  0.27090000  1.0 0.1268014636
H  H46  1  0.44660000  0.27090000  0.54290000  1.0 0.1268014636
H  H47  1  0.27090000  0.54290000  0.44660000  1.0 0.1268014636
H  H48  1  0.54290000  0.44660000  0.27090000  1.0 0.1268014636
H  H49  1  0.34690000  0.42560000  0.52430000  1.0 0.1241491785
H  H50  1  0.52430000  0.34690000  0.42560000  1.0 0.1241491785
H  H51  1  0.42560000  0.52430000  0.34690000  1.0 0.1241491785
H  H52  1  0.17740000  0.09870000  0.52430000  1.0 0.1241491785
H  H53  1  0.82260000  0.34690000  0.92130000  1.0 0.1241491785
H  H54  1  0.42560000  0.90130000  0.07870000  1.0 0.1241491785
H  H55  1  0.90130000  0.07870000  0.42560000  1.0 0.1241491785
H  H56  1  0.34690000  0.92130000  0.82260000  1.0 0.1241491785
H  H57  1  0.09870000  0.52430000  0.17740000  1.0 0.1241491785
H  H58  1  0.92130000  0.82260000  0.34690000  1.0 0.1241491785
H  H59  1  0.07870000  0.42560000  0.90130000  1.0 0.1241491785
H  H60  1  0.52430000  0.17740000  0.09870000  1.0 0.1268014636
H  H61  1  0.90130000  0.82260000  0.47570000  1.0 0.1241491785
H  H62  1  0.09870000  0.57440000  0.92130000  1.0 0.1241491785
H  H63  1  0.65310000  0.17740000  0.07870000  1.0 0.1241491785
H  H64  1  0.47570000  0.90130000  0.82260000  1.0 0.1241491785
H  H65  1  0.92130000  0.09870000  0.57440000  1.0 0.1241491785
H  H66  1  0.07870000  0.65310000  0.17740000  1.0 0.1241491785
H  H67  1  0.82260000  0.47570000  0.90130000  1.0 0.1241491785
H  H68  1  0.57440000  0.92130000  0.09870000  1.0 0.1241491785
H  H69  1  0.17740000  0.07870000  0.65310000  1.0 0.1241491785
H  H70  1  0.57440000  0.65310000  0.47570000  1.0 0.1241491785
H  H71  1  0.65310000  0.47570000  0.57440000  1.0 0.1241491785
H  H72  1  0.47570000  0.57440000  0.65310000  1.0 0.1241491785
H  H73  1  0.65310000  0.57440000  0.47570000  1.0 0.1241491785
H  H74  1  0.47570000  0.65310000  0.57440000  1.0 0.1241491785
H  H75  1  0.57440000  0.47570000  0.65310000  1.0 0.1241491785
H  H76  1  0.82260000  0.90130000  0.47570000  1.0 0.1241491785
H  H77  1  0.17740000  0.65310000  0.07870000  1.0 0.1241491785
H  H78  1  0.57440000  0.09870000  0.92130000  1.0 0.1241491785
H  H79  1  0.09870000  0.92130000  0.57440000  1.0 0.1241491785
H  H80  1  0.65310000  0.07870000  0.17740000  1.0 0.1241491785
H  H81  1  0.90130000  0.47570000  0.82260000  1.0 0.1241491785
H  H82  1  0.07870000  0.17740000  0.65310000  1.0 0.1241491785
H  H83  1  0.92130000  0.57440000  0.09870000  1.0 0.1241491785
H  H84  1  0.47570000  0.82260000  0.90130000  1.0 0.1241491785
H  H85  1  0.09870000  0.17740000  0.52430000  1.0 0.1241491785
H  H86  1  0.90130000  0.42560000  0.07870000  1.0 0.1268014636
H  H87  1  0.34690000  0.82260000  0.92130000  1.0 0.1241491785
H  H88  1  0.52430000  0.09870000  0.17740000  1.0 0.1241491785
H  H89  1  0.07870000  0.90130000  0.42560000  1.0 0.1241491785
H  H90  1  0.92130000  0.34690000  0.82260000  1.0 0.1241491785
H  H91  1  0.17740000  0.52430000  0.09870000  1.0 0.1241491785
H  H92  1  0.42560000  0.07870000  0.90130000  1.0 0.1241491785
H  H93  1  0.82260000  0.92130000  0.34690000  1.0 0.1241491785
H  H94  1  0.42560000  0.34690000  0.52430000  1.0 0.1241491785
H  H95  1  0.34690000  0.52430000  0.42560000  1.0 0.1241491785
H  H96  1  0.52430000  0.42560000  0.34690000  1.0 0.1241491785
C  C1  1  0.21180000  0.50520000  0.50520000  1.0 0.2071050853
C  C2  1  0.50520000  0.21180000  0.50520000  1.0 0.2071050853
C  C3  1  0.50520000  0.50520000  0.21180000  1.0 0.2071050853
C  C4  1  0.29340000  0.00000000  0.50520000  1.0 0.2071050853
C  C5  1  0.70660000  0.21180000  0.70660000  1.0 0.2071050853
C  C6  1  0.50520000  0.00000000  0.29340000  1.0 0.2071050853
C  C7  1  0.00000000  0.29340000  0.50520000  1.0 0.2071050853
C  C8  1  0.21180000  0.70660000  0.70660000  1.0 0.2071050853
C  C9  1  0.00000000  0.50520000  0.29340000  1.0 0.2071050853
C  C10  1  0.70660000  0.70660000  0.21180000  1.0 0.2071050853
C  C11  1  0.29340000  0.50520000  0.00000000  1.0 0.2071050853
C  C12  1  0.50520000  0.29340000  0.00000000  1.0 0.2071050853
C  C13  1  0.00000000  0.70660000  0.49480000  1.0 0.2071050853
C  C14  1  0.00000000  0.49480000  0.70660000  1.0 0.2071050853
C  C15  1  0.78820000  0.29340000  0.29340000  1.0 0.2071050853
C  C16  1  0.49480000  0.00000000  0.70660000  1.0 0.2071050853
C  C17  1  0.70660000  0.00000000  0.49480000  1.0 0.2071050853
C  C18  1  0.29340000  0.78820000  0.29340000  1.0 0.2071050853
C  C19  1  0.70660000  0.49480000  0.00000000  1.0 0.2071050853
C  C20  1  0.49480000  0.70660000  0.00000000  1.0 0.2071050853
C  C21  1  0.29340000  0.29340000  0.78820000  1.0 0.2071050853
C  C22  1  0.49480000  0.78820000  0.49480000  1.0 0.2071050853
C  C23  1  0.78820000  0.49480000  0.49480000  1.0 0.2071050853
C  C24  1  0.49480000  0.49480000  0.78820000  1.0 0.2071050853
C  C25  1  0.26140000  0.49500000  0.49500000  1.0 0.0225178947
C  C26  1  0.49500000  0.26140000  0.49500000  1.0 0.0225178947
C  C27  1  0.49500000  0.49500000  0.26140000  1.0 0.0225178947
C  C28  1  0.23360000  0.00000000  0.49500000  1.0 0.0225178947
C  C29  1  0.76640000  0.26140000  0.76640000  1.0 0.0262617364
C  C30  1  0.49500000  0.00000000  0.23360000  1.0 0.0225178947
C  C31  1  0.00000000  0.23360000  0.49500000  1.0 0.0225178947
C  C32  1  0.26140000  0.76640000  0.76640000  1.0 0.0225178947
C  C33  1  0.00000000  0.49500000  0.23360000  1.0 0.0225178947
C  C34  1  0.76640000  0.76640000  0.26140000  1.0 0.0225178947
C  C35  1  0.23360000  0.49500000  0.00000000  1.0 0.0225178947
C  C36  1  0.49500000  0.23360000  0.00000000  1.0 0.0225178947
C  C37  1  0.00000000  0.76640000  0.50500000  1.0 0.0225178947
C  C38  1  0.00000000  0.50500000  0.76640000  1.0 0.0225178947
C  C39  1  0.73860000  0.23360000  0.23360000  1.0 0.0225178947
C  C40  1  0.50500000  0.00000000  0.76640000  1.0 0.0225178947
C  C41  1  0.76640000  0.00000000  0.50500000  1.0 0.0225178947
C  C42  1  0.23360000  0.73860000  0.23360000  1.0 0.0225178947
C  C43  1  0.76640000  0.50500000  0.00000000  1.0 0.0225178947
C  C44  1  0.50500000  0.76640000  0.00000000  1.0 0.0225178947
C  C45  1  0.23360000  0.23360000  0.73860000  1.0 0.0262617364
C  C46  1  0.50500000  0.73860000  0.50500000  1.0 0.0225178947
C  C47  1  0.73860000  0.50500000  0.50500000  1.0 0.0225178947
C  C48  1  0.50500000  0.50500000  0.73860000  1.0 0.0262617364
C  C49  1  0.28590000  0.46170000  0.51800000  1.0 -0.1088129889
C  C50  1  0.51800000  0.28590000  0.46170000  1.0 -0.1088129889
C  C51  1  0.46170000  0.51800000  0.28590000  1.0 -0.1088129889
C  C52  1  0.23210000  0.05630000  0.51800000  1.0 -0.1088129889
C  C53  1  0.76790000  0.28590000  0.82420000  1.0 -0.1088129889
C  C54  1  0.46170000  0.94370000  0.17580000  1.0 -0.1088129889
C  C55  1  0.94370000  0.17580000  0.46170000  1.0 -0.1088129889
C  C56  1  0.28590000  0.82420000  0.76790000  1.0 -0.1088129889
C  C57  1  0.05630000  0.51800000  0.23210000  1.0 -0.1088129889
C  C58  1  0.82420000  0.76790000  0.28590000  1.0 -0.1088129889
C  C59  1  0.17580000  0.46170000  0.94370000  1.0 -0.1088129889
C  C60  1  0.51800000  0.23210000  0.05630000  1.0 -0.1088129889
C  C61  1  0.94370000  0.76790000  0.48200000  1.0 -0.1088129889
C  C62  1  0.05630000  0.53830000  0.82420000  1.0 -0.1088129889
C  C63  1  0.71410000  0.23210000  0.17580000  1.0 -0.1088129889
C  C64  1  0.48200000  0.94370000  0.76790000  1.0 -0.1088129889
C  C65  1  0.82420000  0.05630000  0.53830000  1.0 -0.1088129889
C  C66  1  0.17580000  0.71410000  0.23210000  1.0 -0.1088129889
C  C67  1  0.76790000  0.48200000  0.94370000  1.0 -0.1088129889
C  C68  1  0.53830000  0.82420000  0.05630000  1.0 -0.1088129889
C  C69  1  0.23210000  0.17580000  0.71410000  1.0 -0.1088129889
C  C70  1  0.53830000  0.71410000  0.48200000  1.0 -0.1088129889
C  C71  1  0.71410000  0.48200000  0.53830000  1.0 -0.1088129889
C  C72  1  0.48200000  0.53830000  0.71410000  1.0 -0.1088129889
C  C73  1  0.71410000  0.53830000  0.48200000  1.0 -0.1088129889
C  C74  1  0.48200000  0.71410000  0.53830000  1.0 -0.1088129889
C  C75  1  0.53830000  0.48200000  0.71410000  1.0 -0.1088129889
C  C76  1  0.76790000  0.94370000  0.48200000  1.0 -0.1088129889
C  C77  1  0.23210000  0.71410000  0.17580000  1.0 -0.1088129889
C  C78  1  0.53830000  0.05630000  0.82420000  1.0 -0.1088129889
C  C79  1  0.05630000  0.82420000  0.53830000  1.0 -0.1088129889
C  C80  1  0.71410000  0.17580000  0.23210000  1.0 -0.1088129889
C  C81  1  0.94370000  0.48200000  0.76790000  1.0 -0.1088129889
C  C82  1  0.17580000  0.23210000  0.71410000  1.0 -0.1088129889
C  C83  1  0.82420000  0.53830000  0.05630000  1.0 -0.1088129889
C  C84  1  0.48200000  0.76790000  0.94370000  1.0 -0.1088129889
C  C85  1  0.05630000  0.23210000  0.51800000  1.0 -0.1088129889
C  C86  1  0.94370000  0.46170000  0.17580000  1.0 -0.1088129889
C  C87  1  0.28590000  0.76790000  0.82420000  1.0 -0.1088129889
C  C88  1  0.51800000  0.05630000  0.23210000  1.0 -0.1088129889
C  C89  1  0.17580000  0.94370000  0.46170000  1.0 -0.1088129889
C  C90  1  0.82420000  0.28590000  0.76790000  1.0 -0.1088129889
C  C91  1  0.23210000  0.51800000  0.05630000  1.0 -0.1088129889
C  C92  1  0.46170000  0.17580000  0.94370000  1.0 -0.1088129889
C  C93  1  0.76790000  0.82420000  0.28590000  1.0 -0.1088129889
C  C94  1  0.46170000  0.28590000  0.51800000  1.0 -0.1088129889
C  C95  1  0.28590000  0.51800000  0.46170000  1.0 -0.1088129889
C  C96  1  0.51800000  0.46170000  0.28590000  1.0 -0.1088129889
C  C97  1  0.33130000  0.44890000  0.50700000  1.0 -0.1088129889
C  C98  1  0.50700000  0.33130000  0.44890000  1.0 -0.1088129889
C  C99  1  0.44890000  0.50700000  0.33130000  1.0 -0.1088129889
C  C100  1  0.17570000  0.05810000  0.50700000  1.0 -0.1088129889
C  C101  1  0.82430000  0.33130000  0.88240000  1.0 -0.1088129889
C  C102  1  0.44890000  0.94190000  0.11760000  1.0 -0.1088129889
C  C103  1  0.94190000  0.11760000  0.44890000  1.0 -0.1088129889
C  C104  1  0.33130000  0.88240000  0.82430000  1.0 -0.1088129889
C  C105  1  0.05810000  0.50700000  0.17570000  1.0 -0.1088129889
C  C106  1  0.88240000  0.82430000  0.33130000  1.0 -0.1088129889
C  C107  1  0.11760000  0.44890000  0.94190000  1.0 -0.1088129889
C  C108  1  0.50700000  0.17570000  0.05810000  1.0 -0.104978259
C  C109  1  0.94190000  0.82430000  0.49300000  1.0 -0.1088129889
C  C110  1  0.05810000  0.55110000  0.88240000  1.0 -0.1088129889
C  C111  1  0.66870000  0.17570000  0.11760000  1.0 -0.1088129889
C  C112  1  0.49300000  0.94190000  0.82430000  1.0 -0.1088129889
C  C113  1  0.88240000  0.05810000  0.55110000  1.0 -0.104978259
C  C114  1  0.11760000  0.66870000  0.17570000  1.0 -0.1088129889
C  C115  1  0.82430000  0.49300000  0.94190000  1.0 -0.1088129889
C  C116  1  0.55110000  0.88240000  0.05810000  1.0 -0.1088129889
C  C117  1  0.17570000  0.11760000  0.66870000  1.0 -0.1088129889
C  C118  1  0.55110000  0.66870000  0.49300000  1.0 -0.1088129889
C  C119  1  0.66870000  0.49300000  0.55110000  1.0 -0.1088129889
C  C120  1  0.49300000  0.55110000  0.66870000  1.0 -0.1088129889
C  C121  1  0.66870000  0.55110000  0.49300000  1.0 -0.1088129889
C  C122  1  0.49300000  0.66870000  0.55110000  1.0 -0.1088129889
C  C123  1  0.55110000  0.49300000  0.66870000  1.0 -0.1088129889
C  C124  1  0.82430000  0.94190000  0.49300000  1.0 -0.1088129889
C  C125  1  0.17570000  0.66870000  0.11760000  1.0 -0.1088129889
C  C126  1  0.55110000  0.05810000  0.88240000  1.0 -0.1088129889
C  C127  1  0.05810000  0.88240000  0.55110000  1.0 -0.1088129889
C  C128  1  0.66870000  0.11760000  0.17570000  1.0 -0.1088129889
C  C129  1  0.94190000  0.49300000  0.82430000  1.0 -0.1088129889
C  C130  1  0.11760000  0.17570000  0.66870000  1.0 -0.104978259
C  C131  1  0.88240000  0.55110000  0.05810000  1.0 -0.1088129889
C  C132  1  0.49300000  0.82430000  0.94190000  1.0 -0.1088129889
C  C133  1  0.05810000  0.17570000  0.50700000  1.0 -0.1088129889
C  C134  1  0.94190000  0.44890000  0.11760000  1.0 -0.1088129889
C  C135  1  0.33130000  0.82430000  0.88240000  1.0 -0.1088129889
C  C136  1  0.50700000  0.05810000  0.17570000  1.0 -0.1088129889
C  C137  1  0.11760000  0.94190000  0.44890000  1.0 -0.1088129889
C  C138  1  0.88240000  0.33130000  0.82430000  1.0 -0.1088129889
C  C139  1  0.17570000  0.50700000  0.05810000  1.0 -0.1088129889
C  C140  1  0.44890000  0.11760000  0.94190000  1.0 -0.1088129889
C  C141  1  0.82430000  0.88240000  0.33130000  1.0 -0.1088129889
C  C142  1  0.44890000  0.33130000  0.50700000  1.0 -0.1088129889
C  C143  1  0.33130000  0.50700000  0.44890000  1.0 -0.1088129889
C  C144  1  0.50700000  0.44890000  0.33130000  1.0 -0.1088129889
C  C145  1  0.35500000  0.47010000  0.47010000  1.0 0.0033058649
C  C146  1  0.47010000  0.35500000  0.47010000  1.0 0.0033058649
C  C147  1  0.47010000  0.47010000  0.35500000  1.0 0.0033058649
C  C148  1  0.11510000  0.00000000  0.47010000  1.0 0.0033058649
C  C149  1  0.88490000  0.35500000  0.88490000  1.0 0.0033058649
C  C150  1  0.47010000  0.00000000  0.11510000  1.0 0.0033058649
C  C151  1  0.00000000  0.11510000  0.47010000  1.0 0.0033058649
C  C152  1  0.35500000  0.88490000  0.88490000  1.0 0.0033058649
C  C153  1  0.00000000  0.47010000  0.11510000  1.0 0.0033058649
C  C154  1  0.88490000  0.88490000  0.35500000  1.0 0.0033058649
C  C155  1  0.11510000  0.47010000  0.00000000  1.0 0.0033058649
C  C156  1  0.47010000  0.11510000  0.00000000  1.0 0.0033058649
C  C157  1  0.00000000  0.88490000  0.52990000  1.0 0.0033058649
C  C158  1  0.00000000  0.52990000  0.88490000  1.0 0.0033058649
C  C159  1  0.64500000  0.11510000  0.11510000  1.0 0.0033058649
C  C160  1  0.52990000  0.00000000  0.88490000  1.0 0.0033058649
C  C161  1  0.88490000  0.00000000  0.52990000  1.0 0.0033058649
C  C162  1  0.11510000  0.64500000  0.11510000  1.0 0.0033058649
C  C163  1  0.88490000  0.52990000  0.00000000  1.0 0.0033058649
C  C164  1  0.52990000  0.88490000  0.00000000  1.0 0.0033058649
C  C165  1  0.11510000  0.11510000  0.64500000  1.0 0.0033058649
C  C166  1  0.52990000  0.64500000  0.52990000  1.0 0.0033058649
C  C167  1  0.64500000  0.52990000  0.52990000  1.0 0.0033058649
C  C168  1  0.52990000  0.52990000  0.64500000  1.0 0.0033058649
C  C169  1  0.39720000  0.45240000  0.45240000  1.0 0.357767662
C  C170  1  0.45240000  0.39720000  0.45240000  1.0 0.357767662
C  C171  1  0.45240000  0.45240000  0.39720000  1.0 0.357767662
C  C172  1  0.05520000  0.00000000  0.45240000  1.0 0.357767662
C  C173  1  0.94480000  0.39720000  0.94480000  1.0 0.357767662
C  C174  1  0.45240000  0.00000000  0.05520000  1.0 0.357767662
C  C175  1  0.00000000  0.05520000  0.45240000  1.0 0.357767662
C  C176  1  0.39720000  0.94480000  0.94480000  1.0 0.357767662
C  C177  1  0.00000000  0.45240000  0.05520000  1.0 0.357767662
C  C178  1  0.94480000  0.94480000  0.39720000  1.0 0.357767662
C  C179  1  0.05520000  0.45240000  0.00000000  1.0 0.357767662
C  C180  1  0.45240000  0.05520000  0.00000000  1.0 0.357767662
C  C181  1  0.00000000  0.94480000  0.54760000  1.0 0.357767662
C  C182  1  0.00000000  0.54760000  0.94480000  1.0 0.357767662
C  C183  1  0.60280000  0.05520000  0.05520000  1.0 0.357767662
C  C184  1  0.54760000  0.00000000  0.94480000  1.0 0.357767662
C  C185  1  0.94480000  0.00000000  0.54760000  1.0 0.357767662
C  C186  1  0.05520000  0.60280000  0.05520000  1.0 0.357767662
C  C187  1  0.94480000  0.54760000  0.00000000  1.0 0.357767662
C  C188  1  0.54760000  0.94480000  0.00000000  1.0 0.357767662
C  C189  1  0.05520000  0.05520000  0.60280000  1.0 0.357767662
C  C190  1  0.54760000  0.60280000  0.54760000  1.0 0.357767662
C  C191  1  0.60280000  0.54760000  0.54760000  1.0 0.357767662
C  C192  1  0.54760000  0.54760000  0.60280000  1.0 0.357767662
N  N1  1  0.14402000  0.53641000  0.50333000  1.0 -0.0274561583
N  N2  1  0.50333000  0.14402000  0.53641000  1.0 -0.0274561583
N  N3  1  0.53641000  0.50333000  0.14402000  1.0 -0.0274561583
N  N4  1  0.35931000  0.96692000  0.50333000  1.0 -0.0274561583
N  N5  1  0.64069000  0.14402000  0.60761000  1.0 -0.0274561583
N  N6  1  0.53641000  0.03308000  0.39239000  1.0 -0.0274561583
N  N7  1  0.03308000  0.39239000  0.53641000  1.0 -0.0274561583
N  N8  1  0.14402000  0.60761000  0.64069000  1.0 -0.0274561583
N  N9  1  0.96692000  0.50333000  0.35931000  1.0 -0.0274561583
N  N10  1  0.60761000  0.64069000  0.14402000  1.0 -0.0274561583
N  N11  1  0.39239000  0.53641000  0.03308000  1.0 -0.0274561583
N  N12  1  0.50333000  0.35931000  0.96692000  1.0 -0.0274561583
N  N13  1  0.03308000  0.64069000  0.49667000  1.0 -0.0274561583
N  N14  1  0.96692000  0.46359000  0.60761000  1.0 -0.0274561583
N  N15  1  0.85598000  0.35931000  0.39239000  1.0 -0.0274561583
N  N16  1  0.49667000  0.03308000  0.64069000  1.0 -0.0274561583
N  N17  1  0.60761000  0.96692000  0.46359000  1.0 -0.0274561583
N  N18  1  0.39239000  0.85598000  0.35931000  1.0 -0.0274561583
N  N19  1  0.64069000  0.49667000  0.03308000  1.0 -0.0274561583
N  N20  1  0.46359000  0.60761000  0.96692000  1.0 -0.0274561583
N  N21  1  0.35931000  0.39239000  0.85598000  1.0 -0.0274561583
N  N22  1  0.46359000  0.85598000  0.49667000  1.0 -0.0274561583
N  N23  1  0.85598000  0.49667000  0.46359000  1.0 -0.0274561583
N  N24  1  0.49667000  0.46359000  0.85598000  1.0 -0.0274561583
N  N25  1  0.85598000  0.46359000  0.49667000  1.0 -0.0274561583
N  N26  1  0.49667000  0.85598000  0.46359000  1.0 -0.0274561583
N  N27  1  0.46359000  0.49667000  0.85598000  1.0 -0.0274561583
N  N28  1  0.64069000  0.03308000  0.49667000  1.0 -0.0274561583
N  N29  1  0.35931000  0.85598000  0.39239000  1.0 -0.0274561583
N  N30  1  0.46359000  0.96692000  0.60761000  1.0 -0.0274561583
N  N31  1  0.96692000  0.60761000  0.46359000  1.0 -0.0274561583
N  N32  1  0.85598000  0.39239000  0.35931000  1.0 -0.0274561583
N  N33  1  0.03308000  0.49667000  0.64069000  1.0 -0.0274561583
N  N34  1  0.39239000  0.35931000  0.85598000  1.0 -0.0274561583
N  N35  1  0.60761000  0.46359000  0.96692000  1.0 -0.0274561583
N  N36  1  0.49667000  0.64069000  0.03308000  1.0 -0.0274561583
N  N37  1  0.96692000  0.35931000  0.50333000  1.0 -0.0274561583
N  N38  1  0.03308000  0.53641000  0.39239000  1.0 -0.0274561583
N  N39  1  0.14402000  0.64069000  0.60761000  1.0 -0.0274561583
N  N40  1  0.50333000  0.96692000  0.35931000  1.0 -0.0274561583
N  N41  1  0.39239000  0.03308000  0.53641000  1.0 -0.0274561583
N  N42  1  0.60761000  0.14402000  0.64069000  1.0 -0.0274561583
N  N43  1  0.35931000  0.50333000  0.96692000  1.0 -0.0274561583
N  N44  1  0.53641000  0.39239000  0.03308000  1.0 -0.0274561583
N  N45  1  0.64069000  0.60761000  0.14402000  1.0 -0.0274561583
N  N46  1  0.53641000  0.14402000  0.50333000  1.0 -0.0274561583
N  N47  1  0.14402000  0.50333000  0.53641000  1.0 -0.0274561583
N  N48  1  0.50333000  0.53641000  0.14402000  1.0 -0.0274561583
N  N49  1  0.18690000  0.53753000  0.48403000  1.0 -0.2238411432
N  N50  1  0.48403000  0.18690000  0.53753000  1.0 -0.2238411432
N  N51  1  0.53753000  0.48403000  0.18690000  1.0 -0.2238411432
N  N52  1  0.29713000  0.94650000  0.48403000  1.0 -0.2259367679
N  N53  1  0.70287000  0.18690000  0.64937000  1.0 -0.2238411432
N  N54  1  0.53753000  0.05350000  0.35063000  1.0 -0.2259367679
N  N55  1  0.05350000  0.35063000  0.53753000  1.0 -0.2238411432
N  N56  1  0.18690000  0.64937000  0.70287000  1.0 -0.2259367679
N  N57  1  0.94650000  0.48403000  0.29713000  1.0 -0.2259367679
N  N58  1  0.64937000  0.70287000  0.18690000  1.0 -0.2259367679
N  N59  1  0.35063000  0.53753000  0.05350000  1.0 -0.2238411432
N  N60  1  0.48403000  0.29713000  0.94650000  1.0 -0.2259367679
N  N61  1  0.05350000  0.70287000  0.51597000  1.0 -0.2238411432
N  N62  1  0.94650000  0.46247000  0.64937000  1.0 -0.2238411432
N  N63  1  0.81310000  0.29713000  0.35063000  1.0 -0.2259367679
N  N64  1  0.51597000  0.05350000  0.70287000  1.0 -0.2259367679
N  N65  1  0.64937000  0.94650000  0.46247000  1.0 -0.2259367679
N  N66  1  0.35063000  0.81310000  0.29713000  1.0 -0.2238411432
N  N67  1  0.70287000  0.51597000  0.05350000  1.0 -0.2259367679
N  N68  1  0.46247000  0.64937000  0.94650000  1.0 -0.2259367679
N  N69  1  0.29713000  0.35063000  0.81310000  1.0 -0.2259367679
N  N70  1  0.46247000  0.81310000  0.51597000  1.0 -0.2238411432
N  N71  1  0.81310000  0.51597000  0.46247000  1.0 -0.2259367679
N  N72  1  0.51597000  0.46247000  0.81310000  1.0 -0.2238411432
N  N73  1  0.81310000  0.46247000  0.51597000  1.0 -0.2259367679
N  N74  1  0.51597000  0.81310000  0.46247000  1.0 -0.2238411432
N  N75  1  0.46247000  0.51597000  0.81310000  1.0 -0.2238411432
N  N76  1  0.70287000  0.05350000  0.51597000  1.0 -0.2238411432
N  N77  1  0.29713000  0.81310000  0.35063000  1.0 -0.2259367679
N  N78  1  0.46247000  0.94650000  0.64937000  1.0 -0.2259367679
N  N79  1  0.94650000  0.64937000  0.46247000  1.0 -0.2238411432
N  N80  1  0.81310000  0.35063000  0.29713000  1.0 -0.2259367679
N  N81  1  0.05350000  0.51597000  0.70287000  1.0 -0.2238411432
N  N82  1  0.35063000  0.29713000  0.81310000  1.0 -0.2238411432
N  N83  1  0.64937000  0.46247000  0.94650000  1.0 -0.2259367679
N  N84  1  0.51597000  0.70287000  0.05350000  1.0 -0.2259367679
N  N85  1  0.94650000  0.29713000  0.48403000  1.0 -0.2238411432
N  N86  1  0.05350000  0.53753000  0.35063000  1.0 -0.2238411432
N  N87  1  0.18690000  0.70287000  0.64937000  1.0 -0.2259367679
N  N88  1  0.48403000  0.94650000  0.29713000  1.0 -0.2259367679
N  N89  1  0.35063000  0.05350000  0.53753000  1.0 -0.2259367679
N  N90  1  0.64937000  0.18690000  0.70287000  1.0 -0.2238411432
N  N91  1  0.29713000  0.48403000  0.94650000  1.0 -0.2238411432
N  N92  1  0.53753000  0.35063000  0.05350000  1.0 -0.2259367679
N  N93  1  0.70287000  0.64937000  0.18690000  1.0 -0.2259367679
N  N94  1  0.53753000  0.18690000  0.48403000  1.0 -0.2238411432
N  N95  1  0.18690000  0.48403000  0.53753000  1.0 -0.2238411432
N  N96  1  0.48403000  0.53753000  0.18690000  1.0 -0.2238411432
N  N97  1  0.41610000  0.41610000  0.47380000  1.0 -0.4083305057
N  N98  1  0.47380000  0.41610000  0.41610000  1.0 -0.4083305057
N  N99  1  0.41610000  0.47380000  0.41610000  1.0 -0.4083305057
N  N100  1  0.05770000  0.05770000  0.47380000  1.0 -0.4083305057
N  N101  1  0.94230000  0.41610000  0.00000000  1.0 -0.4083305057
N  N102  1  0.41610000  0.94230000  0.00000000  1.0 -0.4083305057
N  N103  1  0.94230000  0.00000000  0.41610000  1.0 -0.4083305057
N  N104  1  0.41610000  0.00000000  0.94230000  1.0 -0.4083305057
N  N105  1  0.05770000  0.47380000  0.05770000  1.0 -0.4083305057
N  N106  1  0.00000000  0.94230000  0.41610000  1.0 -0.4083305057
N  N107  1  0.00000000  0.41610000  0.94230000  1.0 -0.4083305057
N  N108  1  0.47380000  0.05770000  0.05770000  1.0 -0.4083305057
N  N109  1  0.94230000  0.94230000  0.52620000  1.0 -0.4083305057
N  N110  1  0.05770000  0.58390000  0.00000000  1.0 -0.4083305057
N  N111  1  0.58390000  0.05770000  0.00000000  1.0 -0.4083305057
N  N112  1  0.52620000  0.94230000  0.94230000  1.0 -0.4083305057
N  N113  1  0.00000000  0.05770000  0.58390000  1.0 -0.4083305057
N  N114  1  0.00000000  0.58390000  0.05770000  1.0 -0.4083305057
N  N115  1  0.94230000  0.52620000  0.94230000  1.0 -0.4083305057
N  N116  1  0.58390000  0.00000000  0.05770000  1.0 -0.4083305057
N  N117  1  0.05770000  0.00000000  0.58390000  1.0 -0.4083305057
N  N118  1  0.58390000  0.58390000  0.52620000  1.0 -0.4083305057
N  N119  1  0.58390000  0.52620000  0.58390000  1.0 -0.4083305057
N  N120  1  0.52620000  0.58390000  0.58390000  1.0 -0.4083305057
Cl  Cl1  1  0.00000000  0.50000000  0.50000000  1.0 -0.5680097
Cl  Cl2  1  0.50000000  0.00000000  0.50000000  1.0 -0.5680097
Cl  Cl3  1  0.50000000  0.50000000  0.00000000  1.0 -0.5648224906
O  O1  1  0.16810000  0.66810000  0.50000000  1.0 0.0225178947
O  O2  1  0.50000000  0.16810000  0.66810000  1.0 0.0225178947
O  O3  1  0.66810000  0.50000000  0.16810000  1.0 0.0262617364
O  O4  1  0.33190000  0.83190000  0.50000000  1.0 0.0225178947
O  O5  1  0.66810000  0.16810000  0.50000000  1.0 0.0225178947
O  O6  1  0.16810000  0.50000000  0.66810000  1.0 0.0225178947
O  O7  1  0.83190000  0.50000000  0.33190000  1.0 0.0262617364
O  O8  1  0.50000000  0.66810000  0.16810000  1.0 0.0262617364
O  O9  1  0.50000000  0.33190000  0.83190000  1.0 0.0225178947
O  O10  1  0.83190000  0.33190000  0.50000000  1.0 0.0225178947
O  O11  1  0.50000000  0.83190000  0.33190000  1.0 0.0225178947
O  O12  1  0.33190000  0.50000000  0.83190000  1.0 0.0225178947
