# DDEC6 charges by PACMAN v1.1 (https://github.com/mtap-research/PACMAN-charge/)
data_BIWSOQ_FSR_pacman
_symmetry_space_group_name_H-M   'P 1'
_cell_length_a   24.70420000
_cell_length_b   24.70420000
_cell_length_c   24.70420000
_cell_angle_alpha   109.47100000
_cell_angle_beta   109.47100000
_cell_angle_gamma   109.47100000
_symmetry_Int_Tables_number   1
_chemical_formula_structural   Cu4C112N48ClO4
_chemical_formula_sum   'Cu12 C336 N144 Cl3 O12'
_cell_volume   11606.30664642
_cell_formula_units_Z   3
loop_
 _symmetry_equiv_pos_site_id
 _symmetry_equiv_pos_as_xyz
  1  'x, y, z'
loop_
 _atom_site_type_symbol
 _atom_site_label
 _atom_site_symmetry_multiplicity
 _atom_site_fract_x
 _atom_site_fract_y
 _atom_site_fract_z
 _atom_site_occupancy
 _atom_site_charge
Cu  Cu1  1  0.08940000  0.50000000  0.58940000  1.0 0.5459020451
Cu  Cu2  1  0.58940000  0.08940000  0.50000000  1.0 0.5459020451
Cu  Cu3  1  0.50000000  0.58940000  0.08940000  1.0 0.5459020451
Cu  Cu4  1  0.50000000  0.08940000  0.58940000  1.0 0.5459020451
Cu  Cu5  1  0.50000000  0.91060000  0.41060000  1.0 0.5459020451
Cu  Cu6  1  0.91060000  0.41060000  0.50000000  1.0 0.5438738019
Cu  Cu7  1  0.08940000  0.58940000  0.50000000  1.0 0.5459020451
Cu  Cu8  1  0.58940000  0.50000000  0.08940000  1.0 0.5459020451
Cu  Cu9  1  0.41060000  0.50000000  0.91060000  1.0 0.5459020451
Cu  Cu10  1  0.91060000  0.50000000  0.41060000  1.0 0.5459020451
Cu  Cu11  1  0.41060000  0.91060000  0.50000000  1.0 0.5459020451
Cu  Cu12  1  0.50000000  0.41060000  0.91060000  1.0 0.5459020451
C  C1  1  0.19820000  0.49950000  0.49950000  1.0 0.2521613648
C  C2  1  0.49950000  0.19820000  0.49950000  1.0 0.2521613648
C  C3  1  0.49950000  0.49950000  0.19820000  1.0 0.2521613648
C  C4  1  0.30130000  0.00000000  0.49950000  1.0 0.2521613648
C  C5  1  0.69870000  0.19820000  0.69870000  1.0 0.2521613648
C  C6  1  0.49950000  0.00000000  0.30130000  1.0 0.2521613648
C  C7  1  0.00000000  0.30130000  0.49950000  1.0 0.2521613648
C  C8  1  0.19820000  0.69870000  0.69870000  1.0 0.2521613648
C  C9  1  0.00000000  0.49950000  0.30130000  1.0 0.2521613648
C  C10  1  0.69870000  0.69870000  0.19820000  1.0 0.2521613648
C  C11  1  0.30130000  0.49950000  0.00000000  1.0 0.2521613648
C  C12  1  0.49950000  0.30130000  0.00000000  1.0 0.2521613648
C  C13  1  0.00000000  0.69870000  0.50050000  1.0 0.2521613648
C  C14  1  0.00000000  0.50050000  0.69870000  1.0 0.2521613648
C  C15  1  0.80180000  0.30130000  0.30130000  1.0 0.2521613648
C  C16  1  0.50050000  0.00000000  0.69870000  1.0 0.2566181869
C  C17  1  0.69870000  0.00000000  0.50050000  1.0 0.2521613648
C  C18  1  0.30130000  0.80180000  0.30130000  1.0 0.2521613648
C  C19  1  0.69870000  0.50050000  0.00000000  1.0 0.2566181869
C  C20  1  0.50050000  0.69870000  0.00000000  1.0 0.2521613648
C  C21  1  0.30130000  0.30130000  0.80180000  1.0 0.2521613648
C  C22  1  0.50050000  0.80180000  0.50050000  1.0 0.2521613648
C  C23  1  0.80180000  0.50050000  0.50050000  1.0 0.2521613648
C  C24  1  0.50050000  0.50050000  0.80180000  1.0 0.2521613648
C  C25  1  0.26220000  0.49910000  0.49910000  1.0 0.0629752106
C  C26  1  0.49910000  0.26220000  0.49910000  1.0 0.0629752106
C  C27  1  0.49910000  0.49910000  0.26220000  1.0 0.0629752106
C  C28  1  0.23690000  0.00000000  0.49910000  1.0 0.0629752106
C  C29  1  0.76310000  0.26220000  0.76310000  1.0 0.0629752106
C  C30  1  0.49910000  0.00000000  0.23690000  1.0 0.0629752106
C  C31  1  0.00000000  0.23690000  0.49910000  1.0 0.0629752106
C  C32  1  0.26220000  0.76310000  0.76310000  1.0 0.0674836773
C  C33  1  0.00000000  0.49910000  0.23690000  1.0 0.0629752106
C  C34  1  0.76310000  0.76310000  0.26220000  1.0 0.0629752106
C  C35  1  0.23690000  0.49910000  0.00000000  1.0 0.0629752106
C  C36  1  0.49910000  0.23690000  0.00000000  1.0 0.0674836773
C  C37  1  0.00000000  0.76310000  0.50090000  1.0 0.0629752106
C  C38  1  0.00000000  0.50090000  0.76310000  1.0 0.0629752106
C  C39  1  0.73780000  0.23690000  0.23690000  1.0 0.0629752106
C  C40  1  0.50090000  0.00000000  0.76310000  1.0 0.0674836773
C  C41  1  0.76310000  0.00000000  0.50090000  1.0 0.0629752106
C  C42  1  0.23690000  0.73780000  0.23690000  1.0 0.0629752106
C  C43  1  0.76310000  0.50090000  0.00000000  1.0 0.0674836773
C  C44  1  0.50090000  0.76310000  0.00000000  1.0 0.0629752106
C  C45  1  0.23690000  0.23690000  0.73780000  1.0 0.0674836773
C  C46  1  0.50090000  0.73780000  0.50090000  1.0 0.0629752106
C  C47  1  0.73780000  0.50090000  0.50090000  1.0 0.0674836773
C  C48  1  0.50090000  0.50090000  0.73780000  1.0 0.0629752106
C  C49  1  0.28600000  0.46550000  0.52350000  1.0 -0.0536471175
C  C50  1  0.52350000  0.28600000  0.46550000  1.0 -0.0536471175
C  C51  1  0.46550000  0.52350000  0.28600000  1.0 -0.0536471175
C  C52  1  0.23750000  0.05800000  0.52350000  1.0 -0.0536471175
C  C53  1  0.76250000  0.28600000  0.82050000  1.0 -0.0536471175
C  C54  1  0.46550000  0.94200000  0.17950000  1.0 -0.0536471175
C  C55  1  0.94200000  0.17950000  0.46550000  1.0 -0.0536471175
C  C56  1  0.28600000  0.82050000  0.76250000  1.0 -0.0577572941
C  C57  1  0.05800000  0.52350000  0.23750000  1.0 -0.0536471175
C  C58  1  0.82050000  0.76250000  0.28600000  1.0 -0.0536471175
C  C59  1  0.17950000  0.46550000  0.94200000  1.0 -0.0536471175
C  C60  1  0.52350000  0.23750000  0.05800000  1.0 -0.0577572941
C  C61  1  0.94200000  0.76250000  0.47650000  1.0 -0.0536471175
C  C62  1  0.05800000  0.53450000  0.82050000  1.0 -0.0536471175
C  C63  1  0.71400000  0.23750000  0.17950000  1.0 -0.0577572941
C  C64  1  0.47650000  0.94200000  0.76250000  1.0 -0.0577572941
C  C65  1  0.82050000  0.05800000  0.53450000  1.0 -0.0536471175
C  C66  1  0.17950000  0.71400000  0.23750000  1.0 -0.0577572941
C  C67  1  0.76250000  0.47650000  0.94200000  1.0 -0.0577572941
C  C68  1  0.53450000  0.82050000  0.05800000  1.0 -0.0536471175
C  C69  1  0.23750000  0.17950000  0.71400000  1.0 -0.0536471175
C  C70  1  0.53450000  0.71400000  0.47650000  1.0 -0.0536471175
C  C71  1  0.71400000  0.47650000  0.53450000  1.0 -0.0536471175
C  C72  1  0.47650000  0.53450000  0.71400000  1.0 -0.0536471175
C  C73  1  0.71400000  0.53450000  0.47650000  1.0 -0.0577572941
C  C74  1  0.47650000  0.71400000  0.53450000  1.0 -0.0536471175
C  C75  1  0.53450000  0.47650000  0.71400000  1.0 -0.0536471175
C  C76  1  0.76250000  0.94200000  0.47650000  1.0 -0.0536471175
C  C77  1  0.23750000  0.71400000  0.17950000  1.0 -0.0577572941
C  C78  1  0.53450000  0.05800000  0.82050000  1.0 -0.0577572941
C  C79  1  0.05800000  0.82050000  0.53450000  1.0 -0.0536471175
C  C80  1  0.71400000  0.17950000  0.23750000  1.0 -0.0536471175
C  C81  1  0.94200000  0.47650000  0.76250000  1.0 -0.0536471175
C  C82  1  0.17950000  0.23750000  0.71400000  1.0 -0.0536471175
C  C83  1  0.82050000  0.53450000  0.05800000  1.0 -0.0536471175
C  C84  1  0.47650000  0.76250000  0.94200000  1.0 -0.0577572941
C  C85  1  0.05800000  0.23750000  0.52350000  1.0 -0.0536471175
C  C86  1  0.94200000  0.46550000  0.17950000  1.0 -0.0536471175
C  C87  1  0.28600000  0.76250000  0.82050000  1.0 -0.0577572941
C  C88  1  0.52350000  0.05800000  0.23750000  1.0 -0.0536471175
C  C89  1  0.17950000  0.94200000  0.46550000  1.0 -0.0536471175
C  C90  1  0.82050000  0.28600000  0.76250000  1.0 -0.0536471175
C  C91  1  0.23750000  0.52350000  0.05800000  1.0 -0.0536471175
C  C92  1  0.46550000  0.17950000  0.94200000  1.0 -0.0577572941
C  C93  1  0.76250000  0.82050000  0.28600000  1.0 -0.0577572941
C  C94  1  0.46550000  0.28600000  0.52350000  1.0 -0.0536471175
C  C95  1  0.28600000  0.52350000  0.46550000  1.0 -0.0536471175
C  C96  1  0.52350000  0.46550000  0.28600000  1.0 -0.0536471175
C  C97  1  0.32800000  0.44760000  0.50640000  1.0 -0.1088817983
C  C98  1  0.50640000  0.32800000  0.44760000  1.0 -0.1088817983
C  C99  1  0.44760000  0.50640000  0.32800000  1.0 -0.1088817983
C  C100  1  0.17840000  0.05880000  0.50640000  1.0 -0.1088817983
C  C101  1  0.82160000  0.32800000  0.88040000  1.0 -0.1088817983
C  C102  1  0.44760000  0.94120000  0.11960000  1.0 -0.1088817983
C  C103  1  0.94120000  0.11960000  0.44760000  1.0 -0.1088817983
C  C104  1  0.32800000  0.88040000  0.82160000  1.0 -0.1088817983
C  C105  1  0.05880000  0.50640000  0.17840000  1.0 -0.1088817983
C  C106  1  0.88040000  0.82160000  0.32800000  1.0 -0.1088817983
C  C107  1  0.11960000  0.44760000  0.94120000  1.0 -0.1088817983
C  C108  1  0.50640000  0.17840000  0.05880000  1.0 -0.1088817983
C  C109  1  0.94120000  0.82160000  0.49360000  1.0 -0.1088817983
C  C110  1  0.05880000  0.55240000  0.88040000  1.0 -0.1088817983
C  C111  1  0.67200000  0.17840000  0.11960000  1.0 -0.1088817983
C  C112  1  0.49360000  0.94120000  0.82160000  1.0 -0.1088817983
C  C113  1  0.88040000  0.05880000  0.55240000  1.0 -0.1088817983
C  C114  1  0.11960000  0.67200000  0.17840000  1.0 -0.1088817983
C  C115  1  0.82160000  0.49360000  0.94120000  1.0 -0.1088817983
C  C116  1  0.55240000  0.88040000  0.05880000  1.0 -0.1088817983
C  C117  1  0.17840000  0.11960000  0.67200000  1.0 -0.1088817983
C  C118  1  0.55240000  0.67200000  0.49360000  1.0 -0.1088817983
C  C119  1  0.67200000  0.49360000  0.55240000  1.0 -0.1088817983
C  C120  1  0.49360000  0.55240000  0.67200000  1.0 -0.1088817983
C  C121  1  0.67200000  0.55240000  0.49360000  1.0 -0.1088817983
C  C122  1  0.49360000  0.67200000  0.55240000  1.0 -0.1088817983
C  C123  1  0.55240000  0.49360000  0.67200000  1.0 -0.1088817983
C  C124  1  0.82160000  0.94120000  0.49360000  1.0 -0.1088817983
C  C125  1  0.17840000  0.67200000  0.11960000  1.0 -0.1088817983
C  C126  1  0.55240000  0.05880000  0.88040000  1.0 -0.1088817983
C  C127  1  0.05880000  0.88040000  0.55240000  1.0 -0.1088817983
C  C128  1  0.67200000  0.11960000  0.17840000  1.0 -0.1088817983
C  C129  1  0.94120000  0.49360000  0.82160000  1.0 -0.1088817983
C  C130  1  0.11960000  0.17840000  0.67200000  1.0 -0.1088817983
C  C131  1  0.88040000  0.55240000  0.05880000  1.0 -0.1088817983
C  C132  1  0.49360000  0.82160000  0.94120000  1.0 -0.1088817983
C  C133  1  0.05880000  0.17840000  0.50640000  1.0 -0.1088817983
C  C134  1  0.94120000  0.44760000  0.11960000  1.0 -0.1088817983
C  C135  1  0.32800000  0.82160000  0.88040000  1.0 -0.1088817983
C  C136  1  0.50640000  0.05880000  0.17840000  1.0 -0.1088817983
C  C137  1  0.11960000  0.94120000  0.44760000  1.0 -0.1088817983
C  C138  1  0.88040000  0.32800000  0.82160000  1.0 -0.1088817983
C  C139  1  0.17840000  0.50640000  0.05880000  1.0 -0.1088817983
C  C140  1  0.44760000  0.11960000  0.94120000  1.0 -0.1088817983
C  C141  1  0.82160000  0.88040000  0.32800000  1.0 -0.1088817983
C  C142  1  0.44760000  0.32800000  0.50640000  1.0 -0.1088817983
C  C143  1  0.32800000  0.50640000  0.44760000  1.0 -0.1088817983
C  C144  1  0.50640000  0.44760000  0.32800000  1.0 -0.1088817983
C  C145  1  0.34200000  0.46460000  0.46460000  1.0 0.0239044739
C  C146  1  0.46460000  0.34200000  0.46460000  1.0 0.0239044739
C  C147  1  0.46460000  0.46460000  0.34200000  1.0 0.0239044739
C  C148  1  0.12260000  0.00000000  0.46460000  1.0 0.0239044739
C  C149  1  0.87740000  0.34200000  0.87740000  1.0 0.0239044739
C  C150  1  0.46460000  0.00000000  0.12260000  1.0 0.0239044739
C  C151  1  0.00000000  0.12260000  0.46460000  1.0 0.0239044739
C  C152  1  0.34200000  0.87740000  0.87740000  1.0 0.0239044739
C  C153  1  0.00000000  0.46460000  0.12260000  1.0 0.0259666349
C  C154  1  0.87740000  0.87740000  0.34200000  1.0 0.0259666349
C  C155  1  0.12260000  0.46460000  0.00000000  1.0 0.0259666349
C  C156  1  0.46460000  0.12260000  0.00000000  1.0 0.0259666349
C  C157  1  0.00000000  0.87740000  0.53540000  1.0 0.0239044739
C  C158  1  0.00000000  0.53540000  0.87740000  1.0 0.0239044739
C  C159  1  0.65800000  0.12260000  0.12260000  1.0 0.0259666349
C  C160  1  0.53540000  0.00000000  0.87740000  1.0 0.0259666349
C  C161  1  0.87740000  0.00000000  0.53540000  1.0 0.0239044739
C  C162  1  0.12260000  0.65800000  0.12260000  1.0 0.0239044739
C  C163  1  0.87740000  0.53540000  0.00000000  1.0 0.0259666349
C  C164  1  0.53540000  0.87740000  0.00000000  1.0 0.0259666349
C  C165  1  0.12260000  0.12260000  0.65800000  1.0 0.0239044739
C  C166  1  0.53540000  0.65800000  0.53540000  1.0 0.0239044739
C  C167  1  0.65800000  0.53540000  0.53540000  1.0 0.0239044739
C  C168  1  0.53540000  0.53540000  0.65800000  1.0 0.0239044739
C  C169  1  0.39660000  0.45480000  0.45480000  1.0 0.2210515006
C  C170  1  0.45480000  0.39660000  0.45480000  1.0 0.2210515006
C  C171  1  0.45480000  0.45480000  0.39660000  1.0 0.2210515006
C  C172  1  0.05820000  0.00000000  0.45480000  1.0 0.2210515006
C  C173  1  0.94180000  0.39660000  0.94180000  1.0 0.2210515006
C  C174  1  0.45480000  0.00000000  0.05820000  1.0 0.2210515006
C  C175  1  0.00000000  0.05820000  0.45480000  1.0 0.2210515006
C  C176  1  0.39660000  0.94180000  0.94180000  1.0 0.2210515006
C  C177  1  0.00000000  0.45480000  0.05820000  1.0 0.2210515006
C  C178  1  0.94180000  0.94180000  0.39660000  1.0 0.2210515006
C  C179  1  0.05820000  0.45480000  0.00000000  1.0 0.2210515006
C  C180  1  0.45480000  0.05820000  0.00000000  1.0 0.2210515006
C  C181  1  0.00000000  0.94180000  0.54520000  1.0 0.2210515006
C  C182  1  0.00000000  0.54520000  0.94180000  1.0 0.2210515006
C  C183  1  0.60340000  0.05820000  0.05820000  1.0 0.2210515006
C  C184  1  0.54520000  0.00000000  0.94180000  1.0 0.2210515006
C  C185  1  0.94180000  0.00000000  0.54520000  1.0 0.2210515006
C  C186  1  0.05820000  0.60340000  0.05820000  1.0 0.2210515006
C  C187  1  0.94180000  0.54520000  0.00000000  1.0 0.2210515006
C  C188  1  0.54520000  0.94180000  0.00000000  1.0 0.2210515006
C  C189  1  0.05820000  0.05820000  0.60340000  1.0 0.2210515006
C  C190  1  0.54520000  0.60340000  0.54520000  1.0 0.2210515006
C  C191  1  0.60340000  0.54520000  0.54520000  1.0 0.2210515006
C  C192  1  0.54520000  0.54520000  0.60340000  1.0 0.2210515006
C  C193  1  0.22380000  0.46290000  0.46290000  1.0 0.0384720396
C  C194  1  0.46290000  0.22380000  0.46290000  1.0 0.0384720396
C  C195  1  0.46290000  0.46290000  0.22380000  1.0 0.0384720396
C  C196  1  0.23910000  0.00000000  0.46290000  1.0 0.0384720396
C  C197  1  0.76090000  0.22380000  0.76090000  1.0 0.0384720396
C  C198  1  0.46290000  0.00000000  0.23910000  1.0 0.0384720396
C  C199  1  0.00000000  0.23910000  0.46290000  1.0 0.0384720396
C  C200  1  0.22380000  0.76090000  0.76090000  1.0 0.0384720396
C  C201  1  0.00000000  0.46290000  0.23910000  1.0 0.0384720396
C  C202  1  0.76090000  0.76090000  0.22380000  1.0 0.0384720396
C  C203  1  0.23910000  0.46290000  0.00000000  1.0 0.0384720396
C  C204  1  0.46290000  0.23910000  0.00000000  1.0 0.0384720396
C  C205  1  0.00000000  0.76090000  0.53710000  1.0 0.0384720396
C  C206  1  0.00000000  0.53710000  0.76090000  1.0 0.0384720396
C  C207  1  0.77620000  0.23910000  0.23910000  1.0 0.0384720396
C  C208  1  0.53710000  0.00000000  0.76090000  1.0 0.0384720396
C  C209  1  0.76090000  0.00000000  0.53710000  1.0 0.0384720396
C  C210  1  0.23910000  0.77620000  0.23910000  1.0 0.0384720396
C  C211  1  0.76090000  0.53710000  0.00000000  1.0 0.0384720396
C  C212  1  0.53710000  0.76090000  0.00000000  1.0 0.0384720396
C  C213  1  0.23910000  0.23910000  0.77620000  1.0 0.0384720396
C  C214  1  0.53710000  0.77620000  0.53710000  1.0 0.0384720396
C  C215  1  0.77620000  0.53710000  0.53710000  1.0 0.0384720396
C  C216  1  0.53710000  0.53710000  0.77620000  1.0 0.0384720396
C  C217  1  0.23890000  0.42070000  0.47860000  1.0 0.0010771811
C  C218  1  0.47860000  0.23890000  0.42070000  1.0 0.0010771811
C  C219  1  0.42070000  0.47860000  0.23890000  1.0 0.0010771811
C  C220  1  0.23970000  0.05790000  0.47860000  1.0 0.0086288668
C  C221  1  0.76030000  0.23890000  0.81820000  1.0 0.0010771811
C  C222  1  0.42070000  0.94210000  0.18180000  1.0 0.0086288668
C  C223  1  0.94210000  0.18180000  0.42070000  1.0 0.0010771811
C  C224  1  0.23890000  0.81820000  0.76030000  1.0 -0.0030439973
C  C225  1  0.05790000  0.47860000  0.23970000  1.0 0.0010771811
C  C226  1  0.81820000  0.76030000  0.23890000  1.0 -0.0030439973
C  C227  1  0.18180000  0.42070000  0.94210000  1.0 0.0010771811
C  C228  1  0.47860000  0.23970000  0.05790000  1.0 -0.0030439973
C  C229  1  0.94210000  0.76030000  0.52140000  1.0 0.0010771811
C  C230  1  0.05790000  0.57930000  0.81820000  1.0 0.0010771811
C  C231  1  0.76110000  0.23970000  0.18180000  1.0 0.0010771811
C  C232  1  0.52140000  0.94210000  0.76030000  1.0 -0.0030439973
C  C233  1  0.81820000  0.05790000  0.57930000  1.0 -0.0030439973
C  C234  1  0.18180000  0.76110000  0.23970000  1.0 -0.0030439973
C  C235  1  0.76030000  0.52140000  0.94210000  1.0 -0.0030439973
C  C236  1  0.57930000  0.81820000  0.05790000  1.0 -0.0030439973
C  C237  1  0.23970000  0.18180000  0.76110000  1.0 0.0010771811
C  C238  1  0.57930000  0.76110000  0.52140000  1.0 -0.0030439973
C  C239  1  0.76110000  0.52140000  0.57930000  1.0 -0.0030439973
C  C240  1  0.52140000  0.57930000  0.76110000  1.0 0.0010771811
C  C241  1  0.76110000  0.57930000  0.52140000  1.0 -0.0030439973
C  C242  1  0.52140000  0.76110000  0.57930000  1.0 -0.0030439973
C  C243  1  0.57930000  0.52140000  0.76110000  1.0 0.0010771811
C  C244  1  0.76030000  0.94210000  0.52140000  1.0 0.0010771811
C  C245  1  0.23970000  0.76110000  0.18180000  1.0 0.0010771811
C  C246  1  0.57930000  0.05790000  0.81820000  1.0 -0.0030439973
C  C247  1  0.05790000  0.81820000  0.57930000  1.0 0.0010771811
C  C248  1  0.76110000  0.18180000  0.23970000  1.0 0.0010771811
C  C249  1  0.94210000  0.52140000  0.76030000  1.0 0.0010771811
C  C250  1  0.18180000  0.23970000  0.76110000  1.0 0.0010771811
C  C251  1  0.81820000  0.57930000  0.05790000  1.0 -0.0030439973
C  C252  1  0.52140000  0.76030000  0.94210000  1.0 0.0010771811
C  C253  1  0.05790000  0.23970000  0.47860000  1.0 0.0010771811
C  C254  1  0.94210000  0.42070000  0.18180000  1.0 0.0010771811
C  C255  1  0.23890000  0.76030000  0.81820000  1.0 -0.0030439973
C  C256  1  0.47860000  0.05790000  0.23970000  1.0 0.0010771811
C  C257  1  0.18180000  0.94210000  0.42070000  1.0 -0.0030439973
C  C258  1  0.81820000  0.23890000  0.76030000  1.0 0.0010771811
C  C259  1  0.23970000  0.47860000  0.05790000  1.0 0.0010771811
C  C260  1  0.42070000  0.18180000  0.94210000  1.0 0.0010771811
C  C261  1  0.76030000  0.81820000  0.23890000  1.0 -0.0030439973
C  C262  1  0.42070000  0.23890000  0.47860000  1.0 0.0010771811
C  C263  1  0.23890000  0.47860000  0.42070000  1.0 0.0010771811
C  C264  1  0.47860000  0.42070000  0.23890000  1.0 0.0086288668
C  C265  1  0.27970000  0.39680000  0.45510000  1.0 -0.0030439973
C  C266  1  0.45510000  0.27970000  0.39680000  1.0 -0.0030439973
C  C267  1  0.39680000  0.45510000  0.27970000  1.0 -0.0030439973
C  C268  1  0.17540000  0.05830000  0.45510000  1.0 -0.0030439973
C  C269  1  0.82460000  0.27970000  0.88290000  1.0 -0.0030439973
C  C270  1  0.39680000  0.94170000  0.11710000  1.0 -0.0030439973
C  C271  1  0.94170000  0.11710000  0.39680000  1.0 -0.0030439973
C  C272  1  0.27970000  0.88290000  0.82460000  1.0 0.0010771811
C  C273  1  0.05830000  0.45510000  0.17540000  1.0 -0.0030439973
C  C274  1  0.88290000  0.82460000  0.27970000  1.0 -0.0060866264
C  C275  1  0.11710000  0.39680000  0.94170000  1.0 -0.0060866264
C  C276  1  0.45510000  0.17540000  0.05830000  1.0 -0.0030439973
C  C277  1  0.94170000  0.82460000  0.54490000  1.0 -0.0030439973
C  C278  1  0.05830000  0.60320000  0.88290000  1.0 -0.0030439973
C  C279  1  0.72030000  0.17540000  0.11710000  1.0 0.0010771811
C  C280  1  0.54490000  0.94170000  0.82460000  1.0 -0.0060866264
C  C281  1  0.88290000  0.05830000  0.60320000  1.0 0.0010771811
C  C282  1  0.11710000  0.72030000  0.17540000  1.0 -0.0060866264
C  C283  1  0.82460000  0.54490000  0.94170000  1.0 -0.0060866264
C  C284  1  0.60320000  0.88290000  0.05830000  1.0 -0.0030439973
C  C285  1  0.17540000  0.11710000  0.72030000  1.0 -0.0030439973
C  C286  1  0.60320000  0.72030000  0.54490000  1.0 0.0010771811
C  C287  1  0.72030000  0.54490000  0.60320000  1.0 -0.0060866264
C  C288  1  0.54490000  0.60320000  0.72030000  1.0 -0.0030439973
C  C289  1  0.72030000  0.60320000  0.54490000  1.0 0.0010771811
C  C290  1  0.54490000  0.72030000  0.60320000  1.0 -0.0030439973
C  C291  1  0.60320000  0.54490000  0.72030000  1.0 -0.0030439973
C  C292  1  0.82460000  0.94170000  0.54490000  1.0 0.0010771811
C  C293  1  0.17540000  0.72030000  0.11710000  1.0 0.0010771811
C  C294  1  0.60320000  0.05830000  0.88290000  1.0 -0.0060866264
C  C295  1  0.05830000  0.88290000  0.60320000  1.0 -0.0030439973
C  C296  1  0.72030000  0.11710000  0.17540000  1.0 -0.0030439973
C  C297  1  0.94170000  0.54490000  0.82460000  1.0 -0.0030439973
C  C298  1  0.11710000  0.17540000  0.72030000  1.0 -0.0030439973
C  C299  1  0.88290000  0.60320000  0.05830000  1.0 -0.0030439973
C  C300  1  0.54490000  0.82460000  0.94170000  1.0 -0.0030439973
C  C301  1  0.05830000  0.17540000  0.45510000  1.0 -0.0030439973
C  C302  1  0.94170000  0.39680000  0.11710000  1.0 -0.0030439973
C  C303  1  0.27970000  0.82460000  0.88290000  1.0 -0.0060866264
C  C304  1  0.45510000  0.05830000  0.17540000  1.0 -0.0030439973
C  C305  1  0.11710000  0.94170000  0.39680000  1.0 0.0010771811
C  C306  1  0.88290000  0.27970000  0.82460000  1.0 -0.0030439973
C  C307  1  0.17540000  0.45510000  0.05830000  1.0 -0.0030439973
C  C308  1  0.39680000  0.11710000  0.94170000  1.0 -0.0060866264
C  C309  1  0.82460000  0.88290000  0.27970000  1.0 0.0010771811
C  C310  1  0.39680000  0.27970000  0.45510000  1.0 -0.0030439973
C  C311  1  0.27970000  0.45510000  0.39680000  1.0 -0.0030439973
C  C312  1  0.45510000  0.39680000  0.27970000  1.0 -0.0030439973
C  C313  1  0.28200000  0.40200000  0.40200000  1.0 -0.1088817983
C  C314  1  0.40200000  0.28200000  0.40200000  1.0 -0.1088817983
C  C315  1  0.40200000  0.40200000  0.28200000  1.0 -0.1088817983
C  C316  1  0.12000000  0.00000000  0.40200000  1.0 -0.1088817983
C  C317  1  0.88000000  0.28200000  0.88000000  1.0 -0.1088817983
C  C318  1  0.40200000  0.00000000  0.12000000  1.0 -0.1088817983
C  C319  1  0.00000000  0.12000000  0.40200000  1.0 -0.1088817983
C  C320  1  0.28200000  0.88000000  0.88000000  1.0 -0.1088817983
C  C321  1  0.00000000  0.40200000  0.12000000  1.0 -0.1088817983
C  C322  1  0.88000000  0.88000000  0.28200000  1.0 -0.1088817983
C  C323  1  0.12000000  0.40200000  0.00000000  1.0 -0.1088817983
C  C324  1  0.40200000  0.12000000  0.00000000  1.0 -0.1088817983
C  C325  1  0.00000000  0.88000000  0.59800000  1.0 -0.1088817983
C  C326  1  0.00000000  0.59800000  0.88000000  1.0 -0.1088817983
C  C327  1  0.71800000  0.12000000  0.12000000  1.0 -0.1088817983
C  C328  1  0.59800000  0.00000000  0.88000000  1.0 -0.1088817983
C  C329  1  0.88000000  0.00000000  0.59800000  1.0 -0.1088817983
C  C330  1  0.12000000  0.71800000  0.12000000  1.0 -0.1088817983
C  C331  1  0.88000000  0.59800000  0.00000000  1.0 -0.1088817983
C  C332  1  0.59800000  0.88000000  0.00000000  1.0 -0.1088817983
C  C333  1  0.12000000  0.12000000  0.71800000  1.0 -0.1088817983
C  C334  1  0.59800000  0.71800000  0.59800000  1.0 -0.1088817983
C  C335  1  0.71800000  0.59800000  0.59800000  1.0 -0.1088817983
C  C336  1  0.59800000  0.59800000  0.71800000  1.0 -0.1088817983
N  N1  1  0.13830000  0.50350000  0.53740000  1.0 -0.0417658261
N  N2  1  0.53740000  0.13830000  0.50350000  1.0 -0.0417658261
N  N3  1  0.50350000  0.53740000  0.13830000  1.0 -0.0417658261
N  N4  1  0.39910000  0.03390000  0.53740000  1.0 -0.0417658261
N  N5  1  0.60090000  0.13830000  0.63480000  1.0 -0.0417658261
N  N6  1  0.50350000  0.96610000  0.36520000  1.0 -0.0417658261
N  N7  1  0.96610000  0.36520000  0.50350000  1.0 -0.0417658261
N  N8  1  0.13830000  0.63480000  0.60090000  1.0 -0.0417658261
N  N9  1  0.03390000  0.53740000  0.39910000  1.0 -0.0417658261
N  N10  1  0.63480000  0.60090000  0.13830000  1.0 -0.0417658261
N  N11  1  0.36520000  0.50350000  0.96610000  1.0 -0.0417658261
N  N12  1  0.53740000  0.39910000  0.03390000  1.0 -0.0417658261
N  N13  1  0.96610000  0.60090000  0.46260000  1.0 -0.0417658261
N  N14  1  0.03390000  0.49650000  0.63480000  1.0 -0.0417658261
N  N15  1  0.86170000  0.39910000  0.36520000  1.0 -0.0417658261
N  N16  1  0.46260000  0.96610000  0.60090000  1.0 -0.0417658261
N  N17  1  0.63480000  0.03390000  0.49650000  1.0 -0.0417658261
N  N18  1  0.36520000  0.86170000  0.39910000  1.0 -0.0417658261
N  N19  1  0.60090000  0.46260000  0.96610000  1.0 -0.0417658261
N  N20  1  0.49650000  0.63480000  0.03390000  1.0 -0.0417658261
N  N21  1  0.39910000  0.36520000  0.86170000  1.0 -0.0417658261
N  N22  1  0.49650000  0.86170000  0.46260000  1.0 -0.0417658261
N  N23  1  0.86170000  0.46260000  0.49650000  1.0 -0.0417658261
N  N24  1  0.46260000  0.49650000  0.86170000  1.0 -0.0417658261
N  N25  1  0.86170000  0.49650000  0.46260000  1.0 -0.0417658261
N  N26  1  0.46260000  0.86170000  0.49650000  1.0 -0.0417658261
N  N27  1  0.49650000  0.46260000  0.86170000  1.0 -0.0417658261
N  N28  1  0.60090000  0.96610000  0.46260000  1.0 -0.0417658261
N  N29  1  0.39910000  0.86170000  0.36520000  1.0 -0.0417658261
N  N30  1  0.49650000  0.03390000  0.63480000  1.0 -0.0417658261
N  N31  1  0.03390000  0.63480000  0.49650000  1.0 -0.0417658261
N  N32  1  0.86170000  0.36520000  0.39910000  1.0 -0.0417658261
N  N33  1  0.96610000  0.46260000  0.60090000  1.0 -0.0417658261
N  N34  1  0.36520000  0.39910000  0.86170000  1.0 -0.0417658261
N  N35  1  0.63480000  0.49650000  0.03390000  1.0 -0.0417658261
N  N36  1  0.46260000  0.60090000  0.96610000  1.0 -0.0417658261
N  N37  1  0.03390000  0.39910000  0.53740000  1.0 -0.0417658261
N  N38  1  0.96610000  0.50350000  0.36520000  1.0 -0.0417658261
N  N39  1  0.13830000  0.60090000  0.63480000  1.0 -0.0417658261
N  N40  1  0.53740000  0.03390000  0.39910000  1.0 -0.0417658261
N  N41  1  0.36520000  0.96610000  0.50350000  1.0 -0.0417658261
N  N42  1  0.63480000  0.13830000  0.60090000  1.0 -0.0417658261
N  N43  1  0.39910000  0.53740000  0.03390000  1.0 -0.0417658261
N  N44  1  0.50350000  0.36520000  0.96610000  1.0 -0.0417658261
N  N45  1  0.60090000  0.63480000  0.13830000  1.0 -0.0417658261
N  N46  1  0.50350000  0.13830000  0.53740000  1.0 -0.0417658261
N  N47  1  0.13830000  0.53740000  0.50350000  1.0 -0.0417658261
N  N48  1  0.53740000  0.50350000  0.13830000  1.0 -0.0417658261
N  N49  1  0.17570000  0.47850000  0.53660000  1.0 -0.1426387693
N  N50  1  0.53660000  0.17570000  0.47850000  1.0 -0.1426387693
N  N51  1  0.47850000  0.53660000  0.17570000  1.0 -0.1426387693
N  N52  1  0.36090000  0.05810000  0.53660000  1.0 -0.1426387693
N  N53  1  0.63910000  0.17570000  0.69720000  1.0 -0.1426387693
N  N54  1  0.47850000  0.94190000  0.30280000  1.0 -0.1426387693
N  N55  1  0.94190000  0.30280000  0.47850000  1.0 -0.1426387693
N  N56  1  0.17570000  0.69720000  0.63910000  1.0 -0.1426387693
N  N57  1  0.05810000  0.53660000  0.36090000  1.0 -0.1426387693
N  N58  1  0.69720000  0.63910000  0.17570000  1.0 -0.1456077545
N  N59  1  0.30280000  0.47850000  0.94190000  1.0 -0.1426387693
N  N60  1  0.53660000  0.36090000  0.05810000  1.0 -0.1426387693
N  N61  1  0.94190000  0.63910000  0.46340000  1.0 -0.1426387693
N  N62  1  0.05810000  0.52150000  0.69720000  1.0 -0.1426387693
N  N63  1  0.82430000  0.36090000  0.30280000  1.0 -0.1426387693
N  N64  1  0.46340000  0.94190000  0.63910000  1.0 -0.1456077545
N  N65  1  0.69720000  0.05810000  0.52150000  1.0 -0.1426387693
N  N66  1  0.30280000  0.82430000  0.36090000  1.0 -0.1426387693
N  N67  1  0.63910000  0.46340000  0.94190000  1.0 -0.1426387693
N  N68  1  0.52150000  0.69720000  0.05810000  1.0 -0.1426387693
N  N69  1  0.36090000  0.30280000  0.82430000  1.0 -0.1426387693
N  N70  1  0.52150000  0.82430000  0.46340000  1.0 -0.1426387693
N  N71  1  0.82430000  0.46340000  0.52150000  1.0 -0.1426387693
N  N72  1  0.46340000  0.52150000  0.82430000  1.0 -0.1426387693
N  N73  1  0.82430000  0.52150000  0.46340000  1.0 -0.1426387693
N  N74  1  0.46340000  0.82430000  0.52150000  1.0 -0.1426387693
N  N75  1  0.52150000  0.46340000  0.82430000  1.0 -0.1426387693
N  N76  1  0.63910000  0.94190000  0.46340000  1.0 -0.1426387693
N  N77  1  0.36090000  0.82430000  0.30280000  1.0 -0.1456077545
N  N78  1  0.52150000  0.05810000  0.69720000  1.0 -0.1426387693
N  N79  1  0.05810000  0.69720000  0.52150000  1.0 -0.1426387693
N  N80  1  0.82430000  0.30280000  0.36090000  1.0 -0.1426387693
N  N81  1  0.94190000  0.46340000  0.63910000  1.0 -0.1426387693
N  N82  1  0.30280000  0.36090000  0.82430000  1.0 -0.1426387693
N  N83  1  0.69720000  0.52150000  0.05810000  1.0 -0.1426387693
N  N84  1  0.46340000  0.63910000  0.94190000  1.0 -0.1426387693
N  N85  1  0.05810000  0.36090000  0.53660000  1.0 -0.1426387693
N  N86  1  0.94190000  0.47850000  0.30280000  1.0 -0.1426387693
N  N87  1  0.17570000  0.63910000  0.69720000  1.0 -0.1426387693
N  N88  1  0.53660000  0.05810000  0.36090000  1.0 -0.1426387693
N  N89  1  0.30280000  0.94190000  0.47850000  1.0 -0.1426387693
N  N90  1  0.69720000  0.17570000  0.63910000  1.0 -0.1426387693
N  N91  1  0.36090000  0.53660000  0.05810000  1.0 -0.1426387693
N  N92  1  0.47850000  0.30280000  0.94190000  1.0 -0.1426387693
N  N93  1  0.63910000  0.69720000  0.17570000  1.0 -0.1426387693
N  N94  1  0.47850000  0.17570000  0.53660000  1.0 -0.1426387693
N  N95  1  0.17570000  0.53660000  0.47850000  1.0 -0.1426387693
N  N96  1  0.53660000  0.47850000  0.17570000  1.0 -0.1426387693
N  N97  1  0.41340000  0.41340000  0.47480000  1.0 -0.0577572941
N  N98  1  0.47480000  0.41340000  0.41340000  1.0 -0.0577572941
N  N99  1  0.41340000  0.47480000  0.41340000  1.0 -0.0577572941
N  N100  1  0.06140000  0.06140000  0.47480000  1.0 -0.0577572941
N  N101  1  0.93860000  0.41340000  0.00000000  1.0 -0.0536471175
N  N102  1  0.41340000  0.93860000  0.00000000  1.0 -0.0577572941
N  N103  1  0.93860000  0.00000000  0.41340000  1.0 -0.0536471175
N  N104  1  0.41340000  0.00000000  0.93860000  1.0 -0.0577572941
N  N105  1  0.06140000  0.47480000  0.06140000  1.0 -0.0577572941
N  N106  1  0.00000000  0.93860000  0.41340000  1.0 -0.0577572941
N  N107  1  0.00000000  0.41340000  0.93860000  1.0 -0.0577572941
N  N108  1  0.47480000  0.06140000  0.06140000  1.0 -0.0577572941
N  N109  1  0.93860000  0.93860000  0.52520000  1.0 -0.0577572941
N  N110  1  0.06140000  0.58660000  0.00000000  1.0 -0.0577572941
N  N111  1  0.58660000  0.06140000  0.00000000  1.0 -0.0577572941
N  N112  1  0.52520000  0.93860000  0.93860000  1.0 -0.0577572941
N  N113  1  0.00000000  0.06140000  0.58660000  1.0 -0.0577572941
N  N114  1  0.00000000  0.58660000  0.06140000  1.0 -0.0577572941
N  N115  1  0.93860000  0.52520000  0.93860000  1.0 -0.0577572941
N  N116  1  0.58660000  0.00000000  0.06140000  1.0 -0.0577572941
N  N117  1  0.06140000  0.00000000  0.58660000  1.0 -0.0577572941
N  N118  1  0.58660000  0.58660000  0.52520000  1.0 -0.0577572941
N  N119  1  0.58660000  0.52520000  0.58660000  1.0 -0.0577572941
N  N120  1  0.52520000  0.58660000  0.58660000  1.0 -0.0577572941
N  N121  1  0.36060000  0.36060000  0.41920000  1.0 0.087186892
N  N122  1  0.41920000  0.36060000  0.36060000  1.0 0.087186892
N  N123  1  0.36060000  0.41920000  0.36060000  1.0 0.087186892
N  N124  1  0.05860000  0.05860000  0.41920000  1.0 0.0958583952
N  N125  1  0.94140000  0.36060000  0.00000000  1.0 0.087186892
N  N126  1  0.36060000  0.94140000  0.00000000  1.0 0.087186892
N  N127  1  0.94140000  0.00000000  0.36060000  1.0 0.0832345214
N  N128  1  0.36060000  0.00000000  0.94140000  1.0 0.0832345214
N  N129  1  0.05860000  0.41920000  0.05860000  1.0 0.0832345214
N  N130  1  0.00000000  0.94140000  0.36060000  1.0 0.0832345214
N  N131  1  0.00000000  0.36060000  0.94140000  1.0 0.087186892
N  N132  1  0.41920000  0.05860000  0.05860000  1.0 0.0832345214
N  N133  1  0.94140000  0.94140000  0.58080000  1.0 0.087186892
N  N134  1  0.05860000  0.63940000  0.00000000  1.0 0.087186892
N  N135  1  0.63940000  0.05860000  0.00000000  1.0 0.087186892
N  N136  1  0.58080000  0.94140000  0.94140000  1.0 0.087186892
N  N137  1  0.00000000  0.05860000  0.63940000  1.0 0.0958583952
N  N138  1  0.00000000  0.63940000  0.05860000  1.0 0.087186892
N  N139  1  0.94140000  0.58080000  0.94140000  1.0 0.087186892
N  N140  1  0.63940000  0.00000000  0.05860000  1.0 0.087186892
N  N141  1  0.05860000  0.00000000  0.63940000  1.0 0.087186892
N  N142  1  0.63940000  0.63940000  0.58080000  1.0 0.0832345214
N  N143  1  0.63940000  0.58080000  0.63940000  1.0 0.0958583952
N  N144  1  0.58080000  0.63940000  0.63940000  1.0 0.087186892
Cl  Cl1  1  0.00000000  0.50000000  0.50000000  1.0 -0.5740110327
Cl  Cl2  1  0.50000000  0.00000000  0.50000000  1.0 -0.5740110327
Cl  Cl3  1  0.50000000  0.50000000  0.00000000  1.0 -0.5740110327
O  O1  1  0.16840000  0.50000000  0.66840000  1.0 -0.0417658261
O  O2  1  0.66840000  0.16840000  0.50000000  1.0 -0.0417658261
O  O3  1  0.50000000  0.66840000  0.16840000  1.0 -0.0417658261
O  O4  1  0.50000000  0.16840000  0.66840000  1.0 -0.0417658261
O  O5  1  0.50000000  0.83160000  0.33160000  1.0 -0.0417658261
O  O6  1  0.83160000  0.33160000  0.50000000  1.0 -0.0417658261
O  O7  1  0.16840000  0.66840000  0.50000000  1.0 -0.0417658261
O  O8  1  0.66840000  0.50000000  0.16840000  1.0 -0.0417658261
O  O9  1  0.33160000  0.50000000  0.83160000  1.0 -0.0417658261
O  O10  1  0.83160000  0.50000000  0.33160000  1.0 -0.0417658261
O  O11  1  0.33160000  0.83160000  0.50000000  1.0 -0.0417658261
O  O12  1  0.50000000  0.33160000  0.83160000  1.0 -0.0417658261
