# DDEC6 charges by PACMAN v1.1 (https://github.com/mtap-research/PACMAN-charge/)
data_BIXVOW_FSR_pacman
_chemical_formula_sum              "C896 N448 H576 Cu96"
_cell_length_a       37.0799
_cell_length_b       37.0799
_cell_length_c       37.0799
_cell_angle_alpha    90
_cell_angle_beta     90
_cell_angle_gamma    90

_symmetry_space_group_name_H-M    "P 1"
_symmetry_Int_Tables_number       1

loop_
  _symmetry_equiv_pos_as_xyz
  'x, y, z'

loop_
  _atom_site_type_symbol
  _atom_site_label
  _atom_site_symmetry_multiplicity
  _atom_site_fract_x
  _atom_site_fract_y
  _atom_site_fract_z
  _atom_site_occupancy
 _atom_site_charge
C   C1        1.0  0.33700  0.61540  0.33700  1.0000 0.0569032035
C   C2        1.0  0.32180  0.63080  0.36920  1.0000 -0.2326975653
C   C3        1.0  0.32210  0.58360  0.32210  1.0000 0.0984719483
N   N1        1.0  0.28550  0.53870  0.31790  1.0000 -0.1088234145
N   N2        1.0  0.30910  0.53670  0.29140  1.0000 -0.0214514575
C   C4        1.0  0.33140  0.56420  0.29220  1.0000 -0.1182384227
C   C5        1.0  0.29300  0.56780  0.34020  1.0000 -0.1293130651
H   H1        1.0  0.30050  0.61920  0.38420  1.0000 0.0904473795
N   N3        1.0  0.43580  0.70780  0.33140  1.0000 -0.0214514575
H   H2        1.0  0.28100  0.58000  0.36100  1.0000 0.1105011328
H   H3        1.0  0.35500  0.56900  0.27600  1.0000 0.262673629
C   C6        1.0  0.33700  0.11540  0.83700  1.0000 0.0569032035
C   C7        1.0  0.32180  0.13080  0.86920  1.0000 -0.2326975653
C   C8        1.0  0.32210  0.08360  0.82210  1.0000 0.0984719483
N   N4        1.0  0.28550  0.03870  0.81790  1.0000 -0.1088234145
N   N5        1.0  0.30910  0.03670  0.79140  1.0000 -0.0214514575
C   C9        1.0  0.33140  0.06420  0.79220  1.0000 -0.1182384227
C   C10       1.0  0.29300  0.06780  0.84020  1.0000 -0.1293130651
H   H4        1.0  0.30050  0.11920  0.88420  1.0000 0.0904473795
N   N6        1.0  0.43580  0.20780  0.83140  1.0000 -0.0214514575
H   H5        1.0  0.28100  0.08000  0.86100  1.0000 0.1105011328
H   H6        1.0  0.35500  0.06900  0.77600  1.0000 0.262673629
C   C11       1.0  0.83700  0.61540  0.83700  1.0000 0.0569032035
C   C12       1.0  0.82180  0.63080  0.86920  1.0000 -0.2326975653
C   C13       1.0  0.82210  0.58360  0.82210  1.0000 0.0984719483
N   N7        1.0  0.78550  0.53870  0.81790  1.0000 -0.1088234145
N   N8        1.0  0.80910  0.53670  0.79140  1.0000 -0.0214514575
C   C14       1.0  0.83140  0.56420  0.79220  1.0000 -0.1182384227
C   C15       1.0  0.79300  0.56780  0.84020  1.0000 -0.1293130651
H   H7        1.0  0.80050  0.61920  0.88420  1.0000 0.0904473795
N   N9        1.0  0.93580  0.70780  0.83140  1.0000 -0.0214514575
H   H8        1.0  0.78100  0.58000  0.86100  1.0000 0.1105011328
H   H9        1.0  0.85500  0.56900  0.77600  1.0000 0.262673629
C   C16       1.0  0.83700  0.11540  0.33700  1.0000 0.0569032035
C   C17       1.0  0.82180  0.13080  0.36920  1.0000 -0.2356047974
C   C18       1.0  0.82210  0.08360  0.32210  1.0000 0.0984719483
N   N10       1.0  0.78550  0.03870  0.31790  1.0000 -0.1088234145
N   N11       1.0  0.80910  0.03670  0.29140  1.0000 -0.0214514575
C   C19       1.0  0.83140  0.06420  0.29220  1.0000 -0.1182384227
C   C20       1.0  0.79300  0.06780  0.34020  1.0000 -0.1293130651
H   H10       1.0  0.80050  0.11920  0.38420  1.0000 0.0904473795
N   N12       1.0  0.93580  0.20780  0.33140  1.0000 -0.0214514575
H   H11       1.0  0.78100  0.08000  0.36100  1.0000 0.1105011328
H   H12       1.0  0.85500  0.06900  0.27600  1.0000 0.262673629
C   C21       1.0  0.66300  0.38460  0.33700  1.0000 0.0569032035
C   C22       1.0  0.67820  0.36920  0.36920  1.0000 -0.2356047974
C   C23       1.0  0.67790  0.41640  0.32210  1.0000 0.0984719483
N   N13       1.0  0.71450  0.46130  0.31790  1.0000 -0.1088234145
N   N14       1.0  0.69090  0.46330  0.29140  1.0000 -0.0214514575
C   C24       1.0  0.66860  0.43580  0.29220  1.0000 -0.1182384227
C   C25       1.0  0.70700  0.43220  0.34020  1.0000 -0.1293130651
H   H13       1.0  0.69950  0.38080  0.38420  1.0000 0.0904473795
N   N15       1.0  0.56420  0.29220  0.33140  1.0000 -0.0214514575
H   H14       1.0  0.71900  0.42000  0.36100  1.0000 0.1105011328
H   H15       1.0  0.64500  0.43100  0.27600  1.0000 0.262673629
C   C26       1.0  0.66300  0.88460  0.83700  1.0000 0.0569032035
C   C27       1.0  0.67820  0.86920  0.86920  1.0000 -0.2326975653
C   C28       1.0  0.67790  0.91640  0.82210  1.0000 0.0984719483
N   N16       1.0  0.71450  0.96130  0.81790  1.0000 -0.1088234145
N   N17       1.0  0.69090  0.96330  0.79140  1.0000 -0.0214514575
C   C29       1.0  0.66860  0.93580  0.79220  1.0000 -0.1182384227
C   C30       1.0  0.70700  0.93220  0.84020  1.0000 -0.1293130651
H   H16       1.0  0.69950  0.88080  0.88420  1.0000 0.0904473795
N   N18       1.0  0.56420  0.79220  0.83140  1.0000 -0.0214514575
H   H17       1.0  0.71900  0.92000  0.86100  1.0000 0.1105011328
H   H18       1.0  0.64500  0.93100  0.77600  1.0000 0.262673629
C   C31       1.0  0.16300  0.38460  0.83700  1.0000 0.0569032035
C   C32       1.0  0.17820  0.36920  0.86920  1.0000 -0.2326975653
C   C33       1.0  0.17790  0.41640  0.82210  1.0000 0.0984719483
N   N19       1.0  0.21450  0.46130  0.81790  1.0000 -0.1088234145
N   N20       1.0  0.19090  0.46330  0.79140  1.0000 -0.0214514575
C   C34       1.0  0.16860  0.43580  0.79220  1.0000 -0.1182384227
C   C35       1.0  0.20700  0.43220  0.84020  1.0000 -0.1293130651
H   H19       1.0  0.19950  0.38080  0.88420  1.0000 0.0904473795
N   N21       1.0  0.06420  0.29220  0.83140  1.0000 -0.0214514575
H   H20       1.0  0.21900  0.42000  0.86100  1.0000 0.1105011328
H   H21       1.0  0.14500  0.43100  0.77600  1.0000 0.262673629
C   C36       1.0  0.16300  0.88460  0.33700  1.0000 0.0569032035
C   C37       1.0  0.17820  0.86920  0.36920  1.0000 -0.2326975653
C   C38       1.0  0.17790  0.91640  0.32210  1.0000 0.0984719483
N   N22       1.0  0.21450  0.96130  0.31790  1.0000 -0.1088234145
N   N23       1.0  0.19090  0.96330  0.29140  1.0000 -0.0214514575
C   C39       1.0  0.16860  0.93580  0.29220  1.0000 -0.1182384227
C   C40       1.0  0.20700  0.93220  0.34020  1.0000 -0.1293130651
H   H22       1.0  0.19950  0.88080  0.38420  1.0000 0.0904473795
N   N24       1.0  0.06420  0.79220  0.33140  1.0000 -0.0214514575
H   H23       1.0  0.21900  0.92000  0.36100  1.0000 0.1105011328
H   H24       1.0  0.14500  0.93100  0.27600  1.0000 0.262673629
C   C41       1.0  0.66300  0.61540  0.66300  1.0000 0.0569032035
C   C42       1.0  0.67820  0.63080  0.63080  1.0000 -0.2326975653
C   C43       1.0  0.67790  0.58360  0.67790  1.0000 0.0984719483
N   N25       1.0  0.71450  0.53870  0.68210  1.0000 -0.1088234145
N   N26       1.0  0.69090  0.53670  0.70860  1.0000 -0.0214514575
C   C44       1.0  0.66860  0.56420  0.70780  1.0000 -0.1182384227
C   C45       1.0  0.70700  0.56780  0.65980  1.0000 -0.1293130651
H   H25       1.0  0.69950  0.61920  0.61580  1.0000 0.0904473795
N   N27       1.0  0.56420  0.70780  0.66860  1.0000 -0.0214514575
H   H26       1.0  0.71900  0.58000  0.63900  1.0000 0.1105011328
H   H27       1.0  0.64500  0.56900  0.72400  1.0000 0.262673629
C   C46       1.0  0.66300  0.11540  0.16300  1.0000 0.0569032035
C   C47       1.0  0.67820  0.13080  0.13080  1.0000 -0.2356047974
C   C48       1.0  0.67790  0.08360  0.17790  1.0000 0.0984719483
N   N28       1.0  0.71450  0.03870  0.18210  1.0000 -0.1088234145
N   N29       1.0  0.69090  0.03670  0.20860  1.0000 -0.0214514575
C   C49       1.0  0.66860  0.06420  0.20780  1.0000 -0.1182384227
C   C50       1.0  0.70700  0.06780  0.15980  1.0000 -0.1293130651
H   H28       1.0  0.69950  0.11920  0.11580  1.0000 0.0904473795
N   N30       1.0  0.56420  0.20780  0.16860  1.0000 -0.0214514575
H   H29       1.0  0.71900  0.08000  0.13900  1.0000 0.1105011328
H   H30       1.0  0.64500  0.06900  0.22400  1.0000 0.262673629
C   C51       1.0  0.16300  0.61540  0.16300  1.0000 0.0569032035
C   C52       1.0  0.17820  0.63080  0.13080  1.0000 -0.2326975653
C   C53       1.0  0.17790  0.58360  0.17790  1.0000 0.0984719483
N   N31       1.0  0.21450  0.53870  0.18210  1.0000 -0.1088234145
N   N32       1.0  0.19090  0.53670  0.20860  1.0000 -0.0214514575
C   C54       1.0  0.16860  0.56420  0.20780  1.0000 -0.1182384227
C   C55       1.0  0.20700  0.56780  0.15980  1.0000 -0.1293130651
H   H31       1.0  0.19950  0.61920  0.11580  1.0000 0.0904473795
N   N33       1.0  0.06420  0.70780  0.16860  1.0000 -0.0214514575
H   H32       1.0  0.21900  0.58000  0.13900  1.0000 0.1105011328
H   H33       1.0  0.14500  0.56900  0.22400  1.0000 0.262673629
C   C56       1.0  0.16300  0.11540  0.66300  1.0000 0.0569032035
C   C57       1.0  0.17820  0.13080  0.63080  1.0000 -0.2326975653
C   C58       1.0  0.17790  0.08360  0.67790  1.0000 0.0984719483
N   N34       1.0  0.21450  0.03870  0.68210  1.0000 -0.1088234145
N   N35       1.0  0.19090  0.03670  0.70860  1.0000 -0.0214514575
C   C59       1.0  0.16860  0.06420  0.70780  1.0000 -0.1182384227
C   C60       1.0  0.20700  0.06780  0.65980  1.0000 -0.1293130651
H   H34       1.0  0.19950  0.11920  0.61580  1.0000 0.0904473795
N   N36       1.0  0.06420  0.20780  0.66860  1.0000 -0.0214514575
H   H35       1.0  0.21900  0.08000  0.63900  1.0000 0.1105011328
H   H36       1.0  0.14500  0.06900  0.72400  1.0000 0.262673629
C   C61       1.0  0.33700  0.38460  0.66300  1.0000 0.0569032035
C   C62       1.0  0.32180  0.36920  0.63080  1.0000 -0.2326975653
C   C63       1.0  0.32210  0.41640  0.67790  1.0000 0.0984719483
N   N37       1.0  0.28550  0.46130  0.68210  1.0000 -0.1088234145
N   N38       1.0  0.30910  0.46330  0.70860  1.0000 -0.0214514575
C   C64       1.0  0.33140  0.43580  0.70780  1.0000 -0.1182384227
C   C65       1.0  0.29300  0.43220  0.65980  1.0000 -0.1293130651
H   H37       1.0  0.30050  0.38080  0.61580  1.0000 0.0904473795
N   N39       1.0  0.43580  0.29220  0.66860  1.0000 -0.0214514575
H   H38       1.0  0.28100  0.42000  0.63900  1.0000 0.1105011328
H   H39       1.0  0.35500  0.43100  0.72400  1.0000 0.262673629
C   C66       1.0  0.33700  0.88460  0.16300  1.0000 0.0569032035
C   C67       1.0  0.32180  0.86920  0.13080  1.0000 -0.2326975653
C   C68       1.0  0.32210  0.91640  0.17790  1.0000 0.0984719483
N   N40       1.0  0.28550  0.96130  0.18210  1.0000 -0.1088234145
N   N41       1.0  0.30910  0.96330  0.20860  1.0000 -0.0214514575
C   C69       1.0  0.33140  0.93580  0.20780  1.0000 -0.1182384227
C   C70       1.0  0.29300  0.93220  0.15980  1.0000 -0.1293130651
H   H40       1.0  0.30050  0.88080  0.11580  1.0000 0.0904473795
N   N42       1.0  0.43580  0.79220  0.16860  1.0000 -0.0214514575
H   H41       1.0  0.28100  0.92000  0.13900  1.0000 0.1105011328
H   H42       1.0  0.35500  0.93100  0.22400  1.0000 0.262673629
C   C71       1.0  0.83700  0.38460  0.16300  1.0000 0.0569032035
C   C72       1.0  0.82180  0.36920  0.13080  1.0000 -0.2356047974
C   C73       1.0  0.82210  0.41640  0.17790  1.0000 0.0984719483
N   N43       1.0  0.78550  0.46130  0.18210  1.0000 -0.1088234145
N   N44       1.0  0.80910  0.46330  0.20860  1.0000 -0.0214514575
C   C74       1.0  0.83140  0.43580  0.20780  1.0000 -0.1182384227
C   C75       1.0  0.79300  0.43220  0.15980  1.0000 -0.1293130651
H   H43       1.0  0.80050  0.38080  0.11580  1.0000 0.0904473795
N   N45       1.0  0.93580  0.29220  0.16860  1.0000 -0.0214514575
H   H44       1.0  0.78100  0.42000  0.13900  1.0000 0.1105011328
H   H45       1.0  0.85500  0.43100  0.22400  1.0000 0.262673629
C   C76       1.0  0.83700  0.88460  0.66300  1.0000 0.0569032035
C   C77       1.0  0.82180  0.86920  0.63080  1.0000 -0.2326975653
C   C78       1.0  0.82210  0.91640  0.67790  1.0000 0.0984719483
N   N46       1.0  0.78550  0.96130  0.68210  1.0000 -0.1088234145
N   N47       1.0  0.80910  0.96330  0.70860  1.0000 -0.0214514575
C   C79       1.0  0.83140  0.93580  0.70780  1.0000 -0.1182384227
C   C80       1.0  0.79300  0.93220  0.65980  1.0000 -0.1293130651
H   H46       1.0  0.80050  0.88080  0.61580  1.0000 0.0904473795
N   N48       1.0  0.93580  0.79220  0.66860  1.0000 -0.0214514575
H   H47       1.0  0.78100  0.92000  0.63900  1.0000 0.1105011328
H   H48       1.0  0.85500  0.93100  0.72400  1.0000 0.262673629
C   C81       1.0  0.33700  0.33700  0.61540  1.0000 0.0539273433
C   C82       1.0  0.36920  0.32180  0.63080  1.0000 -0.2214459782
C   C83       1.0  0.32210  0.32210  0.58360  1.0000 0.0984719483
N   N49       1.0  0.31790  0.28550  0.53870  1.0000 -0.1377881614
N   N50       1.0  0.29140  0.30910  0.53670  1.0000 -0.0214514575
C   C84       1.0  0.29220  0.33140  0.56420  1.0000 -0.1182384227
C   C85       1.0  0.34020  0.29300  0.56780  1.0000 -0.1377881614
H   H49       1.0  0.38420  0.30050  0.61920  1.0000 0.0904473795
H   H50       1.0  0.36100  0.28100  0.58000  1.0000 0.1105011328
H   H51       1.0  0.27600  0.35500  0.56900  1.0000 0.262673629
C   C86       1.0  0.33700  0.83700  0.11540  1.0000 0.0539273433
C   C87       1.0  0.36920  0.82180  0.13080  1.0000 -0.2214459782
C   C88       1.0  0.32210  0.82210  0.08360  1.0000 0.0984719483
N   N51       1.0  0.31790  0.78550  0.03870  1.0000 -0.1377881614
N   N52       1.0  0.29140  0.80910  0.03670  1.0000 -0.0214514575
C   C89       1.0  0.29220  0.83140  0.06420  1.0000 -0.1182384227
C   C90       1.0  0.34020  0.79300  0.06780  1.0000 -0.1377881614
H   H52       1.0  0.38420  0.80050  0.11920  1.0000 0.0904473795
H   H53       1.0  0.36100  0.78100  0.08000  1.0000 0.1105011328
H   H54       1.0  0.27600  0.85500  0.06900  1.0000 0.262673629
C   C91       1.0  0.83700  0.33700  0.11540  1.0000 0.0539273433
C   C92       1.0  0.86920  0.32180  0.13080  1.0000 -0.2214459782
C   C93       1.0  0.82210  0.32210  0.08360  1.0000 0.0984719483
N   N53       1.0  0.81790  0.28550  0.03870  1.0000 -0.1293130651
N   N54       1.0  0.79140  0.30910  0.03670  1.0000 -0.0214514575
C   C94       1.0  0.79220  0.33140  0.06420  1.0000 -0.1182384227
C   C95       1.0  0.84020  0.29300  0.06780  1.0000 -0.1377881614
H   H55       1.0  0.88420  0.30050  0.11920  1.0000 0.0904473795
H   H56       1.0  0.86100  0.28100  0.08000  1.0000 0.1105011328
H   H57       1.0  0.77600  0.35500  0.06900  1.0000 0.262673629
C   C96       1.0  0.83700  0.83700  0.61540  1.0000 0.0539273433
C   C97       1.0  0.86920  0.82180  0.63080  1.0000 -0.2214459782
C   C98       1.0  0.82210  0.82210  0.58360  1.0000 0.0984719483
N   N55       1.0  0.81790  0.78550  0.53870  1.0000 -0.1293130651
N   N56       1.0  0.79140  0.80910  0.53670  1.0000 -0.0214514575
C   C99       1.0  0.79220  0.83140  0.56420  1.0000 -0.1182384227
C   C100      1.0  0.84020  0.79300  0.56780  1.0000 -0.1377881614
H   H58       1.0  0.88420  0.80050  0.61920  1.0000 0.0904473795
H   H59       1.0  0.86100  0.78100  0.58000  1.0000 0.1105011328
H   H60       1.0  0.77600  0.85500  0.56900  1.0000 0.262673629
C   C101      1.0  0.33700  0.66300  0.38460  1.0000 0.0539273433
C   C102      1.0  0.36920  0.67820  0.36920  1.0000 -0.2214459782
C   C103      1.0  0.32210  0.67790  0.41640  1.0000 0.0984719483
N   N57       1.0  0.31790  0.71450  0.46130  1.0000 -0.1377881614
N   N58       1.0  0.29140  0.69090  0.46330  1.0000 -0.0214514575
C   C104      1.0  0.29220  0.66860  0.43580  1.0000 -0.1182384227
C   C105      1.0  0.34020  0.70700  0.43220  1.0000 -0.1377881614
H   H61       1.0  0.38420  0.69950  0.38080  1.0000 0.0904473795
H   H62       1.0  0.36100  0.71900  0.42000  1.0000 0.1105011328
H   H63       1.0  0.27600  0.64500  0.43100  1.0000 0.262673629
C   C106      1.0  0.33700  0.16300  0.88460  1.0000 0.0539273433
C   C107      1.0  0.36920  0.17820  0.86920  1.0000 -0.2214459782
C   C108      1.0  0.32210  0.17790  0.91640  1.0000 0.0984719483
N   N59       1.0  0.31790  0.21450  0.96130  1.0000 -0.1293130651
N   N60       1.0  0.29140  0.19090  0.96330  1.0000 -0.0214514575
C   C109      1.0  0.29220  0.16860  0.93580  1.0000 -0.1182384227
C   C110      1.0  0.34020  0.20700  0.93220  1.0000 -0.1377881614
H   H64       1.0  0.38420  0.19950  0.88080  1.0000 0.0904473795
H   H65       1.0  0.36100  0.21900  0.92000  1.0000 0.1105011328
H   H66       1.0  0.27600  0.14500  0.93100  1.0000 0.262673629
C   C111      1.0  0.83700  0.66300  0.88460  1.0000 0.0539273433
C   C112      1.0  0.86920  0.67820  0.86920  1.0000 -0.2214459782
C   C113      1.0  0.82210  0.67790  0.91640  1.0000 0.0984719483
N   N61       1.0  0.81790  0.71450  0.96130  1.0000 -0.1293130651
N   N62       1.0  0.79140  0.69090  0.96330  1.0000 -0.0214514575
C   C114      1.0  0.79220  0.66860  0.93580  1.0000 -0.1182384227
C   C115      1.0  0.84020  0.70700  0.93220  1.0000 -0.1377881614
H   H67       1.0  0.88420  0.69950  0.88080  1.0000 0.0904473795
H   H68       1.0  0.86100  0.71900  0.92000  1.0000 0.1105011328
H   H69       1.0  0.77600  0.64500  0.93100  1.0000 0.262673629
C   C116      1.0  0.83700  0.16300  0.38460  1.0000 0.0539273433
C   C117      1.0  0.86920  0.17820  0.36920  1.0000 -0.2214459782
C   C118      1.0  0.82210  0.17790  0.41640  1.0000 0.0984719483
N   N63       1.0  0.81790  0.21450  0.46130  1.0000 -0.1293130651
N   N64       1.0  0.79140  0.19090  0.46330  1.0000 -0.0214514575
C   C119      1.0  0.79220  0.16860  0.43580  1.0000 -0.1182384227
C   C120      1.0  0.84020  0.20700  0.43220  1.0000 -0.1377881614
H   H70       1.0  0.88420  0.19950  0.38080  1.0000 0.0904473795
H   H71       1.0  0.86100  0.21900  0.42000  1.0000 0.1105011328
H   H72       1.0  0.77600  0.14500  0.43100  1.0000 0.262673629
C   C121      1.0  0.66300  0.66300  0.61540  1.0000 0.0539273433
C   C122      1.0  0.63080  0.67820  0.63080  1.0000 -0.2214459782
C   C123      1.0  0.67790  0.67790  0.58360  1.0000 0.0984719483
N   N65       1.0  0.68210  0.71450  0.53870  1.0000 -0.1377881614
N   N66       1.0  0.70860  0.69090  0.53670  1.0000 -0.0214514575
C   C124      1.0  0.70780  0.66860  0.56420  1.0000 -0.1182384227
C   C125      1.0  0.65980  0.70700  0.56780  1.0000 -0.1377881614
H   H73       1.0  0.61580  0.69950  0.61920  1.0000 0.0904473795
H   H74       1.0  0.63900  0.71900  0.58000  1.0000 0.1105011328
H   H75       1.0  0.72400  0.64500  0.56900  1.0000 0.262673629
C   C126      1.0  0.66300  0.16300  0.11540  1.0000 0.0539273433
C   C127      1.0  0.63080  0.17820  0.13080  1.0000 -0.2214459782
C   C128      1.0  0.67790  0.17790  0.08360  1.0000 0.0984719483
N   N67       1.0  0.68210  0.21450  0.03870  1.0000 -0.1377881614
N   N68       1.0  0.70860  0.19090  0.03670  1.0000 -0.0214514575
C   C129      1.0  0.70780  0.16860  0.06420  1.0000 -0.1182384227
C   C130      1.0  0.65980  0.20700  0.06780  1.0000 -0.1377881614
H   H76       1.0  0.61580  0.19950  0.11920  1.0000 0.0904473795
H   H77       1.0  0.63900  0.21900  0.08000  1.0000 0.1105011328
H   H78       1.0  0.72400  0.14500  0.06900  1.0000 0.262673629
C   C131      1.0  0.16300  0.66300  0.11540  1.0000 0.0539273433
C   C132      1.0  0.13080  0.67820  0.13080  1.0000 -0.2214459782
C   C133      1.0  0.17790  0.67790  0.08360  1.0000 0.0984719483
N   N69       1.0  0.18210  0.71450  0.03870  1.0000 -0.1377881614
N   N70       1.0  0.20860  0.69090  0.03670  1.0000 -0.0214514575
C   C134      1.0  0.20780  0.66860  0.06420  1.0000 -0.1182384227
C   C135      1.0  0.15980  0.70700  0.06780  1.0000 -0.1377881614
H   H79       1.0  0.11580  0.69950  0.11920  1.0000 0.0904473795
H   H80       1.0  0.13900  0.71900  0.08000  1.0000 0.1105011328
H   H81       1.0  0.22400  0.64500  0.06900  1.0000 0.262673629
C   C136      1.0  0.16300  0.16300  0.61540  1.0000 0.0539273433
C   C137      1.0  0.13080  0.17820  0.63080  1.0000 -0.2214459782
C   C138      1.0  0.17790  0.17790  0.58360  1.0000 0.0984719483
N   N71       1.0  0.18210  0.21450  0.53870  1.0000 -0.1377881614
N   N72       1.0  0.20860  0.19090  0.53670  1.0000 -0.0214514575
C   C139      1.0  0.20780  0.16860  0.56420  1.0000 -0.1182384227
C   C140      1.0  0.15980  0.20700  0.56780  1.0000 -0.1377881614
H   H82       1.0  0.11580  0.19950  0.61920  1.0000 0.0904473795
H   H83       1.0  0.13900  0.21900  0.58000  1.0000 0.1105011328
H   H84       1.0  0.22400  0.14500  0.56900  1.0000 0.262673629
C   C141      1.0  0.66300  0.33700  0.38460  1.0000 0.0539273433
C   C142      1.0  0.63080  0.32180  0.36920  1.0000 -0.2214459782
C   C143      1.0  0.67790  0.32210  0.41640  1.0000 0.0984719483
N   N73       1.0  0.68210  0.28550  0.46130  1.0000 -0.1377881614
N   N74       1.0  0.70860  0.30910  0.46330  1.0000 -0.0214514575
C   C144      1.0  0.70780  0.33140  0.43580  1.0000 -0.1182384227
C   C145      1.0  0.65980  0.29300  0.43220  1.0000 -0.1377881614
H   H85       1.0  0.61580  0.30050  0.38080  1.0000 0.0904473795
H   H86       1.0  0.63900  0.28100  0.42000  1.0000 0.1105011328
H   H87       1.0  0.72400  0.35500  0.43100  1.0000 0.262673629
C   C146      1.0  0.66300  0.83700  0.88460  1.0000 0.0539273433
C   C147      1.0  0.63080  0.82180  0.86920  1.0000 -0.2214459782
C   C148      1.0  0.67790  0.82210  0.91640  1.0000 0.0984719483
N   N75       1.0  0.68210  0.78550  0.96130  1.0000 -0.1377881614
N   N76       1.0  0.70860  0.80910  0.96330  1.0000 -0.0214514575
C   C149      1.0  0.70780  0.83140  0.93580  1.0000 -0.1182384227
C   C150      1.0  0.65980  0.79300  0.93220  1.0000 -0.1377881614
H   H88       1.0  0.61580  0.80050  0.88080  1.0000 0.0904473795
H   H89       1.0  0.63900  0.78100  0.92000  1.0000 0.1105011328
H   H90       1.0  0.72400  0.85500  0.93100  1.0000 0.262673629
C   C151      1.0  0.16300  0.33700  0.88460  1.0000 0.0539273433
C   C152      1.0  0.13080  0.32180  0.86920  1.0000 -0.2214459782
C   C153      1.0  0.17790  0.32210  0.91640  1.0000 0.0984719483
N   N77       1.0  0.18210  0.28550  0.96130  1.0000 -0.1377881614
N   N78       1.0  0.20860  0.30910  0.96330  1.0000 -0.0214514575
C   C154      1.0  0.20780  0.33140  0.93580  1.0000 -0.1182384227
C   C155      1.0  0.15980  0.29300  0.93220  1.0000 -0.1377881614
H   H91       1.0  0.11580  0.30050  0.88080  1.0000 0.0904473795
H   H92       1.0  0.13900  0.28100  0.92000  1.0000 0.1105011328
H   H93       1.0  0.22400  0.35500  0.93100  1.0000 0.262673629
C   C156      1.0  0.16300  0.83700  0.38460  1.0000 0.0539273433
C   C157      1.0  0.13080  0.82180  0.36920  1.0000 -0.2214459782
C   C158      1.0  0.17790  0.82210  0.41640  1.0000 0.0984719483
N   N79       1.0  0.18210  0.78550  0.46130  1.0000 -0.1377881614
N   N80       1.0  0.20860  0.80910  0.46330  1.0000 -0.0214514575
C   C159      1.0  0.20780  0.83140  0.43580  1.0000 -0.1182384227
C   C160      1.0  0.15980  0.79300  0.43220  1.0000 -0.1377881614
H   H94       1.0  0.11580  0.80050  0.38080  1.0000 0.0904473795
H   H95       1.0  0.13900  0.78100  0.42000  1.0000 0.1105011328
H   H96       1.0  0.22400  0.85500  0.43100  1.0000 0.262673629
C   C161      1.0  0.61540  0.33700  0.33700  1.0000 0.1105011328
C   C162      1.0  0.63080  0.36920  0.32180  1.0000 -0.2326975653
C   C163      1.0  0.58360  0.32210  0.32210  1.0000 -0.0418744781
N   N81       1.0  0.53870  0.31790  0.28550  1.0000 -0.1182384227
N   N82       1.0  0.53670  0.29140  0.30910  1.0000 -0.1088234145
C   C164      1.0  0.56780  0.34020  0.29300  1.0000 -0.0910881134
H   H97       1.0  0.61920  0.38420  0.30050  1.0000 0.0904473795
H   H98       1.0  0.58000  0.36100  0.28100  1.0000 0.0904473795
H   H99       1.0  0.56900  0.27600  0.35500  1.0000 0.0904473795
C   C165      1.0  0.61540  0.83700  0.83700  1.0000 0.1105011328
C   C166      1.0  0.63080  0.86920  0.82180  1.0000 -0.2326975653
C   C167      1.0  0.58360  0.82210  0.82210  1.0000 -0.0418744781
N   N83       1.0  0.53870  0.81790  0.78550  1.0000 -0.1182384227
N   N84       1.0  0.53670  0.79140  0.80910  1.0000 -0.1088234145
C   C168      1.0  0.56780  0.84020  0.79300  1.0000 -0.0910881134
H   H100      1.0  0.61920  0.88420  0.80050  1.0000 0.0904473795
H   H101      1.0  0.58000  0.86100  0.78100  1.0000 0.0904473795
H   H102      1.0  0.56900  0.77600  0.85500  1.0000 0.0904473795
C   C169      1.0  0.11540  0.33700  0.83700  1.0000 0.1105011328
C   C170      1.0  0.13080  0.36920  0.82180  1.0000 -0.2326975653
C   C171      1.0  0.08360  0.32210  0.82210  1.0000 -0.0418744781
N   N85       1.0  0.03870  0.31790  0.78550  1.0000 -0.1182384227
N   N86       1.0  0.03670  0.29140  0.80910  1.0000 -0.1088234145
C   C172      1.0  0.06780  0.34020  0.79300  1.0000 -0.0910881134
H   H103      1.0  0.11920  0.38420  0.80050  1.0000 0.0904473795
H   H104      1.0  0.08000  0.36100  0.78100  1.0000 0.0904473795
H   H105      1.0  0.06900  0.27600  0.85500  1.0000 0.0904473795
C   C173      1.0  0.11540  0.83700  0.33700  1.0000 0.1105011328
C   C174      1.0  0.13080  0.86920  0.32180  1.0000 -0.2326975653
C   C175      1.0  0.08360  0.82210  0.32210  1.0000 -0.0418744781
N   N87       1.0  0.03870  0.81790  0.28550  1.0000 -0.1182384227
N   N88       1.0  0.03670  0.79140  0.30910  1.0000 -0.1088234145
C   C176      1.0  0.06780  0.84020  0.29300  1.0000 -0.0910881134
H   H106      1.0  0.11920  0.88420  0.30050  1.0000 0.0904473795
H   H107      1.0  0.08000  0.86100  0.28100  1.0000 0.0904473795
H   H108      1.0  0.06900  0.77600  0.35500  1.0000 0.0904473795
C   C177      1.0  0.38460  0.33700  0.66300  1.0000 0.1105011328
C   C178      1.0  0.36920  0.36920  0.67820  1.0000 -0.2326975653
C   C179      1.0  0.41640  0.32210  0.67790  1.0000 -0.0418744781
N   N89       1.0  0.46130  0.31790  0.71450  1.0000 -0.1182384227
N   N90       1.0  0.46330  0.29140  0.69090  1.0000 -0.1088234145
C   C180      1.0  0.43220  0.34020  0.70700  1.0000 -0.0910881134
H   H109      1.0  0.38080  0.38420  0.69950  1.0000 0.0904473795
H   H110      1.0  0.42000  0.36100  0.71900  1.0000 0.0904473795
H   H111      1.0  0.43100  0.27600  0.64500  1.0000 0.0904473795
C   C181      1.0  0.38460  0.83700  0.16300  1.0000 0.1105011328
C   C182      1.0  0.36920  0.86920  0.17820  1.0000 -0.2326975653
C   C183      1.0  0.41640  0.82210  0.17790  1.0000 -0.0418744781
N   N91       1.0  0.46130  0.81790  0.21450  1.0000 -0.1182384227
N   N92       1.0  0.46330  0.79140  0.19090  1.0000 -0.1088234145
C   C184      1.0  0.43220  0.84020  0.20700  1.0000 -0.0910881134
H   H112      1.0  0.38080  0.88420  0.19950  1.0000 0.0904473795
H   H113      1.0  0.42000  0.86100  0.21900  1.0000 0.0904473795
H   H114      1.0  0.43100  0.77600  0.14500  1.0000 0.0904473795
C   C185      1.0  0.88460  0.33700  0.16300  1.0000 0.1105011328
C   C186      1.0  0.86920  0.36920  0.17820  1.0000 -0.2326975653
C   C187      1.0  0.91640  0.32210  0.17790  1.0000 -0.0418744781
N   N93       1.0  0.96130  0.31790  0.21450  1.0000 -0.1182384227
N   N94       1.0  0.96330  0.29140  0.19090  1.0000 -0.1088234145
C   C188      1.0  0.93220  0.34020  0.20700  1.0000 -0.0910881134
H   H115      1.0  0.88080  0.38420  0.19950  1.0000 0.0904473795
H   H116      1.0  0.92000  0.36100  0.21900  1.0000 0.0904473795
H   H117      1.0  0.93100  0.27600  0.14500  1.0000 0.0904473795
C   C189      1.0  0.88460  0.83700  0.66300  1.0000 0.1105011328
C   C190      1.0  0.86920  0.86920  0.67820  1.0000 -0.2326975653
C   C191      1.0  0.91640  0.82210  0.67790  1.0000 -0.0418744781
N   N95       1.0  0.96130  0.81790  0.71450  1.0000 -0.1182384227
N   N96       1.0  0.96330  0.79140  0.69090  1.0000 -0.1088234145
C   C192      1.0  0.93220  0.84020  0.70700  1.0000 -0.0910881134
H   H118      1.0  0.88080  0.88420  0.69950  1.0000 0.0904473795
H   H119      1.0  0.92000  0.86100  0.71900  1.0000 0.0904473795
H   H120      1.0  0.93100  0.77600  0.64500  1.0000 0.0904473795
C   C193      1.0  0.61540  0.66300  0.66300  1.0000 0.1105011328
C   C194      1.0  0.63080  0.63080  0.67820  1.0000 -0.2326975653
C   C195      1.0  0.58360  0.67790  0.67790  1.0000 -0.0418744781
N   N97       1.0  0.53870  0.68210  0.71450  1.0000 -0.1182384227
N   N98       1.0  0.53670  0.70860  0.69090  1.0000 -0.1088234145
C   C196      1.0  0.56780  0.65980  0.70700  1.0000 -0.0910881134
H   H121      1.0  0.61920  0.61580  0.69950  1.0000 0.0904473795
H   H122      1.0  0.58000  0.63900  0.71900  1.0000 0.0904473795
H   H123      1.0  0.56900  0.72400  0.64500  1.0000 0.0904473795
C   C197      1.0  0.61540  0.16300  0.16300  1.0000 0.1105011328
C   C198      1.0  0.63080  0.13080  0.17820  1.0000 -0.2326975653
C   C199      1.0  0.58360  0.17790  0.17790  1.0000 -0.0418744781
N   N99       1.0  0.53870  0.18210  0.21450  1.0000 -0.1182384227
N   N100      1.0  0.53670  0.20860  0.19090  1.0000 -0.1088234145
C   C200      1.0  0.56780  0.15980  0.20700  1.0000 -0.0910881134
H   H124      1.0  0.61920  0.11580  0.19950  1.0000 0.0904473795
H   H125      1.0  0.58000  0.13900  0.21900  1.0000 0.0904473795
H   H126      1.0  0.56900  0.22400  0.14500  1.0000 0.0904473795
C   C201      1.0  0.11540  0.66300  0.16300  1.0000 0.1105011328
C   C202      1.0  0.13080  0.63080  0.17820  1.0000 -0.2326975653
C   C203      1.0  0.08360  0.67790  0.17790  1.0000 -0.0418744781
N   N101      1.0  0.03870  0.68210  0.21450  1.0000 -0.1182384227
N   N102      1.0  0.03670  0.70860  0.19090  1.0000 -0.1088234145
C   C204      1.0  0.06780  0.65980  0.20700  1.0000 -0.0910881134
H   H127      1.0  0.11920  0.61580  0.19950  1.0000 0.0904473795
H   H128      1.0  0.08000  0.63900  0.21900  1.0000 0.0904473795
H   H129      1.0  0.06900  0.72400  0.14500  1.0000 0.0904473795
C   C205      1.0  0.11540  0.16300  0.66300  1.0000 0.1105011328
C   C206      1.0  0.13080  0.13080  0.67820  1.0000 -0.2326975653
C   C207      1.0  0.08360  0.17790  0.67790  1.0000 -0.0418744781
N   N103      1.0  0.03870  0.18210  0.71450  1.0000 -0.1182384227
N   N104      1.0  0.03670  0.20860  0.69090  1.0000 -0.1088234145
C   C208      1.0  0.06780  0.15980  0.70700  1.0000 -0.0910881134
H   H130      1.0  0.11920  0.11580  0.69950  1.0000 0.0904473795
H   H131      1.0  0.08000  0.13900  0.71900  1.0000 0.0904473795
H   H132      1.0  0.06900  0.22400  0.64500  1.0000 0.0904473795
C   C209      1.0  0.38460  0.66300  0.33700  1.0000 0.1105011328
C   C210      1.0  0.36920  0.63080  0.32180  1.0000 -0.2326975653
C   C211      1.0  0.41640  0.67790  0.32210  1.0000 -0.0418744781
N   N105      1.0  0.46130  0.68210  0.28550  1.0000 -0.1182384227
N   N106      1.0  0.46330  0.70860  0.30910  1.0000 -0.1088234145
C   C212      1.0  0.43220  0.65980  0.29300  1.0000 -0.0910881134
H   H133      1.0  0.38080  0.61580  0.30050  1.0000 0.0904473795
H   H134      1.0  0.42000  0.63900  0.28100  1.0000 0.0904473795
H   H135      1.0  0.43100  0.72400  0.35500  1.0000 0.0904473795
C   C213      1.0  0.38460  0.16300  0.83700  1.0000 0.1105011328
C   C214      1.0  0.36920  0.13080  0.82180  1.0000 -0.2326975653
C   C215      1.0  0.41640  0.17790  0.82210  1.0000 -0.0418744781
N   N107      1.0  0.46130  0.18210  0.78550  1.0000 -0.1182384227
N   N108      1.0  0.46330  0.20860  0.80910  1.0000 -0.1088234145
C   C216      1.0  0.43220  0.15980  0.79300  1.0000 -0.0910881134
H   H136      1.0  0.38080  0.11580  0.80050  1.0000 0.0904473795
H   H137      1.0  0.42000  0.13900  0.78100  1.0000 0.0904473795
H   H138      1.0  0.43100  0.22400  0.85500  1.0000 0.0904473795
C   C217      1.0  0.88460  0.66300  0.83700  1.0000 0.1105011328
C   C218      1.0  0.86920  0.63080  0.82180  1.0000 -0.2326975653
C   C219      1.0  0.91640  0.67790  0.82210  1.0000 -0.0418744781
N   N109      1.0  0.96130  0.68210  0.78550  1.0000 -0.1182384227
N   N110      1.0  0.96330  0.70860  0.80910  1.0000 -0.1088234145
C   C220      1.0  0.93220  0.65980  0.79300  1.0000 -0.0910881134
H   H139      1.0  0.88080  0.61580  0.80050  1.0000 0.0904473795
H   H140      1.0  0.92000  0.63900  0.78100  1.0000 0.0904473795
H   H141      1.0  0.93100  0.72400  0.85500  1.0000 0.0904473795
C   C221      1.0  0.88460  0.16300  0.33700  1.0000 0.1105011328
C   C222      1.0  0.86920  0.13080  0.32180  1.0000 -0.2326975653
C   C223      1.0  0.91640  0.17790  0.32210  1.0000 -0.0418744781
N   N111      1.0  0.96130  0.18210  0.28550  1.0000 -0.1182384227
N   N112      1.0  0.96330  0.20860  0.30910  1.0000 -0.1088234145
C   C224      1.0  0.93220  0.15980  0.29300  1.0000 -0.0910881134
H   H142      1.0  0.88080  0.11580  0.30050  1.0000 0.0904473795
H   H143      1.0  0.92000  0.13900  0.28100  1.0000 0.0904473795
H   H144      1.0  0.93100  0.22400  0.35500  1.0000 0.0904473795
C   C225      1.0  0.11540  0.83700  0.16300  1.0000 0.0569032035
C   C226      1.0  0.13080  0.82180  0.13080  1.0000 -0.2326975653
C   C227      1.0  0.08360  0.82210  0.17790  1.0000 0.0984719483
N   N113      1.0  0.03870  0.78550  0.18210  1.0000 -0.1088234145
N   N114      1.0  0.03670  0.80910  0.20860  1.0000 -0.0214514575
C   C228      1.0  0.06420  0.83140  0.20780  1.0000 -0.1182384227
C   C229      1.0  0.06780  0.79300  0.15980  1.0000 -0.1293130651
H   H145      1.0  0.11920  0.80050  0.11580  1.0000 0.0904473795
N   N115      1.0  0.20780  0.93580  0.16860  1.0000 -0.0214514575
H   H146      1.0  0.08000  0.78100  0.13900  1.0000 0.1105011328
H   H147      1.0  0.06900  0.85500  0.22400  1.0000 0.262673629
C   C230      1.0  0.11540  0.33700  0.66300  1.0000 0.0569032035
C   C231      1.0  0.13080  0.32180  0.63080  1.0000 -0.2326975653
C   C232      1.0  0.08360  0.32210  0.67790  1.0000 0.0984719483
N   N116      1.0  0.03870  0.28550  0.68210  1.0000 -0.1088234145
N   N117      1.0  0.03670  0.30910  0.70860  1.0000 -0.0214514575
C   C233      1.0  0.06420  0.33140  0.70780  1.0000 -0.1182384227
C   C234      1.0  0.06780  0.29300  0.65980  1.0000 -0.1293130651
H   H148      1.0  0.11920  0.30050  0.61580  1.0000 0.0904473795
N   N118      1.0  0.20780  0.43580  0.66860  1.0000 -0.0214514575
H   H149      1.0  0.08000  0.28100  0.63900  1.0000 0.1105011328
H   H150      1.0  0.06900  0.35500  0.72400  1.0000 0.262673629
C   C235      1.0  0.61540  0.83700  0.66300  1.0000 0.0569032035
C   C236      1.0  0.63080  0.82180  0.63080  1.0000 -0.2326975653
C   C237      1.0  0.58360  0.82210  0.67790  1.0000 0.0984719483
N   N119      1.0  0.53870  0.78550  0.68210  1.0000 -0.1088234145
N   N120      1.0  0.53670  0.80910  0.70860  1.0000 -0.0214514575
C   C238      1.0  0.56420  0.83140  0.70780  1.0000 -0.1182384227
C   C239      1.0  0.56780  0.79300  0.65980  1.0000 -0.1293130651
H   H151      1.0  0.61920  0.80050  0.61580  1.0000 0.0904473795
N   N121      1.0  0.70780  0.93580  0.66860  1.0000 -0.0214514575
H   H152      1.0  0.58000  0.78100  0.63900  1.0000 0.1105011328
H   H153      1.0  0.56900  0.85500  0.72400  1.0000 0.262673629
C   C240      1.0  0.61540  0.33700  0.16300  1.0000 0.0569032035
C   C241      1.0  0.63080  0.32180  0.13080  1.0000 -0.2356047974
C   C242      1.0  0.58360  0.32210  0.17790  1.0000 0.0984719483
N   N122      1.0  0.53870  0.28550  0.18210  1.0000 -0.1088234145
N   N123      1.0  0.53670  0.30910  0.20860  1.0000 -0.0214514575
C   C243      1.0  0.56420  0.33140  0.20780  1.0000 -0.1182384227
C   C244      1.0  0.56780  0.29300  0.15980  1.0000 -0.1293130651
H   H154      1.0  0.61920  0.30050  0.11580  1.0000 0.0904473795
N   N124      1.0  0.70780  0.43580  0.16860  1.0000 -0.0214514575
H   H155      1.0  0.58000  0.28100  0.13900  1.0000 0.1105011328
H   H156      1.0  0.56900  0.35500  0.22400  1.0000 0.262673629
C   C245      1.0  0.88460  0.16300  0.16300  1.0000 0.0569032035
C   C246      1.0  0.86920  0.17820  0.13080  1.0000 -0.2356047974
C   C247      1.0  0.91640  0.17790  0.17790  1.0000 0.0984719483
N   N125      1.0  0.96130  0.21450  0.18210  1.0000 -0.1088234145
N   N126      1.0  0.96330  0.19090  0.20860  1.0000 -0.0214514575
C   C248      1.0  0.93580  0.16860  0.20780  1.0000 -0.1182384227
C   C249      1.0  0.93220  0.20700  0.15980  1.0000 -0.1293130651
H   H157      1.0  0.88080  0.19950  0.11580  1.0000 0.0904473795
N   N127      1.0  0.79220  0.06420  0.16860  1.0000 -0.0214514575
H   H158      1.0  0.92000  0.21900  0.13900  1.0000 0.1105011328
H   H159      1.0  0.93100  0.14500  0.22400  1.0000 0.262673629
C   C250      1.0  0.88460  0.66300  0.66300  1.0000 0.0569032035
C   C251      1.0  0.86920  0.67820  0.63080  1.0000 -0.2356047974
C   C252      1.0  0.91640  0.67790  0.67790  1.0000 0.0984719483
N   N128      1.0  0.96130  0.71450  0.68210  1.0000 -0.1088234145
N   N129      1.0  0.96330  0.69090  0.70860  1.0000 -0.0214514575
C   C253      1.0  0.93580  0.66860  0.70780  1.0000 -0.1182384227
C   C254      1.0  0.93220  0.70700  0.65980  1.0000 -0.1293130651
H   H160      1.0  0.88080  0.69950  0.61580  1.0000 0.0904473795
N   N130      1.0  0.79220  0.56420  0.66860  1.0000 -0.0214514575
H   H161      1.0  0.92000  0.71900  0.63900  1.0000 0.1105011328
H   H162      1.0  0.93100  0.64500  0.72400  1.0000 0.262673629
C   C255      1.0  0.38460  0.16300  0.66300  1.0000 0.0569032035
C   C256      1.0  0.36920  0.17820  0.63080  1.0000 -0.2326975653
C   C257      1.0  0.41640  0.17790  0.67790  1.0000 0.0984719483
N   N131      1.0  0.46130  0.21450  0.68210  1.0000 -0.1088234145
N   N132      1.0  0.46330  0.19090  0.70860  1.0000 -0.0214514575
C   C258      1.0  0.43580  0.16860  0.70780  1.0000 -0.1182384227
C   C259      1.0  0.43220  0.20700  0.65980  1.0000 -0.1293130651
H   H163      1.0  0.38080  0.19950  0.61580  1.0000 0.0904473795
N   N133      1.0  0.29220  0.06420  0.66860  1.0000 -0.0214514575
H   H164      1.0  0.42000  0.21900  0.63900  1.0000 0.1105011328
H   H165      1.0  0.43100  0.14500  0.72400  1.0000 0.262673629
C   C260      1.0  0.38460  0.66300  0.16300  1.0000 0.0569032035
C   C261      1.0  0.36920  0.67820  0.13080  1.0000 -0.2356047974
C   C262      1.0  0.41640  0.67790  0.17790  1.0000 0.0984719483
N   N134      1.0  0.46130  0.71450  0.18210  1.0000 -0.1088234145
N   N135      1.0  0.46330  0.69090  0.20860  1.0000 -0.0214514575
C   C263      1.0  0.43580  0.66860  0.20780  1.0000 -0.1182384227
C   C264      1.0  0.43220  0.70700  0.15980  1.0000 -0.1293130651
H   H166      1.0  0.38080  0.69950  0.11580  1.0000 0.0904473795
N   N136      1.0  0.29220  0.56420  0.16860  1.0000 -0.0214514575
H   H167      1.0  0.42000  0.71900  0.13900  1.0000 0.1105011328
H   H168      1.0  0.43100  0.64500  0.22400  1.0000 0.262673629
C   C265      1.0  0.11540  0.16300  0.83700  1.0000 0.0569032035
C   C266      1.0  0.13080  0.17820  0.86920  1.0000 -0.2326975653
C   C267      1.0  0.08360  0.17790  0.82210  1.0000 0.0984719483
N   N137      1.0  0.03870  0.21450  0.81790  1.0000 -0.1088234145
N   N138      1.0  0.03670  0.19090  0.79140  1.0000 -0.0214514575
C   C268      1.0  0.06420  0.16860  0.79220  1.0000 -0.1182384227
C   C269      1.0  0.06780  0.20700  0.84020  1.0000 -0.1293130651
H   H169      1.0  0.11920  0.19950  0.88420  1.0000 0.0904473795
N   N139      1.0  0.20780  0.06420  0.83140  1.0000 -0.0214514575
H   H170      1.0  0.08000  0.21900  0.86100  1.0000 0.1105011328
H   H171      1.0  0.06900  0.14500  0.77600  1.0000 0.262673629
C   C270      1.0  0.11540  0.66300  0.33700  1.0000 0.0569032035
C   C271      1.0  0.13080  0.67820  0.36920  1.0000 -0.2326975653
C   C272      1.0  0.08360  0.67790  0.32210  1.0000 0.0984719483
N   N140      1.0  0.03870  0.71450  0.31790  1.0000 -0.1088234145
N   N141      1.0  0.03670  0.69090  0.29140  1.0000 -0.0214514575
C   C273      1.0  0.06420  0.66860  0.29220  1.0000 -0.1182384227
C   C274      1.0  0.06780  0.70700  0.34020  1.0000 -0.1293130651
H   H172      1.0  0.11920  0.69950  0.38420  1.0000 0.0904473795
N   N142      1.0  0.20780  0.56420  0.33140  1.0000 -0.0214514575
H   H173      1.0  0.08000  0.71900  0.36100  1.0000 0.1105011328
H   H174      1.0  0.06900  0.64500  0.27600  1.0000 0.262673629
C   C275      1.0  0.61540  0.16300  0.33700  1.0000 0.0569032035
C   C276      1.0  0.63080  0.17820  0.36920  1.0000 -0.2356047974
C   C277      1.0  0.58360  0.17790  0.32210  1.0000 0.0984719483
N   N143      1.0  0.53870  0.21450  0.31790  1.0000 -0.1088234145
N   N144      1.0  0.53670  0.19090  0.29140  1.0000 -0.0214514575
C   C278      1.0  0.56420  0.16860  0.29220  1.0000 -0.1182384227
C   C279      1.0  0.56780  0.20700  0.34020  1.0000 -0.1293130651
H   H175      1.0  0.61920  0.19950  0.38420  1.0000 0.0904473795
N   N145      1.0  0.70780  0.06420  0.33140  1.0000 -0.0214514575
H   H176      1.0  0.58000  0.21900  0.36100  1.0000 0.1105011328
H   H177      1.0  0.56900  0.14500  0.27600  1.0000 0.262673629
C   C280      1.0  0.61540  0.66300  0.83700  1.0000 0.0569032035
C   C281      1.0  0.63080  0.67820  0.86920  1.0000 -0.2326975653
C   C282      1.0  0.58360  0.67790  0.82210  1.0000 0.0984719483
N   N146      1.0  0.53870  0.71450  0.81790  1.0000 -0.1088234145
N   N147      1.0  0.53670  0.69090  0.79140  1.0000 -0.0214514575
C   C283      1.0  0.56420  0.66860  0.79220  1.0000 -0.1182384227
C   C284      1.0  0.56780  0.70700  0.84020  1.0000 -0.1293130651
H   H178      1.0  0.61920  0.69950  0.88420  1.0000 0.0904473795
N   N148      1.0  0.70780  0.56420  0.83140  1.0000 -0.0214514575
H   H179      1.0  0.58000  0.71900  0.86100  1.0000 0.1105011328
H   H180      1.0  0.56900  0.64500  0.77600  1.0000 0.262673629
C   C285      1.0  0.88460  0.83700  0.83700  1.0000 0.0569032035
C   C286      1.0  0.86920  0.82180  0.86920  1.0000 -0.2326975653
C   C287      1.0  0.91640  0.82210  0.82210  1.0000 0.0984719483
N   N149      1.0  0.96130  0.78550  0.81790  1.0000 -0.1088234145
N   N150      1.0  0.96330  0.80910  0.79140  1.0000 -0.0214514575
C   C288      1.0  0.93580  0.83140  0.79220  1.0000 -0.1182384227
C   C289      1.0  0.93220  0.79300  0.84020  1.0000 -0.1293130651
H   H181      1.0  0.88080  0.80050  0.88420  1.0000 0.0904473795
N   N151      1.0  0.79220  0.93580  0.83140  1.0000 -0.0214514575
H   H182      1.0  0.92000  0.78100  0.86100  1.0000 0.1105011328
H   H183      1.0  0.93100  0.85500  0.77600  1.0000 0.262673629
C   C290      1.0  0.88460  0.33700  0.33700  1.0000 0.0569032035
C   C291      1.0  0.86920  0.32180  0.36920  1.0000 -0.2356047974
C   C292      1.0  0.91640  0.32210  0.32210  1.0000 0.0984719483
N   N152      1.0  0.96130  0.28550  0.31790  1.0000 -0.1088234145
N   N153      1.0  0.96330  0.30910  0.29140  1.0000 -0.0214514575
C   C293      1.0  0.93580  0.33140  0.29220  1.0000 -0.1182384227
C   C294      1.0  0.93220  0.29300  0.34020  1.0000 -0.1293130651
H   H184      1.0  0.88080  0.30050  0.38420  1.0000 0.0904473795
N   N154      1.0  0.79220  0.43580  0.33140  1.0000 -0.0214514575
H   H185      1.0  0.92000  0.28100  0.36100  1.0000 0.1105011328
H   H186      1.0  0.93100  0.35500  0.27600  1.0000 0.262673629
C   C295      1.0  0.38460  0.83700  0.33700  1.0000 0.0569032035
C   C296      1.0  0.36920  0.82180  0.36920  1.0000 -0.2326975653
C   C297      1.0  0.41640  0.82210  0.32210  1.0000 0.0984719483
N   N155      1.0  0.46130  0.78550  0.31790  1.0000 -0.1088234145
N   N156      1.0  0.46330  0.80910  0.29140  1.0000 -0.0214514575
C   C298      1.0  0.43580  0.83140  0.29220  1.0000 -0.1182384227
C   C299      1.0  0.43220  0.79300  0.34020  1.0000 -0.1293130651
H   H187      1.0  0.38080  0.80050  0.38420  1.0000 0.0904473795
N   N157      1.0  0.29220  0.93580  0.33140  1.0000 -0.0214514575
H   H188      1.0  0.42000  0.78100  0.36100  1.0000 0.1105011328
H   H189      1.0  0.43100  0.85500  0.27600  1.0000 0.262673629
C   C300      1.0  0.38460  0.33700  0.83700  1.0000 0.0569032035
C   C301      1.0  0.36920  0.32180  0.86920  1.0000 -0.2326975653
C   C302      1.0  0.41640  0.32210  0.82210  1.0000 0.0984719483
N   N158      1.0  0.46130  0.28550  0.81790  1.0000 -0.1088234145
N   N159      1.0  0.46330  0.30910  0.79140  1.0000 -0.0214514575
C   C303      1.0  0.43580  0.33140  0.79220  1.0000 -0.1182384227
C   C304      1.0  0.43220  0.29300  0.84020  1.0000 -0.1293130651
H   H190      1.0  0.38080  0.30050  0.88420  1.0000 0.0904473795
N   N160      1.0  0.29220  0.43580  0.83140  1.0000 -0.0214514575
H   H191      1.0  0.42000  0.28100  0.86100  1.0000 0.1105011328
H   H192      1.0  0.43100  0.35500  0.77600  1.0000 0.262673629
C   C305      1.0  0.83700  0.83700  0.88460  1.0000 0.0539273433
C   C306      1.0  0.82180  0.86920  0.86920  1.0000 -0.2214459782
C   C307      1.0  0.82210  0.82210  0.91640  1.0000 0.0984719483
N   N161      1.0  0.78550  0.81790  0.96130  1.0000 -0.1293130651
N   N162      1.0  0.80910  0.79140  0.96330  1.0000 -0.0214514575
C   C308      1.0  0.83140  0.79220  0.93580  1.0000 -0.1182384227
C   C309      1.0  0.79300  0.84020  0.93220  1.0000 -0.1377881614
H   H193      1.0  0.80050  0.88420  0.88080  1.0000 0.0904473795
H   H194      1.0  0.78100  0.86100  0.92000  1.0000 0.1105011328
H   H195      1.0  0.85500  0.77600  0.93100  1.0000 0.262673629
C   C310      1.0  0.83700  0.33700  0.38460  1.0000 0.0539273433
C   C311      1.0  0.82180  0.36920  0.36920  1.0000 -0.2214459782
C   C312      1.0  0.82210  0.32210  0.41640  1.0000 0.0984719483
N   N163      1.0  0.78550  0.31790  0.46130  1.0000 -0.1377881614
N   N164      1.0  0.80910  0.29140  0.46330  1.0000 -0.0214514575
C   C313      1.0  0.83140  0.29220  0.43580  1.0000 -0.1182384227
C   C314      1.0  0.79300  0.34020  0.43220  1.0000 -0.1377881614
H   H196      1.0  0.80050  0.38420  0.38080  1.0000 0.0904473795
H   H197      1.0  0.78100  0.36100  0.42000  1.0000 0.1105011328
H   H198      1.0  0.85500  0.27600  0.43100  1.0000 0.262673629
C   C315      1.0  0.33700  0.83700  0.38460  1.0000 0.0539273433
C   C316      1.0  0.32180  0.86920  0.36920  1.0000 -0.2214459782
C   C317      1.0  0.32210  0.82210  0.41640  1.0000 0.0984719483
N   N165      1.0  0.28550  0.81790  0.46130  1.0000 -0.1293130651
N   N166      1.0  0.30910  0.79140  0.46330  1.0000 -0.0214514575
C   C318      1.0  0.33140  0.79220  0.43580  1.0000 -0.1182384227
C   C319      1.0  0.29300  0.84020  0.43220  1.0000 -0.1377881614
H   H199      1.0  0.30050  0.88420  0.38080  1.0000 0.0904473795
H   H200      1.0  0.28100  0.86100  0.42000  1.0000 0.1105011328
H   H201      1.0  0.35500  0.77600  0.43100  1.0000 0.262673629
C   C320      1.0  0.33700  0.33700  0.88460  1.0000 0.0539273433
C   C321      1.0  0.32180  0.36920  0.86920  1.0000 -0.2214459782
C   C322      1.0  0.32210  0.32210  0.91640  1.0000 0.0984719483
N   N167      1.0  0.28550  0.31790  0.96130  1.0000 -0.1377881614
N   N168      1.0  0.30910  0.29140  0.96330  1.0000 -0.0214514575
C   C323      1.0  0.33140  0.29220  0.93580  1.0000 -0.1182384227
C   C324      1.0  0.29300  0.34020  0.93220  1.0000 -0.1377881614
H   H202      1.0  0.30050  0.38420  0.88080  1.0000 0.0904473795
H   H203      1.0  0.28100  0.36100  0.92000  1.0000 0.1105011328
H   H204      1.0  0.35500  0.27600  0.93100  1.0000 0.262673629
C   C325      1.0  0.16300  0.83700  0.11540  1.0000 0.0539273433
C   C326      1.0  0.17820  0.86920  0.13080  1.0000 -0.2214459782
C   C327      1.0  0.17790  0.82210  0.08360  1.0000 0.0984719483
N   N169      1.0  0.21450  0.81790  0.03870  1.0000 -0.1377881614
N   N170      1.0  0.19090  0.79140  0.03670  1.0000 -0.0214514575
C   C328      1.0  0.16860  0.79220  0.06420  1.0000 -0.1182384227
C   C329      1.0  0.20700  0.84020  0.06780  1.0000 -0.1377881614
H   H205      1.0  0.19950  0.88420  0.11920  1.0000 0.0904473795
H   H206      1.0  0.21900  0.86100  0.08000  1.0000 0.1105011328
H   H207      1.0  0.14500  0.77600  0.06900  1.0000 0.262673629
C   C330      1.0  0.16300  0.33700  0.61540  1.0000 0.0539273433
C   C331      1.0  0.17820  0.36920  0.63080  1.0000 -0.2214459782
C   C332      1.0  0.17790  0.32210  0.58360  1.0000 0.0984719483
N   N171      1.0  0.21450  0.31790  0.53870  1.0000 -0.1293130651
N   N172      1.0  0.19090  0.29140  0.53670  1.0000 -0.0214514575
C   C333      1.0  0.16860  0.29220  0.56420  1.0000 -0.1182384227
C   C334      1.0  0.20700  0.34020  0.56780  1.0000 -0.1377881614
H   H208      1.0  0.19950  0.38420  0.61920  1.0000 0.0904473795
H   H209      1.0  0.21900  0.36100  0.58000  1.0000 0.1105011328
H   H210      1.0  0.14500  0.27600  0.56900  1.0000 0.262673629
C   C335      1.0  0.66300  0.83700  0.61540  1.0000 0.0539273433
C   C336      1.0  0.67820  0.86920  0.63080  1.0000 -0.2214459782
C   C337      1.0  0.67790  0.82210  0.58360  1.0000 0.0984719483
N   N173      1.0  0.71450  0.81790  0.53870  1.0000 -0.1293130651
N   N174      1.0  0.69090  0.79140  0.53670  1.0000 -0.0214514575
C   C338      1.0  0.66860  0.79220  0.56420  1.0000 -0.1182384227
C   C339      1.0  0.70700  0.84020  0.56780  1.0000 -0.1377881614
H   H211      1.0  0.69950  0.88420  0.61920  1.0000 0.0904473795
H   H212      1.0  0.71900  0.86100  0.58000  1.0000 0.1105011328
H   H213      1.0  0.64500  0.77600  0.56900  1.0000 0.262673629
C   C340      1.0  0.66300  0.33700  0.11540  1.0000 0.0539273433
C   C341      1.0  0.67820  0.36920  0.13080  1.0000 -0.2214459782
C   C342      1.0  0.67790  0.32210  0.08360  1.0000 0.0984719483
N   N175      1.0  0.71450  0.31790  0.03870  1.0000 -0.1377881614
N   N176      1.0  0.69090  0.29140  0.03670  1.0000 -0.0214514575
C   C343      1.0  0.66860  0.29220  0.06420  1.0000 -0.1182384227
C   C344      1.0  0.70700  0.34020  0.06780  1.0000 -0.1377881614
H   H214      1.0  0.69950  0.38420  0.11920  1.0000 0.0904473795
H   H215      1.0  0.71900  0.36100  0.08000  1.0000 0.1105011328
H   H216      1.0  0.64500  0.27600  0.06900  1.0000 0.262673629
C   C345      1.0  0.16300  0.16300  0.88460  1.0000 0.0539273433
C   C346      1.0  0.17820  0.13080  0.86920  1.0000 -0.2214459782
C   C347      1.0  0.17790  0.17790  0.91640  1.0000 0.0984719483
N   N177      1.0  0.21450  0.18210  0.96130  1.0000 -0.1377881614
N   N178      1.0  0.19090  0.20860  0.96330  1.0000 -0.0214514575
C   C348      1.0  0.16860  0.20780  0.93580  1.0000 -0.1182384227
C   C349      1.0  0.20700  0.15980  0.93220  1.0000 -0.1377881614
H   H217      1.0  0.19950  0.11580  0.88080  1.0000 0.0904473795
H   H218      1.0  0.21900  0.13900  0.92000  1.0000 0.1105011328
H   H219      1.0  0.14500  0.22400  0.93100  1.0000 0.262673629
C   C350      1.0  0.16300  0.66300  0.38460  1.0000 0.0539273433
C   C351      1.0  0.17820  0.63080  0.36920  1.0000 -0.2214459782
C   C352      1.0  0.17790  0.67790  0.41640  1.0000 0.0984719483
N   N179      1.0  0.21450  0.68210  0.46130  1.0000 -0.1293130651
N   N180      1.0  0.19090  0.70860  0.46330  1.0000 -0.0214514575
C   C353      1.0  0.16860  0.70780  0.43580  1.0000 -0.1182384227
C   C354      1.0  0.20700  0.65980  0.43220  1.0000 -0.1377881614
H   H220      1.0  0.19950  0.61580  0.38080  1.0000 0.0904473795
H   H221      1.0  0.21900  0.63900  0.42000  1.0000 0.1105011328
H   H222      1.0  0.14500  0.72400  0.43100  1.0000 0.262673629
C   C355      1.0  0.66300  0.16300  0.38460  1.0000 0.0539273433
C   C356      1.0  0.67820  0.13080  0.36920  1.0000 -0.2214459782
C   C357      1.0  0.67790  0.17790  0.41640  1.0000 0.0984719483
N   N181      1.0  0.71450  0.18210  0.46130  1.0000 -0.1377881614
N   N182      1.0  0.69090  0.20860  0.46330  1.0000 -0.0214514575
C   C358      1.0  0.66860  0.20780  0.43580  1.0000 -0.1182384227
C   C359      1.0  0.70700  0.15980  0.43220  1.0000 -0.1377881614
H   H223      1.0  0.69950  0.11580  0.38080  1.0000 0.0904473795
H   H224      1.0  0.71900  0.13900  0.42000  1.0000 0.1105011328
H   H225      1.0  0.64500  0.22400  0.43100  1.0000 0.262673629
C   C360      1.0  0.66300  0.66300  0.88460  1.0000 0.0539273433
C   C361      1.0  0.67820  0.63080  0.86920  1.0000 -0.2214459782
C   C362      1.0  0.67790  0.67790  0.91640  1.0000 0.0984719483
N   N183      1.0  0.71450  0.68210  0.96130  1.0000 -0.1377881614
N   N184      1.0  0.69090  0.70860  0.96330  1.0000 -0.0214514575
C   C363      1.0  0.66860  0.70780  0.93580  1.0000 -0.1182384227
C   C364      1.0  0.70700  0.65980  0.93220  1.0000 -0.1377881614
H   H226      1.0  0.69950  0.61580  0.88080  1.0000 0.0904473795
H   H227      1.0  0.71900  0.63900  0.92000  1.0000 0.1105011328
H   H228      1.0  0.64500  0.72400  0.93100  1.0000 0.262673629
C   C365      1.0  0.83700  0.16300  0.11540  1.0000 0.0539273433
C   C366      1.0  0.82180  0.13080  0.13080  1.0000 -0.2214459782
C   C367      1.0  0.82210  0.17790  0.08360  1.0000 0.0984719483
N   N185      1.0  0.78550  0.18210  0.03870  1.0000 -0.1377881614
N   N186      1.0  0.80910  0.20860  0.03670  1.0000 -0.0214514575
C   C368      1.0  0.83140  0.20780  0.06420  1.0000 -0.1182384227
C   C369      1.0  0.79300  0.15980  0.06780  1.0000 -0.1377881614
H   H229      1.0  0.80050  0.11580  0.11920  1.0000 0.0904473795
H   H230      1.0  0.78100  0.13900  0.08000  1.0000 0.1105011328
H   H231      1.0  0.85500  0.22400  0.06900  1.0000 0.262673629
C   C370      1.0  0.83700  0.66300  0.61540  1.0000 0.0539273433
C   C371      1.0  0.82180  0.63080  0.63080  1.0000 -0.2214459782
C   C372      1.0  0.82210  0.67790  0.58360  1.0000 0.0984719483
N   N187      1.0  0.78550  0.68210  0.53870  1.0000 -0.1377881614
N   N188      1.0  0.80910  0.70860  0.53670  1.0000 -0.0214514575
C   C373      1.0  0.83140  0.70780  0.56420  1.0000 -0.1182384227
C   C374      1.0  0.79300  0.65980  0.56780  1.0000 -0.1377881614
H   H232      1.0  0.80050  0.61580  0.61920  1.0000 0.0904473795
H   H233      1.0  0.78100  0.63900  0.58000  1.0000 0.1105011328
H   H234      1.0  0.85500  0.72400  0.56900  1.0000 0.262673629
C   C375      1.0  0.33700  0.16300  0.61540  1.0000 0.0539273433
C   C376      1.0  0.32180  0.13080  0.63080  1.0000 -0.2214459782
C   C377      1.0  0.32210  0.17790  0.58360  1.0000 0.0984719483
N   N189      1.0  0.28550  0.18210  0.53870  1.0000 -0.1377881614
N   N190      1.0  0.30910  0.20860  0.53670  1.0000 -0.0214514575
C   C378      1.0  0.33140  0.20780  0.56420  1.0000 -0.1182384227
C   C379      1.0  0.29300  0.15980  0.56780  1.0000 -0.1377881614
H   H235      1.0  0.30050  0.11580  0.61920  1.0000 0.0904473795
H   H236      1.0  0.28100  0.13900  0.58000  1.0000 0.1105011328
H   H237      1.0  0.35500  0.22400  0.56900  1.0000 0.262673629
C   C380      1.0  0.33700  0.66300  0.11540  1.0000 0.0539273433
C   C381      1.0  0.32180  0.63080  0.13080  1.0000 -0.2214459782
C   C382      1.0  0.32210  0.67790  0.08360  1.0000 0.0984719483
N   N191      1.0  0.28550  0.68210  0.03870  1.0000 -0.1377881614
N   N192      1.0  0.30910  0.70860  0.03670  1.0000 -0.0214514575
C   C383      1.0  0.33140  0.70780  0.06420  1.0000 -0.1182384227
C   C384      1.0  0.29300  0.65980  0.06780  1.0000 -0.1377881614
H   H238      1.0  0.30050  0.61580  0.11920  1.0000 0.0904473795
H   H239      1.0  0.28100  0.63900  0.08000  1.0000 0.1105011328
H   H240      1.0  0.35500  0.72400  0.06900  1.0000 0.262673629
C   C385      1.0  0.83700  0.11540  0.16300  1.0000 0.1105011328
C   C386      1.0  0.86920  0.13080  0.17820  1.0000 -0.2326975653
C   C387      1.0  0.82210  0.08360  0.17790  1.0000 -0.0418744781
N   N193      1.0  0.81790  0.03870  0.21450  1.0000 -0.1182384227
N   N194      1.0  0.79140  0.03670  0.19090  1.0000 -0.1088234145
C   C388      1.0  0.84020  0.06780  0.20700  1.0000 -0.0910881134
H   H241      1.0  0.88420  0.11920  0.19950  1.0000 0.0904473795
H   H242      1.0  0.86100  0.08000  0.21900  1.0000 0.0904473795
H   H243      1.0  0.77600  0.06900  0.14500  1.0000 0.0904473795
C   C389      1.0  0.83700  0.61540  0.66300  1.0000 0.1105011328
C   C390      1.0  0.86920  0.63080  0.67820  1.0000 -0.2326975653
C   C391      1.0  0.82210  0.58360  0.67790  1.0000 -0.0418744781
N   N195      1.0  0.81790  0.53870  0.71450  1.0000 -0.1182384227
N   N196      1.0  0.79140  0.53670  0.69090  1.0000 -0.1088234145
C   C392      1.0  0.84020  0.56780  0.70700  1.0000 -0.0910881134
H   H244      1.0  0.88420  0.61920  0.69950  1.0000 0.0904473795
H   H245      1.0  0.86100  0.58000  0.71900  1.0000 0.0904473795
H   H246      1.0  0.77600  0.56900  0.64500  1.0000 0.0904473795
C   C393      1.0  0.33700  0.11540  0.66300  1.0000 0.1105011328
C   C394      1.0  0.36920  0.13080  0.67820  1.0000 -0.2326975653
C   C395      1.0  0.32210  0.08360  0.67790  1.0000 -0.0418744781
N   N197      1.0  0.31790  0.03870  0.71450  1.0000 -0.1182384227
N   N198      1.0  0.29140  0.03670  0.69090  1.0000 -0.1088234145
C   C396      1.0  0.34020  0.06780  0.70700  1.0000 -0.0910881134
H   H247      1.0  0.38420  0.11920  0.69950  1.0000 0.0904473795
H   H248      1.0  0.36100  0.08000  0.71900  1.0000 0.0904473795
H   H249      1.0  0.27600  0.06900  0.64500  1.0000 0.0904473795
C   C397      1.0  0.33700  0.61540  0.16300  1.0000 0.1105011328
C   C398      1.0  0.36920  0.63080  0.17820  1.0000 -0.2326975653
C   C399      1.0  0.32210  0.58360  0.17790  1.0000 -0.0418744781
N   N199      1.0  0.31790  0.53870  0.21450  1.0000 -0.1182384227
N   N200      1.0  0.29140  0.53670  0.19090  1.0000 -0.1088234145
C   C400      1.0  0.34020  0.56780  0.20700  1.0000 -0.0910881134
H   H250      1.0  0.38420  0.61920  0.19950  1.0000 0.0904473795
H   H251      1.0  0.36100  0.58000  0.21900  1.0000 0.0904473795
H   H252      1.0  0.27600  0.56900  0.14500  1.0000 0.0904473795
C   C401      1.0  0.83700  0.88460  0.83700  1.0000 0.1105011328
C   C402      1.0  0.86920  0.86920  0.82180  1.0000 -0.2326975653
C   C403      1.0  0.82210  0.91640  0.82210  1.0000 -0.0418744781
N   N201      1.0  0.81790  0.96130  0.78550  1.0000 -0.1182384227
N   N202      1.0  0.79140  0.96330  0.80910  1.0000 -0.1088234145
C   C404      1.0  0.84020  0.93220  0.79300  1.0000 -0.0910881134
H   H253      1.0  0.88420  0.88080  0.80050  1.0000 0.0904473795
H   H254      1.0  0.86100  0.92000  0.78100  1.0000 0.0904473795
H   H255      1.0  0.77600  0.93100  0.85500  1.0000 0.0904473795
C   C405      1.0  0.83700  0.38460  0.33700  1.0000 0.1105011328
C   C406      1.0  0.86920  0.36920  0.32180  1.0000 -0.2326975653
C   C407      1.0  0.82210  0.41640  0.32210  1.0000 -0.0418744781
N   N203      1.0  0.81790  0.46130  0.28550  1.0000 -0.1182384227
N   N204      1.0  0.79140  0.46330  0.30910  1.0000 -0.1088234145
C   C408      1.0  0.84020  0.43220  0.29300  1.0000 -0.0910881134
H   H256      1.0  0.88420  0.38080  0.30050  1.0000 0.0904473795
H   H257      1.0  0.86100  0.42000  0.28100  1.0000 0.0904473795
H   H258      1.0  0.77600  0.43100  0.35500  1.0000 0.0904473795
C   C409      1.0  0.33700  0.88460  0.33700  1.0000 0.1105011328
C   C410      1.0  0.36920  0.86920  0.32180  1.0000 -0.2326975653
C   C411      1.0  0.32210  0.91640  0.32210  1.0000 -0.0418744781
N   N205      1.0  0.31790  0.96130  0.28550  1.0000 -0.1182384227
N   N206      1.0  0.29140  0.96330  0.30910  1.0000 -0.1088234145
C   C412      1.0  0.34020  0.93220  0.29300  1.0000 -0.0910881134
H   H259      1.0  0.38420  0.88080  0.30050  1.0000 0.0904473795
H   H260      1.0  0.36100  0.92000  0.28100  1.0000 0.0904473795
H   H261      1.0  0.27600  0.93100  0.35500  1.0000 0.0904473795
C   C413      1.0  0.33700  0.38460  0.83700  1.0000 0.1105011328
C   C414      1.0  0.36920  0.36920  0.82180  1.0000 -0.2326975653
C   C415      1.0  0.32210  0.41640  0.82210  1.0000 -0.0418744781
N   N207      1.0  0.31790  0.46130  0.78550  1.0000 -0.1182384227
N   N208      1.0  0.29140  0.46330  0.80910  1.0000 -0.1088234145
C   C416      1.0  0.34020  0.43220  0.79300  1.0000 -0.0910881134
H   H262      1.0  0.38420  0.38080  0.80050  1.0000 0.0904473795
H   H263      1.0  0.36100  0.42000  0.78100  1.0000 0.0904473795
H   H264      1.0  0.27600  0.43100  0.85500  1.0000 0.0904473795
C   C417      1.0  0.16300  0.11540  0.83700  1.0000 0.1105011328
C   C418      1.0  0.13080  0.13080  0.82180  1.0000 -0.2326975653
C   C419      1.0  0.17790  0.08360  0.82210  1.0000 -0.0418744781
N   N209      1.0  0.18210  0.03870  0.78550  1.0000 -0.1182384227
N   N210      1.0  0.20860  0.03670  0.80910  1.0000 -0.1088234145
C   C420      1.0  0.15980  0.06780  0.79300  1.0000 -0.0910881134
H   H265      1.0  0.11580  0.11920  0.80050  1.0000 0.0904473795
H   H266      1.0  0.13900  0.08000  0.78100  1.0000 0.0904473795
H   H267      1.0  0.22400  0.06900  0.85500  1.0000 0.0904473795
C   C421      1.0  0.16300  0.61540  0.33700  1.0000 0.1105011328
C   C422      1.0  0.13080  0.63080  0.32180  1.0000 -0.2326975653
C   C423      1.0  0.17790  0.58360  0.32210  1.0000 -0.0418744781
N   N211      1.0  0.18210  0.53870  0.28550  1.0000 -0.1182384227
N   N212      1.0  0.20860  0.53670  0.30910  1.0000 -0.1088234145
C   C424      1.0  0.15980  0.56780  0.29300  1.0000 -0.0910881134
H   H268      1.0  0.11580  0.61920  0.30050  1.0000 0.0904473795
H   H269      1.0  0.13900  0.58000  0.28100  1.0000 0.0904473795
H   H270      1.0  0.22400  0.56900  0.35500  1.0000 0.0904473795
C   C425      1.0  0.66300  0.11540  0.33700  1.0000 0.1105011328
C   C426      1.0  0.63080  0.13080  0.32180  1.0000 -0.2326975653
C   C427      1.0  0.67790  0.08360  0.32210  1.0000 -0.0418744781
N   N213      1.0  0.68210  0.03870  0.28550  1.0000 -0.1182384227
N   N214      1.0  0.70860  0.03670  0.30910  1.0000 -0.1088234145
C   C428      1.0  0.65980  0.06780  0.29300  1.0000 -0.0910881134
H   H271      1.0  0.61580  0.11920  0.30050  1.0000 0.0904473795
H   H272      1.0  0.63900  0.08000  0.28100  1.0000 0.0904473795
H   H273      1.0  0.72400  0.06900  0.35500  1.0000 0.0904473795
C   C429      1.0  0.66300  0.61540  0.83700  1.0000 0.1105011328
C   C430      1.0  0.63080  0.63080  0.82180  1.0000 -0.2326975653
C   C431      1.0  0.67790  0.58360  0.82210  1.0000 -0.0418744781
N   N215      1.0  0.68210  0.53870  0.78550  1.0000 -0.1182384227
N   N216      1.0  0.70860  0.53670  0.80910  1.0000 -0.1088234145
C   C432      1.0  0.65980  0.56780  0.79300  1.0000 -0.0910881134
H   H274      1.0  0.61580  0.61920  0.80050  1.0000 0.0904473795
H   H275      1.0  0.63900  0.58000  0.78100  1.0000 0.0904473795
H   H276      1.0  0.72400  0.56900  0.85500  1.0000 0.0904473795
C   C433      1.0  0.16300  0.88460  0.16300  1.0000 0.1105011328
C   C434      1.0  0.13080  0.86920  0.17820  1.0000 -0.2326975653
C   C435      1.0  0.17790  0.91640  0.17790  1.0000 -0.0418744781
N   N217      1.0  0.18210  0.96130  0.21450  1.0000 -0.1182384227
N   N218      1.0  0.20860  0.96330  0.19090  1.0000 -0.1088234145
C   C436      1.0  0.15980  0.93220  0.20700  1.0000 -0.0910881134
H   H277      1.0  0.11580  0.88080  0.19950  1.0000 0.0904473795
H   H278      1.0  0.13900  0.92000  0.21900  1.0000 0.0904473795
H   H279      1.0  0.22400  0.93100  0.14500  1.0000 0.0904473795
C   C437      1.0  0.16300  0.38460  0.66300  1.0000 0.1105011328
C   C438      1.0  0.13080  0.36920  0.67820  1.0000 -0.2326975653
C   C439      1.0  0.17790  0.41640  0.67790  1.0000 -0.0418744781
N   N219      1.0  0.18210  0.46130  0.71450  1.0000 -0.1182384227
N   N220      1.0  0.20860  0.46330  0.69090  1.0000 -0.1088234145
C   C440      1.0  0.15980  0.43220  0.70700  1.0000 -0.0910881134
H   H280      1.0  0.11580  0.38080  0.69950  1.0000 0.0904473795
H   H281      1.0  0.13900  0.42000  0.71900  1.0000 0.0904473795
H   H282      1.0  0.22400  0.43100  0.64500  1.0000 0.0904473795
C   C441      1.0  0.66300  0.88460  0.66300  1.0000 0.1105011328
C   C442      1.0  0.63080  0.86920  0.67820  1.0000 -0.2326975653
C   C443      1.0  0.67790  0.91640  0.67790  1.0000 -0.0418744781
N   N221      1.0  0.68210  0.96130  0.71450  1.0000 -0.1182384227
N   N222      1.0  0.70860  0.96330  0.69090  1.0000 -0.1088234145
C   C444      1.0  0.65980  0.93220  0.70700  1.0000 -0.0910881134
H   H283      1.0  0.61580  0.88080  0.69950  1.0000 0.0904473795
H   H284      1.0  0.63900  0.92000  0.71900  1.0000 0.0904473795
H   H285      1.0  0.72400  0.93100  0.64500  1.0000 0.0904473795
C   C445      1.0  0.66300  0.38460  0.16300  1.0000 0.1105011328
C   C446      1.0  0.63080  0.36920  0.17820  1.0000 -0.2326975653
C   C447      1.0  0.67790  0.41640  0.17790  1.0000 -0.0418744781
N   N223      1.0  0.68210  0.46130  0.21450  1.0000 -0.1182384227
N   N224      1.0  0.70860  0.46330  0.19090  1.0000 -0.1088234145
C   C448      1.0  0.65980  0.43220  0.20700  1.0000 -0.0910881134
H   H286      1.0  0.61580  0.38080  0.19950  1.0000 0.0904473795
H   H287      1.0  0.63900  0.42000  0.21900  1.0000 0.0904473795
H   H288      1.0  0.72400  0.43100  0.14500  1.0000 0.0904473795
C   C449      1.0  0.66300  0.38460  0.66300  1.0000 0.0569032035
C   C450      1.0  0.67820  0.36920  0.63080  1.0000 -0.2356047974
C   C451      1.0  0.67790  0.41640  0.67790  1.0000 0.0984719483
N   N225      1.0  0.71450  0.46130  0.68210  1.0000 -0.1088234145
N   N226      1.0  0.69090  0.46330  0.70860  1.0000 -0.0214514575
C   C452      1.0  0.66860  0.43580  0.70780  1.0000 -0.1182384227
C   C453      1.0  0.70700  0.43220  0.65980  1.0000 -0.1293130651
H   H289      1.0  0.69950  0.38080  0.61580  1.0000 0.0904473795
N   N227      1.0  0.56420  0.29220  0.66860  1.0000 -0.0214514575
H   H290      1.0  0.71900  0.42000  0.63900  1.0000 0.1105011328
H   H291      1.0  0.64500  0.43100  0.72400  1.0000 0.262673629
C   C454      1.0  0.66300  0.88460  0.16300  1.0000 0.0569032035
C   C455      1.0  0.67820  0.86920  0.13080  1.0000 -0.2356047974
C   C456      1.0  0.67790  0.91640  0.17790  1.0000 0.0984719483
N   N228      1.0  0.71450  0.96130  0.18210  1.0000 -0.1088234145
N   N229      1.0  0.69090  0.96330  0.20860  1.0000 -0.0214514575
C   C457      1.0  0.66860  0.93580  0.20780  1.0000 -0.1182384227
C   C458      1.0  0.70700  0.93220  0.15980  1.0000 -0.1293130651
H   H292      1.0  0.69950  0.88080  0.11580  1.0000 0.0904473795
N   N230      1.0  0.56420  0.79220  0.16860  1.0000 -0.0214514575
H   H293      1.0  0.71900  0.92000  0.13900  1.0000 0.1105011328
H   H294      1.0  0.64500  0.93100  0.22400  1.0000 0.262673629
C   C459      1.0  0.16300  0.38460  0.16300  1.0000 0.0569032035
C   C460      1.0  0.17820  0.36920  0.13080  1.0000 -0.2356047974
C   C461      1.0  0.17790  0.41640  0.17790  1.0000 0.0984719483
N   N231      1.0  0.21450  0.46130  0.18210  1.0000 -0.1088234145
N   N232      1.0  0.19090  0.46330  0.20860  1.0000 -0.0214514575
C   C462      1.0  0.16860  0.43580  0.20780  1.0000 -0.1182384227
C   C463      1.0  0.20700  0.43220  0.15980  1.0000 -0.1293130651
H   H295      1.0  0.19950  0.38080  0.11580  1.0000 0.0904473795
N   N233      1.0  0.06420  0.29220  0.16860  1.0000 -0.0214514575
H   H296      1.0  0.21900  0.42000  0.13900  1.0000 0.1105011328
H   H297      1.0  0.14500  0.43100  0.22400  1.0000 0.262673629
C   C464      1.0  0.16300  0.88460  0.66300  1.0000 0.0569032035
C   C465      1.0  0.17820  0.86920  0.63080  1.0000 -0.2326975653
C   C466      1.0  0.17790  0.91640  0.67790  1.0000 0.0984719483
N   N234      1.0  0.21450  0.96130  0.68210  1.0000 -0.1088234145
N   N235      1.0  0.19090  0.96330  0.70860  1.0000 -0.0214514575
C   C467      1.0  0.16860  0.93580  0.70780  1.0000 -0.1182384227
C   C468      1.0  0.20700  0.93220  0.65980  1.0000 -0.1293130651
H   H298      1.0  0.19950  0.88080  0.61580  1.0000 0.0904473795
N   N236      1.0  0.06420  0.79220  0.66860  1.0000 -0.0214514575
H   H299      1.0  0.21900  0.92000  0.63900  1.0000 0.1105011328
H   H300      1.0  0.14500  0.93100  0.72400  1.0000 0.262673629
C   C469      1.0  0.33700  0.61540  0.66300  1.0000 0.0569032035
C   C470      1.0  0.32180  0.63080  0.63080  1.0000 -0.2326975653
C   C471      1.0  0.32210  0.58360  0.67790  1.0000 0.0984719483
N   N237      1.0  0.28550  0.53870  0.68210  1.0000 -0.1088234145
N   N238      1.0  0.30910  0.53670  0.70860  1.0000 -0.0214514575
C   C472      1.0  0.33140  0.56420  0.70780  1.0000 -0.1182384227
C   C473      1.0  0.29300  0.56780  0.65980  1.0000 -0.1293130651
H   H301      1.0  0.30050  0.61920  0.61580  1.0000 0.0904473795
N   N239      1.0  0.43580  0.70780  0.66860  1.0000 -0.0214514575
H   H302      1.0  0.28100  0.58000  0.63900  1.0000 0.1105011328
H   H303      1.0  0.35500  0.56900  0.72400  1.0000 0.262673629
C   C474      1.0  0.33700  0.11540  0.16300  1.0000 0.0569032035
C   C475      1.0  0.32180  0.13080  0.13080  1.0000 -0.2356047974
C   C476      1.0  0.32210  0.08360  0.17790  1.0000 0.0984719483
N   N240      1.0  0.28550  0.03870  0.18210  1.0000 -0.1088234145
N   N241      1.0  0.30910  0.03670  0.20860  1.0000 -0.0214514575
C   C477      1.0  0.33140  0.06420  0.20780  1.0000 -0.1182384227
C   C478      1.0  0.29300  0.06780  0.15980  1.0000 -0.1293130651
H   H304      1.0  0.30050  0.11920  0.11580  1.0000 0.0904473795
N   N242      1.0  0.43580  0.20780  0.16860  1.0000 -0.0214514575
H   H305      1.0  0.28100  0.08000  0.13900  1.0000 0.1105011328
H   H306      1.0  0.35500  0.06900  0.22400  1.0000 0.262673629
C   C479      1.0  0.83700  0.61540  0.16300  1.0000 0.0569032035
C   C480      1.0  0.82180  0.63080  0.13080  1.0000 -0.2356047974
C   C481      1.0  0.82210  0.58360  0.17790  1.0000 0.0984719483
N   N243      1.0  0.78550  0.53870  0.18210  1.0000 -0.1088234145
N   N244      1.0  0.80910  0.53670  0.20860  1.0000 -0.0214514575
C   C482      1.0  0.83140  0.56420  0.20780  1.0000 -0.1182384227
C   C483      1.0  0.79300  0.56780  0.15980  1.0000 -0.1293130651
H   H307      1.0  0.80050  0.61920  0.11580  1.0000 0.0904473795
N   N245      1.0  0.93580  0.70780  0.16860  1.0000 -0.0214514575
H   H308      1.0  0.78100  0.58000  0.13900  1.0000 0.1105011328
H   H309      1.0  0.85500  0.56900  0.22400  1.0000 0.262673629
C   C484      1.0  0.83700  0.11540  0.66300  1.0000 0.0569032035
C   C485      1.0  0.82180  0.13080  0.63080  1.0000 -0.2356047974
C   C486      1.0  0.82210  0.08360  0.67790  1.0000 0.0984719483
N   N246      1.0  0.78550  0.03870  0.68210  1.0000 -0.1088234145
N   N247      1.0  0.80910  0.03670  0.70860  1.0000 -0.0214514575
C   C487      1.0  0.83140  0.06420  0.70780  1.0000 -0.1182384227
C   C488      1.0  0.79300  0.06780  0.65980  1.0000 -0.1293130651
H   H310      1.0  0.80050  0.11920  0.61580  1.0000 0.0904473795
N   N248      1.0  0.93580  0.20780  0.66860  1.0000 -0.0214514575
H   H311      1.0  0.78100  0.08000  0.63900  1.0000 0.1105011328
H   H312      1.0  0.85500  0.06900  0.72400  1.0000 0.262673629
C   C489      1.0  0.33700  0.38460  0.33700  1.0000 0.0569032035
C   C490      1.0  0.32180  0.36920  0.36920  1.0000 -0.2326975653
C   C491      1.0  0.32210  0.41640  0.32210  1.0000 0.0984719483
N   N249      1.0  0.28550  0.46130  0.31790  1.0000 -0.1088234145
N   N250      1.0  0.30910  0.46330  0.29140  1.0000 -0.0214514575
C   C492      1.0  0.33140  0.43580  0.29220  1.0000 -0.1182384227
C   C493      1.0  0.29300  0.43220  0.34020  1.0000 -0.1293130651
H   H313      1.0  0.30050  0.38080  0.38420  1.0000 0.0904473795
N   N251      1.0  0.43580  0.29220  0.33140  1.0000 -0.0214514575
H   H314      1.0  0.28100  0.42000  0.36100  1.0000 0.1105011328
H   H315      1.0  0.35500  0.43100  0.27600  1.0000 0.262673629
C   C494      1.0  0.33700  0.88460  0.83700  1.0000 0.0569032035
C   C495      1.0  0.32180  0.86920  0.86920  1.0000 -0.2326975653
C   C496      1.0  0.32210  0.91640  0.82210  1.0000 0.0984719483
N   N252      1.0  0.28550  0.96130  0.81790  1.0000 -0.1088234145
N   N253      1.0  0.30910  0.96330  0.79140  1.0000 -0.0214514575
C   C497      1.0  0.33140  0.93580  0.79220  1.0000 -0.1182384227
C   C498      1.0  0.29300  0.93220  0.84020  1.0000 -0.1293130651
H   H316      1.0  0.30050  0.88080  0.88420  1.0000 0.0904473795
N   N254      1.0  0.43580  0.79220  0.83140  1.0000 -0.0214514575
H   H317      1.0  0.28100  0.92000  0.86100  1.0000 0.1105011328
H   H318      1.0  0.35500  0.93100  0.77600  1.0000 0.262673629
C   C499      1.0  0.83700  0.38460  0.83700  1.0000 0.0569032035
C   C500      1.0  0.82180  0.36920  0.86920  1.0000 -0.2326975653
C   C501      1.0  0.82210  0.41640  0.82210  1.0000 0.0984719483
N   N255      1.0  0.78550  0.46130  0.81790  1.0000 -0.1088234145
N   N256      1.0  0.80910  0.46330  0.79140  1.0000 -0.0214514575
C   C502      1.0  0.83140  0.43580  0.79220  1.0000 -0.1182384227
C   C503      1.0  0.79300  0.43220  0.84020  1.0000 -0.1293130651
H   H319      1.0  0.80050  0.38080  0.88420  1.0000 0.0904473795
N   N257      1.0  0.93580  0.29220  0.83140  1.0000 -0.0214514575
H   H320      1.0  0.78100  0.42000  0.86100  1.0000 0.1105011328
H   H321      1.0  0.85500  0.43100  0.77600  1.0000 0.262673629
C   C504      1.0  0.83700  0.88460  0.33700  1.0000 0.0569032035
C   C505      1.0  0.82180  0.86920  0.36920  1.0000 -0.2326975653
C   C506      1.0  0.82210  0.91640  0.32210  1.0000 0.0984719483
N   N258      1.0  0.78550  0.96130  0.31790  1.0000 -0.1088234145
N   N259      1.0  0.80910  0.96330  0.29140  1.0000 -0.0214514575
C   C507      1.0  0.83140  0.93580  0.29220  1.0000 -0.1182384227
C   C508      1.0  0.79300  0.93220  0.34020  1.0000 -0.1293130651
H   H322      1.0  0.80050  0.88080  0.38420  1.0000 0.0904473795
N   N260      1.0  0.93580  0.79220  0.33140  1.0000 -0.0214514575
H   H323      1.0  0.78100  0.92000  0.36100  1.0000 0.1105011328
H   H324      1.0  0.85500  0.93100  0.27600  1.0000 0.262673629
C   C509      1.0  0.66300  0.61540  0.33700  1.0000 0.0569032035
C   C510      1.0  0.67820  0.63080  0.36920  1.0000 -0.2356047974
C   C511      1.0  0.67790  0.58360  0.32210  1.0000 0.0984719483
N   N261      1.0  0.71450  0.53870  0.31790  1.0000 -0.1088234145
N   N262      1.0  0.69090  0.53670  0.29140  1.0000 -0.0214514575
C   C512      1.0  0.66860  0.56420  0.29220  1.0000 -0.1182384227
C   C513      1.0  0.70700  0.56780  0.34020  1.0000 -0.1293130651
H   H325      1.0  0.69950  0.61920  0.38420  1.0000 0.0904473795
N   N263      1.0  0.56420  0.70780  0.33140  1.0000 -0.0214514575
H   H326      1.0  0.71900  0.58000  0.36100  1.0000 0.1105011328
H   H327      1.0  0.64500  0.56900  0.27600  1.0000 0.262673629
C   C514      1.0  0.66300  0.11540  0.83700  1.0000 0.0569032035
C   C515      1.0  0.67820  0.13080  0.86920  1.0000 -0.2326975653
C   C516      1.0  0.67790  0.08360  0.82210  1.0000 0.0984719483
N   N264      1.0  0.71450  0.03870  0.81790  1.0000 -0.1088234145
N   N265      1.0  0.69090  0.03670  0.79140  1.0000 -0.0214514575
C   C517      1.0  0.66860  0.06420  0.79220  1.0000 -0.1182384227
C   C518      1.0  0.70700  0.06780  0.84020  1.0000 -0.1293130651
H   H328      1.0  0.69950  0.11920  0.88420  1.0000 0.0904473795
N   N266      1.0  0.56420  0.20780  0.83140  1.0000 -0.0214514575
H   H329      1.0  0.71900  0.08000  0.86100  1.0000 0.1105011328
H   H330      1.0  0.64500  0.06900  0.77600  1.0000 0.262673629
C   C519      1.0  0.16300  0.61540  0.83700  1.0000 0.0569032035
C   C520      1.0  0.17820  0.63080  0.86920  1.0000 -0.2326975653
C   C521      1.0  0.17790  0.58360  0.82210  1.0000 0.0984719483
N   N267      1.0  0.21450  0.53870  0.81790  1.0000 -0.1088234145
N   N268      1.0  0.19090  0.53670  0.79140  1.0000 -0.0214514575
C   C522      1.0  0.16860  0.56420  0.79220  1.0000 -0.1182384227
C   C523      1.0  0.20700  0.56780  0.84020  1.0000 -0.1293130651
H   H331      1.0  0.19950  0.61920  0.88420  1.0000 0.0904473795
N   N269      1.0  0.06420  0.70780  0.83140  1.0000 -0.0214514575
H   H332      1.0  0.21900  0.58000  0.86100  1.0000 0.1105011328
H   H333      1.0  0.14500  0.56900  0.77600  1.0000 0.262673629
C   C524      1.0  0.16300  0.11540  0.33700  1.0000 0.0569032035
C   C525      1.0  0.17820  0.13080  0.36920  1.0000 -0.2326975653
C   C526      1.0  0.17790  0.08360  0.32210  1.0000 0.0984719483
N   N270      1.0  0.21450  0.03870  0.31790  1.0000 -0.1088234145
N   N271      1.0  0.19090  0.03670  0.29140  1.0000 -0.0214514575
C   C527      1.0  0.16860  0.06420  0.29220  1.0000 -0.1182384227
C   C528      1.0  0.20700  0.06780  0.34020  1.0000 -0.1293130651
H   H334      1.0  0.19950  0.11920  0.38420  1.0000 0.0904473795
N   N272      1.0  0.06420  0.20780  0.33140  1.0000 -0.0214514575
H   H335      1.0  0.21900  0.08000  0.36100  1.0000 0.1105011328
H   H336      1.0  0.14500  0.06900  0.27600  1.0000 0.262673629
C   C529      1.0  0.66300  0.66300  0.38460  1.0000 0.0539273433
C   C530      1.0  0.63080  0.67820  0.36920  1.0000 -0.2214459782
C   C531      1.0  0.67790  0.67790  0.41640  1.0000 0.0984719483
N   N273      1.0  0.68210  0.71450  0.46130  1.0000 -0.1377881614
N   N274      1.0  0.70860  0.69090  0.46330  1.0000 -0.0214514575
C   C532      1.0  0.70780  0.66860  0.43580  1.0000 -0.1182384227
C   C533      1.0  0.65980  0.70700  0.43220  1.0000 -0.1377881614
H   H337      1.0  0.61580  0.69950  0.38080  1.0000 0.0904473795
H   H338      1.0  0.63900  0.71900  0.42000  1.0000 0.1105011328
H   H339      1.0  0.72400  0.64500  0.43100  1.0000 0.262673629
C   C534      1.0  0.66300  0.16300  0.88460  1.0000 0.0539273433
C   C535      1.0  0.63080  0.17820  0.86920  1.0000 -0.2214459782
C   C536      1.0  0.67790  0.17790  0.91640  1.0000 0.0984719483
N   N275      1.0  0.68210  0.21450  0.96130  1.0000 -0.1293130651
N   N276      1.0  0.70860  0.19090  0.96330  1.0000 -0.0214514575
C   C537      1.0  0.70780  0.16860  0.93580  1.0000 -0.1182384227
C   C538      1.0  0.65980  0.20700  0.93220  1.0000 -0.1377881614
H   H340      1.0  0.61580  0.19950  0.88080  1.0000 0.0904473795
H   H341      1.0  0.63900  0.21900  0.92000  1.0000 0.1105011328
H   H342      1.0  0.72400  0.14500  0.93100  1.0000 0.262673629
C   C539      1.0  0.16300  0.66300  0.88460  1.0000 0.0539273433
C   C540      1.0  0.13080  0.67820  0.86920  1.0000 -0.2214459782
C   C541      1.0  0.17790  0.67790  0.91640  1.0000 0.0984719483
N   N277      1.0  0.18210  0.71450  0.96130  1.0000 -0.1377881614
N   N278      1.0  0.20860  0.69090  0.96330  1.0000 -0.0214514575
C   C542      1.0  0.20780  0.66860  0.93580  1.0000 -0.1182384227
C   C543      1.0  0.15980  0.70700  0.93220  1.0000 -0.1377881614
H   H343      1.0  0.11580  0.69950  0.88080  1.0000 0.0904473795
H   H344      1.0  0.13900  0.71900  0.92000  1.0000 0.1105011328
H   H345      1.0  0.22400  0.64500  0.93100  1.0000 0.262673629
C   C544      1.0  0.16300  0.16300  0.38460  1.0000 0.0539273433
C   C545      1.0  0.13080  0.17820  0.36920  1.0000 -0.2214459782
C   C546      1.0  0.17790  0.17790  0.41640  1.0000 0.0984719483
N   N279      1.0  0.18210  0.21450  0.46130  1.0000 -0.1377881614
N   N280      1.0  0.20860  0.19090  0.46330  1.0000 -0.0214514575
C   C547      1.0  0.20780  0.16860  0.43580  1.0000 -0.1182384227
C   C548      1.0  0.15980  0.20700  0.43220  1.0000 -0.1377881614
H   H346      1.0  0.11580  0.19950  0.38080  1.0000 0.0904473795
H   H347      1.0  0.13900  0.21900  0.42000  1.0000 0.1105011328
H   H348      1.0  0.22400  0.14500  0.43100  1.0000 0.262673629
C   C549      1.0  0.66300  0.33700  0.61540  1.0000 0.0539273433
C   C550      1.0  0.63080  0.32180  0.63080  1.0000 -0.2214459782
C   C551      1.0  0.67790  0.32210  0.58360  1.0000 0.0984719483
N   N281      1.0  0.68210  0.28550  0.53870  1.0000 -0.1377881614
N   N282      1.0  0.70860  0.30910  0.53670  1.0000 -0.0214514575
C   C552      1.0  0.70780  0.33140  0.56420  1.0000 -0.1182384227
C   C553      1.0  0.65980  0.29300  0.56780  1.0000 -0.1377881614
H   H349      1.0  0.61580  0.30050  0.61920  1.0000 0.0904473795
H   H350      1.0  0.63900  0.28100  0.58000  1.0000 0.1105011328
H   H351      1.0  0.72400  0.35500  0.56900  1.0000 0.262673629
C   C554      1.0  0.66300  0.83700  0.11540  1.0000 0.0539273433
C   C555      1.0  0.63080  0.82180  0.13080  1.0000 -0.2214459782
C   C556      1.0  0.67790  0.82210  0.08360  1.0000 0.0984719483
N   N283      1.0  0.68210  0.78550  0.03870  1.0000 -0.1377881614
N   N284      1.0  0.70860  0.80910  0.03670  1.0000 -0.0214514575
C   C557      1.0  0.70780  0.83140  0.06420  1.0000 -0.1182384227
C   C558      1.0  0.65980  0.79300  0.06780  1.0000 -0.1377881614
H   H352      1.0  0.61580  0.80050  0.11920  1.0000 0.0904473795
H   H353      1.0  0.63900  0.78100  0.08000  1.0000 0.1105011328
H   H354      1.0  0.72400  0.85500  0.06900  1.0000 0.262673629
C   C559      1.0  0.16300  0.33700  0.11540  1.0000 0.0539273433
C   C560      1.0  0.13080  0.32180  0.13080  1.0000 -0.2214459782
C   C561      1.0  0.17790  0.32210  0.08360  1.0000 0.0984719483
N   N285      1.0  0.18210  0.28550  0.03870  1.0000 -0.1377881614
N   N286      1.0  0.20860  0.30910  0.03670  1.0000 -0.0214514575
C   C562      1.0  0.20780  0.33140  0.06420  1.0000 -0.1182384227
C   C563      1.0  0.15980  0.29300  0.06780  1.0000 -0.1377881614
H   H355      1.0  0.11580  0.30050  0.11920  1.0000 0.0904473795
H   H356      1.0  0.13900  0.28100  0.08000  1.0000 0.1105011328
H   H357      1.0  0.22400  0.35500  0.06900  1.0000 0.262673629
C   C564      1.0  0.16300  0.83700  0.61540  1.0000 0.0539273433
C   C565      1.0  0.13080  0.82180  0.63080  1.0000 -0.2214459782
C   C566      1.0  0.17790  0.82210  0.58360  1.0000 0.0984719483
N   N287      1.0  0.18210  0.78550  0.53870  1.0000 -0.1377881614
N   N288      1.0  0.20860  0.80910  0.53670  1.0000 -0.0214514575
C   C567      1.0  0.20780  0.83140  0.56420  1.0000 -0.1182384227
C   C568      1.0  0.15980  0.79300  0.56780  1.0000 -0.1377881614
H   H358      1.0  0.11580  0.80050  0.61920  1.0000 0.0904473795
H   H359      1.0  0.13900  0.78100  0.58000  1.0000 0.1105011328
H   H360      1.0  0.22400  0.85500  0.56900  1.0000 0.262673629
C   C569      1.0  0.33700  0.33700  0.38460  1.0000 0.0539273433
C   C570      1.0  0.36920  0.32180  0.36920  1.0000 -0.2214459782
C   C571      1.0  0.32210  0.32210  0.41640  1.0000 0.0984719483
N   N289      1.0  0.31790  0.28550  0.46130  1.0000 -0.1377881614
N   N290      1.0  0.29140  0.30910  0.46330  1.0000 -0.0214514575
C   C572      1.0  0.29220  0.33140  0.43580  1.0000 -0.1182384227
C   C573      1.0  0.34020  0.29300  0.43220  1.0000 -0.1377881614
H   H361      1.0  0.38420  0.30050  0.38080  1.0000 0.0904473795
H   H362      1.0  0.36100  0.28100  0.42000  1.0000 0.1105011328
H   H363      1.0  0.27600  0.35500  0.43100  1.0000 0.262673629
C   C574      1.0  0.33700  0.83700  0.88460  1.0000 0.0539273433
C   C575      1.0  0.36920  0.82180  0.86920  1.0000 -0.2214459782
C   C576      1.0  0.32210  0.82210  0.91640  1.0000 0.0984719483
N   N291      1.0  0.31790  0.78550  0.96130  1.0000 -0.1377881614
N   N292      1.0  0.29140  0.80910  0.96330  1.0000 -0.0214514575
C   C577      1.0  0.29220  0.83140  0.93580  1.0000 -0.1182384227
C   C578      1.0  0.34020  0.79300  0.93220  1.0000 -0.1377881614
H   H364      1.0  0.38420  0.80050  0.88080  1.0000 0.0904473795
H   H365      1.0  0.36100  0.78100  0.92000  1.0000 0.1105011328
H   H366      1.0  0.27600  0.85500  0.93100  1.0000 0.262673629
C   C579      1.0  0.83700  0.33700  0.88460  1.0000 0.0539273433
C   C580      1.0  0.86920  0.32180  0.86920  1.0000 -0.2214459782
C   C581      1.0  0.82210  0.32210  0.91640  1.0000 0.0984719483
N   N293      1.0  0.81790  0.28550  0.96130  1.0000 -0.1293130651
N   N294      1.0  0.79140  0.30910  0.96330  1.0000 -0.0214514575
C   C582      1.0  0.79220  0.33140  0.93580  1.0000 -0.1182384227
C   C583      1.0  0.84020  0.29300  0.93220  1.0000 -0.1377881614
H   H367      1.0  0.88420  0.30050  0.88080  1.0000 0.0904473795
H   H368      1.0  0.86100  0.28100  0.92000  1.0000 0.1105011328
H   H369      1.0  0.77600  0.35500  0.93100  1.0000 0.262673629
C   C584      1.0  0.83700  0.83700  0.38460  1.0000 0.0539273433
C   C585      1.0  0.86920  0.82180  0.36920  1.0000 -0.2214459782
C   C586      1.0  0.82210  0.82210  0.41640  1.0000 0.0984719483
N   N295      1.0  0.81790  0.78550  0.46130  1.0000 -0.1293130651
N   N296      1.0  0.79140  0.80910  0.46330  1.0000 -0.0214514575
C   C587      1.0  0.79220  0.83140  0.43580  1.0000 -0.1182384227
C   C588      1.0  0.84020  0.79300  0.43220  1.0000 -0.1377881614
H   H370      1.0  0.88420  0.80050  0.38080  1.0000 0.0904473795
H   H371      1.0  0.86100  0.78100  0.42000  1.0000 0.1105011328
H   H372      1.0  0.77600  0.85500  0.43100  1.0000 0.262673629
C   C589      1.0  0.33700  0.66300  0.61540  1.0000 0.0539273433
C   C590      1.0  0.36920  0.67820  0.63080  1.0000 -0.2214459782
C   C591      1.0  0.32210  0.67790  0.58360  1.0000 0.0984719483
N   N297      1.0  0.31790  0.71450  0.53870  1.0000 -0.1377881614
N   N298      1.0  0.29140  0.69090  0.53670  1.0000 -0.0214514575
C   C592      1.0  0.29220  0.66860  0.56420  1.0000 -0.1182384227
C   C593      1.0  0.34020  0.70700  0.56780  1.0000 -0.1377881614
H   H373      1.0  0.38420  0.69950  0.61920  1.0000 0.0904473795
H   H374      1.0  0.36100  0.71900  0.58000  1.0000 0.1105011328
H   H375      1.0  0.27600  0.64500  0.56900  1.0000 0.262673629
C   C594      1.0  0.33700  0.16300  0.11540  1.0000 0.0539273433
C   C595      1.0  0.36920  0.17820  0.13080  1.0000 -0.2214459782
C   C596      1.0  0.32210  0.17790  0.08360  1.0000 0.0984719483
N   N299      1.0  0.31790  0.21450  0.03870  1.0000 -0.1377881614
N   N300      1.0  0.29140  0.19090  0.03670  1.0000 -0.0214514575
C   C597      1.0  0.29220  0.16860  0.06420  1.0000 -0.1182384227
C   C598      1.0  0.34020  0.20700  0.06780  1.0000 -0.1377881614
H   H376      1.0  0.38420  0.19950  0.11920  1.0000 0.0904473795
H   H377      1.0  0.36100  0.21900  0.08000  1.0000 0.1105011328
H   H378      1.0  0.27600  0.14500  0.06900  1.0000 0.262673629
C   C599      1.0  0.83700  0.66300  0.11540  1.0000 0.0539273433
C   C600      1.0  0.86920  0.67820  0.13080  1.0000 -0.2214459782
C   C601      1.0  0.82210  0.67790  0.08360  1.0000 0.0984719483
N   N301      1.0  0.81790  0.71450  0.03870  1.0000 -0.1293130651
N   N302      1.0  0.79140  0.69090  0.03670  1.0000 -0.0214514575
C   C602      1.0  0.79220  0.66860  0.06420  1.0000 -0.1182384227
C   C603      1.0  0.84020  0.70700  0.06780  1.0000 -0.1377881614
H   H379      1.0  0.88420  0.69950  0.11920  1.0000 0.0904473795
H   H380      1.0  0.86100  0.71900  0.08000  1.0000 0.1105011328
H   H381      1.0  0.77600  0.64500  0.06900  1.0000 0.262673629
C   C604      1.0  0.83700  0.16300  0.61540  1.0000 0.0539273433
C   C605      1.0  0.86920  0.17820  0.63080  1.0000 -0.2214459782
C   C606      1.0  0.82210  0.17790  0.58360  1.0000 0.0984719483
N   N303      1.0  0.81790  0.21450  0.53870  1.0000 -0.1293130651
N   N304      1.0  0.79140  0.19090  0.53670  1.0000 -0.0214514575
C   C607      1.0  0.79220  0.16860  0.56420  1.0000 -0.1182384227
C   C608      1.0  0.84020  0.20700  0.56780  1.0000 -0.1377881614
H   H382      1.0  0.88420  0.19950  0.61920  1.0000 0.0904473795
H   H383      1.0  0.86100  0.21900  0.58000  1.0000 0.1105011328
H   H384      1.0  0.77600  0.14500  0.56900  1.0000 0.262673629
C   C609      1.0  0.38460  0.66300  0.66300  1.0000 0.1105011328
C   C610      1.0  0.36920  0.63080  0.67820  1.0000 -0.2326975653
C   C611      1.0  0.41640  0.67790  0.67790  1.0000 -0.0418744781
N   N305      1.0  0.46130  0.68210  0.71450  1.0000 -0.1182384227
N   N306      1.0  0.46330  0.70860  0.69090  1.0000 -0.1088234145
C   C612      1.0  0.43220  0.65980  0.70700  1.0000 -0.0910881134
H   H385      1.0  0.38080  0.61580  0.69950  1.0000 0.0904473795
H   H386      1.0  0.42000  0.63900  0.71900  1.0000 0.0904473795
H   H387      1.0  0.43100  0.72400  0.64500  1.0000 0.0904473795
C   C613      1.0  0.38460  0.16300  0.16300  1.0000 0.1105011328
C   C614      1.0  0.36920  0.13080  0.17820  1.0000 -0.2326975653
C   C615      1.0  0.41640  0.17790  0.17790  1.0000 -0.0418744781
N   N307      1.0  0.46130  0.18210  0.21450  1.0000 -0.1182384227
N   N308      1.0  0.46330  0.20860  0.19090  1.0000 -0.1088234145
C   C616      1.0  0.43220  0.15980  0.20700  1.0000 -0.0910881134
H   H388      1.0  0.38080  0.11580  0.19950  1.0000 0.0904473795
H   H389      1.0  0.42000  0.13900  0.21900  1.0000 0.0904473795
H   H390      1.0  0.43100  0.22400  0.14500  1.0000 0.0904473795
C   C617      1.0  0.88460  0.66300  0.16300  1.0000 0.1105011328
C   C618      1.0  0.86920  0.63080  0.17820  1.0000 -0.2326975653
C   C619      1.0  0.91640  0.67790  0.17790  1.0000 -0.0418744781
N   N309      1.0  0.96130  0.68210  0.21450  1.0000 -0.1182384227
N   N310      1.0  0.96330  0.70860  0.19090  1.0000 -0.1088234145
C   C620      1.0  0.93220  0.65980  0.20700  1.0000 -0.0910881134
H   H391      1.0  0.88080  0.61580  0.19950  1.0000 0.0904473795
H   H392      1.0  0.92000  0.63900  0.21900  1.0000 0.0904473795
H   H393      1.0  0.93100  0.72400  0.14500  1.0000 0.0904473795
C   C621      1.0  0.88460  0.16300  0.66300  1.0000 0.1105011328
C   C622      1.0  0.86920  0.13080  0.67820  1.0000 -0.2326975653
C   C623      1.0  0.91640  0.17790  0.67790  1.0000 -0.0418744781
N   N311      1.0  0.96130  0.18210  0.71450  1.0000 -0.1182384227
N   N312      1.0  0.96330  0.20860  0.69090  1.0000 -0.1088234145
C   C624      1.0  0.93220  0.15980  0.70700  1.0000 -0.0910881134
H   H394      1.0  0.88080  0.11580  0.69950  1.0000 0.0904473795
H   H395      1.0  0.92000  0.13900  0.71900  1.0000 0.0904473795
H   H396      1.0  0.93100  0.22400  0.64500  1.0000 0.0904473795
C   C625      1.0  0.61540  0.66300  0.33700  1.0000 0.1105011328
C   C626      1.0  0.63080  0.63080  0.32180  1.0000 -0.2326975653
C   C627      1.0  0.58360  0.67790  0.32210  1.0000 -0.0418744781
N   N313      1.0  0.53870  0.68210  0.28550  1.0000 -0.1182384227
N   N314      1.0  0.53670  0.70860  0.30910  1.0000 -0.1088234145
C   C628      1.0  0.56780  0.65980  0.29300  1.0000 -0.0910881134
H   H397      1.0  0.61920  0.61580  0.30050  1.0000 0.0904473795
H   H398      1.0  0.58000  0.63900  0.28100  1.0000 0.0904473795
H   H399      1.0  0.56900  0.72400  0.35500  1.0000 0.0904473795
C   C629      1.0  0.61540  0.16300  0.83700  1.0000 0.1105011328
C   C630      1.0  0.63080  0.13080  0.82180  1.0000 -0.2326975653
C   C631      1.0  0.58360  0.17790  0.82210  1.0000 -0.0418744781
N   N315      1.0  0.53870  0.18210  0.78550  1.0000 -0.1182384227
N   N316      1.0  0.53670  0.20860  0.80910  1.0000 -0.1088234145
C   C632      1.0  0.56780  0.15980  0.79300  1.0000 -0.0910881134
H   H400      1.0  0.61920  0.11580  0.80050  1.0000 0.0904473795
H   H401      1.0  0.58000  0.13900  0.78100  1.0000 0.0904473795
H   H402      1.0  0.56900  0.22400  0.85500  1.0000 0.0904473795
C   C633      1.0  0.11540  0.66300  0.83700  1.0000 0.1105011328
C   C634      1.0  0.13080  0.63080  0.82180  1.0000 -0.2326975653
C   C635      1.0  0.08360  0.67790  0.82210  1.0000 -0.0418744781
N   N317      1.0  0.03870  0.68210  0.78550  1.0000 -0.1182384227
N   N318      1.0  0.03670  0.70860  0.80910  1.0000 -0.1088234145
C   C636      1.0  0.06780  0.65980  0.79300  1.0000 -0.0910881134
H   H403      1.0  0.11920  0.61580  0.80050  1.0000 0.0904473795
H   H404      1.0  0.08000  0.63900  0.78100  1.0000 0.0904473795
H   H405      1.0  0.06900  0.72400  0.85500  1.0000 0.0904473795
C   C637      1.0  0.11540  0.16300  0.33700  1.0000 0.1105011328
C   C638      1.0  0.13080  0.13080  0.32180  1.0000 -0.2326975653
C   C639      1.0  0.08360  0.17790  0.32210  1.0000 -0.0418744781
N   N319      1.0  0.03870  0.18210  0.28550  1.0000 -0.1182384227
N   N320      1.0  0.03670  0.20860  0.30910  1.0000 -0.1088234145
C   C640      1.0  0.06780  0.15980  0.29300  1.0000 -0.0910881134
H   H406      1.0  0.11920  0.11580  0.30050  1.0000 0.0904473795
H   H407      1.0  0.08000  0.13900  0.28100  1.0000 0.0904473795
H   H408      1.0  0.06900  0.22400  0.35500  1.0000 0.0904473795
C   C641      1.0  0.38460  0.33700  0.33700  1.0000 0.1105011328
C   C642      1.0  0.36920  0.36920  0.32180  1.0000 -0.2326975653
C   C643      1.0  0.41640  0.32210  0.32210  1.0000 -0.0418744781
N   N321      1.0  0.46130  0.31790  0.28550  1.0000 -0.1182384227
N   N322      1.0  0.46330  0.29140  0.30910  1.0000 -0.1088234145
C   C644      1.0  0.43220  0.34020  0.29300  1.0000 -0.0910881134
H   H409      1.0  0.38080  0.38420  0.30050  1.0000 0.0904473795
H   H410      1.0  0.42000  0.36100  0.28100  1.0000 0.0904473795
H   H411      1.0  0.43100  0.27600  0.35500  1.0000 0.0904473795
C   C645      1.0  0.38460  0.83700  0.83700  1.0000 0.1105011328
C   C646      1.0  0.36920  0.86920  0.82180  1.0000 -0.2326975653
C   C647      1.0  0.41640  0.82210  0.82210  1.0000 -0.0418744781
N   N323      1.0  0.46130  0.81790  0.78550  1.0000 -0.1182384227
N   N324      1.0  0.46330  0.79140  0.80910  1.0000 -0.1088234145
C   C648      1.0  0.43220  0.84020  0.79300  1.0000 -0.0910881134
H   H412      1.0  0.38080  0.88420  0.80050  1.0000 0.0904473795
H   H413      1.0  0.42000  0.86100  0.78100  1.0000 0.0904473795
H   H414      1.0  0.43100  0.77600  0.85500  1.0000 0.0904473795
C   C649      1.0  0.88460  0.33700  0.83700  1.0000 0.1105011328
C   C650      1.0  0.86920  0.36920  0.82180  1.0000 -0.2326975653
C   C651      1.0  0.91640  0.32210  0.82210  1.0000 -0.0418744781
N   N325      1.0  0.96130  0.31790  0.78550  1.0000 -0.1182384227
N   N326      1.0  0.96330  0.29140  0.80910  1.0000 -0.1088234145
C   C652      1.0  0.93220  0.34020  0.79300  1.0000 -0.0910881134
H   H415      1.0  0.88080  0.38420  0.80050  1.0000 0.0904473795
H   H416      1.0  0.92000  0.36100  0.78100  1.0000 0.0904473795
H   H417      1.0  0.93100  0.27600  0.85500  1.0000 0.0904473795
C   C653      1.0  0.88460  0.83700  0.33700  1.0000 0.1105011328
C   C654      1.0  0.86920  0.86920  0.32180  1.0000 -0.2326975653
C   C655      1.0  0.91640  0.82210  0.32210  1.0000 -0.0418744781
N   N327      1.0  0.96130  0.81790  0.28550  1.0000 -0.1182384227
N   N328      1.0  0.96330  0.79140  0.30910  1.0000 -0.1088234145
C   C656      1.0  0.93220  0.84020  0.29300  1.0000 -0.0910881134
H   H418      1.0  0.88080  0.88420  0.30050  1.0000 0.0904473795
H   H419      1.0  0.92000  0.86100  0.28100  1.0000 0.0904473795
H   H420      1.0  0.93100  0.77600  0.35500  1.0000 0.0904473795
C   C657      1.0  0.61540  0.33700  0.66300  1.0000 0.1105011328
C   C658      1.0  0.63080  0.36920  0.67820  1.0000 -0.2326975653
C   C659      1.0  0.58360  0.32210  0.67790  1.0000 -0.0418744781
N   N329      1.0  0.53870  0.31790  0.71450  1.0000 -0.1182384227
N   N330      1.0  0.53670  0.29140  0.69090  1.0000 -0.1088234145
C   C660      1.0  0.56780  0.34020  0.70700  1.0000 -0.0910881134
H   H421      1.0  0.61920  0.38420  0.69950  1.0000 0.0904473795
H   H422      1.0  0.58000  0.36100  0.71900  1.0000 0.0904473795
H   H423      1.0  0.56900  0.27600  0.64500  1.0000 0.0904473795
C   C661      1.0  0.61540  0.83700  0.16300  1.0000 0.1105011328
C   C662      1.0  0.63080  0.86920  0.17820  1.0000 -0.2326975653
C   C663      1.0  0.58360  0.82210  0.17790  1.0000 -0.0418744781
N   N331      1.0  0.53870  0.81790  0.21450  1.0000 -0.1182384227
N   N332      1.0  0.53670  0.79140  0.19090  1.0000 -0.1088234145
C   C664      1.0  0.56780  0.84020  0.20700  1.0000 -0.0910881134
H   H424      1.0  0.61920  0.88420  0.19950  1.0000 0.0904473795
H   H425      1.0  0.58000  0.86100  0.21900  1.0000 0.0904473795
H   H426      1.0  0.56900  0.77600  0.14500  1.0000 0.0904473795
C   C665      1.0  0.11540  0.33700  0.16300  1.0000 0.1105011328
C   C666      1.0  0.13080  0.36920  0.17820  1.0000 -0.2326975653
C   C667      1.0  0.08360  0.32210  0.17790  1.0000 -0.0418744781
N   N333      1.0  0.03870  0.31790  0.21450  1.0000 -0.1182384227
N   N334      1.0  0.03670  0.29140  0.19090  1.0000 -0.1088234145
C   C668      1.0  0.06780  0.34020  0.20700  1.0000 -0.0910881134
H   H427      1.0  0.11920  0.38420  0.19950  1.0000 0.0904473795
H   H428      1.0  0.08000  0.36100  0.21900  1.0000 0.0904473795
H   H429      1.0  0.06900  0.27600  0.14500  1.0000 0.0904473795
C   C669      1.0  0.11540  0.83700  0.66300  1.0000 0.1105011328
C   C670      1.0  0.13080  0.86920  0.67820  1.0000 -0.2326975653
C   C671      1.0  0.08360  0.82210  0.67790  1.0000 -0.0418744781
N   N335      1.0  0.03870  0.81790  0.71450  1.0000 -0.1182384227
N   N336      1.0  0.03670  0.79140  0.69090  1.0000 -0.1088234145
C   C672      1.0  0.06780  0.84020  0.70700  1.0000 -0.0910881134
H   H430      1.0  0.11920  0.88420  0.69950  1.0000 0.0904473795
H   H431      1.0  0.08000  0.86100  0.71900  1.0000 0.0904473795
H   H432      1.0  0.06900  0.77600  0.64500  1.0000 0.0904473795
C   C673      1.0  0.88460  0.16300  0.83700  1.0000 0.0569032035
C   C674      1.0  0.86920  0.17820  0.86920  1.0000 -0.2326975653
C   C675      1.0  0.91640  0.17790  0.82210  1.0000 0.0984719483
N   N337      1.0  0.96130  0.21450  0.81790  1.0000 -0.1088234145
N   N338      1.0  0.96330  0.19090  0.79140  1.0000 -0.0214514575
C   C676      1.0  0.93580  0.16860  0.79220  1.0000 -0.1182384227
C   C677      1.0  0.93220  0.20700  0.84020  1.0000 -0.1293130651
H   H433      1.0  0.88080  0.19950  0.88420  1.0000 0.0904473795
N   N339      1.0  0.79220  0.06420  0.83140  1.0000 -0.0214514575
H   H434      1.0  0.92000  0.21900  0.86100  1.0000 0.1105011328
H   H435      1.0  0.93100  0.14500  0.77600  1.0000 0.262673629
C   C678      1.0  0.88460  0.66300  0.33700  1.0000 0.0569032035
C   C679      1.0  0.86920  0.67820  0.36920  1.0000 -0.2356047974
C   C680      1.0  0.91640  0.67790  0.32210  1.0000 0.0984719483
N   N340      1.0  0.96130  0.71450  0.31790  1.0000 -0.1088234145
N   N341      1.0  0.96330  0.69090  0.29140  1.0000 -0.0214514575
C   C681      1.0  0.93580  0.66860  0.29220  1.0000 -0.1182384227
C   C682      1.0  0.93220  0.70700  0.34020  1.0000 -0.1293130651
H   H436      1.0  0.88080  0.69950  0.38420  1.0000 0.0904473795
N   N342      1.0  0.79220  0.56420  0.33140  1.0000 -0.0214514575
H   H437      1.0  0.92000  0.71900  0.36100  1.0000 0.1105011328
H   H438      1.0  0.93100  0.64500  0.27600  1.0000 0.262673629
C   C683      1.0  0.38460  0.16300  0.33700  1.0000 0.0569032035
C   C684      1.0  0.36920  0.17820  0.36920  1.0000 -0.2326975653
C   C685      1.0  0.41640  0.17790  0.32210  1.0000 0.0984719483
N   N343      1.0  0.46130  0.21450  0.31790  1.0000 -0.1088234145
N   N344      1.0  0.46330  0.19090  0.29140  1.0000 -0.0214514575
C   C686      1.0  0.43580  0.16860  0.29220  1.0000 -0.1182384227
C   C687      1.0  0.43220  0.20700  0.34020  1.0000 -0.1293130651
H   H439      1.0  0.38080  0.19950  0.38420  1.0000 0.0904473795
N   N345      1.0  0.29220  0.06420  0.33140  1.0000 -0.0214514575
H   H440      1.0  0.42000  0.21900  0.36100  1.0000 0.1105011328
H   H441      1.0  0.43100  0.14500  0.27600  1.0000 0.262673629
C   C688      1.0  0.38460  0.66300  0.83700  1.0000 0.0569032035
C   C689      1.0  0.36920  0.67820  0.86920  1.0000 -0.2326975653
C   C690      1.0  0.41640  0.67790  0.82210  1.0000 0.0984719483
N   N346      1.0  0.46130  0.71450  0.81790  1.0000 -0.1088234145
N   N347      1.0  0.46330  0.69090  0.79140  1.0000 -0.0214514575
C   C691      1.0  0.43580  0.66860  0.79220  1.0000 -0.1182384227
C   C692      1.0  0.43220  0.70700  0.84020  1.0000 -0.1293130651
H   H442      1.0  0.38080  0.69950  0.88420  1.0000 0.0904473795
N   N348      1.0  0.29220  0.56420  0.83140  1.0000 -0.0214514575
H   H443      1.0  0.42000  0.71900  0.86100  1.0000 0.1105011328
H   H444      1.0  0.43100  0.64500  0.77600  1.0000 0.262673629
C   C693      1.0  0.11540  0.83700  0.83700  1.0000 0.0569032035
C   C694      1.0  0.13080  0.82180  0.86920  1.0000 -0.2326975653
C   C695      1.0  0.08360  0.82210  0.82210  1.0000 0.0984719483
N   N349      1.0  0.03870  0.78550  0.81790  1.0000 -0.1088234145
N   N350      1.0  0.03670  0.80910  0.79140  1.0000 -0.0214514575
C   C696      1.0  0.06420  0.83140  0.79220  1.0000 -0.1182384227
C   C697      1.0  0.06780  0.79300  0.84020  1.0000 -0.1293130651
H   H445      1.0  0.11920  0.80050  0.88420  1.0000 0.0904473795
N   N351      1.0  0.20780  0.93580  0.83140  1.0000 -0.0214514575
H   H446      1.0  0.08000  0.78100  0.86100  1.0000 0.1105011328
H   H447      1.0  0.06900  0.85500  0.77600  1.0000 0.262673629
C   C698      1.0  0.11540  0.33700  0.33700  1.0000 0.0569032035
C   C699      1.0  0.13080  0.32180  0.36920  1.0000 -0.2326975653
C   C700      1.0  0.08360  0.32210  0.32210  1.0000 0.0984719483
N   N352      1.0  0.03870  0.28550  0.31790  1.0000 -0.1088234145
N   N353      1.0  0.03670  0.30910  0.29140  1.0000 -0.0214514575
C   C701      1.0  0.06420  0.33140  0.29220  1.0000 -0.1182384227
C   C702      1.0  0.06780  0.29300  0.34020  1.0000 -0.1293130651
H   H448      1.0  0.11920  0.30050  0.38420  1.0000 0.0904473795
N   N354      1.0  0.20780  0.43580  0.33140  1.0000 -0.0214514575
H   H449      1.0  0.08000  0.28100  0.36100  1.0000 0.1105011328
H   H450      1.0  0.06900  0.35500  0.27600  1.0000 0.262673629
C   C703      1.0  0.61540  0.83700  0.33700  1.0000 0.0569032035
C   C704      1.0  0.63080  0.82180  0.36920  1.0000 -0.2326975653
C   C705      1.0  0.58360  0.82210  0.32210  1.0000 0.0984719483
N   N355      1.0  0.53870  0.78550  0.31790  1.0000 -0.1088234145
N   N356      1.0  0.53670  0.80910  0.29140  1.0000 -0.0214514575
C   C706      1.0  0.56420  0.83140  0.29220  1.0000 -0.1182384227
C   C707      1.0  0.56780  0.79300  0.34020  1.0000 -0.1293130651
H   H451      1.0  0.61920  0.80050  0.38420  1.0000 0.0904473795
N   N357      1.0  0.70780  0.93580  0.33140  1.0000 -0.0214514575
H   H452      1.0  0.58000  0.78100  0.36100  1.0000 0.1105011328
H   H453      1.0  0.56900  0.85500  0.27600  1.0000 0.262673629
C   C708      1.0  0.61540  0.33700  0.83700  1.0000 0.0569032035
C   C709      1.0  0.63080  0.32180  0.86920  1.0000 -0.2326975653
C   C710      1.0  0.58360  0.32210  0.82210  1.0000 0.0984719483
N   N358      1.0  0.53870  0.28550  0.81790  1.0000 -0.1088234145
N   N359      1.0  0.53670  0.30910  0.79140  1.0000 -0.0214514575
C   C711      1.0  0.56420  0.33140  0.79220  1.0000 -0.1182384227
C   C712      1.0  0.56780  0.29300  0.84020  1.0000 -0.1293130651
H   H454      1.0  0.61920  0.30050  0.88420  1.0000 0.0904473795
N   N360      1.0  0.70780  0.43580  0.83140  1.0000 -0.0214514575
H   H455      1.0  0.58000  0.28100  0.86100  1.0000 0.1105011328
H   H456      1.0  0.56900  0.35500  0.77600  1.0000 0.262673629
C   C713      1.0  0.88460  0.83700  0.16300  1.0000 0.0569032035
C   C714      1.0  0.86920  0.82180  0.13080  1.0000 -0.2356047974
C   C715      1.0  0.91640  0.82210  0.17790  1.0000 0.0984719483
N   N361      1.0  0.96130  0.78550  0.18210  1.0000 -0.1088234145
N   N362      1.0  0.96330  0.80910  0.20860  1.0000 -0.0214514575
C   C716      1.0  0.93580  0.83140  0.20780  1.0000 -0.1182384227
C   C717      1.0  0.93220  0.79300  0.15980  1.0000 -0.1293130651
H   H457      1.0  0.88080  0.80050  0.11580  1.0000 0.0904473795
N   N363      1.0  0.79220  0.93580  0.16860  1.0000 -0.0214514575
H   H458      1.0  0.92000  0.78100  0.13900  1.0000 0.1105011328
H   H459      1.0  0.93100  0.85500  0.22400  1.0000 0.262673629
C   C718      1.0  0.88460  0.33700  0.66300  1.0000 0.0569032035
C   C719      1.0  0.86920  0.32180  0.63080  1.0000 -0.2356047974
C   C720      1.0  0.91640  0.32210  0.67790  1.0000 0.0984719483
N   N364      1.0  0.96130  0.28550  0.68210  1.0000 -0.1088234145
N   N365      1.0  0.96330  0.30910  0.70860  1.0000 -0.0214514575
C   C721      1.0  0.93580  0.33140  0.70780  1.0000 -0.1182384227
C   C722      1.0  0.93220  0.29300  0.65980  1.0000 -0.1293130651
H   H460      1.0  0.88080  0.30050  0.61580  1.0000 0.0904473795
N   N366      1.0  0.79220  0.43580  0.66860  1.0000 -0.0214514575
H   H461      1.0  0.92000  0.28100  0.63900  1.0000 0.1105011328
H   H462      1.0  0.93100  0.35500  0.72400  1.0000 0.262673629
C   C723      1.0  0.38460  0.83700  0.66300  1.0000 0.0569032035
C   C724      1.0  0.36920  0.82180  0.63080  1.0000 -0.2326975653
C   C725      1.0  0.41640  0.82210  0.67790  1.0000 0.0984719483
N   N367      1.0  0.46130  0.78550  0.68210  1.0000 -0.1088234145
N   N368      1.0  0.46330  0.80910  0.70860  1.0000 -0.0214514575
C   C726      1.0  0.43580  0.83140  0.70780  1.0000 -0.1182384227
C   C727      1.0  0.43220  0.79300  0.65980  1.0000 -0.1293130651
H   H463      1.0  0.38080  0.80050  0.61580  1.0000 0.0904473795
N   N369      1.0  0.29220  0.93580  0.66860  1.0000 -0.0214514575
H   H464      1.0  0.42000  0.78100  0.63900  1.0000 0.1105011328
H   H465      1.0  0.43100  0.85500  0.72400  1.0000 0.262673629
C   C728      1.0  0.38460  0.33700  0.16300  1.0000 0.0569032035
C   C729      1.0  0.36920  0.32180  0.13080  1.0000 -0.2356047974
C   C730      1.0  0.41640  0.32210  0.17790  1.0000 0.0984719483
N   N370      1.0  0.46130  0.28550  0.18210  1.0000 -0.1088234145
N   N371      1.0  0.46330  0.30910  0.20860  1.0000 -0.0214514575
C   C731      1.0  0.43580  0.33140  0.20780  1.0000 -0.1182384227
C   C732      1.0  0.43220  0.29300  0.15980  1.0000 -0.1293130651
H   H466      1.0  0.38080  0.30050  0.11580  1.0000 0.0904473795
N   N372      1.0  0.29220  0.43580  0.16860  1.0000 -0.0214514575
H   H467      1.0  0.42000  0.28100  0.13900  1.0000 0.1105011328
H   H468      1.0  0.43100  0.35500  0.22400  1.0000 0.262673629
C   C733      1.0  0.11540  0.16300  0.16300  1.0000 0.0569032035
C   C734      1.0  0.13080  0.17820  0.13080  1.0000 -0.2356047974
C   C735      1.0  0.08360  0.17790  0.17790  1.0000 0.0984719483
N   N373      1.0  0.03870  0.21450  0.18210  1.0000 -0.1088234145
N   N374      1.0  0.03670  0.19090  0.20860  1.0000 -0.0214514575
C   C736      1.0  0.06420  0.16860  0.20780  1.0000 -0.1182384227
C   C737      1.0  0.06780  0.20700  0.15980  1.0000 -0.1293130651
H   H469      1.0  0.11920  0.19950  0.11580  1.0000 0.0904473795
N   N375      1.0  0.20780  0.06420  0.16860  1.0000 -0.0214514575
H   H470      1.0  0.08000  0.21900  0.13900  1.0000 0.1105011328
H   H471      1.0  0.06900  0.14500  0.22400  1.0000 0.262673629
C   C738      1.0  0.11540  0.66300  0.66300  1.0000 0.0569032035
C   C739      1.0  0.13080  0.67820  0.63080  1.0000 -0.2326975653
C   C740      1.0  0.08360  0.67790  0.67790  1.0000 0.0984719483
N   N376      1.0  0.03870  0.71450  0.68210  1.0000 -0.1088234145
N   N377      1.0  0.03670  0.69090  0.70860  1.0000 -0.0214514575
C   C741      1.0  0.06420  0.66860  0.70780  1.0000 -0.1182384227
C   C742      1.0  0.06780  0.70700  0.65980  1.0000 -0.1293130651
H   H472      1.0  0.11920  0.69950  0.61580  1.0000 0.0904473795
N   N378      1.0  0.20780  0.56420  0.66860  1.0000 -0.0214514575
H   H473      1.0  0.08000  0.71900  0.63900  1.0000 0.1105011328
H   H474      1.0  0.06900  0.64500  0.72400  1.0000 0.262673629
C   C743      1.0  0.61540  0.16300  0.66300  1.0000 0.0569032035
C   C744      1.0  0.63080  0.17820  0.63080  1.0000 -0.2326975653
C   C745      1.0  0.58360  0.17790  0.67790  1.0000 0.0984719483
N   N379      1.0  0.53870  0.21450  0.68210  1.0000 -0.1088234145
N   N380      1.0  0.53670  0.19090  0.70860  1.0000 -0.0214514575
C   C746      1.0  0.56420  0.16860  0.70780  1.0000 -0.1182384227
C   C747      1.0  0.56780  0.20700  0.65980  1.0000 -0.1293130651
H   H475      1.0  0.61920  0.19950  0.61580  1.0000 0.0904473795
N   N381      1.0  0.70780  0.06420  0.66860  1.0000 -0.0214514575
H   H476      1.0  0.58000  0.21900  0.63900  1.0000 0.1105011328
H   H477      1.0  0.56900  0.14500  0.72400  1.0000 0.262673629
C   C748      1.0  0.61540  0.66300  0.16300  1.0000 0.0569032035
C   C749      1.0  0.63080  0.67820  0.13080  1.0000 -0.2356047974
C   C750      1.0  0.58360  0.67790  0.17790  1.0000 0.0984719483
N   N382      1.0  0.53870  0.71450  0.18210  1.0000 -0.1088234145
N   N383      1.0  0.53670  0.69090  0.20860  1.0000 -0.0214514575
C   C751      1.0  0.56420  0.66860  0.20780  1.0000 -0.1182384227
C   C752      1.0  0.56780  0.70700  0.15980  1.0000 -0.1293130651
H   H478      1.0  0.61920  0.69950  0.11580  1.0000 0.0904473795
N   N384      1.0  0.70780  0.56420  0.16860  1.0000 -0.0214514575
H   H479      1.0  0.58000  0.71900  0.13900  1.0000 0.1105011328
H   H480      1.0  0.56900  0.64500  0.22400  1.0000 0.262673629
C   C753      1.0  0.16300  0.16300  0.11540  1.0000 0.0539273433
C   C754      1.0  0.17820  0.13080  0.13080  1.0000 -0.2214459782
C   C755      1.0  0.17790  0.17790  0.08360  1.0000 0.0984719483
N   N385      1.0  0.21450  0.18210  0.03870  1.0000 -0.1377881614
N   N386      1.0  0.19090  0.20860  0.03670  1.0000 -0.0214514575
C   C756      1.0  0.16860  0.20780  0.06420  1.0000 -0.1182384227
C   C757      1.0  0.20700  0.15980  0.06780  1.0000 -0.1377881614
H   H481      1.0  0.19950  0.11580  0.11920  1.0000 0.0904473795
H   H482      1.0  0.21900  0.13900  0.08000  1.0000 0.1105011328
H   H483      1.0  0.14500  0.22400  0.06900  1.0000 0.262673629
C   C758      1.0  0.16300  0.66300  0.61540  1.0000 0.0539273433
C   C759      1.0  0.17820  0.63080  0.63080  1.0000 -0.2214459782
C   C760      1.0  0.17790  0.67790  0.58360  1.0000 0.0984719483
N   N387      1.0  0.21450  0.68210  0.53870  1.0000 -0.1293130651
N   N388      1.0  0.19090  0.70860  0.53670  1.0000 -0.0214514575
C   C761      1.0  0.16860  0.70780  0.56420  1.0000 -0.1182384227
C   C762      1.0  0.20700  0.65980  0.56780  1.0000 -0.1377881614
H   H484      1.0  0.19950  0.61580  0.61920  1.0000 0.0904473795
H   H485      1.0  0.21900  0.63900  0.58000  1.0000 0.1105011328
H   H486      1.0  0.14500  0.72400  0.56900  1.0000 0.262673629
C   C763      1.0  0.66300  0.16300  0.61540  1.0000 0.0539273433
C   C764      1.0  0.67820  0.13080  0.63080  1.0000 -0.2214459782
C   C765      1.0  0.67790  0.17790  0.58360  1.0000 0.0984719483
N   N389      1.0  0.71450  0.18210  0.53870  1.0000 -0.1377881614
N   N390      1.0  0.69090  0.20860  0.53670  1.0000 -0.0214514575
C   C766      1.0  0.66860  0.20780  0.56420  1.0000 -0.1182384227
C   C767      1.0  0.70700  0.15980  0.56780  1.0000 -0.1377881614
H   H487      1.0  0.69950  0.11580  0.61920  1.0000 0.0904473795
H   H488      1.0  0.71900  0.13900  0.58000  1.0000 0.1105011328
H   H489      1.0  0.64500  0.22400  0.56900  1.0000 0.262673629
C   C768      1.0  0.66300  0.66300  0.11540  1.0000 0.0539273433
C   C769      1.0  0.67820  0.63080  0.13080  1.0000 -0.2214459782
C   C770      1.0  0.67790  0.67790  0.08360  1.0000 0.0984719483
N   N391      1.0  0.71450  0.68210  0.03870  1.0000 -0.1377881614
N   N392      1.0  0.69090  0.70860  0.03670  1.0000 -0.0214514575
C   C771      1.0  0.66860  0.70780  0.06420  1.0000 -0.1182384227
C   C772      1.0  0.70700  0.65980  0.06780  1.0000 -0.1377881614
H   H490      1.0  0.69950  0.61580  0.11920  1.0000 0.0904473795
H   H491      1.0  0.71900  0.63900  0.08000  1.0000 0.1105011328
H   H492      1.0  0.64500  0.72400  0.06900  1.0000 0.262673629
C   C773      1.0  0.83700  0.16300  0.88460  1.0000 0.0539273433
C   C774      1.0  0.82180  0.13080  0.86920  1.0000 -0.2214459782
C   C775      1.0  0.82210  0.17790  0.91640  1.0000 0.0984719483
N   N393      1.0  0.78550  0.18210  0.96130  1.0000 -0.1377881614
N   N394      1.0  0.80910  0.20860  0.96330  1.0000 -0.0214514575
C   C776      1.0  0.83140  0.20780  0.93580  1.0000 -0.1182384227
C   C777      1.0  0.79300  0.15980  0.93220  1.0000 -0.1377881614
H   H493      1.0  0.80050  0.11580  0.88080  1.0000 0.0904473795
H   H494      1.0  0.78100  0.13900  0.92000  1.0000 0.1105011328
H   H495      1.0  0.85500  0.22400  0.93100  1.0000 0.262673629
C   C778      1.0  0.83700  0.66300  0.38460  1.0000 0.0539273433
C   C779      1.0  0.82180  0.63080  0.36920  1.0000 -0.2214459782
C   C780      1.0  0.82210  0.67790  0.41640  1.0000 0.0984719483
N   N395      1.0  0.78550  0.68210  0.46130  1.0000 -0.1377881614
N   N396      1.0  0.80910  0.70860  0.46330  1.0000 -0.0214514575
C   C781      1.0  0.83140  0.70780  0.43580  1.0000 -0.1182384227
C   C782      1.0  0.79300  0.65980  0.43220  1.0000 -0.1377881614
H   H496      1.0  0.80050  0.61580  0.38080  1.0000 0.0904473795
H   H497      1.0  0.78100  0.63900  0.42000  1.0000 0.1105011328
H   H498      1.0  0.85500  0.72400  0.43100  1.0000 0.262673629
C   C783      1.0  0.33700  0.16300  0.38460  1.0000 0.0539273433
C   C784      1.0  0.32180  0.13080  0.36920  1.0000 -0.2214459782
C   C785      1.0  0.32210  0.17790  0.41640  1.0000 0.0984719483
N   N397      1.0  0.28550  0.18210  0.46130  1.0000 -0.1377881614
N   N398      1.0  0.30910  0.20860  0.46330  1.0000 -0.0214514575
C   C786      1.0  0.33140  0.20780  0.43580  1.0000 -0.1182384227
C   C787      1.0  0.29300  0.15980  0.43220  1.0000 -0.1377881614
H   H499      1.0  0.30050  0.11580  0.38080  1.0000 0.0904473795
H   H500      1.0  0.28100  0.13900  0.42000  1.0000 0.1105011328
H   H501      1.0  0.35500  0.22400  0.43100  1.0000 0.262673629
C   C788      1.0  0.33700  0.66300  0.88460  1.0000 0.0539273433
C   C789      1.0  0.32180  0.63080  0.86920  1.0000 -0.2214459782
C   C790      1.0  0.32210  0.67790  0.91640  1.0000 0.0984719483
N   N399      1.0  0.28550  0.68210  0.96130  1.0000 -0.1377881614
N   N400      1.0  0.30910  0.70860  0.96330  1.0000 -0.0214514575
C   C791      1.0  0.33140  0.70780  0.93580  1.0000 -0.1182384227
C   C792      1.0  0.29300  0.65980  0.93220  1.0000 -0.1377881614
H   H502      1.0  0.30050  0.61580  0.88080  1.0000 0.0904473795
H   H503      1.0  0.28100  0.63900  0.92000  1.0000 0.1105011328
H   H504      1.0  0.35500  0.72400  0.93100  1.0000 0.262673629
C   C793      1.0  0.83700  0.83700  0.11540  1.0000 0.0539273433
C   C794      1.0  0.82180  0.86920  0.13080  1.0000 -0.2214459782
C   C795      1.0  0.82210  0.82210  0.08360  1.0000 0.0984719483
N   N401      1.0  0.78550  0.81790  0.03870  1.0000 -0.1293130651
N   N402      1.0  0.80910  0.79140  0.03670  1.0000 -0.0214514575
C   C796      1.0  0.83140  0.79220  0.06420  1.0000 -0.1182384227
C   C797      1.0  0.79300  0.84020  0.06780  1.0000 -0.1377881614
H   H505      1.0  0.80050  0.88420  0.11920  1.0000 0.0904473795
H   H506      1.0  0.78100  0.86100  0.08000  1.0000 0.1105011328
H   H507      1.0  0.85500  0.77600  0.06900  1.0000 0.262673629
C   C798      1.0  0.83700  0.33700  0.61540  1.0000 0.0539273433
C   C799      1.0  0.82180  0.36920  0.63080  1.0000 -0.2214459782
C   C800      1.0  0.82210  0.32210  0.58360  1.0000 0.0984719483
N   N403      1.0  0.78550  0.31790  0.53870  1.0000 -0.1377881614
N   N404      1.0  0.80910  0.29140  0.53670  1.0000 -0.0214514575
C   C801      1.0  0.83140  0.29220  0.56420  1.0000 -0.1182384227
C   C802      1.0  0.79300  0.34020  0.56780  1.0000 -0.1377881614
H   H508      1.0  0.80050  0.38420  0.61920  1.0000 0.0904473795
H   H509      1.0  0.78100  0.36100  0.58000  1.0000 0.1105011328
H   H510      1.0  0.85500  0.27600  0.56900  1.0000 0.262673629
C   C803      1.0  0.33700  0.83700  0.61540  1.0000 0.0539273433
C   C804      1.0  0.32180  0.86920  0.63080  1.0000 -0.2214459782
C   C805      1.0  0.32210  0.82210  0.58360  1.0000 0.0984719483
N   N405      1.0  0.28550  0.81790  0.53870  1.0000 -0.1293130651
N   N406      1.0  0.30910  0.79140  0.53670  1.0000 -0.0214514575
C   C806      1.0  0.33140  0.79220  0.56420  1.0000 -0.1182384227
C   C807      1.0  0.29300  0.84020  0.56780  1.0000 -0.1377881614
H   H511      1.0  0.30050  0.88420  0.61920  1.0000 0.0904473795
H   H512      1.0  0.28100  0.86100  0.58000  1.0000 0.1105011328
H   H513      1.0  0.35500  0.77600  0.56900  1.0000 0.262673629
C   C808      1.0  0.33700  0.33700  0.11540  1.0000 0.0539273433
C   C809      1.0  0.32180  0.36920  0.13080  1.0000 -0.2214459782
C   C810      1.0  0.32210  0.32210  0.08360  1.0000 0.0984719483
N   N407      1.0  0.28550  0.31790  0.03870  1.0000 -0.1377881614
N   N408      1.0  0.30910  0.29140  0.03670  1.0000 -0.0214514575
C   C811      1.0  0.33140  0.29220  0.06420  1.0000 -0.1182384227
C   C812      1.0  0.29300  0.34020  0.06780  1.0000 -0.1377881614
H   H514      1.0  0.30050  0.38420  0.11920  1.0000 0.0904473795
H   H515      1.0  0.28100  0.36100  0.08000  1.0000 0.1105011328
H   H516      1.0  0.35500  0.27600  0.06900  1.0000 0.262673629
C   C813      1.0  0.16300  0.83700  0.88460  1.0000 0.0539273433
C   C814      1.0  0.17820  0.86920  0.86920  1.0000 -0.2214459782
C   C815      1.0  0.17790  0.82210  0.91640  1.0000 0.0984719483
N   N409      1.0  0.21450  0.81790  0.96130  1.0000 -0.1293130651
N   N410      1.0  0.19090  0.79140  0.96330  1.0000 -0.0214514575
C   C816      1.0  0.16860  0.79220  0.93580  1.0000 -0.1182384227
C   C817      1.0  0.20700  0.84020  0.93220  1.0000 -0.1377881614
H   H517      1.0  0.19950  0.88420  0.88080  1.0000 0.0904473795
H   H518      1.0  0.21900  0.86100  0.92000  1.0000 0.1105011328
H   H519      1.0  0.14500  0.77600  0.93100  1.0000 0.262673629
C   C818      1.0  0.16300  0.33700  0.38460  1.0000 0.0539273433
C   C819      1.0  0.17820  0.36920  0.36920  1.0000 -0.2214459782
C   C820      1.0  0.17790  0.32210  0.41640  1.0000 0.0984719483
N   N411      1.0  0.21450  0.31790  0.46130  1.0000 -0.1293130651
N   N412      1.0  0.19090  0.29140  0.46330  1.0000 -0.0214514575
C   C821      1.0  0.16860  0.29220  0.43580  1.0000 -0.1182384227
C   C822      1.0  0.20700  0.34020  0.43220  1.0000 -0.1377881614
H   H520      1.0  0.19950  0.38420  0.38080  1.0000 0.0904473795
H   H521      1.0  0.21900  0.36100  0.42000  1.0000 0.1105011328
H   H522      1.0  0.14500  0.27600  0.43100  1.0000 0.262673629
C   C823      1.0  0.66300  0.83700  0.38460  1.0000 0.0539273433
C   C824      1.0  0.67820  0.86920  0.36920  1.0000 -0.2214459782
C   C825      1.0  0.67790  0.82210  0.41640  1.0000 0.0984719483
N   N413      1.0  0.71450  0.81790  0.46130  1.0000 -0.1293130651
N   N414      1.0  0.69090  0.79140  0.46330  1.0000 -0.0214514575
C   C826      1.0  0.66860  0.79220  0.43580  1.0000 -0.1182384227
C   C827      1.0  0.70700  0.84020  0.43220  1.0000 -0.1377881614
H   H523      1.0  0.69950  0.88420  0.38080  1.0000 0.0904473795
H   H524      1.0  0.71900  0.86100  0.42000  1.0000 0.1105011328
H   H525      1.0  0.64500  0.77600  0.43100  1.0000 0.262673629
C   C828      1.0  0.66300  0.33700  0.88460  1.0000 0.0539273433
C   C829      1.0  0.67820  0.36920  0.86920  1.0000 -0.2214459782
C   C830      1.0  0.67790  0.32210  0.91640  1.0000 0.0984719483
N   N415      1.0  0.71450  0.31790  0.96130  1.0000 -0.1377881614
N   N416      1.0  0.69090  0.29140  0.96330  1.0000 -0.0214514575
C   C831      1.0  0.66860  0.29220  0.93580  1.0000 -0.1182384227
C   C832      1.0  0.70700  0.34020  0.93220  1.0000 -0.1377881614
H   H526      1.0  0.69950  0.38420  0.88080  1.0000 0.0904473795
H   H527      1.0  0.71900  0.36100  0.92000  1.0000 0.1105011328
H   H528      1.0  0.64500  0.27600  0.93100  1.0000 0.262673629
C   C833      1.0  0.16300  0.88460  0.83700  1.0000 0.1105011328
C   C834      1.0  0.13080  0.86920  0.82180  1.0000 -0.2326975653
C   C835      1.0  0.17790  0.91640  0.82210  1.0000 -0.0418744781
N   N417      1.0  0.18210  0.96130  0.78550  1.0000 -0.1182384227
N   N418      1.0  0.20860  0.96330  0.80910  1.0000 -0.1088234145
C   C836      1.0  0.15980  0.93220  0.79300  1.0000 -0.0910881134
H   H529      1.0  0.11580  0.88080  0.80050  1.0000 0.0904473795
H   H530      1.0  0.13900  0.92000  0.78100  1.0000 0.0904473795
H   H531      1.0  0.22400  0.93100  0.85500  1.0000 0.0904473795
C   C837      1.0  0.16300  0.38460  0.33700  1.0000 0.1105011328
C   C838      1.0  0.13080  0.36920  0.32180  1.0000 -0.2326975653
C   C839      1.0  0.17790  0.41640  0.32210  1.0000 -0.0418744781
N   N419      1.0  0.18210  0.46130  0.28550  1.0000 -0.1182384227
N   N420      1.0  0.20860  0.46330  0.30910  1.0000 -0.1088234145
C   C840      1.0  0.15980  0.43220  0.29300  1.0000 -0.0910881134
H   H532      1.0  0.11580  0.38080  0.30050  1.0000 0.0904473795
H   H533      1.0  0.13900  0.42000  0.28100  1.0000 0.0904473795
H   H534      1.0  0.22400  0.43100  0.35500  1.0000 0.0904473795
C   C841      1.0  0.66300  0.88460  0.33700  1.0000 0.1105011328
C   C842      1.0  0.63080  0.86920  0.32180  1.0000 -0.2326975653
C   C843      1.0  0.67790  0.91640  0.32210  1.0000 -0.0418744781
N   N421      1.0  0.68210  0.96130  0.28550  1.0000 -0.1182384227
N   N422      1.0  0.70860  0.96330  0.30910  1.0000 -0.1088234145
C   C844      1.0  0.65980  0.93220  0.29300  1.0000 -0.0910881134
H   H535      1.0  0.61580  0.88080  0.30050  1.0000 0.0904473795
H   H536      1.0  0.63900  0.92000  0.28100  1.0000 0.0904473795
H   H537      1.0  0.72400  0.93100  0.35500  1.0000 0.0904473795
C   C845      1.0  0.66300  0.38460  0.83700  1.0000 0.1105011328
C   C846      1.0  0.63080  0.36920  0.82180  1.0000 -0.2326975653
C   C847      1.0  0.67790  0.41640  0.82210  1.0000 -0.0418744781
N   N423      1.0  0.68210  0.46130  0.78550  1.0000 -0.1182384227
N   N424      1.0  0.70860  0.46330  0.80910  1.0000 -0.1088234145
C   C848      1.0  0.65980  0.43220  0.79300  1.0000 -0.0910881134
H   H538      1.0  0.61580  0.38080  0.80050  1.0000 0.0904473795
H   H539      1.0  0.63900  0.42000  0.78100  1.0000 0.0904473795
H   H540      1.0  0.72400  0.43100  0.85500  1.0000 0.0904473795
C   C849      1.0  0.16300  0.11540  0.16300  1.0000 0.1105011328
C   C850      1.0  0.13080  0.13080  0.17820  1.0000 -0.2326975653
C   C851      1.0  0.17790  0.08360  0.17790  1.0000 -0.0418744781
N   N425      1.0  0.18210  0.03870  0.21450  1.0000 -0.1182384227
N   N426      1.0  0.20860  0.03670  0.19090  1.0000 -0.1088234145
C   C852      1.0  0.15980  0.06780  0.20700  1.0000 -0.0910881134
H   H541      1.0  0.11580  0.11920  0.19950  1.0000 0.0904473795
H   H542      1.0  0.13900  0.08000  0.21900  1.0000 0.0904473795
H   H543      1.0  0.22400  0.06900  0.14500  1.0000 0.0904473795
C   C853      1.0  0.16300  0.61540  0.66300  1.0000 0.1105011328
C   C854      1.0  0.13080  0.63080  0.67820  1.0000 -0.2326975653
C   C855      1.0  0.17790  0.58360  0.67790  1.0000 -0.0418744781
N   N427      1.0  0.18210  0.53870  0.71450  1.0000 -0.1182384227
N   N428      1.0  0.20860  0.53670  0.69090  1.0000 -0.1088234145
C   C856      1.0  0.15980  0.56780  0.70700  1.0000 -0.0910881134
H   H544      1.0  0.11580  0.61920  0.69950  1.0000 0.0904473795
H   H545      1.0  0.13900  0.58000  0.71900  1.0000 0.0904473795
H   H546      1.0  0.22400  0.56900  0.64500  1.0000 0.0904473795
C   C857      1.0  0.66300  0.11540  0.66300  1.0000 0.1105011328
C   C858      1.0  0.63080  0.13080  0.67820  1.0000 -0.2326975653
C   C859      1.0  0.67790  0.08360  0.67790  1.0000 -0.0418744781
N   N429      1.0  0.68210  0.03870  0.71450  1.0000 -0.1182384227
N   N430      1.0  0.70860  0.03670  0.69090  1.0000 -0.1088234145
C   C860      1.0  0.65980  0.06780  0.70700  1.0000 -0.0910881134
H   H547      1.0  0.61580  0.11920  0.69950  1.0000 0.0904473795
H   H548      1.0  0.63900  0.08000  0.71900  1.0000 0.0904473795
H   H549      1.0  0.72400  0.06900  0.64500  1.0000 0.0904473795
C   C861      1.0  0.66300  0.61540  0.16300  1.0000 0.1105011328
C   C862      1.0  0.63080  0.63080  0.17820  1.0000 -0.2326975653
C   C863      1.0  0.67790  0.58360  0.17790  1.0000 -0.0418744781
N   N431      1.0  0.68210  0.53870  0.21450  1.0000 -0.1182384227
N   N432      1.0  0.70860  0.53670  0.19090  1.0000 -0.1088234145
C   C864      1.0  0.65980  0.56780  0.20700  1.0000 -0.0910881134
H   H550      1.0  0.61580  0.61920  0.19950  1.0000 0.0904473795
H   H551      1.0  0.63900  0.58000  0.21900  1.0000 0.0904473795
H   H552      1.0  0.72400  0.56900  0.14500  1.0000 0.0904473795
C   C865      1.0  0.83700  0.88460  0.16300  1.0000 0.1105011328
C   C866      1.0  0.86920  0.86920  0.17820  1.0000 -0.2326975653
C   C867      1.0  0.82210  0.91640  0.17790  1.0000 -0.0418744781
N   N433      1.0  0.81790  0.96130  0.21450  1.0000 -0.1182384227
N   N434      1.0  0.79140  0.96330  0.19090  1.0000 -0.1088234145
C   C868      1.0  0.84020  0.93220  0.20700  1.0000 -0.0910881134
H   H553      1.0  0.88420  0.88080  0.19950  1.0000 0.0904473795
H   H554      1.0  0.86100  0.92000  0.21900  1.0000 0.0904473795
H   H555      1.0  0.77600  0.93100  0.14500  1.0000 0.0904473795
C   C869      1.0  0.83700  0.38460  0.66300  1.0000 0.1105011328
C   C870      1.0  0.86920  0.36920  0.67820  1.0000 -0.2326975653
C   C871      1.0  0.82210  0.41640  0.67790  1.0000 -0.0418744781
N   N435      1.0  0.81790  0.46130  0.71450  1.0000 -0.1182384227
N   N436      1.0  0.79140  0.46330  0.69090  1.0000 -0.1088234145
C   C872      1.0  0.84020  0.43220  0.70700  1.0000 -0.0910881134
H   H556      1.0  0.88420  0.38080  0.69950  1.0000 0.0904473795
H   H557      1.0  0.86100  0.42000  0.71900  1.0000 0.0904473795
H   H558      1.0  0.77600  0.43100  0.64500  1.0000 0.0904473795
C   C873      1.0  0.33700  0.88460  0.66300  1.0000 0.1105011328
C   C874      1.0  0.36920  0.86920  0.67820  1.0000 -0.2326975653
C   C875      1.0  0.32210  0.91640  0.67790  1.0000 -0.0418744781
N   N437      1.0  0.31790  0.96130  0.71450  1.0000 -0.1182384227
N   N438      1.0  0.29140  0.96330  0.69090  1.0000 -0.1088234145
C   C876      1.0  0.34020  0.93220  0.70700  1.0000 -0.0910881134
H   H559      1.0  0.38420  0.88080  0.69950  1.0000 0.0904473795
H   H560      1.0  0.36100  0.92000  0.71900  1.0000 0.0904473795
H   H561      1.0  0.27600  0.93100  0.64500  1.0000 0.0904473795
C   C877      1.0  0.33700  0.38460  0.16300  1.0000 0.1105011328
C   C878      1.0  0.36920  0.36920  0.17820  1.0000 -0.2326975653
C   C879      1.0  0.32210  0.41640  0.17790  1.0000 -0.0418744781
N   N439      1.0  0.31790  0.46130  0.21450  1.0000 -0.1182384227
N   N440      1.0  0.29140  0.46330  0.19090  1.0000 -0.1088234145
C   C880      1.0  0.34020  0.43220  0.20700  1.0000 -0.0910881134
H   H562      1.0  0.38420  0.38080  0.19950  1.0000 0.0904473795
H   H563      1.0  0.36100  0.42000  0.21900  1.0000 0.0904473795
H   H564      1.0  0.27600  0.43100  0.14500  1.0000 0.0904473795
C   C881      1.0  0.83700  0.11540  0.83700  1.0000 0.1105011328
C   C882      1.0  0.86920  0.13080  0.82180  1.0000 -0.2326975653
C   C883      1.0  0.82210  0.08360  0.82210  1.0000 -0.0418744781
N   N441      1.0  0.81790  0.03870  0.78550  1.0000 -0.1182384227
N   N442      1.0  0.79140  0.03670  0.80910  1.0000 -0.1088234145
C   C884      1.0  0.84020  0.06780  0.79300  1.0000 -0.0910881134
H   H565      1.0  0.88420  0.11920  0.80050  1.0000 0.0904473795
H   H566      1.0  0.86100  0.08000  0.78100  1.0000 0.0904473795
H   H567      1.0  0.77600  0.06900  0.85500  1.0000 0.0904473795
C   C885      1.0  0.83700  0.61540  0.33700  1.0000 0.1105011328
C   C886      1.0  0.86920  0.63080  0.32180  1.0000 -0.2326975653
C   C887      1.0  0.82210  0.58360  0.32210  1.0000 -0.0418744781
N   N443      1.0  0.81790  0.53870  0.28550  1.0000 -0.1182384227
N   N444      1.0  0.79140  0.53670  0.30910  1.0000 -0.1088234145
C   C888      1.0  0.84020  0.56780  0.29300  1.0000 -0.0910881134
H   H568      1.0  0.88420  0.61920  0.30050  1.0000 0.0904473795
H   H569      1.0  0.86100  0.58000  0.28100  1.0000 0.0904473795
H   H570      1.0  0.77600  0.56900  0.35500  1.0000 0.0904473795
C   C889      1.0  0.33700  0.11540  0.33700  1.0000 0.1105011328
C   C890      1.0  0.36920  0.13080  0.32180  1.0000 -0.2326975653
C   C891      1.0  0.32210  0.08360  0.32210  1.0000 -0.0418744781
N   N445      1.0  0.31790  0.03870  0.28550  1.0000 -0.1182384227
N   N446      1.0  0.29140  0.03670  0.30910  1.0000 -0.1088234145
C   C892      1.0  0.34020  0.06780  0.29300  1.0000 -0.0910881134
H   H571      1.0  0.38420  0.11920  0.30050  1.0000 0.0904473795
H   H572      1.0  0.36100  0.08000  0.28100  1.0000 0.0904473795
H   H573      1.0  0.27600  0.06900  0.35500  1.0000 0.0904473795
C   C893      1.0  0.33700  0.61540  0.83700  1.0000 0.1105011328
C   C894      1.0  0.36920  0.63080  0.82180  1.0000 -0.2326975653
C   C895      1.0  0.32210  0.58360  0.82210  1.0000 -0.0418744781
N   N447      1.0  0.31790  0.53870  0.78550  1.0000 -0.1182384227
N   N448      1.0  0.29140  0.53670  0.80910  1.0000 -0.1088234145
C   C896      1.0  0.34020  0.56780  0.79300  1.0000 -0.0910881134
H   H574      1.0  0.38420  0.61920  0.80050  1.0000 0.0904473795
H   H575      1.0  0.36100  0.58000  0.78100  1.0000 0.0904473795
H   H576      1.0  0.27600  0.56900  0.85500  1.0000 0.0904473795
Cu  Cu1       1.0  0.25000  0.50000  0.31700  1.0000 0.165560443
Cu  Cu2       1.0  0.25000  0.00000  0.81700  1.0000 0.165560443
Cu  Cu3       1.0  0.75000  0.50000  0.81700  1.0000 0.165560443
Cu  Cu4       1.0  0.75000  0.00000  0.31700  1.0000 0.165560443
Cu  Cu5       1.0  0.75000  0.50000  0.31700  1.0000 0.165560443
Cu  Cu6       1.0  0.75000  0.00000  0.81700  1.0000 0.165560443
Cu  Cu7       1.0  0.25000  0.50000  0.81700  1.0000 0.165560443
Cu  Cu8       1.0  0.25000  0.00000  0.31700  1.0000 0.165560443
Cu  Cu9       1.0  0.75000  0.50000  0.68300  1.0000 0.165560443
Cu  Cu10      1.0  0.75000  0.00000  0.18300  1.0000 0.165560443
Cu  Cu11      1.0  0.25000  0.50000  0.18300  1.0000 0.165560443
Cu  Cu12      1.0  0.25000  0.00000  0.68300  1.0000 0.165560443
Cu  Cu13      1.0  0.25000  0.50000  0.68300  1.0000 0.1642572915
Cu  Cu14      1.0  0.25000  0.00000  0.18300  1.0000 0.165560443
Cu  Cu15      1.0  0.75000  0.50000  0.18300  1.0000 0.165560443
Cu  Cu16      1.0  0.75000  0.00000  0.68300  1.0000 0.165560443
Cu  Cu17      1.0  0.31700  0.25000  0.50000  1.0000 0.1331762815
Cu  Cu18      1.0  0.31700  0.75000  0.00000  1.0000 0.1331762815
Cu  Cu19      1.0  0.81700  0.25000  0.00000  1.0000 0.1358473149
Cu  Cu20      1.0  0.81700  0.75000  0.50000  1.0000 0.1331762815
Cu  Cu21      1.0  0.31700  0.75000  0.50000  1.0000 0.1331762815
Cu  Cu22      1.0  0.31700  0.25000  0.00000  1.0000 0.1331762815
Cu  Cu23      1.0  0.81700  0.75000  0.00000  1.0000 0.1331762815
Cu  Cu24      1.0  0.81700  0.25000  0.50000  1.0000 0.1331762815
Cu  Cu25      1.0  0.68300  0.75000  0.50000  1.0000 0.1331762815
Cu  Cu26      1.0  0.68300  0.25000  0.00000  1.0000 0.1331762815
Cu  Cu27      1.0  0.18300  0.75000  0.00000  1.0000 0.1331762815
Cu  Cu28      1.0  0.18300  0.25000  0.50000  1.0000 0.1331762815
Cu  Cu29      1.0  0.68300  0.25000  0.50000  1.0000 0.1358473149
Cu  Cu30      1.0  0.68300  0.75000  0.00000  1.0000 0.1331762815
Cu  Cu31      1.0  0.18300  0.25000  0.00000  1.0000 0.1358473149
Cu  Cu32      1.0  0.18300  0.75000  0.50000  1.0000 0.1331762815
Cu  Cu33      1.0  0.50000  0.31700  0.25000  1.0000 0.1879654491
Cu  Cu34      1.0  0.50000  0.81700  0.75000  1.0000 0.1879654491
Cu  Cu35      1.0  0.00000  0.31700  0.75000  1.0000 0.1838149238
Cu  Cu36      1.0  0.00000  0.81700  0.25000  1.0000 0.1879654491
Cu  Cu37      1.0  0.50000  0.31700  0.75000  1.0000 0.1838149238
Cu  Cu38      1.0  0.50000  0.81700  0.25000  1.0000 0.1879654491
Cu  Cu39      1.0  0.00000  0.31700  0.25000  1.0000 0.1879654491
Cu  Cu40      1.0  0.00000  0.81700  0.75000  1.0000 0.1838149238
Cu  Cu41      1.0  0.50000  0.68300  0.75000  1.0000 0.1879654491
Cu  Cu42      1.0  0.50000  0.18300  0.25000  1.0000 0.1879654491
Cu  Cu43      1.0  0.00000  0.68300  0.25000  1.0000 0.1879654491
Cu  Cu44      1.0  0.00000  0.18300  0.75000  1.0000 0.1838149238
Cu  Cu45      1.0  0.50000  0.68300  0.25000  1.0000 0.1879654491
Cu  Cu46      1.0  0.50000  0.18300  0.75000  1.0000 0.1838149238
Cu  Cu47      1.0  0.00000  0.68300  0.75000  1.0000 0.1838149238
Cu  Cu48      1.0  0.00000  0.18300  0.25000  1.0000 0.1879654491
Cu  Cu49      1.0  0.00000  0.75000  0.18300  1.0000 0.1642572915
Cu  Cu50      1.0  0.00000  0.25000  0.68300  1.0000 0.1642572915
Cu  Cu51      1.0  0.50000  0.75000  0.68300  1.0000 0.165560443
Cu  Cu52      1.0  0.50000  0.25000  0.18300  1.0000 0.165560443
Cu  Cu53      1.0  0.00000  0.25000  0.18300  1.0000 0.1642572915
Cu  Cu54      1.0  0.00000  0.75000  0.68300  1.0000 0.1642572915
Cu  Cu55      1.0  0.50000  0.25000  0.68300  1.0000 0.165560443
Cu  Cu56      1.0  0.50000  0.75000  0.18300  1.0000 0.165560443
Cu  Cu57      1.0  0.00000  0.25000  0.81700  1.0000 0.1642572915
Cu  Cu58      1.0  0.00000  0.75000  0.31700  1.0000 0.1642572915
Cu  Cu59      1.0  0.50000  0.25000  0.31700  1.0000 0.165560443
Cu  Cu60      1.0  0.50000  0.75000  0.81700  1.0000 0.165560443
Cu  Cu61      1.0  0.00000  0.75000  0.81700  1.0000 0.1642572915
Cu  Cu62      1.0  0.00000  0.25000  0.31700  1.0000 0.1642572915
Cu  Cu63      1.0  0.50000  0.75000  0.31700  1.0000 0.165560443
Cu  Cu64      1.0  0.50000  0.25000  0.81700  1.0000 0.165560443
Cu  Cu65      1.0  0.75000  0.81700  0.00000  1.0000 0.1331762815
Cu  Cu66      1.0  0.75000  0.31700  0.50000  1.0000 0.1331762815
Cu  Cu67      1.0  0.25000  0.81700  0.50000  1.0000 0.1358473149
Cu  Cu68      1.0  0.25000  0.31700  0.00000  1.0000 0.1358473149
Cu  Cu69      1.0  0.25000  0.81700  0.00000  1.0000 0.1331762815
Cu  Cu70      1.0  0.25000  0.31700  0.50000  1.0000 0.1331762815
Cu  Cu71      1.0  0.75000  0.81700  0.50000  1.0000 0.1331762815
Cu  Cu72      1.0  0.75000  0.31700  0.00000  1.0000 0.1331762815
Cu  Cu73      1.0  0.25000  0.18300  0.00000  1.0000 0.1331762815
Cu  Cu74      1.0  0.25000  0.68300  0.50000  1.0000 0.1331762815
Cu  Cu75      1.0  0.75000  0.18300  0.50000  1.0000 0.1331762815
Cu  Cu76      1.0  0.75000  0.68300  0.00000  1.0000 0.1331762815
Cu  Cu77      1.0  0.75000  0.18300  0.00000  1.0000 0.1331762815
Cu  Cu78      1.0  0.75000  0.68300  0.50000  1.0000 0.1331762815
Cu  Cu79      1.0  0.25000  0.18300  0.50000  1.0000 0.1358473149
Cu  Cu80      1.0  0.25000  0.68300  0.00000  1.0000 0.1358473149
Cu  Cu81      1.0  0.81700  0.00000  0.25000  1.0000 0.1879654491
Cu  Cu82      1.0  0.81700  0.50000  0.75000  1.0000 0.1879654491
Cu  Cu83      1.0  0.31700  0.00000  0.75000  1.0000 0.1838149238
Cu  Cu84      1.0  0.31700  0.50000  0.25000  1.0000 0.1879654491
Cu  Cu85      1.0  0.81700  0.00000  0.75000  1.0000 0.1879654491
Cu  Cu86      1.0  0.81700  0.50000  0.25000  1.0000 0.1879654491
Cu  Cu87      1.0  0.31700  0.00000  0.25000  1.0000 0.1879654491
Cu  Cu88      1.0  0.31700  0.50000  0.75000  1.0000 0.1838149238
Cu  Cu89      1.0  0.18300  0.00000  0.75000  1.0000 0.1838149238
Cu  Cu90      1.0  0.18300  0.50000  0.25000  1.0000 0.1879654491
Cu  Cu91      1.0  0.68300  0.00000  0.25000  1.0000 0.1879654491
Cu  Cu92      1.0  0.68300  0.50000  0.75000  1.0000 0.1879654491
Cu  Cu93      1.0  0.18300  0.00000  0.25000  1.0000 0.1879654491
Cu  Cu94      1.0  0.18300  0.50000  0.75000  1.0000 0.1838149238
Cu  Cu95      1.0  0.68300  0.00000  0.75000  1.0000 0.1879654491
Cu  Cu96      1.0  0.68300  0.50000  0.25000  1.0000 0.1879654491
  N   N449      1.0  0.33140  0.56420  0.29220  1.0000
  C   C897      1.0  0.43580  0.70780  0.33140  1.0000
  N   N450      1.0  0.33140  0.06420  0.79220  1.0000
  C   C898      1.0  0.43580  0.20780  0.83140  1.0000
  N   N451      1.0  0.83140  0.56420  0.79220  1.0000
  C   C899      1.0  0.93580  0.70780  0.83140  1.0000
  N   N452      1.0  0.83140  0.06420  0.29220  1.0000
  C   C900      1.0  0.93580  0.20780  0.33140  1.0000
  N   N453      1.0  0.66860  0.43580  0.29220  1.0000
  C   C901      1.0  0.56420  0.29220  0.33140  1.0000
  N   N454      1.0  0.66860  0.93580  0.79220  1.0000
  C   C902      1.0  0.56420  0.79220  0.83140  1.0000
  N   N455      1.0  0.16860  0.43580  0.79220  1.0000
  C   C903      1.0  0.06420  0.29220  0.83140  1.0000
  N   N456      1.0  0.16860  0.93580  0.29220  1.0000
  C   C904      1.0  0.06420  0.79220  0.33140  1.0000
  N   N457      1.0  0.66860  0.56420  0.70780  1.0000
  C   C905      1.0  0.56420  0.70780  0.66860  1.0000
  N   N458      1.0  0.66860  0.06420  0.20780  1.0000
  C   C906      1.0  0.56420  0.20780  0.16860  1.0000
  N   N459      1.0  0.16860  0.56420  0.20780  1.0000
  C   C907      1.0  0.06420  0.70780  0.16860  1.0000
  N   N460      1.0  0.16860  0.06420  0.70780  1.0000
  C   C908      1.0  0.06420  0.20780  0.66860  1.0000
  N   N461      1.0  0.33140  0.43580  0.70780  1.0000
  C   C909      1.0  0.43580  0.29220  0.66860  1.0000
  N   N462      1.0  0.33140  0.93580  0.20780  1.0000
  C   C910      1.0  0.43580  0.79220  0.16860  1.0000
  N   N463      1.0  0.83140  0.43580  0.20780  1.0000
  C   C911      1.0  0.93580  0.29220  0.16860  1.0000
  N   N464      1.0  0.83140  0.93580  0.70780  1.0000
  C   C912      1.0  0.93580  0.79220  0.66860  1.0000
  N   N465      1.0  0.29220  0.33140  0.56420  1.0000
  N   N466      1.0  0.29220  0.83140  0.06420  1.0000
  N   N467      1.0  0.79220  0.33140  0.06420  1.0000
  N   N468      1.0  0.79220  0.83140  0.56420  1.0000
  N   N469      1.0  0.29220  0.66860  0.43580  1.0000
  N   N470      1.0  0.29220  0.16860  0.93580  1.0000
  N   N471      1.0  0.79220  0.66860  0.93580  1.0000
  N   N472      1.0  0.79220  0.16860  0.43580  1.0000
  N   N473      1.0  0.70780  0.66860  0.56420  1.0000
  N   N474      1.0  0.70780  0.16860  0.06420  1.0000
  N   N475      1.0  0.20780  0.66860  0.06420  1.0000
  N   N476      1.0  0.20780  0.16860  0.56420  1.0000
  N   N477      1.0  0.70780  0.33140  0.43580  1.0000
  N   N478      1.0  0.70780  0.83140  0.93580  1.0000
  N   N479      1.0  0.20780  0.33140  0.93580  1.0000
  N   N480      1.0  0.20780  0.83140  0.43580  1.0000
  N   N481      1.0  0.06420  0.83140  0.20780  1.0000
  C   C913      1.0  0.20780  0.93580  0.16860  1.0000
  N   N482      1.0  0.06420  0.33140  0.70780  1.0000
  C   C914      1.0  0.20780  0.43580  0.66860  1.0000
  N   N483      1.0  0.56420  0.83140  0.70780  1.0000
  C   C915      1.0  0.70780  0.93580  0.66860  1.0000
  N   N484      1.0  0.56420  0.33140  0.20780  1.0000
  C   C916      1.0  0.70780  0.43580  0.16860  1.0000
  N   N485      1.0  0.93580  0.16860  0.20780  1.0000
  C   C917      1.0  0.79220  0.06420  0.16860  1.0000
  N   N486      1.0  0.93580  0.66860  0.70780  1.0000
  C   C918      1.0  0.79220  0.56420  0.66860  1.0000
  N   N487      1.0  0.43580  0.16860  0.70780  1.0000
  C   C919      1.0  0.29220  0.06420  0.66860  1.0000
  N   N488      1.0  0.43580  0.66860  0.20780  1.0000
  C   C920      1.0  0.29220  0.56420  0.16860  1.0000
  N   N489      1.0  0.06420  0.16860  0.79220  1.0000
  C   C921      1.0  0.20780  0.06420  0.83140  1.0000
  N   N490      1.0  0.06420  0.66860  0.29220  1.0000
  C   C922      1.0  0.20780  0.56420  0.33140  1.0000
  N   N491      1.0  0.56420  0.16860  0.29220  1.0000
  C   C923      1.0  0.70780  0.06420  0.33140  1.0000
  N   N492      1.0  0.56420  0.66860  0.79220  1.0000
  C   C924      1.0  0.70780  0.56420  0.83140  1.0000
  N   N493      1.0  0.93580  0.83140  0.79220  1.0000
  C   C925      1.0  0.79220  0.93580  0.83140  1.0000
  N   N494      1.0  0.93580  0.33140  0.29220  1.0000
  C   C926      1.0  0.79220  0.43580  0.33140  1.0000
  N   N495      1.0  0.43580  0.83140  0.29220  1.0000
  C   C927      1.0  0.29220  0.93580  0.33140  1.0000
  N   N496      1.0  0.43580  0.33140  0.79220  1.0000
  C   C928      1.0  0.29220  0.43580  0.83140  1.0000
  N   N497      1.0  0.83140  0.79220  0.93580  1.0000
  N   N498      1.0  0.83140  0.29220  0.43580  1.0000
  N   N499      1.0  0.33140  0.79220  0.43580  1.0000
  N   N500      1.0  0.33140  0.29220  0.93580  1.0000
  N   N501      1.0  0.16860  0.79220  0.06420  1.0000
  N   N502      1.0  0.16860  0.29220  0.56420  1.0000
  N   N503      1.0  0.66860  0.79220  0.56420  1.0000
  N   N504      1.0  0.66860  0.29220  0.06420  1.0000
  N   N505      1.0  0.16860  0.20780  0.93580  1.0000
  N   N506      1.0  0.16860  0.70780  0.43580  1.0000
  N   N507      1.0  0.66860  0.20780  0.43580  1.0000
  N   N508      1.0  0.66860  0.70780  0.93580  1.0000
  N   N509      1.0  0.83140  0.20780  0.06420  1.0000
  N   N510      1.0  0.83140  0.70780  0.56420  1.0000
  N   N511      1.0  0.33140  0.20780  0.56420  1.0000
  N   N512      1.0  0.33140  0.70780  0.06420  1.0000
  N   N513      1.0  0.66860  0.43580  0.70780  1.0000
  C   C929      1.0  0.56420  0.29220  0.66860  1.0000
  N   N514      1.0  0.66860  0.93580  0.20780  1.0000
  C   C930      1.0  0.56420  0.79220  0.16860  1.0000
  N   N515      1.0  0.16860  0.43580  0.20780  1.0000
  C   C931      1.0  0.06420  0.29220  0.16860  1.0000
  N   N516      1.0  0.16860  0.93580  0.70780  1.0000
  C   C932      1.0  0.06420  0.79220  0.66860  1.0000
  N   N517      1.0  0.33140  0.56420  0.70780  1.0000
  C   C933      1.0  0.43580  0.70780  0.66860  1.0000
  N   N518      1.0  0.33140  0.06420  0.20780  1.0000
  C   C934      1.0  0.43580  0.20780  0.16860  1.0000
  N   N519      1.0  0.83140  0.56420  0.20780  1.0000
  C   C935      1.0  0.93580  0.70780  0.16860  1.0000
  N   N520      1.0  0.83140  0.06420  0.70780  1.0000
  C   C936      1.0  0.93580  0.20780  0.66860  1.0000
  N   N521      1.0  0.33140  0.43580  0.29220  1.0000
  C   C937      1.0  0.43580  0.29220  0.33140  1.0000
  N   N522      1.0  0.33140  0.93580  0.79220  1.0000
  C   C938      1.0  0.43580  0.79220  0.83140  1.0000
  N   N523      1.0  0.83140  0.43580  0.79220  1.0000
  C   C939      1.0  0.93580  0.29220  0.83140  1.0000
  N   N524      1.0  0.83140  0.93580  0.29220  1.0000
  C   C940      1.0  0.93580  0.79220  0.33140  1.0000
  N   N525      1.0  0.66860  0.56420  0.29220  1.0000
  C   C941      1.0  0.56420  0.70780  0.33140  1.0000
  N   N526      1.0  0.66860  0.06420  0.79220  1.0000
  C   C942      1.0  0.56420  0.20780  0.83140  1.0000
  N   N527      1.0  0.16860  0.56420  0.79220  1.0000
  C   C943      1.0  0.06420  0.70780  0.83140  1.0000
  N   N528      1.0  0.16860  0.06420  0.29220  1.0000
  C   C944      1.0  0.06420  0.20780  0.33140  1.0000
  N   N529      1.0  0.70780  0.66860  0.43580  1.0000
  N   N530      1.0  0.70780  0.16860  0.93580  1.0000
  N   N531      1.0  0.20780  0.66860  0.93580  1.0000
  N   N532      1.0  0.20780  0.16860  0.43580  1.0000
  N   N533      1.0  0.70780  0.33140  0.56420  1.0000
  N   N534      1.0  0.70780  0.83140  0.06420  1.0000
  N   N535      1.0  0.20780  0.33140  0.06420  1.0000
  N   N536      1.0  0.20780  0.83140  0.56420  1.0000
  N   N537      1.0  0.29220  0.33140  0.43580  1.0000
  N   N538      1.0  0.29220  0.83140  0.93580  1.0000
  N   N539      1.0  0.79220  0.33140  0.93580  1.0000
  N   N540      1.0  0.79220  0.83140  0.43580  1.0000
  N   N541      1.0  0.29220  0.66860  0.56420  1.0000
  N   N542      1.0  0.29220  0.16860  0.06420  1.0000
  N   N543      1.0  0.79220  0.66860  0.06420  1.0000
  N   N544      1.0  0.79220  0.16860  0.56420  1.0000
  N   N545      1.0  0.93580  0.16860  0.79220  1.0000
  C   C945      1.0  0.79220  0.06420  0.83140  1.0000
  N   N546      1.0  0.93580  0.66860  0.29220  1.0000
  C   C946      1.0  0.79220  0.56420  0.33140  1.0000
  N   N547      1.0  0.43580  0.16860  0.29220  1.0000
  C   C947      1.0  0.29220  0.06420  0.33140  1.0000
  N   N548      1.0  0.43580  0.66860  0.79220  1.0000
  C   C948      1.0  0.29220  0.56420  0.83140  1.0000
  N   N549      1.0  0.06420  0.83140  0.79220  1.0000
  C   C949      1.0  0.20780  0.93580  0.83140  1.0000
  N   N550      1.0  0.06420  0.33140  0.29220  1.0000
  C   C950      1.0  0.20780  0.43580  0.33140  1.0000
  N   N551      1.0  0.56420  0.83140  0.29220  1.0000
  C   C951      1.0  0.70780  0.93580  0.33140  1.0000
  N   N552      1.0  0.56420  0.33140  0.79220  1.0000
  C   C952      1.0  0.70780  0.43580  0.83140  1.0000
  N   N553      1.0  0.93580  0.83140  0.20780  1.0000
  C   C953      1.0  0.79220  0.93580  0.16860  1.0000
  N   N554      1.0  0.93580  0.33140  0.70780  1.0000
  C   C954      1.0  0.79220  0.43580  0.66860  1.0000
  N   N555      1.0  0.43580  0.83140  0.70780  1.0000
  C   C955      1.0  0.29220  0.93580  0.66860  1.0000
  N   N556      1.0  0.43580  0.33140  0.20780  1.0000
  C   C956      1.0  0.29220  0.43580  0.16860  1.0000
  N   N557      1.0  0.06420  0.16860  0.20780  1.0000
  C   C957      1.0  0.20780  0.06420  0.16860  1.0000
  N   N558      1.0  0.06420  0.66860  0.70780  1.0000
  C   C958      1.0  0.20780  0.56420  0.66860  1.0000
  N   N559      1.0  0.56420  0.16860  0.70780  1.0000
  C   C959      1.0  0.70780  0.06420  0.66860  1.0000
  N   N560      1.0  0.56420  0.66860  0.20780  1.0000
  C   C960      1.0  0.70780  0.56420  0.16860  1.0000
  N   N561      1.0  0.16860  0.20780  0.06420  1.0000
  N   N562      1.0  0.16860  0.70780  0.56420  1.0000
  N   N563      1.0  0.66860  0.20780  0.56420  1.0000
  N   N564      1.0  0.66860  0.70780  0.06420  1.0000
  N   N565      1.0  0.83140  0.20780  0.93580  1.0000
  N   N566      1.0  0.83140  0.70780  0.43580  1.0000
  N   N567      1.0  0.33140  0.20780  0.43580  1.0000
  N   N568      1.0  0.33140  0.70780  0.93580  1.0000
  N   N569      1.0  0.83140  0.79220  0.06420  1.0000
  N   N570      1.0  0.83140  0.29220  0.56420  1.0000
  N   N571      1.0  0.33140  0.79220  0.56420  1.0000
  N   N572      1.0  0.33140  0.29220  0.06420  1.0000
  N   N573      1.0  0.16860  0.79220  0.93580  1.0000
  N   N574      1.0  0.16860  0.29220  0.43580  1.0000
  N   N575      1.0  0.66860  0.79220  0.43580  1.0000
  N   N576      1.0  0.66860  0.29220  0.93580  1.0000
