# DDEC6 charges by PACMAN v1.1 (https://github.com/mtap-research/PACMAN-charge/)
data_BIYVIQ_FSR_pacman
_symmetry_space_group_name_H-M   'P 1'
_cell_length_a   8.50850000
_cell_length_b   16.01560000
_cell_length_c   27.93930000
_cell_angle_alpha   90.00000000
_cell_angle_beta   90.00000000
_cell_angle_gamma   90.00000000
_symmetry_Int_Tables_number   1
_chemical_formula_structural   Tb2H28C29N5O14
_chemical_formula_sum   'Tb8 H112 C116 N20 O56'
_cell_volume   3807.25300073
_cell_formula_units_Z   4
loop_
 _symmetry_equiv_pos_site_id
 _symmetry_equiv_pos_as_xyz
  1  'x, y, z'
loop_
 _atom_site_type_symbol
 _atom_site_label
 _atom_site_symmetry_multiplicity
 _atom_site_fract_x
 _atom_site_fract_y
 _atom_site_fract_z
 _atom_site_occupancy
 _atom_site_charge
Tb  Tb1  1  0.77034000  0.80614000  0.33229000  1.0 2.0877429677
Tb  Tb2  1  0.72966000  0.19386000  0.83229000  1.0 2.0877429677
Tb  Tb3  1  0.22966000  0.30614000  0.16771000  1.0 2.0877429677
Tb  Tb4  1  0.27034000  0.69386000  0.66771000  1.0 2.0877429677
Tb  Tb5  1  0.73059000  0.20398000  0.16917000  1.0 2.0877429677
Tb  Tb6  1  0.76941000  0.79602000  0.66917000  1.0 2.0877429677
Tb  Tb7  1  0.26941000  0.70398000  0.33083000  1.0 2.0877429677
Tb  Tb8  1  0.23059000  0.29602000  0.83083000  1.0 2.0877429677
H  H1  1  0.42750000  0.59910000  0.42710000  1.0 0.1174087577
H  H2  1  0.07250000  0.40090000  0.92710000  1.0 0.1174087577
H  H3  1  0.57250000  0.09910000  0.07290000  1.0 0.1174087577
H  H4  1  0.92750000  0.90090000  0.57290000  1.0 0.1174087577
H  H5  1  0.33780000  0.81870000  0.20390000  1.0 0.1108780982
H  H6  1  0.16220000  0.18130000  0.70390000  1.0 0.1108780982
H  H7  1  0.66220000  0.31870000  0.29610000  1.0 0.1108780982
H  H8  1  0.83780000  0.68130000  0.79610000  1.0 0.1108780982
H  H9  1  0.69260000  0.98540000  0.19500000  1.0 0.1020671969
H  H10  1  0.80740000  0.01460000  0.69500000  1.0 0.1020671969
H  H11  1  0.30740000  0.48540000  0.30500000  1.0 0.1020671969
H  H12  1  0.19260000  0.51460000  0.80500000  1.0 0.1020671969
H  H13  1  0.98280000  0.97980000  0.22670000  1.0 0.1282762058
H  H14  1  0.51720000  0.02020000  0.72670000  1.0 0.1282762058
H  H15  1  0.01720000  0.47980000  0.27330000  1.0 0.1282762058
H  H16  1  0.48280000  0.52020000  0.77330000  1.0 0.1282762058
H  H17  1  0.52940000  0.03710000  0.27470000  1.0 0.1282762058
H  H18  1  0.97060000  0.96290000  0.77470000  1.0 0.1282762058
H  H19  1  0.47060000  0.53710000  0.22530000  1.0 0.1282762058
H  H20  1  0.02940000  0.46290000  0.72530000  1.0 0.1282762058
H  H21  1  0.14320000  0.96750000  0.35140000  1.0 0.1174087577
H  H22  1  0.35680000  0.03250000  0.85140000  1.0 0.1174087577
H  H23  1  0.85680000  0.46750000  0.14860000  1.0 0.1174087577
H  H24  1  0.64320000  0.53250000  0.64860000  1.0 0.1174087577
H  H25  1  0.35920000  0.04320000  0.14790000  1.0 0.1282762058
H  H26  1  0.14080000  0.95680000  0.64790000  1.0 0.1282762058
H  H27  1  0.64080000  0.54320000  0.35210000  1.0 0.1282762058
H  H28  1  0.85920000  0.45680000  0.85210000  1.0 0.1282762058
H  H29  1  0.64160000  0.78410000  0.49780000  1.0 0.1385457681
H  H30  1  0.85840000  0.21590000  0.99780000  1.0 0.1385457681
H  H31  1  0.35840000  0.28410000  0.00220000  1.0 0.1385457681
H  H32  1  0.14160000  0.71590000  0.50220000  1.0 0.1385457681
H  H33  1  0.42440000  0.59180000  0.56790000  1.0 0.1020671969
H  H34  1  0.07560000  0.40820000  0.06790000  1.0 0.1020671969
H  H35  1  0.57560000  0.09180000  0.93210000  1.0 0.1020671969
H  H36  1  0.92440000  0.90820000  0.43210000  1.0 0.1020671969
H  H37  1  0.14990000  0.18430000  0.28810000  1.0 0.1174087577
H  H38  1  0.35010000  0.81570000  0.78810000  1.0 0.1174087577
H  H39  1  0.85010000  0.68430000  0.21190000  1.0 0.1174087577
H  H40  1  0.64990000  0.31570000  0.71190000  1.0 0.1174087577
H  H41  1  0.80880000  0.02230000  0.30670000  1.0 0.1108780982
H  H42  1  0.69120000  0.97770000  0.80670000  1.0 0.1108780982
H  H43  1  0.19120000  0.52230000  0.19330000  1.0 0.1108780982
H  H44  1  0.30880000  0.47770000  0.69330000  1.0 0.1108780982
H  H45  1  0.86140000  0.82530000  0.14680000  1.0 0.1174087577
H  H46  1  0.63860000  0.17470000  0.64680000  1.0 0.1174087577
H  H47  1  0.13860000  0.32530000  0.35320000  1.0 0.1174087577
H  H48  1  0.36140000  0.67470000  0.85320000  1.0 0.1174087577
H  H49  1  0.67540000  0.81090000  0.14460000  1.0 0.1282762058
H  H50  1  0.82460000  0.18910000  0.64460000  1.0 0.1282762058
H  H51  1  0.32460000  0.31090000  0.35540000  1.0 0.1282762058
H  H52  1  0.17540000  0.68910000  0.85540000  1.0 0.1282762058
H  H53  1  0.75430000  0.84870000  0.19190000  1.0 0.1282762058
H  H54  1  0.74570000  0.15130000  0.69190000  1.0 0.1282762058
H  H55  1  0.24570000  0.34870000  0.30810000  1.0 0.1282762058
H  H56  1  0.25430000  0.65130000  0.80810000  1.0 0.1385457681
H  H57  1  0.78060000  0.15980000  0.31150000  1.0 0.1451814753
H  H58  1  0.71940000  0.84020000  0.81150000  1.0 0.1451814753
H  H59  1  0.21940000  0.65980000  0.18850000  1.0 0.1451814753
H  H60  1  0.28060000  0.34020000  0.68850000  1.0 0.1451814753
H  H61  1  0.81330000  0.20010000  0.36290000  1.0 0.1385457681
H  H62  1  0.68670000  0.79990000  0.86290000  1.0 0.1385457681
H  H63  1  0.18670000  0.70010000  0.13710000  1.0 0.1385457681
H  H64  1  0.31330000  0.29990000  0.63710000  1.0 0.1385457681
H  H65  1  0.63670000  0.18330000  0.34580000  1.0 0.1282762058
H  H66  1  0.86330000  0.81670000  0.84580000  1.0 0.1282762058
H  H67  1  0.36330000  0.68330000  0.15420000  1.0 0.1282762058
H  H68  1  0.13670000  0.31670000  0.65420000  1.0 0.1282762058
H  H69  1  0.82330000  0.02940000  0.43420000  1.0 0.1020671969
H  H70  1  0.67670000  0.97060000  0.93420000  1.0 0.1020671969
H  H71  1  0.17670000  0.52940000  0.06580000  1.0 0.1020671969
H  H72  1  0.32330000  0.47060000  0.56580000  1.0 0.1020671969
H  H73  1  0.74040000  0.11860000  0.43950000  1.0 0.0906728439
H  H74  1  0.75960000  0.88140000  0.93950000  1.0 0.0906728439
H  H75  1  0.25960000  0.61860000  0.06050000  1.0 0.0906728439
H  H76  1  0.24040000  0.38140000  0.56050000  1.0 0.0906728439
H  H77  1  0.91760000  0.11260000  0.42060000  1.0 0.1020671969
H  H78  1  0.58240000  0.88740000  0.92060000  1.0 0.1020671969
H  H79  1  0.08240000  0.61260000  0.07940000  1.0 0.1020671969
H  H80  1  0.41760000  0.38740000  0.57940000  1.0 0.1020671969
H  H81  1  0.63660000  0.99710000  0.40610000  1.0 0.1108780982
H  H82  1  0.86340000  0.00290000  0.90610000  1.0 0.1108780982
H  H83  1  0.36340000  0.49710000  0.09390000  1.0 0.1108780982
H  H84  1  0.13660000  0.50290000  0.59390000  1.0 0.1108780982
H  H85  1  0.57170000  0.09050000  0.41070000  1.0 0.0906728439
H  H86  1  0.92830000  0.90950000  0.91070000  1.0 0.0906728439
H  H87  1  0.42830000  0.59050000  0.08930000  1.0 0.0906728439
H  H88  1  0.07170000  0.40950000  0.58930000  1.0 0.0906728439
H  H89  1  0.73310000  0.06490000  0.43620000  1.0 0.0673868379
H  H90  1  0.76690000  0.93510000  0.93620000  1.0 0.0673868379
H  H91  1  0.26690000  0.56490000  0.06380000  1.0 0.0673868379
H  H92  1  0.23310000  0.43510000  0.56380000  1.0 0.0673868379
H  H93  1  0.66040000  0.91490000  0.06930000  1.0 0.1020671969
H  H94  1  0.83960000  0.08510000  0.56930000  1.0 0.1020671969
H  H95  1  0.33960000  0.41490000  0.43070000  1.0 0.1020671969
H  H96  1  0.16040000  0.58510000  0.93070000  1.0 0.1020671969
H  H97  1  0.84270000  0.89300000  0.07580000  1.0 0.0529144139
H  H98  1  0.65730000  0.10700000  0.57580000  1.0 0.0529144139
H  H99  1  0.15730000  0.39300000  0.42420000  1.0 0.0529144139
H  H100  1  0.34270000  0.60700000  0.92420000  1.0 0.0529144139
H  H101  1  0.78700000  0.98840000  0.07390000  1.0 0.0906728439
H  H102  1  0.71300000  0.01160000  0.57390000  1.0 0.0906728439
H  H103  1  0.21300000  0.48840000  0.42610000  1.0 0.0906728439
H  H104  1  0.28700000  0.51160000  0.92610000  1.0 0.0906728439
H  H105  1  0.75730000  0.96380000  0.06720000  1.0 0.0585212927
H  H106  1  0.74270000  0.03620000  0.56720000  1.0 0.0585212927
H  H107  1  0.24270000  0.46380000  0.43280000  1.0 0.0585212927
H  H108  1  0.25730000  0.53620000  0.93280000  1.0 0.0585212927
H  H109  1  0.91950000  0.93220000  0.08980000  1.0 0.0906728439
H  H110  1  0.58050000  0.06780000  0.58980000  1.0 0.0906728439
H  H111  1  0.08050000  0.43220000  0.41020000  1.0 0.0803179306
H  H112  1  0.41950000  0.56780000  0.91020000  1.0 0.0906728439
C  C1  1  0.57960000  0.73670000  0.40930000  1.0 0.6249366236
C  C2  1  0.92040000  0.26330000  0.90930000  1.0 0.6249366236
C  C3  1  0.42040000  0.23670000  0.09070000  1.0 0.6249366236
C  C4  1  0.07960000  0.76330000  0.59070000  1.0 0.6249366236
C  C5  1  0.08800000  0.11030000  0.17610000  1.0 0.6404154358
C  C6  1  0.41200000  0.88970000  0.67610000  1.0 0.6404154358
C  C7  1  0.91200000  0.61030000  0.32390000  1.0 0.6404154358
C  C8  1  0.58800000  0.38970000  0.82390000  1.0 0.6404154358
C  C9  1  0.43100000  0.18170000  0.24420000  1.0 0.6294186396
C  C10  1  0.06900000  0.81830000  0.74420000  1.0 0.6294186396
C  C11  1  0.56900000  0.68170000  0.25580000  1.0 0.6294186396
C  C12  1  0.93100000  0.31830000  0.75580000  1.0 0.6294186396
C  C13  1  0.35010000  0.98670000  0.31450000  1.0 -0.097642971
C  C14  1  0.14990000  0.01330000  0.81450000  1.0 -0.097642971
C  C15  1  0.64990000  0.48670000  0.18550000  1.0 -0.097642971
C  C16  1  0.85010000  0.51330000  0.68550000  1.0 -0.097642971
C  C17  1  0.15900000  0.02520000  0.18470000  1.0 -0.0763525528
C  C18  1  0.34100000  0.97480000  0.68470000  1.0 -0.0763525528
C  C19  1  0.84100000  0.52520000  0.31530000  1.0 -0.0763525528
C  C20  1  0.65900000  0.47480000  0.81530000  1.0 -0.0763525528
C  C21  1  0.45480000  0.62350000  0.45700000  1.0 0.0585212927
C  C22  1  0.04520000  0.37650000  0.95700000  1.0 0.0585212927
C  C23  1  0.54520000  0.12350000  0.04300000  1.0 0.0585212927
C  C24  1  0.95480000  0.87650000  0.54300000  1.0 0.0585212927
C  C25  1  0.14700000  0.88900000  0.22170000  1.0 -0.0898252892
C  C26  1  0.35300000  0.11100000  0.72170000  1.0 -0.0898252892
C  C27  1  0.85300000  0.38900000  0.27830000  1.0 -0.0898252892
C  C28  1  0.64700000  0.61100000  0.77830000  1.0 -0.0898252892
C  C29  1  0.29300000  0.87260000  0.20000000  1.0 0.0673868379
C  C30  1  0.20700000  0.12740000  0.70000000  1.0 0.0673868379
C  C31  1  0.70700000  0.37260000  0.30000000  1.0 0.0673868379
C  C32  1  0.79300000  0.62740000  0.80000000  1.0 0.0673868379
C  C33  1  0.69950000  0.99290000  0.16140000  1.0 0.284390187
C  C34  1  0.80050000  0.00710000  0.66140000  1.0 0.284390187
C  C35  1  0.30050000  0.49290000  0.33860000  1.0 0.284390187
C  C36  1  0.19950000  0.50710000  0.83860000  1.0 0.284390187
C  C37  1  0.35100000  0.11810000  0.27670000  1.0 -0.0706761394
C  C38  1  0.14900000  0.88190000  0.77670000  1.0 -0.0706761394
C  C39  1  0.64900000  0.61810000  0.22330000  1.0 -0.0706761394
C  C40  1  0.85100000  0.38190000  0.72330000  1.0 -0.0706761394
C  C41  1  0.08190000  0.96630000  0.21310000  1.0 -0.0898252892
C  C42  1  0.41810000  0.03370000  0.71310000  1.0 -0.0898252892
C  C43  1  0.91810000  0.46630000  0.28690000  1.0 -0.0898252892
C  C44  1  0.58190000  0.53370000  0.78690000  1.0 -0.0898252892
C  C45  1  0.53190000  0.69740000  0.45660000  1.0 -0.0706761394
C  C46  1  0.96810000  0.30260000  0.95660000  1.0 -0.0706761394
C  C47  1  0.46810000  0.19740000  0.04340000  1.0 -0.0706761394
C  C48  1  0.03190000  0.80260000  0.54340000  1.0 -0.0706761394
C  C49  1  0.42630000  0.04680000  0.28650000  1.0 -0.0763525528
C  C50  1  0.07370000  0.95320000  0.78650000  1.0 -0.0763525528
C  C51  1  0.57370000  0.54680000  0.21350000  1.0 -0.0763525528
C  C52  1  0.92630000  0.45320000  0.71350000  1.0 -0.0763525528
C  C53  1  0.54330000  0.69490000  0.54210000  1.0 -0.0763525528
C  C54  1  0.95670000  0.30510000  0.04210000  1.0 -0.0763525528
C  C55  1  0.45670000  0.19490000  0.95790000  1.0 -0.0763525528
C  C56  1  0.04330000  0.80510000  0.45790000  1.0 -0.0763525528
C  C57  1  0.19740000  0.00780000  0.33270000  1.0 0.0803179306
C  C58  1  0.30260000  0.99220000  0.83270000  1.0 0.0803179306
C  C59  1  0.80260000  0.50780000  0.16730000  1.0 0.0803179306
C  C60  1  0.69740000  0.49220000  0.66730000  1.0 0.0803179306
C  C61  1  0.30390000  0.00340000  0.16670000  1.0 0.0529144139
C  C62  1  0.19610000  0.99660000  0.66666667  1.0 0.0585212927
C  C63  1  0.69610000  0.50340000  0.33333333  1.0 0.0529144139
C  C64  1  0.80390000  0.49660000  0.83330000  1.0 0.0529144139
C  C65  1  0.58210000  0.73390000  0.49830000  1.0 -0.0514786885
C  C66  1  0.91790000  0.26610000  0.99830000  1.0 -0.0514786885
C  C67  1  0.41790000  0.23390000  0.00170000  1.0 -0.0514786885
C  C68  1  0.08210000  0.76610000  0.50170000  1.0 -0.0514786885
C  C69  1  0.58200000  0.73360000  0.58820000  1.0 0.613117559
C  C70  1  0.91800000  0.26640000  0.08820000  1.0 0.613117559
C  C71  1  0.41800000  0.23360000  0.91180000  1.0 0.613117559
C  C72  1  0.08200000  0.76640000  0.41180000  1.0 0.613117559
C  C73  1  0.41600000  0.90360000  0.32480000  1.0 0.6404154358
C  C74  1  0.08400000  0.09640000  0.82480000  1.0 0.6404154358
C  C75  1  0.58400000  0.40360000  0.17520000  1.0 0.6404154358
C  C76  1  0.91600000  0.59640000  0.67520000  1.0 0.6404154358
C  C77  1  0.45530000  0.61840000  0.53910000  1.0 0.0585212927
C  C78  1  0.04470000  0.38160000  0.03910000  1.0 0.0585212927
C  C79  1  0.54470000  0.11840000  0.96090000  1.0 0.0585212927
C  C80  1  0.95530000  0.88160000  0.46090000  1.0 0.0585212927
C  C81  1  0.20140000  0.13350000  0.29600000  1.0 0.0529144139
C  C82  1  0.29860000  0.86650000  0.79600000  1.0 0.0529144139
C  C83  1  0.79860000  0.63350000  0.20400000  1.0 0.0585212927
C  C84  1  0.70140000  0.36650000  0.70400000  1.0 0.0529144139
C  C85  1  0.79740000  0.01440000  0.34020000  1.0 0.2264909019
C  C86  1  0.70260000  0.98560000  0.84020000  1.0 0.2264909019
C  C87  1  0.20260000  0.51440000  0.15980000  1.0 0.2264909019
C  C88  1  0.29740000  0.48560000  0.65980000  1.0 0.2264909019
C  C89  1  0.07810000  0.82650000  0.25500000  1.0 0.6294186396
C  C90  1  0.42190000  0.17350000  0.75500000  1.0 0.6294186396
C  C91  1  0.92190000  0.32650000  0.24500000  1.0 0.6294186396
C  C92  1  0.57810000  0.67350000  0.74500000  1.0 0.6294186396
C  C93  1  0.75900000  0.84710000  0.15690000  1.0 -0.3573774489
C  C94  1  0.74100000  0.15290000  0.65690000  1.0 -0.3573774489
C  C95  1  0.24100000  0.34710000  0.34310000  1.0 -0.3573774489
C  C96  1  0.25900000  0.65290000  0.84310000  1.0 -0.3573774489
C  C97  1  0.74500000  0.16240000  0.34480000  1.0 -0.3833269271
C  C98  1  0.75500000  0.83760000  0.84480000  1.0 -0.3833269271
C  C99  1  0.25500000  0.66240000  0.15520000  1.0 -0.3833269271
C  C100  1  0.24500000  0.33760000  0.65520000  1.0 -0.3833269271
C  C101  1  0.81400000  0.08550000  0.42050000  1.0 -0.2242349888
C  C102  1  0.68600000  0.91450000  0.92050000  1.0 -0.2242349888
C  C103  1  0.18600000  0.58550000  0.07950000  1.0 -0.2242349888
C  C104  1  0.31400000  0.41450000  0.57950000  1.0 -0.2242349888
C  C105  1  0.75900000  0.93210000  0.08460000  1.0 -0.1939933615
C  C106  1  0.74100000  0.06790000  0.58460000  1.0 -0.1939933615
C  C107  1  0.24100000  0.43210000  0.41540000  1.0 -0.1939933615
C  C108  1  0.25900000  0.56790000  0.91540000  1.0 -0.1939933615
C  C109  1  0.66700000  0.05600000  0.40800000  1.0 -0.1820872741
C  C110  1  0.83300000  0.94400000  0.90800000  1.0 -0.1820872741
C  C111  1  0.33300000  0.55600000  0.09200000  1.0 -0.1820872741
C  C112  1  0.16700000  0.44400000  0.59200000  1.0 -0.1820872741
C  C113  1  0.82500000  0.96600000  0.04600000  1.0 -0.0412804613
C  C114  1  0.67500000  0.03400000  0.54600000  1.0 -0.0412804613
C  C115  1  0.17500000  0.46600000  0.45400000  1.0 -0.0412804613
C  C116  1  0.32500000  0.53400000  0.95400000  1.0 -0.0412804613
N  N1  1  0.12870000  0.07990000  0.32480000  1.0 -0.2498849834
N  N2  1  0.37130000  0.92010000  0.82480000  1.0 -0.2498849834
N  N3  1  0.87130000  0.57990000  0.17520000  1.0 -0.2498849834
N  N4  1  0.62870000  0.42010000  0.67520000  1.0 -0.2498849834
N  N5  1  0.41480000  0.58280000  0.49710000  1.0 -0.2498849834
N  N6  1  0.08520000  0.41720000  0.99710000  1.0 -0.2498849834
N  N7  1  0.58520000  0.08280000  0.00290000  1.0 -0.2498849834
N  N8  1  0.91480000  0.91720000  0.50290000  1.0 -0.2498849834
N  N9  1  0.37130000  0.92810000  0.17460000  1.0 -0.2400392423
N  N10  1  0.12870000  0.07190000  0.67460000  1.0 -0.2400392423
N  N11  1  0.62870000  0.42810000  0.32540000  1.0 -0.2400392423
N  N12  1  0.87130000  0.57190000  0.82540000  1.0 -0.2400392423
N  N13  1  0.73800000  0.93210000  0.13780000  1.0 -0.0763525528
N  N14  1  0.76200000  0.06790000  0.63780000  1.0 -0.0763525528
N  N15  1  0.26200000  0.43210000  0.36220000  1.0 -0.0763525528
N  N16  1  0.23800000  0.56790000  0.86220000  1.0 -0.0763525528
N  N17  1  0.75100000  0.07880000  0.36600000  1.0 0.1020671969
N  N18  1  0.74900000  0.92120000  0.86600000  1.0 0.1020671969
N  N19  1  0.24900000  0.57880000  0.13400000  1.0 0.1020671969
N  N20  1  0.25100000  0.42120000  0.63400000  1.0 0.1020671969
O  O1  1  0.52080000  0.71220000  0.37140000  1.0 -0.661842482
O  O2  1  0.97920000  0.28780000  0.87140000  1.0 -0.661842482
O  O3  1  0.47920000  0.21220000  0.12860000  1.0 -0.661842482
O  O4  1  0.02080000  0.78780000  0.62860000  1.0 -0.661842482
O  O5  1  0.94160000  0.11880000  0.18390000  1.0 -0.6969828325
O  O6  1  0.55840000  0.88120000  0.68390000  1.0 -0.6969828325
O  O7  1  0.05840000  0.61880000  0.31610000  1.0 -0.6969828325
O  O8  1  0.44160000  0.38120000  0.81610000  1.0 -0.6969828325
O  O9  1  0.14650000  0.76280000  0.26480000  1.0 -0.6103073028
O  O10  1  0.35350000  0.23720000  0.76480000  1.0 -0.6103073028
O  O11  1  0.85350000  0.26280000  0.23520000  1.0 -0.6103073028
O  O12  1  0.64650000  0.73720000  0.73520000  1.0 -0.6103073028
O  O13  1  0.66720000  0.06600000  0.14500000  1.0 -0.5992549228
O  O14  1  0.83280000  0.93400000  0.64500000  1.0 -0.5992549228
O  O15  1  0.33280000  0.56600000  0.35500000  1.0 -0.5992549228
O  O16  1  0.16720000  0.43400000  0.85500000  1.0 -0.5992549228
O  O17  1  0.51520000  0.70670000  0.62710000  1.0 -0.7531259226
O  O18  1  0.98480000  0.29330000  0.12710000  1.0 -0.7531259226
O  O19  1  0.48480000  0.20670000  0.87290000  1.0 -0.7531259226
O  O20  1  0.01520000  0.79330000  0.37290000  1.0 -0.7531259226
O  O21  1  0.17490000  0.16380000  0.16010000  1.0 -0.6103073028
O  O22  1  0.32510000  0.83620000  0.66010000  1.0 -0.6103073028
O  O23  1  0.82510000  0.66380000  0.33990000  1.0 -0.6103073028
O  O24  1  0.67490000  0.33620000  0.83990000  1.0 -0.6103073028
O  O25  1  0.68420000  0.78870000  0.58970000  1.0 -0.5992549228
O  O26  1  0.81580000  0.21130000  0.08970000  1.0 -0.5992549228
O  O27  1  0.31580000  0.28870000  0.91030000  1.0 -0.5992549228
O  O28  1  0.18420000  0.71130000  0.41030000  1.0 -0.5992549228
O  O29  1  0.32140000  0.84410000  0.33680000  1.0 -0.7102580014
O  O30  1  0.17860000  0.15590000  0.83680000  1.0 -0.7102580014
O  O31  1  0.67860000  0.34410000  0.16320000  1.0 -0.7102580014
O  O32  1  0.82140000  0.65590000  0.66320000  1.0 -0.7102580014
O  O33  1  0.68550000  0.79290000  0.41150000  1.0 -0.6473119723
O  O34  1  0.81450000  0.20710000  0.91150000  1.0 -0.6473119723
O  O35  1  0.31450000  0.29290000  0.08850000  1.0 -0.6473119723
O  O36  1  0.18550000  0.70710000  0.58850000  1.0 -0.6473119723
O  O37  1  0.94010000  0.84710000  0.27170000  1.0 -0.7102580014
O  O38  1  0.55990000  0.15290000  0.77170000  1.0 -0.7102580014
O  O39  1  0.05990000  0.34710000  0.22830000  1.0 -0.7102580014
O  O40  1  0.44010000  0.65290000  0.72830000  1.0 -0.7102580014
O  O41  1  0.56050000  0.16680000  0.22920000  1.0 -0.6103073028
O  O42  1  0.93950000  0.83320000  0.72920000  1.0 -0.6103073028
O  O43  1  0.43950000  0.66680000  0.27080000  1.0 -0.6103073028
O  O44  1  0.06050000  0.33320000  0.77080000  1.0 -0.6103073028
O  O45  1  0.55720000  0.89470000  0.31580000  1.0 -0.6473119723
O  O46  1  0.94280000  0.10530000  0.81580000  1.0 -0.6473119723
O  O47  1  0.44280000  0.39470000  0.18420000  1.0 -0.6473119723
O  O48  1  0.05720000  0.60530000  0.68420000  1.0 -0.6473119723
O  O49  1  0.82700000  0.94530000  0.35640000  1.0 -0.5124388801
O  O50  1  0.67300000  0.05470000  0.85640000  1.0 -0.5124388801
O  O51  1  0.17300000  0.44530000  0.14360000  1.0 -0.5124388801
O  O52  1  0.32700000  0.55470000  0.64360000  1.0 -0.5124388801
O  O53  1  0.34530000  0.24710000  0.23460000  1.0 -0.7189580964
O  O54  1  0.15470000  0.75290000  0.73460000  1.0 -0.7189580964
O  O55  1  0.65470000  0.74710000  0.26540000  1.0 -0.7189580964
O  O56  1  0.84530000  0.25290000  0.76540000  1.0 -0.7189580964
