# DDEC6 charges by PACMAN v1.1 (https://github.com/mtap-research/PACMAN-charge/)
data_BIYVOX_ASR_pacman
_symmetry_space_group_name_H-M   'P 1'
_cell_length_a   16.10300000
_cell_length_b   25.10200000
_cell_length_c   20.49020000
_cell_angle_alpha   90.00000000
_cell_angle_beta   127.62100000
_cell_angle_gamma   90.00000000
_symmetry_Int_Tables_number   1
_chemical_formula_structural   Co2H46C56N8O11
_chemical_formula_sum   'Co8 H184 C224 N32 O44'
_cell_volume   6560.28436852
_cell_formula_units_Z   4
loop_
 _symmetry_equiv_pos_site_id
 _symmetry_equiv_pos_as_xyz
  1  'x, y, z'
loop_
 _atom_site_type_symbol
 _atom_site_label
 _atom_site_symmetry_multiplicity
 _atom_site_fract_x
 _atom_site_fract_y
 _atom_site_fract_z
 _atom_site_occupancy
 _atom_site_charge
Co  Co1  1  0.90440000  0.20351000  0.42312000  1.0 0.8916608399
Co  Co2  1  0.80461000  0.12215000  0.50959000  1.0 0.899785251
Co  Co3  1  0.09560000  0.70351000  0.07688000  1.0 0.8916608399
Co  Co4  1  0.19539000  0.62215000  0.99041000  1.0 0.899785251
Co  Co5  1  0.09560000  0.79649000  0.57688000  1.0 0.8916608399
Co  Co6  1  0.19539000  0.87785000  0.49041000  1.0 0.899785251
Co  Co7  1  0.90440000  0.29649000  0.92312000  1.0 0.8916608399
Co  Co8  1  0.80461000  0.37785000  0.00959000  1.0 0.899785251
H  H1  1  0.21710000  0.18590000  0.63930000  1.0 0.1195329739
H  H2  1  0.60890000  0.26630000  0.97600000  1.0 0.1195329739
H  H3  1  0.60470000  0.09810000  0.88180000  1.0 0.1397604215
H  H4  1  0.73590000  0.15790000  0.91600000  1.0 0.112047189
H  H5  1  0.11110000  0.08250000  0.72230000  1.0 0.1195329739
H  H6  1  0.01520000  0.10270000  0.98580000  1.0 0.1397604215
H  H7  1  0.58430000  0.26950000  0.08020000  1.0 0.1195329739
H  H8  1  0.08370000  0.16100000  0.33900000  1.0 0.1195329739
H  H9  1  0.38770000  0.17290000  0.75900000  1.0 0.1300996552
H  H10  1  0.02990000  0.85520000  0.18710000  1.0 0.1195329739
H  H11  1  0.17550000  0.11050000  0.01110000  1.0 0.1300996552
H  H12  1  0.17170000  0.13080000  0.28990000  1.0 0.1397604215
H  H13  1  0.75910000  0.26640000  0.13230000  1.0 0.1300996552
H  H14  1  0.98160000  0.01330000  0.32550000  1.0 0.1195329739
H  H15  1  0.39870000  0.10000000  0.20710000  1.0 0.1195329739
H  H16  1  0.50220000  0.08940000  0.44110000  1.0 0.112047189
H  H17  1  0.11920000  0.26580000  0.96010000  1.0 0.1195329739
H  H18  1  0.28070000  0.07030000  0.84170000  1.0 0.1397604215
H  H19  1  0.17060000  0.88660000  0.19200000  1.0 0.112047189
H  H20  1  0.90600000  0.94150000  0.46160000  1.0 0.1300996552
H  H21  1  0.91790000  0.03070000  0.48970000  1.0 0.112047189
H  H22  1  0.77590000  0.89120000  0.44650000  1.0 0.1195329739
H  H23  1  0.47620000  0.20740000  0.93810000  1.0 0.1397604215
H  H24  1  0.66710000  0.02430000  0.47800000  1.0 0.1047096984
H  H25  1  0.66950000  0.22100000  0.29860000  1.0 0.112047189
H  H26  1  0.34320000  0.05360000  0.39710000  1.0 0.1300996552
H  H27  1  0.91130000  0.17670000  0.94790000  1.0 0.112047189
H  H28  1  0.32520000  0.91130000  0.43350000  1.0 0.112047189
H  H29  1  0.04190000  0.85390000  0.30370000  1.0 0.112047189
H  H30  1  0.88400000  0.23920000  0.26710000  1.0 0.1047096984
H  H31  1  0.07140000  0.98210000  0.27780000  1.0 0.1300996552
H  H32  1  0.23720000  0.06800000  0.16280000  1.0 0.1300996552
H  H33  1  0.53940000  0.24620000  0.26910000  1.0 0.1489878799
H  H34  1  0.44060000  0.21030000  0.21000000  1.0 0.1577659415
H  H35  1  0.43000000  0.27250000  0.20350000  1.0 0.1489878799
H  H36  1  0.28440000  0.92540000  0.20170000  1.0 0.1397604215
H  H37  1  0.40260000  0.90920000  0.25100000  1.0 0.1577659415
H  H38  1  0.37220000  0.96870000  0.25000000  1.0 0.1577659415
H  H39  1  0.69240000  0.85420000  0.48520000  1.0 0.1489878799
H  H40  1  0.57310000  0.84630000  0.41210000  1.0 0.1577659415
H  H41  1  0.60860000  0.85970000  0.50050000  1.0 0.1577659415
H  H42  1  0.26200000  0.12270000  0.96060000  1.0 0.1300996552
H  H43  1  0.37420000  0.13460000  0.04190000  1.0 0.1577659415
H  H44  1  0.33600000  0.16250000  0.95940000  1.0 0.1577659415
H  H45  1  0.83900000  0.11400000  0.38800000  1.0 0.374145568
H  H46  1  0.72500000  0.13400000  0.36400000  1.0 0.3803315243
H  H47  1  0.78290000  0.68590000  0.86070000  1.0 0.1195329739
H  H48  1  0.39110000  0.76630000  0.52400000  1.0 0.1195329739
H  H49  1  0.39530000  0.59810000  0.61820000  1.0 0.1397604215
H  H50  1  0.26410000  0.65790000  0.58400000  1.0 0.112047189
H  H51  1  0.88890000  0.58250000  0.77770000  1.0 0.1195329739
H  H52  1  0.98480000  0.60270000  0.51420000  1.0 0.1397604215
H  H53  1  0.41570000  0.76950000  0.41980000  1.0 0.1195329739
H  H54  1  0.91630000  0.66100000  0.16100000  1.0 0.1195329739
H  H55  1  0.61230000  0.67290000  0.74100000  1.0 0.1300996552
H  H56  1  0.97010000  0.35520000  0.31290000  1.0 0.1195329739
H  H57  1  0.82450000  0.61050000  0.48890000  1.0 0.1300996552
H  H58  1  0.82830000  0.63080000  0.21010000  1.0 0.1397604215
H  H59  1  0.24090000  0.76640000  0.36770000  1.0 0.1300996552
H  H60  1  0.01840000  0.51330000  0.17450000  1.0 0.1195329739
H  H61  1  0.60130000  0.60000000  0.29290000  1.0 0.1195329739
H  H62  1  0.49780000  0.58940000  0.05890000  1.0 0.112047189
H  H63  1  0.88080000  0.76580000  0.53990000  1.0 0.1195329739
H  H64  1  0.71930000  0.57030000  0.65830000  1.0 0.1397604215
H  H65  1  0.82940000  0.38660000  0.30800000  1.0 0.112047189
H  H66  1  0.09400000  0.44150000  0.03840000  1.0 0.1300996552
H  H67  1  0.08210000  0.53070000  0.01030000  1.0 0.112047189
H  H68  1  0.22410000  0.39120000  0.05350000  1.0 0.1195329739
H  H69  1  0.52380000  0.70740000  0.56190000  1.0 0.1397604215
H  H70  1  0.33290000  0.52430000  0.02200000  1.0 0.1047096984
H  H71  1  0.33050000  0.72100000  0.20140000  1.0 0.112047189
H  H72  1  0.65680000  0.55360000  0.10290000  1.0 0.1300996552
H  H73  1  0.08870000  0.67670000  0.55210000  1.0 0.112047189
H  H74  1  0.67480000  0.41130000  0.06650000  1.0 0.112047189
H  H75  1  0.95810000  0.35390000  0.19630000  1.0 0.112047189
H  H76  1  0.11600000  0.73920000  0.23290000  1.0 0.1047096984
H  H77  1  0.92860000  0.48210000  0.22220000  1.0 0.1300996552
H  H78  1  0.76280000  0.56800000  0.33720000  1.0 0.1300996552
H  H79  1  0.46060000  0.74620000  0.23090000  1.0 0.1489878799
H  H80  1  0.55940000  0.71030000  0.29000000  1.0 0.1577659415
H  H81  1  0.57000000  0.77250000  0.29650000  1.0 0.1489878799
H  H82  1  0.71560000  0.42540000  0.29830000  1.0 0.1397604215
H  H83  1  0.59740000  0.40920000  0.24900000  1.0 0.1577659415
H  H84  1  0.62780000  0.46870000  0.25000000  1.0 0.1577659415
H  H85  1  0.30760000  0.35420000  0.01480000  1.0 0.1489878799
H  H86  1  0.42690000  0.34630000  0.08790000  1.0 0.1577659415
H  H87  1  0.39140000  0.35970000  0.99950000  1.0 0.1577659415
H  H88  1  0.73800000  0.62270000  0.53940000  1.0 0.1300996552
H  H89  1  0.62580000  0.63460000  0.45810000  1.0 0.1577659415
H  H90  1  0.66400000  0.66250000  0.54060000  1.0 0.1577659415
H  H91  1  0.16100000  0.61400000  0.11200000  1.0 0.374145568
H  H92  1  0.27500000  0.63400000  0.13600000  1.0 0.3803315243
H  H93  1  0.78290000  0.81410000  0.36070000  1.0 0.1195329739
H  H94  1  0.39110000  0.73370000  0.02400000  1.0 0.1195329739
H  H95  1  0.39530000  0.90190000  0.11820000  1.0 0.1397604215
H  H96  1  0.26410000  0.84210000  0.08400000  1.0 0.112047189
H  H97  1  0.88890000  0.91750000  0.27770000  1.0 0.1195329739
H  H98  1  0.98480000  0.89730000  0.01420000  1.0 0.1397604215
H  H99  1  0.41570000  0.73050000  0.91980000  1.0 0.1195329739
H  H100  1  0.91630000  0.83900000  0.66100000  1.0 0.1195329739
H  H101  1  0.61230000  0.82710000  0.24100000  1.0 0.1300996552
H  H102  1  0.97010000  0.14480000  0.81290000  1.0 0.1195329739
H  H103  1  0.82450000  0.88950000  0.98890000  1.0 0.1300996552
H  H104  1  0.82830000  0.86920000  0.71010000  1.0 0.1397604215
H  H105  1  0.24090000  0.73360000  0.86770000  1.0 0.1300996552
H  H106  1  0.01840000  0.98670000  0.67450000  1.0 0.1195329739
H  H107  1  0.60130000  0.90000000  0.79290000  1.0 0.1195329739
H  H108  1  0.49780000  0.91060000  0.55890000  1.0 0.112047189
H  H109  1  0.88080000  0.73420000  0.03990000  1.0 0.1195329739
H  H110  1  0.71930000  0.92970000  0.15830000  1.0 0.1397604215
H  H111  1  0.82940000  0.11340000  0.80800000  1.0 0.112047189
H  H112  1  0.09400000  0.05850000  0.53840000  1.0 0.1300996552
H  H113  1  0.08210000  0.96930000  0.51030000  1.0 0.112047189
H  H114  1  0.22410000  0.10880000  0.55350000  1.0 0.1195329739
H  H115  1  0.52380000  0.79260000  0.06190000  1.0 0.1397604215
H  H116  1  0.33290000  0.97570000  0.52200000  1.0 0.1047096984
H  H117  1  0.33050000  0.77900000  0.70140000  1.0 0.112047189
H  H118  1  0.65680000  0.94640000  0.60290000  1.0 0.1300996552
H  H119  1  0.08870000  0.82330000  0.05210000  1.0 0.112047189
H  H120  1  0.67480000  0.08870000  0.56650000  1.0 0.112047189
H  H121  1  0.95810000  0.14610000  0.69630000  1.0 0.112047189
H  H122  1  0.11600000  0.76080000  0.73290000  1.0 0.1047096984
H  H123  1  0.92860000  0.01790000  0.72220000  1.0 0.1300996552
H  H124  1  0.76280000  0.93200000  0.83720000  1.0 0.1300996552
H  H125  1  0.46060000  0.75380000  0.73090000  1.0 0.1489878799
H  H126  1  0.55940000  0.78970000  0.79000000  1.0 0.1577659415
H  H127  1  0.57000000  0.72750000  0.79650000  1.0 0.1489878799
H  H128  1  0.71560000  0.07460000  0.79830000  1.0 0.1397604215
H  H129  1  0.59740000  0.09080000  0.74900000  1.0 0.1577659415
H  H130  1  0.62780000  0.03130000  0.75000000  1.0 0.1577659415
H  H131  1  0.30760000  0.14580000  0.51480000  1.0 0.1489878799
H  H132  1  0.42690000  0.15370000  0.58790000  1.0 0.1577659415
H  H133  1  0.39140000  0.14030000  0.49950000  1.0 0.1577659415
H  H134  1  0.73800000  0.87730000  0.03940000  1.0 0.1300996552
H  H135  1  0.62580000  0.86540000  0.95810000  1.0 0.1577659415
H  H136  1  0.66400000  0.83750000  0.04060000  1.0 0.1577659415
H  H137  1  0.16100000  0.88600000  0.61200000  1.0 0.374145568
H  H138  1  0.27500000  0.86600000  0.63600000  1.0 0.3803315243
H  H139  1  0.21710000  0.31410000  0.13930000  1.0 0.1195329739
H  H140  1  0.60890000  0.23370000  0.47600000  1.0 0.1195329739
H  H141  1  0.60470000  0.40190000  0.38180000  1.0 0.1397604215
H  H142  1  0.73590000  0.34210000  0.41600000  1.0 0.112047189
H  H143  1  0.11110000  0.41750000  0.22230000  1.0 0.1195329739
H  H144  1  0.01520000  0.39730000  0.48580000  1.0 0.1397604215
H  H145  1  0.58430000  0.23050000  0.58020000  1.0 0.1195329739
H  H146  1  0.08370000  0.33900000  0.83900000  1.0 0.1195329739
H  H147  1  0.38770000  0.32710000  0.25900000  1.0 0.1300996552
H  H148  1  0.02990000  0.64480000  0.68710000  1.0 0.1195329739
H  H149  1  0.17550000  0.38950000  0.51110000  1.0 0.1300996552
H  H150  1  0.17170000  0.36920000  0.78990000  1.0 0.1397604215
H  H151  1  0.75910000  0.23360000  0.63230000  1.0 0.1300996552
H  H152  1  0.98160000  0.48670000  0.82550000  1.0 0.1195329739
H  H153  1  0.39870000  0.40000000  0.70710000  1.0 0.1195329739
H  H154  1  0.50220000  0.41060000  0.94110000  1.0 0.112047189
H  H155  1  0.11920000  0.23420000  0.46010000  1.0 0.1195329739
H  H156  1  0.28070000  0.42970000  0.34170000  1.0 0.1397604215
H  H157  1  0.17060000  0.61340000  0.69200000  1.0 0.112047189
H  H158  1  0.90600000  0.55850000  0.96160000  1.0 0.1300996552
H  H159  1  0.91790000  0.46930000  0.98970000  1.0 0.112047189
H  H160  1  0.77590000  0.60880000  0.94650000  1.0 0.1195329739
H  H161  1  0.47620000  0.29260000  0.43810000  1.0 0.1397604215
H  H162  1  0.66710000  0.47570000  0.97800000  1.0 0.1047096984
H  H163  1  0.66950000  0.27900000  0.79860000  1.0 0.112047189
H  H164  1  0.34320000  0.44640000  0.89710000  1.0 0.1300996552
H  H165  1  0.91130000  0.32330000  0.44790000  1.0 0.112047189
H  H166  1  0.32520000  0.58870000  0.93350000  1.0 0.112047189
H  H167  1  0.04190000  0.64610000  0.80370000  1.0 0.112047189
H  H168  1  0.88400000  0.26080000  0.76710000  1.0 0.1047096984
H  H169  1  0.07140000  0.51790000  0.77780000  1.0 0.1300996552
H  H170  1  0.23720000  0.43200000  0.66280000  1.0 0.1300996552
H  H171  1  0.53940000  0.25380000  0.76910000  1.0 0.1489878799
H  H172  1  0.44060000  0.28970000  0.71000000  1.0 0.1577659415
H  H173  1  0.43000000  0.22750000  0.70350000  1.0 0.1489878799
H  H174  1  0.28440000  0.57460000  0.70170000  1.0 0.1397604215
H  H175  1  0.40260000  0.59080000  0.75100000  1.0 0.1577659415
H  H176  1  0.37220000  0.53130000  0.75000000  1.0 0.1577659415
H  H177  1  0.69240000  0.64580000  0.98520000  1.0 0.1489878799
H  H178  1  0.57310000  0.65370000  0.91210000  1.0 0.1577659415
H  H179  1  0.60860000  0.64030000  0.00050000  1.0 0.1577659415
H  H180  1  0.26200000  0.37730000  0.46060000  1.0 0.1300996552
H  H181  1  0.37420000  0.36540000  0.54190000  1.0 0.1577659415
H  H182  1  0.33600000  0.33750000  0.45940000  1.0 0.1577659415
H  H183  1  0.83900000  0.38600000  0.88800000  1.0 0.374145568
H  H184  1  0.72500000  0.36600000  0.86400000  1.0 0.3803315243
C  C1  1  0.14590000  0.13567000  0.66860000  1.0 -0.049847121
C  C2  1  0.22950000  0.16266000  0.67980000  1.0 -0.0820409625
C  C3  1  0.60730000  0.24479000  0.18350000  1.0 -0.0105958734
C  C4  1  0.60800000  0.23271000  0.95650000  1.0 -0.0910816355
C  C5  1  0.52780000  0.14794000  0.90500000  1.0 0.2316895282
C  C6  1  0.70320000  0.95273000  0.45840000  1.0 -0.0198648622
C  C7  1  0.68690000  0.21866000  0.95070000  1.0 -0.0426166642
C  C8  1  0.13110000  0.05386000  0.27940000  1.0 0.2603292032
C  C9  1  0.02120000  0.09032000  0.33600000  1.0 -0.0426166642
C  C10  1  0.46830000  0.09781000  0.32930000  1.0 -0.03377103
C  C11  1  0.60520000  0.13223000  0.89960000  1.0 -0.202681264
C  C12  1  0.16540000  0.18944000  0.98830000  1.0 -0.0198648622
C  C13  1  0.68450000  0.16783000  0.92120000  1.0 -0.0966509799
C  C14  1  0.16620000  0.10099000  0.72940000  1.0 -0.0910816355
C  C15  1  0.03750000  0.13550000  0.98060000  1.0 -0.1516490648
C  C16  1  0.63550000  0.25880000  0.13430000  1.0 -0.0740026305
C  C17  1  0.08020000  0.12514000  0.32610000  1.0 -0.0820409625
C  C18  1  0.34970000  0.12064000  0.81130000  1.0 0.2492484158
C  C19  1  0.26600000  0.90228000  0.31490000  1.0 -0.0105958734
C  C20  1  0.33210000  0.15498000  0.75170000  1.0 -0.226701776
C  C21  1  0.57670000  0.11710000  0.36070000  1.0 0.5608129954
C  C22  1  0.49680000  0.24284000  0.15320000  1.0 0.2603292032
C  C23  1  0.09080000  0.86706000  0.23660000  1.0 -0.1516490648
C  C24  1  0.13280000  0.14021000  0.99580000  1.0 -0.0910816355
C  C25  1  0.36070000  0.92202000  0.32610000  1.0 0.2603292032
C  C26  1  0.13370000  0.10698000  0.29720000  1.0 -0.2226029286
C  C27  1  0.27530000  0.05787000  0.27600000  1.0 0.2380108392
C  C28  1  0.73950000  0.25703000  0.16510000  1.0 -0.1322607989
C  C29  1  0.01960000  0.03710000  0.31830000  1.0 -0.0820409625
C  C30  1  0.38760000  0.09124000  0.24530000  1.0 -0.0966509799
C  C31  1  0.27090000  0.19515000  0.01000000  1.0 0.2603292032
C  C32  1  0.44950000  0.08433000  0.38510000  1.0 -0.0740026305
C  C33  1  0.77100000  0.25787000  0.97330000  1.0 0.580356211
C  C34  1  0.96200000  0.11092000  0.36600000  1.0 0.5608129954
C  C35  1  0.09790000  0.23255000  0.96480000  1.0 0.058001177
C  C36  1  0.26790000  0.09343000  0.80110000  1.0 -0.202681264
C  C37  1  0.03580000  0.14471000  0.59190000  1.0 0.580356211
C  C38  1  0.17510000  0.88551000  0.23950000  1.0 -0.0910816355
C  C39  1  0.61270000  0.92393000  0.44260000  1.0 0.2603292032
C  C40  1  0.85720000  0.95742000  0.46570000  1.0 -0.1322607989
C  C41  1  0.86370000  0.01108000  0.48210000  1.0 0.0789832627
C  C42  1  0.77900000  0.92769000  0.45540000  1.0 -0.0740026305
C  C43  1  0.52850000  0.19767000  0.93390000  1.0 -0.202681264
C  C44  1  0.71600000  0.00719000  0.47520000  1.0 0.058001177
C  C45  1  0.68710000  0.22983000  0.26440000  1.0 0.058001177
C  C46  1  0.35390000  0.06354000  0.35900000  1.0 -0.2086066822
C  C47  1  0.97550000  0.18015000  0.95760000  1.0 0.058001177
C  C48  1  0.26510000  0.90017000  0.38280000  1.0 0.0517557455
C  C49  1  0.09860000  0.86647000  0.30680000  1.0 0.058001177
C  C50  1  0.81400000  0.24086000  0.24620000  1.0 0.0789832627
C  C51  1  0.07360000  0.01807000  0.28970000  1.0 -0.2086066822
C  C52  1  0.29140000  0.07176000  0.21890000  1.0 -0.2086066822
C  C53  1  0.47480000  0.24300000  0.21450000  1.0 -0.5103294695
C  C54  1  0.35440000  0.93230000  0.25020000  1.0 -0.5103294695
C  C55  1  0.62260000  0.86587000  0.46180000  1.0 -0.5161817962
C  C56  1  0.31480000  0.14960000  0.99130000  1.0 -0.4906349773
C  C57  1  0.85410000  0.63567000  0.83140000  1.0 -0.049847121
C  C58  1  0.77050000  0.66266000  0.82020000  1.0 -0.0820409625
C  C59  1  0.39270000  0.74479000  0.31650000  1.0 -0.0105958734
C  C60  1  0.39200000  0.73271000  0.54350000  1.0 -0.0910816355
C  C61  1  0.47220000  0.64794000  0.59500000  1.0 0.2316895282
C  C62  1  0.29680000  0.45273000  0.04160000  1.0 -0.0198648622
C  C63  1  0.31310000  0.71866000  0.54930000  1.0 -0.0426166642
C  C64  1  0.86890000  0.55386000  0.22060000  1.0 0.2603292032
C  C65  1  0.97880000  0.59032000  0.16400000  1.0 -0.0426166642
C  C66  1  0.53170000  0.59781000  0.17070000  1.0 -0.03377103
C  C67  1  0.39480000  0.63223000  0.60040000  1.0 -0.202681264
C  C68  1  0.83460000  0.68944000  0.51170000  1.0 -0.0198648622
C  C69  1  0.31550000  0.66783000  0.57880000  1.0 -0.0966509799
C  C70  1  0.83380000  0.60099000  0.77060000  1.0 -0.0910816355
C  C71  1  0.96250000  0.63550000  0.51940000  1.0 -0.1516490648
C  C72  1  0.36450000  0.75880000  0.36570000  1.0 -0.0740026305
C  C73  1  0.91980000  0.62514000  0.17390000  1.0 -0.0820409625
C  C74  1  0.65030000  0.62064000  0.68870000  1.0 0.2492484158
C  C75  1  0.73400000  0.40228000  0.18510000  1.0 -0.0105958734
C  C76  1  0.66790000  0.65498000  0.74830000  1.0 -0.226701776
C  C77  1  0.42330000  0.61710000  0.13930000  1.0 0.5608129954
C  C78  1  0.50320000  0.74284000  0.34680000  1.0 0.2603292032
C  C79  1  0.90920000  0.36706000  0.26340000  1.0 -0.1516490648
C  C80  1  0.86720000  0.64021000  0.50420000  1.0 -0.0910816355
C  C81  1  0.63930000  0.42202000  0.17390000  1.0 0.2603292032
C  C82  1  0.86630000  0.60698000  0.20280000  1.0 -0.2226029286
C  C83  1  0.72470000  0.55787000  0.22400000  1.0 0.2380108392
C  C84  1  0.26050000  0.75703000  0.33490000  1.0 -0.1322607989
C  C85  1  0.98040000  0.53710000  0.18170000  1.0 -0.0820409625
C  C86  1  0.61240000  0.59124000  0.25470000  1.0 -0.0966509799
C  C87  1  0.72910000  0.69515000  0.49000000  1.0 0.2603292032
C  C88  1  0.55050000  0.58433000  0.11490000  1.0 -0.0740026305
C  C89  1  0.22900000  0.75787000  0.52670000  1.0 0.580356211
C  C90  1  0.03800000  0.61092000  0.13400000  1.0 0.5608129954
C  C91  1  0.90210000  0.73255000  0.53520000  1.0 0.058001177
C  C92  1  0.73210000  0.59343000  0.69890000  1.0 -0.202681264
C  C93  1  0.96420000  0.64471000  0.90810000  1.0 0.580356211
C  C94  1  0.82490000  0.38551000  0.26050000  1.0 -0.0910816355
C  C95  1  0.38730000  0.42393000  0.05740000  1.0 0.2603292032
C  C96  1  0.14280000  0.45742000  0.03430000  1.0 -0.1322607989
C  C97  1  0.13630000  0.51108000  0.01790000  1.0 0.0789832627
C  C98  1  0.22100000  0.42769000  0.04460000  1.0 -0.0740026305
C  C99  1  0.47150000  0.69767000  0.56610000  1.0 -0.202681264
C  C100  1  0.28400000  0.50719000  0.02480000  1.0 0.058001177
C  C101  1  0.31290000  0.72983000  0.23560000  1.0 0.058001177
C  C102  1  0.64610000  0.56354000  0.14100000  1.0 -0.2086066822
C  C103  1  0.02450000  0.68015000  0.54240000  1.0 0.058001177
C  C104  1  0.73490000  0.40017000  0.11720000  1.0 0.0517557455
C  C105  1  0.90140000  0.36647000  0.19320000  1.0 0.058001177
C  C106  1  0.18600000  0.74086000  0.25380000  1.0 0.0789832627
C  C107  1  0.92640000  0.51807000  0.21030000  1.0 -0.2086066822
C  C108  1  0.70860000  0.57176000  0.28110000  1.0 -0.2086066822
C  C109  1  0.52520000  0.74300000  0.28550000  1.0 -0.5103294695
C  C110  1  0.64560000  0.43230000  0.24980000  1.0 -0.5103294695
C  C111  1  0.37740000  0.36587000  0.03820000  1.0 -0.5161817962
C  C112  1  0.68520000  0.64960000  0.50870000  1.0 -0.4906349773
C  C113  1  0.85410000  0.86433000  0.33140000  1.0 -0.049847121
C  C114  1  0.77050000  0.83734000  0.32020000  1.0 -0.0820409625
C  C115  1  0.39270000  0.75521000  0.81650000  1.0 -0.0105958734
C  C116  1  0.39200000  0.76729000  0.04350000  1.0 -0.0910816355
C  C117  1  0.47220000  0.85206000  0.09500000  1.0 0.2316895282
C  C118  1  0.29680000  0.04727000  0.54160000  1.0 -0.0198648622
C  C119  1  0.31310000  0.78134000  0.04930000  1.0 -0.0426166642
C  C120  1  0.86890000  0.94614000  0.72060000  1.0 0.2603292032
C  C121  1  0.97880000  0.90968000  0.66400000  1.0 -0.049847121
C  C122  1  0.53170000  0.90219000  0.67070000  1.0 -0.03377103
C  C123  1  0.39480000  0.86777000  0.10040000  1.0 -0.202681264
C  C124  1  0.83460000  0.81056000  0.01170000  1.0 -0.0198648622
C  C125  1  0.31550000  0.83217000  0.07880000  1.0 -0.0966509799
C  C126  1  0.83380000  0.89901000  0.27060000  1.0 -0.0910816355
C  C127  1  0.96250000  0.86450000  0.01940000  1.0 -0.1516490648
C  C128  1  0.36450000  0.74120000  0.86570000  1.0 -0.0740026305
C  C129  1  0.91980000  0.87486000  0.67390000  1.0 -0.0820409625
C  C130  1  0.65030000  0.87936000  0.18870000  1.0 0.2492484158
C  C131  1  0.73400000  0.09772000  0.68510000  1.0 -0.0105958734
C  C132  1  0.66790000  0.84502000  0.24830000  1.0 -0.226701776
C  C133  1  0.42330000  0.88290000  0.63930000  1.0 0.5608129954
C  C134  1  0.50320000  0.75716000  0.84680000  1.0 0.2655141359
C  C135  1  0.90920000  0.13294000  0.76340000  1.0 -0.1516490648
C  C136  1  0.86720000  0.85979000  0.00420000  1.0 -0.0910816355
C  C137  1  0.63930000  0.07798000  0.67390000  1.0 0.2603292032
C  C138  1  0.86630000  0.89302000  0.70280000  1.0 -0.2226029286
C  C139  1  0.72470000  0.94213000  0.72400000  1.0 0.2380108392
C  C140  1  0.26050000  0.74297000  0.83490000  1.0 -0.1322607989
C  C141  1  0.98040000  0.96290000  0.68170000  1.0 -0.0820409625
C  C142  1  0.61240000  0.90876000  0.75470000  1.0 -0.0966509799
C  C143  1  0.72910000  0.80485000  0.99000000  1.0 0.2603292032
C  C144  1  0.55050000  0.91567000  0.61490000  1.0 -0.0740026305
C  C145  1  0.22900000  0.74213000  0.02670000  1.0 0.580356211
C  C146  1  0.03800000  0.88908000  0.63400000  1.0 0.5608129954
C  C147  1  0.90210000  0.76745000  0.03520000  1.0 0.058001177
C  C148  1  0.73210000  0.90657000  0.19890000  1.0 -0.202681264
C  C149  1  0.96420000  0.85529000  0.40810000  1.0 0.580356211
C  C150  1  0.82490000  0.11449000  0.76050000  1.0 -0.0910816355
C  C151  1  0.38730000  0.07607000  0.55740000  1.0 0.2603292032
C  C152  1  0.14280000  0.04258000  0.53430000  1.0 -0.1322607989
C  C153  1  0.13630000  0.98892000  0.51790000  1.0 0.0789832627
C  C154  1  0.22100000  0.07231000  0.54460000  1.0 -0.0740026305
C  C155  1  0.47150000  0.80233000  0.06610000  1.0 -0.202681264
C  C156  1  0.28400000  0.99281000  0.52480000  1.0 0.058001177
C  C157  1  0.31290000  0.77017000  0.73560000  1.0 0.058001177
C  C158  1  0.64610000  0.93646000  0.64100000  1.0 -0.2086066822
C  C159  1  0.02450000  0.81985000  0.04240000  1.0 0.058001177
C  C160  1  0.73490000  0.09983000  0.61720000  1.0 0.0517557455
C  C161  1  0.90140000  0.13353000  0.69320000  1.0 0.058001177
C  C162  1  0.18600000  0.75914000  0.75380000  1.0 0.0789832627
C  C163  1  0.92640000  0.98193000  0.71030000  1.0 -0.2086066822
C  C164  1  0.70860000  0.92824000  0.78110000  1.0 -0.2086066822
C  C165  1  0.52520000  0.75700000  0.78550000  1.0 -0.5103294695
C  C166  1  0.64560000  0.06770000  0.74980000  1.0 -0.5103294695
C  C167  1  0.37740000  0.13413000  0.53820000  1.0 -0.5161817962
C  C168  1  0.68520000  0.85040000  0.00870000  1.0 -0.4906349773
C  C169  1  0.14590000  0.36433000  0.16860000  1.0 -0.049847121
C  C170  1  0.22950000  0.33734000  0.17980000  1.0 -0.0820409625
C  C171  1  0.60730000  0.25521000  0.68350000  1.0 -0.0105958734
C  C172  1  0.60800000  0.26729000  0.45650000  1.0 -0.0910816355
C  C173  1  0.52780000  0.35206000  0.40500000  1.0 0.2316895282
C  C174  1  0.70320000  0.54727000  0.95840000  1.0 -0.0198648622
C  C175  1  0.68690000  0.28134000  0.45070000  1.0 -0.0426166642
C  C176  1  0.13110000  0.44614000  0.77940000  1.0 0.2603292032
C  C177  1  0.02120000  0.40968000  0.83600000  1.0 -0.0426166642
C  C178  1  0.46830000  0.40219000  0.82930000  1.0 -0.03377103
C  C179  1  0.60520000  0.36777000  0.39960000  1.0 -0.202681264
C  C180  1  0.16540000  0.31056000  0.48830000  1.0 -0.0198648622
C  C181  1  0.68450000  0.33217000  0.42120000  1.0 -0.0966509799
C  C182  1  0.16620000  0.39901000  0.22940000  1.0 -0.0910816355
C  C183  1  0.03750000  0.36450000  0.48060000  1.0 -0.1516490648
C  C184  1  0.63550000  0.24120000  0.63430000  1.0 -0.0740026305
C  C185  1  0.08020000  0.37486000  0.82610000  1.0 -0.0820409625
C  C186  1  0.34970000  0.37936000  0.31130000  1.0 0.2492484158
C  C187  1  0.26600000  0.59772000  0.81490000  1.0 -0.0105958734
C  C188  1  0.33210000  0.34502000  0.25170000  1.0 -0.226701776
C  C189  1  0.57670000  0.38290000  0.86070000  1.0 0.5608129954
C  C190  1  0.49680000  0.25716000  0.65320000  1.0 0.2603292032
C  C191  1  0.09080000  0.63294000  0.73660000  1.0 -0.1516490648
C  C192  1  0.13280000  0.35979000  0.49580000  1.0 -0.0910816355
C  C193  1  0.36070000  0.57798000  0.82610000  1.0 0.2603292032
C  C194  1  0.13370000  0.39302000  0.79720000  1.0 -0.2226029286
C  C195  1  0.27530000  0.44213000  0.77600000  1.0 0.2380108392
C  C196  1  0.73950000  0.24297000  0.66510000  1.0 -0.1322607989
C  C197  1  0.01960000  0.46290000  0.81830000  1.0 -0.0820409625
C  C198  1  0.38760000  0.40876000  0.74530000  1.0 -0.0966509799
C  C199  1  0.27090000  0.30485000  0.51000000  1.0 0.2603292032
C  C200  1  0.44950000  0.41567000  0.88510000  1.0 -0.0740026305
C  C201  1  0.77100000  0.24213000  0.47330000  1.0 0.580356211
C  C202  1  0.96200000  0.38908000  0.86600000  1.0 0.5608129954
C  C203  1  0.09790000  0.26745000  0.46480000  1.0 0.058001177
C  C204  1  0.26790000  0.40657000  0.30110000  1.0 -0.202681264
C  C205  1  0.03580000  0.35529000  0.09190000  1.0 0.580356211
C  C206  1  0.17510000  0.61449000  0.73950000  1.0 -0.0910816355
C  C207  1  0.61270000  0.57607000  0.94260000  1.0 0.2603292032
C  C208  1  0.85720000  0.54258000  0.96570000  1.0 -0.1322607989
C  C209  1  0.86370000  0.48892000  0.98210000  1.0 0.0789832627
C  C210  1  0.77900000  0.57231000  0.95540000  1.0 -0.0740026305
C  C211  1  0.52850000  0.30233000  0.43390000  1.0 -0.202681264
C  C212  1  0.71600000  0.49281000  0.97520000  1.0 0.058001177
C  C213  1  0.68710000  0.27017000  0.76440000  1.0 0.058001177
C  C214  1  0.35390000  0.43646000  0.85900000  1.0 -0.2086066822
C  C215  1  0.97550000  0.31985000  0.45760000  1.0 0.058001177
C  C216  1  0.26510000  0.59983000  0.88280000  1.0 0.0517557455
C  C217  1  0.09860000  0.63353000  0.80680000  1.0 0.058001177
C  C218  1  0.81400000  0.25914000  0.74620000  1.0 0.0789832627
C  C219  1  0.07360000  0.48193000  0.78970000  1.0 -0.2086066822
C  C220  1  0.29140000  0.42824000  0.71890000  1.0 -0.2086066822
C  C221  1  0.47480000  0.25700000  0.71450000  1.0 -0.5103294695
C  C222  1  0.35440000  0.56770000  0.75020000  1.0 -0.5103294695
C  C223  1  0.62260000  0.63413000  0.96180000  1.0 -0.5161817962
C  C224  1  0.31480000  0.35040000  0.49130000  1.0 -0.4906349773
N  N1  1  0.42600000  0.23904000  0.07490000  1.0 -0.226701776
N  N2  1  0.18459000  0.88337000  0.38030000  1.0 -0.226701776
N  N3  1  0.32220000  0.23668000  0.04990000  1.0 -0.2409769328
N  N4  1  0.44400000  0.92781000  0.39990000  1.0 -0.226701776
N  N5  1  0.00367000  0.22859000  0.94850000  1.0 -0.226701776
N  N6  1  0.79352000  0.03634000  0.48750000  1.0 -0.2409769328
N  N7  1  0.52990000  0.95178000  0.41090000  1.0 -0.2226029286
N  N8  1  0.78890000  0.22759000  0.29550000  1.0 -0.2471811319
N  N9  1  0.57400000  0.73904000  0.42510000  1.0 -0.226701776
N  N10  1  0.81541000  0.38337000  0.11970000  1.0 -0.226701776
N  N11  1  0.67780000  0.73668000  0.45010000  1.0 -0.2409769328
N  N12  1  0.55600000  0.42781000  0.10010000  1.0 -0.226701776
N  N13  1  0.99633000  0.72859000  0.55150000  1.0 -0.226701776
N  N14  1  0.20648000  0.53634000  0.01250000  1.0 -0.2409769328
N  N15  1  0.47010000  0.45178000  0.08910000  1.0 -0.2226029286
N  N16  1  0.21110000  0.72759000  0.20450000  1.0 -0.2471811319
N  N17  1  0.57400000  0.76096000  0.92510000  1.0 -0.2226029286
N  N18  1  0.81541000  0.11663000  0.61970000  1.0 -0.226701776
N  N19  1  0.67780000  0.76332000  0.95010000  1.0 -0.2409769328
N  N20  1  0.55600000  0.07219000  0.60010000  1.0 -0.226701776
N  N21  1  0.99633000  0.77141000  0.05150000  1.0 -0.226701776
N  N22  1  0.20648000  0.96366000  0.51250000  1.0 -0.2409769328
N  N23  1  0.47010000  0.04822000  0.58910000  1.0 -0.2226029286
N  N24  1  0.21110000  0.77241000  0.70450000  1.0 -0.2471811319
N  N25  1  0.42600000  0.26096000  0.57490000  1.0 -0.2226029286
N  N26  1  0.18459000  0.61663000  0.88030000  1.0 -0.226701776
N  N27  1  0.32220000  0.26332000  0.54990000  1.0 -0.2409769328
N  N28  1  0.44400000  0.57219000  0.89990000  1.0 -0.226701776
N  N29  1  0.00367000  0.27141000  0.44850000  1.0 -0.226701776
N  N30  1  0.79352000  0.46366000  0.98750000  1.0 -0.2409769328
N  N31  1  0.52990000  0.54822000  0.91090000  1.0 -0.2226029286
N  N32  1  0.78890000  0.27241000  0.79550000  1.0 -0.2471811319
O  O1  1  0.17840000  0.03445000  0.24594000  1.0 -0.226701776
O  O2  1  0.44891000  0.11125000  0.88460000  1.0 -0.226701776
O  O3  1  0.80173000  0.13573000  0.40348000  1.0 -0.7985149617
O  O4  1  0.02285000  0.18024000  0.54321000  1.0 -0.5415529901
O  O5  1  0.59316000  0.12698000  0.30999000  1.0 -0.5293681318
O  O6  1  0.78585000  0.29637000  0.01832000  1.0 -0.5451349312
O  O7  1  0.90493000  0.07912000  0.36935000  1.0 -0.5293681318
O  O8  1  0.82051000  0.24900000  0.94459000  1.0 -0.5709172482
O  O9  1  0.96495000  0.11627000  0.58343000  1.0 -0.5709172482
O  O10  1  0.64305000  0.12018000  0.43846000  1.0 -0.5751079017
O  O11  1  0.97511000  0.15986000  0.38587000  1.0 -0.5751079017
O  O12  1  0.82160000  0.53445000  0.25406000  1.0 -0.226701776
O  O13  1  0.55109000  0.61125000  0.61540000  1.0 -0.226701776
O  O14  1  0.19827000  0.63573000  0.09652000  1.0 -0.7985149617
O  O15  1  0.97715000  0.68024000  0.95679000  1.0 -0.5415529901
O  O16  1  0.40684000  0.62698000  0.19001000  1.0 -0.5293681318
O  O17  1  0.21415000  0.79637000  0.48168000  1.0 -0.5451349312
O  O18  1  0.09507000  0.57912000  0.13065000  1.0 -0.5293681318
O  O19  1  0.17949000  0.74900000  0.55541000  1.0 -0.5709172482
O  O20  1  0.03505000  0.61627000  0.91657000  1.0 -0.5709172482
O  O21  1  0.35695000  0.62018000  0.06154000  1.0 -0.5751079017
O  O22  1  0.02489000  0.65986000  0.11413000  1.0 -0.5751079017
O  O23  1  0.82160000  0.96555000  0.75406000  1.0 -0.226701776
O  O24  1  0.55109000  0.88875000  0.11540000  1.0 -0.226701776
O  O25  1  0.19827000  0.86427000  0.59652000  1.0 -0.7985149617
O  O26  1  0.97715000  0.81976000  0.45679000  1.0 -0.5415529901
O  O27  1  0.40684000  0.87302000  0.69001000  1.0 -0.5293681318
O  O28  1  0.21415000  0.70363000  0.98168000  1.0 -0.5451349312
O  O29  1  0.09507000  0.92088000  0.63065000  1.0 -0.5293681318
O  O30  1  0.17949000  0.75100000  0.05541000  1.0 -0.5709172482
O  O31  1  0.03505000  0.88373000  0.41657000  1.0 -0.5709172482
O  O32  1  0.35695000  0.87982000  0.56154000  1.0 -0.5751079017
O  O33  1  0.02489000  0.84014000  0.61413000  1.0 -0.5751079017
O  O34  1  0.17840000  0.46555000  0.74594000  1.0 -0.226701776
O  O35  1  0.44891000  0.38875000  0.38460000  1.0 -0.226701776
O  O36  1  0.80173000  0.36427000  0.90348000  1.0 -0.7985149617
O  O37  1  0.02285000  0.31976000  0.04321000  1.0 -0.5415529901
O  O38  1  0.59316000  0.37302000  0.80999000  1.0 -0.5293681318
O  O39  1  0.78585000  0.20363000  0.51832000  1.0 -0.5451349312
O  O40  1  0.90493000  0.42088000  0.86935000  1.0 -0.5293681318
O  O41  1  0.82051000  0.25100000  0.44459000  1.0 -0.5709172482
O  O42  1  0.96495000  0.38373000  0.08343000  1.0 -0.5709172482
O  O43  1  0.64305000  0.37982000  0.93846000  1.0 -0.5751079017
O  O44  1  0.97511000  0.34014000  0.88587000  1.0 -0.5751079017
