# DDEC6 charges by PACMAN v1.1 (https://github.com/mtap-research/PACMAN-charge/)
data_BIYVEN_ASR_pacman
_symmetry_space_group_name_H-M   'P 1'
_cell_length_a   23.11200000
_cell_length_b   9.90000000
_cell_length_c   29.81500000
_cell_angle_alpha   90.00000000
_cell_angle_beta   104.89000000
_cell_angle_gamma   90.00000000
_symmetry_Int_Tables_number   1
_chemical_formula_structural   CoH22C28N4O5
_chemical_formula_sum   'Co8 H176 C224 N32 O40'
_cell_volume   6592.86024710
_cell_formula_units_Z   8
loop_
 _symmetry_equiv_pos_site_id
 _symmetry_equiv_pos_as_xyz
  1  'x, y, z'
loop_
 _atom_site_type_symbol
 _atom_site_label
 _atom_site_symmetry_multiplicity
 _atom_site_fract_x
 _atom_site_fract_y
 _atom_site_fract_z
 _atom_site_occupancy
 _atom_site_charge
Co  Co1  1  0.94515000  0.30467000  0.56804000  1.0 0.8051883623
Co  Co2  1  0.05327000  0.18915000  0.08697000  1.0 0.8216828152
Co  Co3  1  0.05485000  0.69533000  0.43196000  1.0 0.803585355
Co  Co4  1  0.94673000  0.81085000  0.91303000  1.0 0.8216828152
Co  Co5  1  0.55485000  0.30467000  0.43196000  1.0 0.803585355
Co  Co6  1  0.44673000  0.18915000  0.91303000  1.0 0.8216828152
Co  Co7  1  0.44515000  0.69533000  0.56804000  1.0 0.8051883623
Co  Co8  1  0.55327000  0.81085000  0.08697000  1.0 0.8216828152
H  H1  1  0.92610000  0.10130000  0.63980000  1.0 0.1046495184
H  H2  1  0.07920000  0.39310000  0.16780000  1.0 0.1105716666
H  H3  1  0.96610000  0.04170000  0.52200000  1.0 0.1105716666
H  H4  1  0.10190000  0.60950000  0.35090000  1.0 0.1105716666
H  H5  1  0.86690000  0.96590000  0.37230000  1.0 0.1506284582
H  H6  1  0.94730000  0.72680000  0.60070000  1.0 0.1290755014
H  H7  1  0.91280000  0.42090000  0.37890000  1.0 0.1192757816
H  H8  1  0.90140000  0.86580000  0.81210000  1.0 0.1105716666
H  H9  1  0.88090000  0.08020000  0.44170000  1.0 0.1105716666
H  H10  1  0.03150000  0.45160000  0.03380000  1.0 0.1105716666
H  H11  1  0.08240000  0.08410000  0.90900000  1.0 0.1192757816
H  H12  1  0.14170000  0.52850000  0.92570000  1.0 0.1506284582
H  H13  1  0.96460000  0.80960000  0.53220000  1.0 0.1506284582
H  H14  1  0.12550000  0.41200000  0.98860000  1.0 0.1105716666
H  H15  1  0.90020000  0.30380000  0.30930000  1.0 0.1290755014
H  H16  1  0.09900000  0.19890000  0.84640000  1.0 0.1290755014
H  H17  1  0.80780000  0.82910000  0.90180000  1.0 0.1290755014
H  H18  1  0.19020000  0.75590000  0.46720000  1.0 0.1105716666
H  H19  1  0.00360000  0.04380000  0.21210000  1.0 0.1192757816
H  H20  1  0.99250000  0.40800000  0.71620000  1.0 0.1192757816
H  H21  1  0.72580000  0.92100000  0.77000000  1.0 0.1192757816
H  H22  1  0.15490000  0.32210000  0.71060000  1.0 0.1290755014
H  H23  1  0.05550000  0.76640000  0.11820000  1.0 0.1290755014
H  H24  1  0.05620000  0.82730000  0.18130000  1.0 0.1506284582
H  H25  1  0.05060000  0.78570000  0.23070000  1.0 0.1506284582
H  H26  1  0.11290000  0.82800000  0.22350000  1.0 0.1506284582
H  H27  1  0.85490000  0.25050000  0.16130000  1.0 0.1192757816
H  H28  1  0.19080000  0.35620000  0.78880000  1.0 0.1290755014
H  H29  1  0.97080000  0.99140000  0.27650000  1.0 0.1379070505
H  H30  1  0.72200000  0.88090000  0.84690000  1.0 0.1379070505
H  H31  1  0.03280000  0.67850000  0.04370000  1.0 0.1506284582
H  H32  1  0.82260000  0.19880000  0.22740000  1.0 0.1379070505
H  H33  1  0.02980000  0.46530000  0.79610000  1.0 0.1290755014
H  H34  1  0.95450000  0.67470000  0.66960000  1.0 0.1506284582
H  H35  1  0.95650000  0.72750000  0.71950000  1.0 0.1572000851
H  H36  1  0.89660000  0.67100000  0.68770000  1.0 0.1572000851
H  H37  1  0.27500000  0.68250000  0.36810000  1.0 0.1290755014
H  H38  1  0.27710000  0.75650000  0.44170000  1.0 0.1379070505
H  H39  1  0.26700000  0.54240000  0.30820000  1.0 0.1506284582
H  H40  1  0.22310000  0.45080000  0.27200000  1.0 0.1506284582
H  H41  1  0.23510000  0.59980000  0.25900000  1.0 0.1506284582
H  H42  1  0.74220000  0.01740000  0.71440000  1.0 0.1379070505
H  H43  1  0.79010000  0.09240000  0.69480000  1.0 0.1506284582
H  H44  1  0.76370000  0.95400000  0.67330000  1.0 0.1572000851
H  H45  1  0.07390000  0.89870000  0.36020000  1.0 0.1046495184
H  H46  1  0.92080000  0.60690000  0.83220000  1.0 0.1105716666
H  H47  1  0.03390000  0.95830000  0.47800000  1.0 0.1105716666
H  H48  1  0.89810000  0.39050000  0.64910000  1.0 0.1105716666
H  H49  1  0.13310000  0.03410000  0.62770000  1.0 0.1506284582
H  H50  1  0.05270000  0.27320000  0.39930000  1.0 0.1290755014
H  H51  1  0.08720000  0.57910000  0.62110000  1.0 0.1192757816
H  H52  1  0.09860000  0.13420000  0.18790000  1.0 0.1105716666
H  H53  1  0.11910000  0.91980000  0.55830000  1.0 0.1105716666
H  H54  1  0.96850000  0.54840000  0.96620000  1.0 0.1105716666
H  H55  1  0.91760000  0.91590000  0.09100000  1.0 0.1192757816
H  H56  1  0.85830000  0.47150000  0.07430000  1.0 0.1506284582
H  H57  1  0.03540000  0.19040000  0.46780000  1.0 0.1506284582
H  H58  1  0.87450000  0.58800000  0.01140000  1.0 0.1105716666
H  H59  1  0.09980000  0.69620000  0.69070000  1.0 0.1290755014
H  H60  1  0.90100000  0.80110000  0.15360000  1.0 0.1290755014
H  H61  1  0.19220000  0.17090000  0.09820000  1.0 0.1290755014
H  H62  1  0.80980000  0.24410000  0.53280000  1.0 0.1105716666
H  H63  1  0.99640000  0.95620000  0.78790000  1.0 0.1192757816
H  H64  1  0.00750000  0.59200000  0.28380000  1.0 0.1192757816
H  H65  1  0.27420000  0.07900000  0.23000000  1.0 0.1192757816
H  H66  1  0.84510000  0.67790000  0.28940000  1.0 0.1290755014
H  H67  1  0.94450000  0.23360000  0.88180000  1.0 0.1290755014
H  H68  1  0.94380000  0.17270000  0.81870000  1.0 0.1506284582
H  H69  1  0.94940000  0.21430000  0.76930000  1.0 0.1506284582
H  H70  1  0.88710000  0.17200000  0.77650000  1.0 0.1506284582
H  H71  1  0.14510000  0.74950000  0.83870000  1.0 0.1192757816
H  H72  1  0.80920000  0.64380000  0.21120000  1.0 0.1290755014
H  H73  1  0.02920000  0.00860000  0.72350000  1.0 0.1379070505
H  H74  1  0.27800000  0.11910000  0.15310000  1.0 0.1379070505
H  H75  1  0.96720000  0.32150000  0.95630000  1.0 0.1506284582
H  H76  1  0.17740000  0.80120000  0.77260000  1.0 0.1379070505
H  H77  1  0.97020000  0.53470000  0.20390000  1.0 0.1290755014
H  H78  1  0.04550000  0.32530000  0.33040000  1.0 0.1506284582
H  H79  1  0.04350000  0.27250000  0.28050000  1.0 0.1572000851
H  H80  1  0.10340000  0.32900000  0.31230000  1.0 0.1572000851
H  H81  1  0.72500000  0.31750000  0.63190000  1.0 0.1192757816
H  H82  1  0.72290000  0.24350000  0.55830000  1.0 0.1379070505
H  H83  1  0.73300000  0.45760000  0.69180000  1.0 0.1506284582
H  H84  1  0.77690000  0.54920000  0.72800000  1.0 0.1506284582
H  H85  1  0.76490000  0.40020000  0.74100000  1.0 0.1506284582
H  H86  1  0.25780000  0.98260000  0.28560000  1.0 0.1379070505
H  H87  1  0.20990000  0.90760000  0.30520000  1.0 0.1506284582
H  H88  1  0.23630000  0.04600000  0.32670000  1.0 0.1572000851
H  H89  1  0.57390000  0.10130000  0.36020000  1.0 0.1046495184
H  H90  1  0.42080000  0.39310000  0.83220000  1.0 0.1105716666
H  H91  1  0.53390000  0.04170000  0.47800000  1.0 0.1105716666
H  H92  1  0.39810000  0.60950000  0.64910000  1.0 0.1105716666
H  H93  1  0.63310000  0.96590000  0.62770000  1.0 0.1506284582
H  H94  1  0.55270000  0.72680000  0.39930000  1.0 0.1290755014
H  H95  1  0.58720000  0.42090000  0.62110000  1.0 0.1192757816
H  H96  1  0.59860000  0.86580000  0.18790000  1.0 0.1105716666
H  H97  1  0.61910000  0.08020000  0.55830000  1.0 0.1105716666
H  H98  1  0.46850000  0.45160000  0.96620000  1.0 0.1105716666
H  H99  1  0.41760000  0.08410000  0.09100000  1.0 0.1192757816
H  H100  1  0.35830000  0.52850000  0.07430000  1.0 0.1506284582
H  H101  1  0.53540000  0.80960000  0.46780000  1.0 0.1506284582
H  H102  1  0.37450000  0.41200000  0.01140000  1.0 0.1105716666
H  H103  1  0.59980000  0.30380000  0.69070000  1.0 0.1290755014
H  H104  1  0.40100000  0.19890000  0.15360000  1.0 0.1290755014
H  H105  1  0.69220000  0.82910000  0.09820000  1.0 0.1290755014
H  H106  1  0.30980000  0.75590000  0.53280000  1.0 0.1105716666
H  H107  1  0.49640000  0.04380000  0.78790000  1.0 0.1192757816
H  H108  1  0.50750000  0.40800000  0.28380000  1.0 0.1192757816
H  H109  1  0.77420000  0.92100000  0.23000000  1.0 0.1192757816
H  H110  1  0.34510000  0.32210000  0.28940000  1.0 0.1290755014
H  H111  1  0.44450000  0.76640000  0.88180000  1.0 0.1290755014
H  H112  1  0.44380000  0.82730000  0.81870000  1.0 0.1506284582
H  H113  1  0.44940000  0.78570000  0.76930000  1.0 0.1506284582
H  H114  1  0.38710000  0.82800000  0.77650000  1.0 0.1506284582
H  H115  1  0.64510000  0.25050000  0.83870000  1.0 0.1192757816
H  H116  1  0.30920000  0.35620000  0.21120000  1.0 0.1290755014
H  H117  1  0.52920000  0.99140000  0.72350000  1.0 0.1379070505
H  H118  1  0.77800000  0.88090000  0.15310000  1.0 0.1379070505
H  H119  1  0.46720000  0.67850000  0.95630000  1.0 0.1506284582
H  H120  1  0.67740000  0.19880000  0.77260000  1.0 0.1379070505
H  H121  1  0.47020000  0.46530000  0.20390000  1.0 0.1290755014
H  H122  1  0.54550000  0.67470000  0.33040000  1.0 0.1506284582
H  H123  1  0.54350000  0.72750000  0.28050000  1.0 0.1572000851
H  H124  1  0.60340000  0.67100000  0.31230000  1.0 0.1572000851
H  H125  1  0.22500000  0.68250000  0.63190000  1.0 0.1192757816
H  H126  1  0.22290000  0.75650000  0.55830000  1.0 0.1379070505
H  H127  1  0.23300000  0.54240000  0.69180000  1.0 0.1506284582
H  H128  1  0.27690000  0.45080000  0.72800000  1.0 0.1506284582
H  H129  1  0.26490000  0.59980000  0.74100000  1.0 0.1506284582
H  H130  1  0.75780000  0.01740000  0.28560000  1.0 0.1379070505
H  H131  1  0.70990000  0.09240000  0.30520000  1.0 0.1506284582
H  H132  1  0.73630000  0.95400000  0.32670000  1.0 0.1572000851
H  H133  1  0.42610000  0.89870000  0.63980000  1.0 0.1046495184
H  H134  1  0.57920000  0.60690000  0.16780000  1.0 0.1105716666
H  H135  1  0.46610000  0.95830000  0.52200000  1.0 0.1105716666
H  H136  1  0.60190000  0.39050000  0.35090000  1.0 0.1105716666
H  H137  1  0.36690000  0.03410000  0.37230000  1.0 0.1506284582
H  H138  1  0.44730000  0.27320000  0.60070000  1.0 0.1290755014
H  H139  1  0.41280000  0.57910000  0.37890000  1.0 0.1192757816
H  H140  1  0.40140000  0.13420000  0.81210000  1.0 0.1105716666
H  H141  1  0.38090000  0.91980000  0.44170000  1.0 0.1105716666
H  H142  1  0.53150000  0.54840000  0.03380000  1.0 0.1105716666
H  H143  1  0.58240000  0.91590000  0.90900000  1.0 0.1192757816
H  H144  1  0.64170000  0.47150000  0.92570000  1.0 0.1506284582
H  H145  1  0.46460000  0.19040000  0.53220000  1.0 0.1506284582
H  H146  1  0.62550000  0.58800000  0.98860000  1.0 0.1105716666
H  H147  1  0.40020000  0.69620000  0.30930000  1.0 0.1290755014
H  H148  1  0.59900000  0.80110000  0.84640000  1.0 0.1290755014
H  H149  1  0.30780000  0.17090000  0.90180000  1.0 0.1290755014
H  H150  1  0.69020000  0.24410000  0.46720000  1.0 0.1105716666
H  H151  1  0.50360000  0.95620000  0.21210000  1.0 0.1192757816
H  H152  1  0.49250000  0.59200000  0.71620000  1.0 0.1192757816
H  H153  1  0.22580000  0.07900000  0.77000000  1.0 0.1192757816
H  H154  1  0.65490000  0.67790000  0.71060000  1.0 0.1290755014
H  H155  1  0.55550000  0.23360000  0.11820000  1.0 0.1290755014
H  H156  1  0.55620000  0.17270000  0.18130000  1.0 0.1506284582
H  H157  1  0.55060000  0.21430000  0.23070000  1.0 0.1506284582
H  H158  1  0.61290000  0.17200000  0.22350000  1.0 0.1506284582
H  H159  1  0.35490000  0.74950000  0.16130000  1.0 0.1192757816
H  H160  1  0.69080000  0.64380000  0.78880000  1.0 0.1290755014
H  H161  1  0.47080000  0.00860000  0.27650000  1.0 0.1379070505
H  H162  1  0.22200000  0.11910000  0.84690000  1.0 0.1379070505
H  H163  1  0.53280000  0.32150000  0.04370000  1.0 0.1506284582
H  H164  1  0.32260000  0.80120000  0.22740000  1.0 0.1379070505
H  H165  1  0.52980000  0.53470000  0.79610000  1.0 0.1290755014
H  H166  1  0.45450000  0.32530000  0.66960000  1.0 0.1506284582
H  H167  1  0.45650000  0.27250000  0.71950000  1.0 0.1572000851
H  H168  1  0.39660000  0.32900000  0.68770000  1.0 0.1572000851
H  H169  1  0.77500000  0.31750000  0.36810000  1.0 0.1192757816
H  H170  1  0.77710000  0.24350000  0.44170000  1.0 0.1379070505
H  H171  1  0.76700000  0.45760000  0.30820000  1.0 0.1506284582
H  H172  1  0.72310000  0.54920000  0.27200000  1.0 0.1506284582
H  H173  1  0.73510000  0.40020000  0.25900000  1.0 0.1506284582
H  H174  1  0.24220000  0.98260000  0.71440000  1.0 0.1379070505
H  H175  1  0.29010000  0.90760000  0.69480000  1.0 0.1506284582
H  H176  1  0.26370000  0.04600000  0.67330000  1.0 0.1572000851
C  C1  1  0.91030000  0.33420000  0.46370000  1.0 0.5543612286
C  C2  1  0.93310000  0.90650000  0.62740000  1.0 -0.0108703968
C  C3  1  0.93430000  0.04160000  0.61810000  1.0 0.0589686949
C  C4  1  0.89860000  0.26090000  0.41830000  1.0 -0.0612069829
C  C5  1  0.06910000  0.45180000  0.14270000  1.0 0.050461483
C  C6  1  0.95780000  0.00680000  0.54860000  1.0 0.0589686949
C  C7  1  0.06940000  0.58790000  0.15130000  1.0 -0.0108703968
C  C8  1  0.04720000  0.32080000  0.65470000  1.0 0.5588052019
C  C9  1  0.09040000  0.16040000  0.99610000  1.0 0.5588052019
C  C10  1  0.07070000  0.35250000  0.70640000  1.0 -0.0311501549
C  C11  1  0.13820000  0.63870000  0.36990000  1.0 0.017048342
C  C12  1  0.95380000  0.19180000  0.13730000  1.0 0.5588052019
C  C13  1  0.91640000  0.85750000  0.66920000  1.0 0.2587167119
C  C14  1  0.87650000  0.05730000  0.37380000  1.0 -0.198679805
C  C15  1  0.08820000  0.63840000  0.19990000  1.0 0.2587167119
C  C16  1  0.94610000  0.81940000  0.59520000  1.0 -0.0612069829
C  C17  1  0.81600000  0.89970000  0.78260000  1.0 -0.0183712945
C  C18  1  0.88240000  0.12420000  0.33420000  1.0 0.2421957038
C  C19  1  0.90400000  0.32910000  0.37770000  1.0 -0.0798553358
C  C20  1  0.86420000  0.86880000  0.81880000  1.0 0.050461483
C  C21  1  0.88480000  0.12600000  0.41540000  1.0 -0.0996833716
C  C22  1  0.12220000  0.37510000  0.88000000  1.0 0.2421957038
C  C23  1  0.10250000  0.23540000  0.95550000  1.0 -0.0366247764
C  C24  1  0.04140000  0.48660000  0.06380000  1.0 0.0589686949
C  C25  1  0.82470000  0.93230000  0.73550000  1.0 0.2587167119
C  C26  1  0.09460000  0.17380000  0.91250000  1.0 -0.0798553358
C  C27  1  0.89300000  0.09030000  0.25710000  1.0 0.2080376453
C  C28  1  0.11310000  0.41490000  0.79920000  1.0 0.2179133862
C  C29  1  0.12990000  0.43840000  0.92240000  1.0 -0.190903987
C  C30  1  0.93330000  0.15260000  0.17960000  1.0 -0.0311501549
C  C31  1  0.95750000  0.86810000  0.55460000  1.0 -0.1169659665
C  C32  1  0.12010000  0.36870000  0.96020000  1.0 -0.0887424291
C  C33  1  0.89610000  0.25930000  0.33580000  1.0 -0.2348645285
C  C34  1  0.18680000  0.63450000  0.35130000  1.0 -0.0183712945
C  C35  1  0.17870000  0.58950000  0.30220000  1.0 0.2473211258
C  C36  1  0.10440000  0.24210000  0.87490000  1.0 -0.2194211289
C  C37  1  0.80970000  0.84730000  0.87160000  1.0 0.0589686949
C  C38  1  0.18870000  0.72400000  0.43760000  1.0 0.0765034973
C  C39  1  0.96660000  0.07590000  0.21430000  1.0 -0.0887424291
C  C40  1  0.03300000  0.39820000  0.73070000  1.0 -0.0887424291
C  C41  1  0.76060000  0.90270000  0.79300000  1.0 -0.0798553358
C  C42  1  0.12810000  0.34530000  0.72790000  1.0 -0.0887424291
C  C43  1  0.05560000  0.67350000  0.11370000  1.0 -0.0612069829
C  C44  1  0.07590000  0.78290000  0.20970000  1.0 -0.5190198377
C  C45  1  0.87910000  0.19790000  0.18460000  1.0 -0.0996833716
C  C46  1  0.15050000  0.37010000  0.77450000  1.0 -0.198679805
C  C47  1  0.94710000  0.04420000  0.25310000  1.0 -0.190903987
C  C48  1  0.75830000  0.87730000  0.83890000  1.0 -0.1389335945
C  C49  1  0.04180000  0.62140000  0.06930000  1.0 -0.1169659665
C  C50  1  0.85910000  0.16640000  0.22440000  1.0 -0.2092148662
C  C51  1  0.05540000  0.43210000  0.77920000  1.0 -0.190903987
C  C52  1  0.93240000  0.72070000  0.68810000  1.0 -0.5104870975
C  C53  1  0.24060000  0.68130000  0.37880000  1.0 -0.0612069829
C  C54  1  0.24150000  0.72530000  0.42220000  1.0 -0.1389335945
C  C55  1  0.23080000  0.54120000  0.28360000  1.0 -0.5020002082
C  C56  1  0.77580000  0.00560000  0.70150000  1.0 -0.5104870975
C  C57  1  0.08970000  0.66580000  0.53630000  1.0 0.5543612286
C  C58  1  0.06690000  0.09350000  0.37260000  1.0 -0.0108703968
C  C59  1  0.06570000  0.95840000  0.38190000  1.0 0.0589686949
C  C60  1  0.10140000  0.73910000  0.58170000  1.0 -0.0612069829
C  C61  1  0.93090000  0.54820000  0.85730000  1.0 0.050461483
C  C62  1  0.04220000  0.99320000  0.45140000  1.0 0.0589686949
C  C63  1  0.93060000  0.41210000  0.84870000  1.0 -0.0108703968
C  C64  1  0.95280000  0.67920000  0.34530000  1.0 0.5588052019
C  C65  1  0.90960000  0.83960000  0.00390000  1.0 0.5588052019
C  C66  1  0.92930000  0.64750000  0.29360000  1.0 -0.0311501549
C  C67  1  0.86180000  0.36130000  0.63010000  1.0 0.017048342
C  C68  1  0.04620000  0.80820000  0.86270000  1.0 0.5588052019
C  C69  1  0.08360000  0.14250000  0.33080000  1.0 0.2587167119
C  C70  1  0.12350000  0.94270000  0.62620000  1.0 -0.198679805
C  C71  1  0.91180000  0.36160000  0.80010000  1.0 0.2587167119
C  C72  1  0.05390000  0.18060000  0.40480000  1.0 -0.0612069829
C  C73  1  0.18400000  0.10030000  0.21740000  1.0 -0.0183712945
C  C74  1  0.11760000  0.87580000  0.66580000  1.0 0.2421957038
C  C75  1  0.09600000  0.67090000  0.62230000  1.0 -0.0798553358
C  C76  1  0.13580000  0.13120000  0.18120000  1.0 0.050461483
C  C77  1  0.11520000  0.87400000  0.58460000  1.0 -0.0996833716
C  C78  1  0.87780000  0.62490000  0.12000000  1.0 0.2421957038
C  C79  1  0.89750000  0.76460000  0.04450000  1.0 -0.0366247764
C  C80  1  0.95860000  0.51340000  0.93620000  1.0 0.0589686949
C  C81  1  0.17530000  0.06770000  0.26450000  1.0 0.2587167119
C  C82  1  0.90540000  0.82620000  0.08750000  1.0 -0.0798553358
C  C83  1  0.10700000  0.90970000  0.74290000  1.0 0.2080376453
C  C84  1  0.88690000  0.58510000  0.20080000  1.0 0.2179133862
C  C85  1  0.87010000  0.56160000  0.07760000  1.0 -0.1849591688
C  C86  1  0.06670000  0.84740000  0.82040000  1.0 -0.0311501549
C  C87  1  0.04250000  0.13190000  0.44540000  1.0 -0.1169659665
C  C88  1  0.87990000  0.63130000  0.03980000  1.0 -0.0887424291
C  C89  1  0.10390000  0.74070000  0.66420000  1.0 -0.2348645285
C  C90  1  0.81320000  0.36550000  0.64870000  1.0 -0.0183712945
C  C91  1  0.82130000  0.41050000  0.69780000  1.0 0.2473211258
C  C92  1  0.89560000  0.75790000  0.12510000  1.0 -0.2194211289
C  C93  1  0.19030000  0.15270000  0.12840000  1.0 0.0589686949
C  C94  1  0.81130000  0.27600000  0.56240000  1.0 0.0765034973
C  C95  1  0.03340000  0.92410000  0.78570000  1.0 -0.0887424291
C  C96  1  0.96700000  0.60180000  0.26930000  1.0 -0.0887424291
C  C97  1  0.23940000  0.09730000  0.20700000  1.0 -0.0798553358
C  C98  1  0.87190000  0.65470000  0.27210000  1.0 -0.0887424291
C  C99  1  0.94440000  0.32650000  0.88630000  1.0 -0.0612069829
C  C100  1  0.92410000  0.21710000  0.79030000  1.0 -0.5190198377
C  C101  1  0.12090000  0.80210000  0.81540000  1.0 -0.0996833716
C  C102  1  0.84950000  0.62990000  0.22550000  1.0 -0.198679805
C  C103  1  0.05290000  0.95580000  0.74690000  1.0 -0.190903987
C  C104  1  0.24170000  0.12270000  0.16110000  1.0 -0.1389335945
C  C105  1  0.95820000  0.37860000  0.93070000  1.0 -0.1169659665
C  C106  1  0.14090000  0.83360000  0.77560000  1.0 -0.2092148662
C  C107  1  0.94460000  0.56790000  0.22080000  1.0 -0.190903987
C  C108  1  0.06760000  0.27930000  0.31190000  1.0 -0.5104870975
C  C109  1  0.75940000  0.31870000  0.62120000  1.0 -0.0612069829
C  C110  1  0.75850000  0.27470000  0.57780000  1.0 -0.1389335945
C  C111  1  0.76920000  0.45880000  0.71640000  1.0 -0.5020002082
C  C112  1  0.22420000  0.99440000  0.29850000  1.0 -0.5104870975
C  C113  1  0.58970000  0.33420000  0.53630000  1.0 0.5543612286
C  C114  1  0.56690000  0.90650000  0.37260000  1.0 -0.0108703968
C  C115  1  0.56570000  0.04160000  0.38190000  1.0 0.0589686949
C  C116  1  0.60140000  0.26090000  0.58170000  1.0 -0.0612069829
C  C117  1  0.43090000  0.45180000  0.85730000  1.0 0.050461483
C  C118  1  0.54220000  0.00680000  0.45140000  1.0 0.0589686949
C  C119  1  0.43060000  0.58790000  0.84870000  1.0 -0.0108703968
C  C120  1  0.45280000  0.32080000  0.34530000  1.0 0.5588052019
C  C121  1  0.40960000  0.16040000  0.00390000  1.0 0.5588052019
C  C122  1  0.42930000  0.35250000  0.29360000  1.0 -0.0311501549
C  C123  1  0.36180000  0.63870000  0.63010000  1.0 0.017048342
C  C124  1  0.54620000  0.19180000  0.86270000  1.0 0.5588052019
C  C125  1  0.58360000  0.85750000  0.33080000  1.0 0.2587167119
C  C126  1  0.62350000  0.05730000  0.62620000  1.0 -0.198679805
C  C127  1  0.41180000  0.63840000  0.80010000  1.0 0.2587167119
C  C128  1  0.55390000  0.81940000  0.40480000  1.0 -0.0612069829
C  C129  1  0.68400000  0.89970000  0.21740000  1.0 -0.0183712945
C  C130  1  0.61760000  0.12420000  0.66580000  1.0 0.2421957038
C  C131  1  0.59600000  0.32910000  0.62230000  1.0 -0.0798553358
C  C132  1  0.63580000  0.86880000  0.18120000  1.0 0.050461483
C  C133  1  0.61520000  0.12600000  0.58460000  1.0 -0.0996833716
C  C134  1  0.37780000  0.37510000  0.12000000  1.0 0.2421957038
C  C135  1  0.39750000  0.23540000  0.04450000  1.0 -0.0366247764
C  C136  1  0.45860000  0.48660000  0.93620000  1.0 0.0589686949
C  C137  1  0.67530000  0.93230000  0.26450000  1.0 0.2587167119
C  C138  1  0.40540000  0.17380000  0.08750000  1.0 -0.0798553358
C  C139  1  0.60700000  0.09030000  0.74290000  1.0 0.2080376453
C  C140  1  0.38690000  0.41490000  0.20080000  1.0 0.2179133862
C  C141  1  0.37010000  0.43840000  0.07760000  1.0 -0.190903987
C  C142  1  0.56670000  0.15260000  0.82040000  1.0 -0.0311501549
C  C143  1  0.54250000  0.86810000  0.44540000  1.0 -0.1169659665
C  C144  1  0.37990000  0.36870000  0.03980000  1.0 -0.0887424291
C  C145  1  0.60390000  0.25930000  0.66420000  1.0 -0.2395163998
C  C146  1  0.31320000  0.63450000  0.64870000  1.0 -0.0183712945
C  C147  1  0.32130000  0.58950000  0.69780000  1.0 0.2473211258
C  C148  1  0.39560000  0.24210000  0.12510000  1.0 -0.2194211289
C  C149  1  0.69030000  0.84730000  0.12840000  1.0 0.0589686949
C  C150  1  0.31130000  0.72400000  0.56240000  1.0 0.0765034973
C  C151  1  0.53340000  0.07590000  0.78570000  1.0 -0.0887424291
C  C152  1  0.46700000  0.39820000  0.26930000  1.0 -0.0887424291
C  C153  1  0.73940000  0.90270000  0.20700000  1.0 -0.0798553358
C  C154  1  0.37190000  0.34530000  0.27210000  1.0 -0.0887424291
C  C155  1  0.44440000  0.67350000  0.88630000  1.0 -0.0612069829
C  C156  1  0.42410000  0.78290000  0.79030000  1.0 -0.5190198377
C  C157  1  0.62090000  0.19790000  0.81540000  1.0 -0.0996833716
C  C158  1  0.34950000  0.37010000  0.22550000  1.0 -0.198679805
C  C159  1  0.55290000  0.04420000  0.74690000  1.0 -0.190903987
C  C160  1  0.74170000  0.87730000  0.16110000  1.0 -0.1389335945
C  C161  1  0.45820000  0.62140000  0.93070000  1.0 -0.1169659665
C  C162  1  0.64090000  0.16640000  0.77560000  1.0 -0.2092148662
C  C163  1  0.44460000  0.43210000  0.22080000  1.0 -0.190903987
C  C164  1  0.56760000  0.72070000  0.31190000  1.0 -0.5104870975
C  C165  1  0.25940000  0.68130000  0.62120000  1.0 -0.0612069829
C  C166  1  0.25850000  0.72530000  0.57780000  1.0 -0.1389335945
C  C167  1  0.26920000  0.54120000  0.71640000  1.0 -0.5020002082
C  C168  1  0.72420000  0.00560000  0.29850000  1.0 -0.5104870975
C  C169  1  0.41030000  0.66580000  0.46370000  1.0 0.5543612286
C  C170  1  0.43310000  0.09350000  0.62740000  1.0 -0.0108703968
C  C171  1  0.43430000  0.95840000  0.61810000  1.0 0.0589686949
C  C172  1  0.39860000  0.73910000  0.41830000  1.0 -0.0612069829
C  C173  1  0.56910000  0.54820000  0.14270000  1.0 0.050461483
C  C174  1  0.45780000  0.99320000  0.54860000  1.0 0.0589686949
C  C175  1  0.56940000  0.41210000  0.15130000  1.0 -0.0108703968
C  C176  1  0.54720000  0.67920000  0.65470000  1.0 0.5588052019
C  C177  1  0.59040000  0.83960000  0.99610000  1.0 0.5588052019
C  C178  1  0.57070000  0.64750000  0.70640000  1.0 -0.0311501549
C  C179  1  0.63820000  0.36130000  0.36990000  1.0 0.017048342
C  C180  1  0.45380000  0.80820000  0.13730000  1.0 0.5588052019
C  C181  1  0.41640000  0.14250000  0.66920000  1.0 0.2587167119
C  C182  1  0.37650000  0.94270000  0.37380000  1.0 -0.198679805
C  C183  1  0.58820000  0.36160000  0.19990000  1.0 0.2587167119
C  C184  1  0.44610000  0.18060000  0.59520000  1.0 -0.0612069829
C  C185  1  0.31600000  0.10030000  0.78260000  1.0 -0.0183712945
C  C186  1  0.38240000  0.87580000  0.33420000  1.0 0.2421957038
C  C187  1  0.40400000  0.67090000  0.37770000  1.0 -0.0798553358
C  C188  1  0.36420000  0.13120000  0.81880000  1.0 0.050461483
C  C189  1  0.38480000  0.87400000  0.41540000  1.0 -0.0996833716
C  C190  1  0.62220000  0.62490000  0.88000000  1.0 0.2421957038
C  C191  1  0.60250000  0.76460000  0.95550000  1.0 -0.0366247764
C  C192  1  0.54140000  0.51340000  0.06380000  1.0 0.0589686949
C  C193  1  0.32470000  0.06770000  0.73550000  1.0 0.2587167119
C  C194  1  0.59460000  0.82620000  0.91250000  1.0 -0.0798553358
C  C195  1  0.39300000  0.90970000  0.25710000  1.0 0.2080376453
C  C196  1  0.61310000  0.58510000  0.79920000  1.0 0.2179133862
C  C197  1  0.62990000  0.56160000  0.92240000  1.0 -0.190903987
C  C198  1  0.43330000  0.84740000  0.17960000  1.0 -0.0311501549
C  C199  1  0.45750000  0.13190000  0.55460000  1.0 -0.1169659665
C  C200  1  0.62010000  0.63130000  0.96020000  1.0 -0.0887424291
C  C201  1  0.39610000  0.74070000  0.33580000  1.0 -0.2395163998
C  C202  1  0.68680000  0.36550000  0.35130000  1.0 -0.0183712945
C  C203  1  0.67870000  0.41050000  0.30220000  1.0 0.2473211258
C  C204  1  0.60440000  0.75790000  0.87490000  1.0 -0.2194211289
C  C205  1  0.30970000  0.15270000  0.87160000  1.0 0.0589686949
C  C206  1  0.68870000  0.27600000  0.43760000  1.0 0.0765034973
C  C207  1  0.46660000  0.92410000  0.21430000  1.0 -0.0887424291
C  C208  1  0.53300000  0.60180000  0.73070000  1.0 -0.0887424291
C  C209  1  0.26060000  0.09730000  0.79300000  1.0 -0.0798553358
C  C210  1  0.62810000  0.65470000  0.72790000  1.0 -0.0887424291
C  C211  1  0.55560000  0.32650000  0.11370000  1.0 -0.0612069829
C  C212  1  0.57590000  0.21710000  0.20970000  1.0 -0.5190198377
C  C213  1  0.37910000  0.80210000  0.18460000  1.0 -0.0996833716
C  C214  1  0.65050000  0.62990000  0.77450000  1.0 -0.198679805
C  C215  1  0.44710000  0.95580000  0.25310000  1.0 -0.190903987
C  C216  1  0.25830000  0.12270000  0.83890000  1.0 -0.1389335945
C  C217  1  0.54180000  0.37860000  0.06930000  1.0 -0.1169659665
C  C218  1  0.35910000  0.83360000  0.22440000  1.0 -0.2092148662
C  C219  1  0.55540000  0.56790000  0.77920000  1.0 -0.190903987
C  C220  1  0.43240000  0.27930000  0.68810000  1.0 -0.5104870975
C  C221  1  0.74060000  0.31870000  0.37880000  1.0 -0.0612069829
C  C222  1  0.74150000  0.27470000  0.42220000  1.0 -0.1389335945
C  C223  1  0.73080000  0.45880000  0.28360000  1.0 -0.5020002082
C  C224  1  0.27580000  0.99440000  0.70150000  1.0 -0.5104870975
N  N1  1  0.05500000  0.39940000  0.10020000  1.0 -0.2092148662
N  N2  1  0.13770000  0.67970000  0.41190000  1.0 -0.198679805
N  N3  1  0.88620000  0.94180000  0.68780000  1.0 -0.2395163998
N  N4  1  0.12720000  0.59690000  0.27710000  1.0 -0.198679805
N  N5  1  0.86350000  0.84310000  0.86150000  1.0 -0.2092148662
N  N6  1  0.11460000  0.55210000  0.23180000  1.0 -0.2395163998
N  N7  1  0.94610000  0.09360000  0.58080000  1.0 -0.2194211289
N  N8  1  0.87400000  0.90120000  0.72950000  1.0 -0.2092148662
N  N9  1  0.94500000  0.60060000  0.89980000  1.0 -0.2092148662
N  N10  1  0.86230000  0.32030000  0.58810000  1.0 -0.198679805
N  N11  1  0.11380000  0.05820000  0.31220000  1.0 -0.2395163998
N  N12  1  0.87280000  0.40310000  0.72290000  1.0 -0.198679805
N  N13  1  0.13650000  0.15690000  0.13850000  1.0 -0.2092148662
N  N14  1  0.88540000  0.44790000  0.76820000  1.0 -0.2395163998
N  N15  1  0.05390000  0.90640000  0.41920000  1.0 -0.2194211289
N  N16  1  0.12600000  0.09880000  0.27050000  1.0 -0.2092148662
N  N17  1  0.44500000  0.39940000  0.89980000  1.0 -0.2092148662
N  N18  1  0.36230000  0.67970000  0.58810000  1.0 -0.198679805
N  N19  1  0.61380000  0.94180000  0.31220000  1.0 -0.2395163998
N  N20  1  0.37280000  0.59690000  0.72290000  1.0 -0.198679805
N  N21  1  0.63650000  0.84310000  0.13850000  1.0 -0.2092148662
N  N22  1  0.38540000  0.55210000  0.76820000  1.0 -0.2395163998
N  N23  1  0.55390000  0.09360000  0.41920000  1.0 -0.2194211289
N  N24  1  0.62600000  0.90120000  0.27050000  1.0 -0.2092148662
N  N25  1  0.55500000  0.60060000  0.10020000  1.0 -0.2092148662
N  N26  1  0.63770000  0.32030000  0.41190000  1.0 -0.198679805
N  N27  1  0.38620000  0.05820000  0.68780000  1.0 -0.2395163998
N  N28  1  0.62720000  0.40310000  0.27710000  1.0 -0.198679805
N  N29  1  0.36350000  0.15690000  0.86150000  1.0 -0.2092148662
N  N30  1  0.61460000  0.44790000  0.23180000  1.0 -0.2395163998
N  N31  1  0.44610000  0.90640000  0.58080000  1.0 -0.2194211289
N  N32  1  0.37400000  0.09880000  0.72950000  1.0 -0.2092148662
O  O1  1  0.90200000  0.26830000  0.49798000  1.0 -0.6068853692
O  O2  1  0.09640000  0.22750000  0.03330000  1.0 -0.6014096692
O  O3  1  0.00670000  0.15350000  0.13704000  1.0 -0.5889048234
O  O4  1  0.99290000  0.33960000  0.63638000  1.0 -0.5695956305
O  O5  1  0.87130000  0.04840000  0.29449000  1.0 -0.2194211289
O  O6  1  0.92760000  0.45570000  0.46638000  1.0 -0.5497914806
O  O7  1  0.08490000  0.27430000  0.63491000  1.0 -0.5497914806
O  O8  1  0.13550000  0.45370000  0.84497000  1.0 -0.2092148662
O  O9  1  0.91810000  0.24810000  0.10480000  1.0 -0.5270575836
O  O10  1  0.07360000  0.04170000  0.99060000  1.0 -0.5190198377
O  O11  1  0.09800000  0.73170000  0.50202000  1.0 -0.6068853692
O  O12  1  0.90360000  0.77250000  0.96670000  1.0 -0.6014096692
O  O13  1  0.99330000  0.84650000  0.86296000  1.0 -0.5889048234
O  O14  1  0.00710000  0.66040000  0.36362000  1.0 -0.5695956305
O  O15  1  0.12870000  0.95160000  0.70551000  1.0 -0.2194211289
O  O16  1  0.07240000  0.54430000  0.53362000  1.0 -0.5497914806
O  O17  1  0.91510000  0.72570000  0.36509000  1.0 -0.5497914806
O  O18  1  0.86450000  0.54630000  0.15503000  1.0 -0.2092148662
O  O19  1  0.08190000  0.75190000  0.89520000  1.0 -0.5270575836
O  O20  1  0.92640000  0.95830000  0.00940000  1.0 -0.5190198377
O  O21  1  0.59800000  0.26830000  0.50202000  1.0 -0.6068853692
O  O22  1  0.40360000  0.22750000  0.96670000  1.0 -0.6014096692
O  O23  1  0.49330000  0.15350000  0.86296000  1.0 -0.5889048234
O  O24  1  0.50710000  0.33960000  0.36362000  1.0 -0.5695956305
O  O25  1  0.62870000  0.04840000  0.70551000  1.0 -0.2194211289
O  O26  1  0.57240000  0.45570000  0.53362000  1.0 -0.5497914806
O  O27  1  0.41510000  0.27430000  0.36509000  1.0 -0.5497914806
O  O28  1  0.36450000  0.45370000  0.15503000  1.0 -0.2092148662
O  O29  1  0.58190000  0.24810000  0.89520000  1.0 -0.5270575836
O  O30  1  0.42640000  0.04170000  0.00940000  1.0 -0.5190198377
O  O31  1  0.40200000  0.73170000  0.49798000  1.0 -0.6068853692
O  O32  1  0.59640000  0.77250000  0.03330000  1.0 -0.6014096692
O  O33  1  0.50670000  0.84650000  0.13704000  1.0 -0.5889048234
O  O34  1  0.49290000  0.66040000  0.63638000  1.0 -0.5695956305
O  O35  1  0.37130000  0.95160000  0.29449000  1.0 -0.2194211289
O  O36  1  0.42760000  0.54430000  0.46638000  1.0 -0.5497914806
O  O37  1  0.58490000  0.72570000  0.63491000  1.0 -0.5497914806
O  O38  1  0.63550000  0.54630000  0.84497000  1.0 -0.2092148662
O  O39  1  0.41810000  0.75190000  0.10480000  1.0 -0.5270575836
O  O40  1  0.57360000  0.95830000  0.99060000  1.0 -0.5190198377
