# DDEC6 charges by PACMAN v1.1 (https://github.com/mtap-research/PACMAN-charge/)
data_BIYXUE_ion_pacman
_symmetry_space_group_name_H-M   'P 1'
_cell_length_a   24.05000000
_cell_length_b   24.10420000
_cell_length_c   24.62190000
_cell_angle_alpha   86.08800000
_cell_angle_beta   118.38700000
_cell_angle_gamma   118.60700000
_symmetry_Int_Tables_number   1
_chemical_formula_structural   Dy3Mo30H96C121SN24(O29F)3
_chemical_formula_sum   'Dy6 Mo60 H192 C242 S2 N48 O174 F6'
_cell_volume   10786.89039745
_cell_formula_units_Z   2
loop_
 _symmetry_equiv_pos_site_id
 _symmetry_equiv_pos_as_xyz
  1  'x, y, z'
loop_
 _atom_site_type_symbol
 _atom_site_label
 _atom_site_symmetry_multiplicity
 _atom_site_fract_x
 _atom_site_fract_y
 _atom_site_fract_z
 _atom_site_occupancy
 _atom_site_charge
Dy  Dy1  1  0.63227000  0.20258000  0.84447000  1.0 1.9262013958
Dy  Dy2  1  0.36773000  0.79742000  0.15553000  1.0 1.9262013958
Dy  Dy3  1  0.14025000  0.35600000  0.70394000  1.0 1.9134772943
Dy  Dy4  1  0.85975000  0.64400000  0.29606000  1.0 1.9134772943
Dy  Dy5  1  0.76211000  0.77568000  0.74436000  1.0 1.9262013958
Dy  Dy6  1  0.23789000  0.22432000  0.25564000  1.0 1.9262013958
Mo  Mo1  1  0.74336000  0.98332000  0.11153000  1.0 2.1406307505
Mo  Mo2  1  0.25664000  0.01668000  0.88847000  1.0 2.1406307505
Mo  Mo3  1  0.58941000  0.84763000  0.02578000  1.0 2.1406307505
Mo  Mo4  1  0.41059000  0.15237000  0.97422000  1.0 2.1406307505
Mo  Mo5  1  0.73835000  0.84489000  0.12688000  1.0 2.1198090838
Mo  Mo6  1  0.26165000  0.15511000  0.87312000  1.0 2.1198090838
Mo  Mo7  1  0.67774000  0.94764000  0.96045000  1.0 2.1198090838
Mo  Mo8  1  0.32226000  0.05236000  0.03955000  1.0 2.1198090838
Mo  Mo9  1  0.82693000  0.94501000  0.06203000  1.0 2.1198090838
Mo  Mo10  1  0.17307000  0.05499000  0.93797000  1.0 2.1198090838
Mo  Mo11  1  0.67391000  0.81040000  0.97494000  1.0 2.1406307505
Mo  Mo12  1  0.32609000  0.18960000  0.02506000  1.0 2.1406307505
Mo  Mo13  1  0.58337000  0.97964000  0.58365000  1.0 2.1406307505
Mo  Mo14  1  0.41663000  0.02036000  0.41635000  1.0 2.1406307505
Mo  Mo15  1  0.58144000  0.10915000  0.53639000  1.0 2.1198090838
Mo  Mo16  1  0.41856000  0.89085000  0.46361000  1.0 2.1198090838
Mo  Mo17  1  0.54794000  0.99603000  0.43897000  1.0 2.0986707734
Mo  Mo18  1  0.45206000  0.00397000  0.56103000  1.0 2.0986707734
Mo  Mo19  1  0.97284000  0.08179000  0.48908000  1.0 2.1325144099
Mo  Mo20  1  0.02716000  0.91821000  0.51092000  1.0 2.1325144099
Mo  Mo21  1  0.10752000  0.06277000  0.59477000  1.0 2.1406307505
Mo  Mo22  1  0.89248000  0.93723000  0.40523000  1.0 2.1406307505
Mo  Mo23  1  0.06017000  0.04412000  0.44540000  1.0 2.1147593783
Mo  Mo24  1  0.93983000  0.95588000  0.55460000  1.0 2.1198090838
Mo  Mo25  1  0.18080000  0.61053000  0.42857000  1.0 0.6526809262
Mo  Mo26  1  0.81920000  0.38947000  0.57143000  1.0 0.6526809262
Mo  Mo27  1  0.08735000  0.45508000  0.42174000  1.0 0.4994159566
Mo  Mo28  1  0.91265000  0.54492000  0.57826000  1.0 0.4994159566
Mo  Mo29  1  0.26226000  0.52559000  0.47574000  1.0 0.3569551931
Mo  Mo30  1  0.73774000  0.47441000  0.52426000  1.0 0.3569551931
Mo  Mo31  1  0.06610000  0.51080000  0.29170000  1.0 0.431229286
Mo  Mo32  1  0.93390000  0.48920000  0.70830000  1.0 0.431229286
Mo  Mo33  1  0.24259000  0.58289000  0.34590000  1.0 0.4994159566
Mo  Mo34  1  0.75741000  0.41711000  0.65410000  1.0 0.4994159566
Mo  Mo35  1  0.14630000  0.42508000  0.33681000  1.0 0.3569551931
Mo  Mo36  1  0.85370000  0.57492000  0.66319000  1.0 0.3491537274
Mo  Mo37  1  0.23710000  0.64240000  0.44080000  1.0 0.7576466726
Mo  Mo38  1  0.76290000  0.35760000  0.55920000  1.0 0.7576466726
Mo  Mo39  1  0.15490000  0.49740000  0.46470000  1.0 0.288850628
Mo  Mo40  1  0.84510000  0.50260000  0.53530000  1.0 0.288850628
Mo  Mo41  1  0.31550000  0.55450000  0.47640000  1.0 0.5922192858
Mo  Mo42  1  0.68450000  0.44550000  0.52360000  1.0 0.5971769021
Mo  Mo43  1  0.08800000  0.52890000  0.32140000  1.0 0.2173899339
Mo  Mo44  1  0.91200000  0.47110000  0.67860000  1.0 0.2173899339
Mo  Mo45  1  0.24860000  0.57890000  0.33270000  1.0 0.4784760626
Mo  Mo46  1  0.75140000  0.42110000  0.66730000  1.0 0.4784760626
Mo  Mo47  1  0.16810000  0.43900000  0.35780000  1.0 0.288850628
Mo  Mo48  1  0.83190000  0.56100000  0.64220000  1.0 0.2825809346
Mo  Mo49  1  0.17140000  0.49880000  0.42960000  1.0 0.1115402714
Mo  Mo50  1  0.82860000  0.50120000  0.57040000  1.0 0.1115402714
Mo  Mo51  1  0.99320000  0.38950000  0.33670000  1.0 0.4684446977
Mo  Mo52  1  0.00680000  0.61050000  0.66330000  1.0 0.4632279502
Mo  Mo53  1  0.06220000  0.53270000  0.30970000  1.0 0.3821168767
Mo  Mo54  1  0.93780000  0.46730000  0.69030000  1.0 0.3722220288
Mo  Mo55  1  0.11810000  0.37230000  0.33090000  1.0 0.3491537274
Mo  Mo56  1  0.88190000  0.62770000  0.66910000  1.0 0.3569551931
Mo  Mo57  1  0.19190000  0.52420000  0.30560000  1.0 0.0419013129
Mo  Mo58  1  0.80810000  0.47580000  0.69440000  1.0 0.048733771
Mo  Mo59  1  0.01770000  0.41230000  0.21420000  1.0 0.6385589765
Mo  Mo60  1  0.98230000  0.58770000  0.78580000  1.0 0.6385589765
H  H1  1  0.82240000  0.35050000  0.85420000  1.0 0.1205059712
H  H2  1  0.17760000  0.64950000  0.14580000  1.0 0.1205059712
H  H3  1  0.65980000  0.21840000  0.69610000  1.0 0.129599202
H  H4  1  0.34020000  0.78160000  0.30390000  1.0 0.129599202
H  H5  1  0.51070000  0.01430000  0.73710000  1.0 0.1385858498
H  H6  1  0.48930000  0.98570000  0.26290000  1.0 0.1385858498
H  H7  1  0.71460000  0.14340000  0.77430000  1.0 0.129599202
H  H8  1  0.28540000  0.85660000  0.22570000  1.0 0.129599202
H  H9  1  0.73100000  0.10740000  0.90870000  1.0 0.129599202
H  H10  1  0.26900000  0.89260000  0.09130000  1.0 0.129599202
H  H11  1  0.86760000  0.29830000  0.95620000  1.0 0.129599202
H  H12  1  0.13240000  0.70170000  0.04380000  1.0 0.129599202
H  H13  1  0.81710000  0.31600000  0.01760000  1.0 0.1205059712
H  H14  1  0.18290000  0.68400000  0.98240000  1.0 0.1205059712
H  H15  1  0.61820000  0.22270000  0.99680000  1.0 0.1385858498
H  H16  1  0.38180000  0.77730000  0.00320000  1.0 0.1385858498
H  H17  1  0.78720000  0.39940000  0.92180000  1.0 0.129599202
H  H18  1  0.21280000  0.60060000  0.07820000  1.0 0.129599202
H  H19  1  0.57520000  0.33240000  0.79710000  1.0 0.1205059712
H  H20  1  0.42480000  0.66760000  0.20290000  1.0 0.1205059712
H  H21  1  0.56900000  0.28260000  0.91560000  1.0 0.1205059712
H  H22  1  0.43100000  0.71740000  0.08440000  1.0 0.1205059712
H  H23  1  0.41120000  0.12680000  0.77860000  1.0 0.129599202
H  H24  1  0.58880000  0.87320000  0.22140000  1.0 0.129599202
H  H25  1  0.67040000  0.09780000  0.98070000  1.0 0.129599202
H  H26  1  0.32960000  0.90220000  0.01930000  1.0 0.129599202
H  H27  1  0.47000000  0.04360000  0.83770000  1.0 0.129599202
H  H28  1  0.53000000  0.95640000  0.16230000  1.0 0.129599202
H  H29  1  0.90780000  0.36050000  0.83020000  1.0 0.1385858498
H  H30  1  0.09220000  0.63950000  0.16980000  1.0 0.1385858498
H  H31  1  0.74360000  0.22440000  0.67180000  1.0 0.129599202
H  H32  1  0.25640000  0.77560000  0.32820000  1.0 0.129599202
H  H33  1  0.53820000  0.93350000  0.75290000  1.0 0.1205059712
H  H34  1  0.46180000  0.06650000  0.24710000  1.0 0.1205059712
H  H35  1  0.74300000  0.06100000  0.78910000  1.0 0.129599202
H  H36  1  0.25700000  0.93900000  0.21090000  1.0 0.129599202
H  H37  1  0.81600000  0.09400000  0.99860000  1.0 0.1481171133
H  H38  1  0.18400000  0.90600000  0.00140000  1.0 0.1481171133
H  H39  1  0.95300000  0.28720000  0.04850000  1.0 0.1385858498
H  H40  1  0.04700000  0.71280000  0.95150000  1.0 0.1385858498
H  H41  1  0.84910000  0.40300000  0.08250000  1.0 0.1481171133
H  H42  1  0.15090000  0.59700000  0.91750000  1.0 0.1481171133
H  H43  1  0.64450000  0.30980000  0.05600000  1.0 0.1385858498
H  H44  1  0.35550000  0.69020000  0.94400000  1.0 0.1385858498
H  H45  1  0.82060000  0.49070000  0.88040000  1.0 0.1385858498
H  H46  1  0.17940000  0.50930000  0.11960000  1.0 0.1385858498
H  H47  1  0.60610000  0.42360000  0.75460000  1.0 0.129599202
H  H48  1  0.39390000  0.57640000  0.24540000  1.0 0.129599202
H  H49  1  0.49540000  0.32820000  0.87940000  1.0 0.1205059712
H  H50  1  0.50460000  0.67180000  0.12060000  1.0 0.1205059712
H  H51  1  0.33370000  0.16850000  0.74170000  1.0 0.1385858498
H  H52  1  0.66630000  0.83150000  0.25830000  1.0 0.1385858498
H  H53  1  0.62210000  0.04780000  0.04390000  1.0 0.1385858498
H  H54  1  0.37790000  0.95220000  0.95610000  1.0 0.1385858498
H  H55  1  0.41930000  0.99430000  0.90080000  1.0 0.129599202
H  H56  1  0.58070000  0.00570000  0.09920000  1.0 0.1385858498
H  H57  1  0.82620000  0.25490000  0.64220000  1.0 0.1385858498
H  H58  1  0.17380000  0.74510000  0.35780000  1.0 0.1385858498
H  H59  1  0.97590000  0.32680000  0.82950000  1.0 0.1205059712
H  H60  1  0.02410000  0.67320000  0.17050000  1.0 0.1205059712
H  H61  1  0.77160000  0.99690000  0.85260000  1.0 0.129599202
H  H62  1  0.22840000  0.00310000  0.14740000  1.0 0.129599202
H  H63  1  0.56390000  0.86090000  0.72870000  1.0 0.1385858498
H  H64  1  0.43610000  0.13910000  0.27130000  1.0 0.1385858498
H  H65  1  0.93080000  0.10020000  0.04720000  1.0 0.1385858498
H  H66  1  0.06920000  0.89980000  0.95280000  1.0 0.1385858498
H  H67  1  0.98590000  0.25830000  0.15260000  1.0 0.1385858498
H  H68  1  0.01410000  0.74170000  0.84740000  1.0 0.1385858498
H  H69  1  0.86970000  0.44920000  0.18010000  1.0 0.1481171133
H  H70  1  0.13030000  0.55080000  0.81990000  1.0 0.1481171133
H  H71  1  0.67450000  0.42810000  0.05160000  1.0 0.129599202
H  H72  1  0.32550000  0.57190000  0.94840000  1.0 0.129599202
H  H73  1  0.64460000  0.49210000  0.69960000  1.0 0.129599202
H  H74  1  0.35540000  0.50790000  0.30040000  1.0 0.129599202
H  H75  1  0.83790000  0.58470000  0.86440000  1.0 0.1205059712
H  H76  1  0.16210000  0.41530000  0.13560000  1.0 0.1205059712
H  H77  1  0.28680000  0.22420000  0.69520000  1.0 0.1385858498
H  H78  1  0.71320000  0.77580000  0.30480000  1.0 0.1385858498
H  H79  1  0.42460000  0.35960000  0.85600000  1.0 0.129599202
H  H80  1  0.57540000  0.64040000  0.14400000  1.0 0.129599202
H  H81  1  0.91360000  0.24930000  0.62980000  1.0 0.129599202
H  H82  1  0.08640000  0.75070000  0.37020000  1.0 0.129599202
H  H83  1  0.05910000  0.31970000  0.81290000  1.0 0.1205059712
H  H84  1  0.94090000  0.68030000  0.18710000  1.0 0.1205059712
H  H85  1  0.80810000  0.92010000  0.86600000  1.0 0.1205059712
H  H86  1  0.19190000  0.07990000  0.13400000  1.0 0.1205059712
H  H87  1  0.60140000  0.78540000  0.74380000  1.0 0.129599202
H  H88  1  0.39860000  0.21460000  0.25620000  1.0 0.129599202
H  H89  1  0.02770000  0.09370000  0.13290000  1.0 0.1115402714
H  H90  1  0.97230000  0.90630000  0.86710000  1.0 0.1115402714
H  H91  1  0.07100000  0.24300000  0.23870000  1.0 0.1385858498
H  H92  1  0.92900000  0.75700000  0.76130000  1.0 0.1385858498
H  H93  1  0.90390000  0.54750000  0.23010000  1.0 0.1385858498
H  H94  1  0.09610000  0.45250000  0.76990000  1.0 0.1385858498
H  H95  1  0.71080000  0.52680000  0.10300000  1.0 0.1115402714
H  H96  1  0.28920000  0.47320000  0.89700000  1.0 0.1115402714
H  H97  1  0.67430000  0.58830000  0.66630000  1.0 0.129599202
H  H98  1  0.32570000  0.41170000  0.33370000  1.0 0.129599202
H  H99  1  0.86380000  0.68000000  0.82530000  1.0 0.1115402714
H  H100  1  0.13620000  0.32000000  0.17470000  1.0 0.1205059712
H  H101  1  0.21950000  0.27850000  0.65390000  1.0 0.1385858498
H  H102  1  0.78050000  0.72150000  0.34610000  1.0 0.1385858498
H  H103  1  0.35730000  0.41170000  0.81450000  1.0 0.1115402714
H  H104  1  0.64270000  0.58830000  0.18550000  1.0 0.1115402714
H  H105  1  0.14440000  0.19020000  0.71730000  1.0 0.1385858498
H  H106  1  0.85560000  0.80980000  0.28270000  1.0 0.1385858498
H  H107  1  0.96430000  0.19110000  0.58880000  1.0 0.1385858498
H  H108  1  0.03570000  0.80890000  0.41120000  1.0 0.1385858498
H  H109  1  0.23160000  0.51530000  0.63390000  1.0 0.1481171133
H  H110  1  0.76840000  0.48470000  0.36610000  1.0 0.1481171133
H  H111  1  0.33170000  0.50910000  0.81660000  1.0 0.1115402714
H  H112  1  0.66830000  0.49090000  0.18340000  1.0 0.1115402714
H  H113  1  0.03350000  0.27250000  0.51460000  1.0 0.129599202
H  H114  1  0.96650000  0.72750000  0.48540000  1.0 0.129599202
H  H115  1  0.23900000  0.42160000  0.60720000  1.0 0.1115402714
H  H116  1  0.76100000  0.57840000  0.39280000  1.0 0.1115402714
H  H117  1  0.11400000  0.50610000  0.67830000  1.0 0.1115402714
H  H118  1  0.88600000  0.49390000  0.32170000  1.0 0.1115402714
H  H119  1  0.95960000  0.33990000  0.55840000  1.0 0.1205059712
H  H120  1  0.04040000  0.66010000  0.44160000  1.0 0.1205059712
H  H121  1  0.76620000  0.90160000  0.63520000  1.0 0.129599202
H  H122  1  0.23380000  0.09840000  0.36480000  1.0 0.129599202
H  H123  1  0.92190000  0.96910000  0.81630000  1.0 0.1205059712
H  H124  1  0.07810000  0.03090000  0.18370000  1.0 0.1205059712
H  H125  1  0.64820000  0.85840000  0.63830000  1.0 0.129599202
H  H126  1  0.35180000  0.14160000  0.36170000  1.0 0.129599202
H  H127  1  0.56980000  0.67240000  0.58130000  1.0 0.129599202
H  H128  1  0.43020000  0.32760000  0.41870000  1.0 0.129599202
H  H129  1  0.76550000  0.66720000  0.86710000  1.0 0.1205059712
H  H130  1  0.23450000  0.33280000  0.13290000  1.0 0.129599202
H  H131  1  0.89430000  0.85640000  0.93600000  1.0 0.1115402714
H  H132  1  0.10570000  0.14360000  0.06400000  1.0 0.1115402714
H  H133  1  0.08670000  0.21410000  0.78870000  1.0 0.1205059712
H  H134  1  0.91330000  0.78590000  0.21130000  1.0 0.1205059712
H  H135  1  0.29190000  0.35980000  0.88740000  1.0 0.1205059712
H  H136  1  0.70810000  0.64020000  0.11260000  1.0 0.1205059712
H  H137  1  0.07570000  0.09630000  0.73750000  1.0 0.1558859052
H  H138  1  0.92430000  0.90370000  0.26250000  1.0 0.1558859052
H  H139  1  0.89200000  0.09690000  0.61020000  1.0 0.129599202
H  H140  1  0.10800000  0.90310000  0.38980000  1.0 0.129599202
H  H141  1  0.34610000  0.57550000  0.64110000  1.0 0.1558859052
H  H142  1  0.65390000  0.42450000  0.35890000  1.0 0.1558859052
H  H143  1  0.44380000  0.56090000  0.82190000  1.0 0.129599202
H  H144  1  0.55620000  0.43910000  0.17810000  1.0 0.129599202
H  H145  1  0.06340000  0.23620000  0.45340000  1.0 0.129599202
H  H146  1  0.93660000  0.76380000  0.54660000  1.0 0.129599202
H  H147  1  0.26770000  0.38730000  0.54460000  1.0 0.1205059712
H  H148  1  0.73230000  0.61270000  0.45540000  1.0 0.1205059712
H  H149  1  0.08980000  0.56090000  0.59690000  1.0 0.1205059712
H  H150  1  0.91020000  0.43910000  0.40310000  1.0 0.1205059712
H  H151  1  0.93060000  0.39110000  0.47560000  1.0 0.1205059712
H  H152  1  0.06940000  0.60890000  0.52440000  1.0 0.1205059712
H  H153  1  0.84210000  0.98850000  0.60730000  1.0 0.129599202
H  H154  1  0.15790000  0.01150000  0.39270000  1.0 0.129599202
H  H155  1  0.00100000  0.05270000  0.79180000  1.0 0.1385858498
H  H156  1  0.99900000  0.94730000  0.20820000  1.0 0.1385858498
H  H157  1  0.60200000  0.87140000  0.53430000  1.0 0.1385858498
H  H158  1  0.39800000  0.12860000  0.46570000  1.0 0.1385858498
H  H159  1  0.52110000  0.68320000  0.47900000  1.0 0.1385858498
H  H160  1  0.47890000  0.31680000  0.52100000  1.0 0.1385858498
H  H161  1  0.74990000  0.65100000  0.95390000  1.0 0.129599202
H  H162  1  0.25010000  0.34900000  0.04610000  1.0 0.129599202
H  H163  1  0.88330000  0.84350000  0.02540000  1.0 0.129599202
H  H164  1  0.11670000  0.15650000  0.97460000  1.0 0.129599202
H  H165  1  0.08200000  0.19420000  0.88060000  1.0 0.129599202
H  H166  1  0.91800000  0.80580000  0.11940000  1.0 0.129599202
H  H167  1  0.29120000  0.34160000  0.98070000  1.0 0.129599202
H  H168  1  0.70880000  0.65840000  0.01930000  1.0 0.129599202
H  H169  1  0.44420000  0.56250000  0.64870000  1.0 0.1481171133
H  H170  1  0.55580000  0.43750000  0.35130000  1.0 0.1481171133
H  H171  1  0.54080000  0.65710000  0.82580000  1.0 0.129599202
H  H172  1  0.45920000  0.34290000  0.17420000  1.0 0.1385858498
H  H173  1  0.28740000  0.36650000  0.48010000  1.0 0.129599202
H  H174  1  0.71260000  0.63350000  0.51990000  1.0 0.129599202
H  H175  1  0.09600000  0.19900000  0.40730000  1.0 0.129599202
H  H176  1  0.90400000  0.80100000  0.59270000  1.0 0.129599202
H  H177  1  0.43950000  0.69320000  0.39100000  1.0 0.1385858498
H  H178  1  0.56050000  0.30680000  0.60900000  1.0 0.1385858498
H  H179  1  0.59060000  0.88250000  0.43940000  1.0 0.1385858498
H  H180  1  0.40940000  0.11750000  0.56060000  1.0 0.1385858498
H  H181  1  0.56050000  0.60210000  0.66150000  1.0 0.129599202
H  H182  1  0.43950000  0.39790000  0.33850000  1.0 0.129599202
H  H183  1  0.65390000  0.70290000  0.83160000  1.0 0.129599202
H  H184  1  0.34610000  0.29710000  0.16840000  1.0 0.129599202
H  H185  1  0.31900000  0.33080000  0.42100000  1.0 0.129599202
H  H186  1  0.68100000  0.66920000  0.57900000  1.0 0.129599202
H  H187  1  0.13380000  0.16480000  0.35080000  1.0 0.1205059712
H  H188  1  0.86620000  0.83520000  0.64920000  1.0 0.1205059712
H  H189  1  0.40290000  0.69860000  0.28640000  1.0 0.1205059712
H  H190  1  0.59710000  0.30140000  0.71360000  1.0 0.1205059712
H  H191  1  0.55120000  0.88220000  0.33490000  1.0 0.1385858498
H  H192  1  0.44880000  0.11780000  0.66510000  1.0 0.1385858498
C  C1  1  0.80660000  0.32470000  0.81680000  1.0 -0.0410373084
C  C2  1  0.19340000  0.67530000  0.18320000  1.0 -0.0410373084
C  C3  1  0.71080000  0.24660000  0.72400000  1.0 -0.0410373084
C  C4  1  0.28920000  0.75340000  0.27600000  1.0 -0.0410373084
C  C5  1  0.55900000  0.02400000  0.74980000  1.0 -0.0044938748
C  C6  1  0.44100000  0.97600000  0.25020000  1.0 -0.0044938748
C  C7  1  0.67930000  0.10070000  0.77150000  1.0 -0.0219539842
C  C8  1  0.32070000  0.89930000  0.22850000  1.0 -0.0219539842
C  C9  1  0.77650000  0.14400000  0.93770000  1.0 -0.0301641157
C  C10  1  0.22350000  0.85600000  0.06230000  1.0 -0.0301641157
C  C11  1  0.85710000  0.25690000  0.96590000  1.0 -0.0301641157
C  C12  1  0.14290000  0.74310000  0.03410000  1.0 -0.0301641157
C  C13  1  0.78160000  0.31540000  0.02530000  1.0 -0.0518058591
C  C14  1  0.21840000  0.68460000  0.97470000  1.0 -0.0518058591
C  C15  1  0.66470000  0.26100000  0.01250000  1.0 -0.0301641157
C  C16  1  0.33530000  0.73900000  0.98750000  1.0 -0.0301641157
C  C17  1  0.75040000  0.40430000  0.88680000  1.0 -0.0301641157
C  C18  1  0.24960000  0.59570000  0.11320000  1.0 -0.0301641157
C  C19  1  0.62530000  0.36470000  0.81340000  1.0 -0.0518058591
C  C20  1  0.37470000  0.63530000  0.18660000  1.0 -0.0518058591
C  C21  1  0.52130000  0.26000000  0.87930000  1.0 -0.0410373084
C  C22  1  0.47870000  0.74000000  0.12070000  1.0 -0.0410373084
C  C23  1  0.42840000  0.16840000  0.79900000  1.0 -0.0118771714
C  C24  1  0.57160000  0.83160000  0.20100000  1.0 -0.0118771714
C  C25  1  0.61890000  0.07580000  0.96400000  1.0 -0.0118771714
C  C26  1  0.38110000  0.92420000  0.03600000  1.0 -0.0118771714
C  C27  1  0.50110000  0.04410000  0.88020000  1.0 -0.0301641157
C  C28  1  0.49890000  0.95590000  0.11980000  1.0 -0.0301641157
C  C29  1  0.85730000  0.32980000  0.80310000  1.0 -0.1404220744
C  C30  1  0.14270000  0.67020000  0.19690000  1.0 -0.1404220744
C  C31  1  0.76090000  0.25020000  0.70990000  1.0 -0.160129287
C  C32  1  0.23910000  0.74980000  0.29010000  1.0 -0.160129287
C  C33  1  0.57480000  0.97630000  0.75790000  1.0 -0.1404220744
C  C34  1  0.42520000  0.02370000  0.24210000  1.0 -0.1404220744
C  C35  1  0.69560000  0.05110000  0.77950000  1.0 -0.160129287
C  C36  1  0.30440000  0.94890000  0.22050000  1.0 -0.160129287
C  C37  1  0.82670000  0.13610000  0.99090000  1.0 -0.160129287
C  C38  1  0.17330000  0.86390000  0.00910000  1.0 -0.160129287
C  C39  1  0.90780000  0.25000000  0.02020000  1.0 -0.1686111343
C  C40  1  0.09220000  0.75000000  0.97980000  1.0 -0.1686111343
C  C41  1  0.80040000  0.36710000  0.06320000  1.0 -0.1686111343
C  C42  1  0.19960000  0.63290000  0.93680000  1.0 -0.1793973039
C  C43  1  0.68060000  0.31210000  0.04830000  1.0 -0.1686111343
C  C44  1  0.31940000  0.68790000  0.95170000  1.0 -0.1686111343
C  C45  1  0.77020000  0.45870000  0.86270000  1.0 -0.1509639405
C  C46  1  0.22980000  0.54130000  0.13730000  1.0 -0.1509639405
C  C47  1  0.64390000  0.41900000  0.78870000  1.0 -0.1686111343
C  C48  1  0.35610000  0.58100000  0.21130000  1.0 -0.1686111343
C  C49  1  0.47740000  0.28700000  0.85750000  1.0 -0.160129287
C  C50  1  0.52260000  0.71300000  0.14250000  1.0 -0.160129287
C  C51  1  0.38240000  0.19330000  0.77630000  1.0 -0.1509639405
C  C52  1  0.61760000  0.80670000  0.22370000  1.0 -0.1509639405
C  C53  1  0.58980000  0.04650000  0.00160000  1.0 -0.160129287
C  C54  1  0.41020000  0.95350000  0.99840000  1.0 -0.160129287
C  C55  1  0.47090000  0.01480000  0.91800000  1.0 -0.1686111343
C  C56  1  0.52910000  0.98520000  0.08200000  1.0 -0.1686111343
C  C57  1  0.83570000  0.29020000  0.74910000  1.0 0.0816409424
C  C58  1  0.16430000  0.70980000  0.25090000  1.0 0.0816409424
C  C59  1  0.64560000  0.98940000  0.77390000  1.0 0.0994283377
C  C60  1  0.35440000  0.01060000  0.22610000  1.0 0.0994283377
C  C61  1  0.89350000  0.19000000  0.03370000  1.0 0.0892950872
C  C62  1  0.10650000  0.81000000  0.96630000  1.0 0.0892950872
C  C63  1  0.74900000  0.36820000  0.07410000  1.0 0.0994283377
C  C64  1  0.25100000  0.63180000  0.92590000  1.0 0.0994283377
C  C65  1  0.71660000  0.46750000  0.81210000  1.0 0.0994283377
C  C66  1  0.28340000  0.53250000  0.18790000  1.0 0.0994283377
C  C67  1  0.40840000  0.25610000  0.80500000  1.0 0.0994283377
C  C68  1  0.59160000  0.74390000  0.19500000  1.0 0.0994283377
C  C69  1  0.51490000  0.01510000  0.97990000  1.0 0.0816409424
C  C70  1  0.48510000  0.98490000  0.02010000  1.0 0.0816409424
C  C71  1  0.89070000  0.29110000  0.73870000  1.0 0.0892950872
C  C72  1  0.10930000  0.70890000  0.26130000  1.0 0.0892950872
C  C73  1  0.66510000  0.93830000  0.78580000  1.0 0.1115402714
C  C74  1  0.33490000  0.06170000  0.21420000  1.0 0.1115402714
C  C75  1  0.94960000  0.18140000  0.09050000  1.0 0.0994283377
C  C76  1  0.05040000  0.81860000  0.90950000  1.0 0.0994283377
C  C77  1  0.76960000  0.42860000  0.10920000  1.0 0.0816409424
C  C78  1  0.23040000  0.57140000  0.89080000  1.0 0.0816409424
C  C79  1  0.73690000  0.52750000  0.78690000  1.0 0.0816409424
C  C80  1  0.26310000  0.47250000  0.21310000  1.0 0.0816409424
C  C81  1  0.36330000  0.28730000  0.77850000  1.0 0.0892950872
C  C82  1  0.63670000  0.71270000  0.22150000  1.0 0.0892950872
C  C83  1  0.87340000  0.26810000  0.67770000  1.0 -0.1404220744
C  C84  1  0.12660000  0.73190000  0.32230000  1.0 -0.1404220744
C  C85  1  0.96170000  0.31050000  0.78820000  1.0 -0.160129287
C  C86  1  0.03830000  0.68950000  0.21180000  1.0 -0.160129287
C  C87  1  0.73660000  0.95400000  0.82860000  1.0 -0.160129287
C  C88  1  0.26340000  0.04600000  0.17140000  1.0 -0.160129287
C  C89  1  0.61420000  0.87410000  0.75570000  1.0 -0.160129287
C  C90  1  0.38580000  0.12590000  0.24430000  1.0 -0.160129287
C  C91  1  0.96140000  0.13140000  0.08550000  1.0 -0.160129287
C  C92  1  0.03860000  0.86860000  0.91450000  1.0 -0.160129287
C  C93  1  0.99270000  0.22350000  0.14810000  1.0 -0.160129287
C  C94  1  0.00730000  0.77650000  0.85190000  1.0 -0.1686111343
C  C95  1  0.83670000  0.46500000  0.16300000  1.0 -0.1509639405
C  C96  1  0.16330000  0.53500000  0.83700000  1.0 -0.1509639405
C  C97  1  0.72210000  0.45230000  0.08750000  1.0 -0.1879523172
C  C98  1  0.27790000  0.54770000  0.91250000  1.0 -0.1879523172
C  C99  1  0.68940000  0.53020000  0.72680000  1.0 -0.1686111343
C  C100  1  0.31060000  0.46980000  0.27320000  1.0 -0.160129287
C  C101  1  0.80320000  0.58460000  0.82370000  1.0 -0.1686111343
C  C102  1  0.19680000  0.41540000  0.17630000  1.0 -0.1686111343
C  C103  1  0.30220000  0.26290000  0.71960000  1.0 -0.1404220744
C  C104  1  0.69780000  0.73710000  0.28040000  1.0 -0.1404220744
C  C105  1  0.38330000  0.34280000  0.81440000  1.0 -0.1793973039
C  C106  1  0.61670000  0.65720000  0.18560000  1.0 -0.1793973039
C  C107  1  0.92550000  0.26500000  0.67040000  1.0 -0.0219539842
C  C108  1  0.07450000  0.73500000  0.32960000  1.0 -0.0219539842
C  C109  1  0.01130000  0.30650000  0.77850000  1.0 -0.0518058591
C  C110  1  0.98870000  0.69350000  0.22150000  1.0 -0.0518058591
C  C111  1  0.75860000  0.90860000  0.83730000  1.0 -0.0301641157
C  C112  1  0.24140000  0.09140000  0.16270000  1.0 -0.0301641157
C  C113  1  0.63640000  0.82920000  0.76500000  1.0 -0.0118771714
C  C114  1  0.36360000  0.17080000  0.23500000  1.0 -0.0118771714
C  C115  1  0.01810000  0.12670000  0.13670000  1.0 -0.0301641157
C  C116  1  0.98190000  0.87330000  0.86330000  1.0 -0.0301641157
C  C117  1  0.04470000  0.21590000  0.19850000  1.0 -0.0219539842
C  C118  1  0.95530000  0.78410000  0.80150000  1.0 -0.0219539842
C  C119  1  0.85740000  0.52340000  0.19290000  1.0 -0.0301641157
C  C120  1  0.14260000  0.47660000  0.80710000  1.0 -0.0301641157
C  C121  1  0.74390000  0.51110000  0.11810000  1.0 -0.0570207858
C  C122  1  0.25610000  0.48890000  0.88190000  1.0 -0.0570207858
C  C123  1  0.70730000  0.58730000  0.70730000  1.0 -0.0301641157
C  C124  1  0.29270000  0.41270000  0.29270000  1.0 -0.0301641157
C  C125  1  0.81840000  0.64140000  0.80050000  1.0 -0.0301641157
C  C126  1  0.18160000  0.35860000  0.19950000  1.0 -0.0301641157
C  C127  1  0.26170000  0.29500000  0.69500000  1.0 -0.0219539842
C  C128  1  0.73830000  0.70500000  0.30500000  1.0 -0.0219539842
C  C129  1  0.34320000  0.37370000  0.78990000  1.0 -0.0410373084
C  C130  1  0.65680000  0.62630000  0.21010000  1.0 -0.0410373084
C  C131  1  0.09260000  0.17110000  0.69600000  1.0 -0.0118771714
C  C132  1  0.90740000  0.82890000  0.30400000  1.0 -0.0118771714
C  C133  1  0.98670000  0.17210000  0.62060000  1.0 0.0092122063
C  C134  1  0.01330000  0.82790000  0.37940000  1.0 0.0092122063
C  C135  1  0.27520000  0.52550000  0.67250000  1.0 -0.0410373084
C  C136  1  0.72480000  0.47450000  0.32750000  1.0 -0.0410373084
C  C137  1  0.33420000  0.52080000  0.77990000  1.0 -0.0518058591
C  C138  1  0.66580000  0.47920000  0.22010000  1.0 -0.0518058591
C  C139  1  0.08170000  0.29620000  0.52090000  1.0 0.0031053035
C  C140  1  0.91830000  0.70380000  0.47910000  1.0 0.0031053035
C  C141  1  0.20240000  0.38380000  0.57480000  1.0 -0.0410373084
C  C142  1  0.79760000  0.61620000  0.42520000  1.0 -0.0410373084
C  C143  1  0.07670000  0.48280000  0.63630000  1.0 -0.0219539842
C  C144  1  0.92330000  0.51720000  0.36370000  1.0 -0.0219539842
C  C145  1  0.98580000  0.38580000  0.56580000  1.0 0.0092122063
C  C146  1  0.01420000  0.61420000  0.43420000  1.0 0.0092122063
C  C147  1  0.81380000  0.93360000  0.66700000  1.0 -0.0219539842
C  C148  1  0.18620000  0.06640000  0.33300000  1.0 -0.0219539842
C  C149  1  0.90590000  0.97310000  0.77350000  1.0 -0.0518058591
C  C150  1  0.09410000  0.02690000  0.22650000  1.0 -0.0518058591
C  C151  1  0.62200000  0.82240000  0.60500000  1.0 -0.0301641157
C  C152  1  0.37800000  0.17760000  0.39500000  1.0 -0.0301641157
C  C153  1  0.57550000  0.71300000  0.57150000  1.0 -0.0570207858
C  C154  1  0.42450000  0.28700000  0.42850000  1.0 -0.0570207858
C  C155  1  0.78870000  0.70300000  0.89960000  1.0 -0.0118771714
C  C156  1  0.21130000  0.29700000  0.10040000  1.0 -0.0118771714
C  C157  1  0.86500000  0.81450000  0.94040000  1.0 -0.0410373084
C  C158  1  0.13500000  0.18550000  0.05960000  1.0 -0.0410373084
C  C159  1  0.12820000  0.24040000  0.82830000  1.0 -0.0410373084
C  C160  1  0.87180000  0.75960000  0.17170000  1.0 -0.0410373084
C  C161  1  0.24890000  0.32600000  0.88620000  1.0 -0.0219539842
C  C162  1  0.75110000  0.67400000  0.11380000  1.0 -0.0219539842
C  C163  1  0.05200000  0.11630000  0.70820000  1.0 -0.160129287
C  C164  1  0.94800000  0.88370000  0.29180000  1.0 -0.160129287
C  C165  1  0.94390000  0.11620000  0.63310000  1.0 -0.1686111343
C  C166  1  0.05610000  0.88380000  0.36690000  1.0 -0.1686111343
C  C167  1  0.34330000  0.56020000  0.67680000  1.0 -0.1404220744
C  C168  1  0.65670000  0.43980000  0.32320000  1.0 -0.1404220744
C  C169  1  0.40110000  0.55280000  0.78330000  1.0 -0.1879523172
C  C170  1  0.59890000  0.44720000  0.21670000  1.0 -0.1879523172
C  C171  1  0.09970000  0.27520000  0.48420000  1.0 -0.160129287
C  C172  1  0.90030000  0.72480000  0.51580000  1.0 -0.160129287
C  C173  1  0.21920000  0.36330000  0.53770000  1.0 -0.160129287
C  C174  1  0.78080000  0.63670000  0.46230000  1.0 -0.160129287
C  C175  1  0.06190000  0.51500000  0.58800000  1.0 -0.1509639405
C  C176  1  0.93810000  0.48500000  0.41200000  1.0 -0.1509639405
C  C177  1  0.96900000  0.41600000  0.51680000  1.0 -0.1164175047
C  C178  1  0.03100000  0.58400000  0.48320000  1.0 -0.1164175047
C  C179  1  0.85960000  0.98530000  0.65030000  1.0 -0.160129287
C  C180  1  0.14040000  0.01470000  0.34970000  1.0 -0.160129287
C  C181  1  0.95270000  0.02330000  0.75900000  1.0 -0.1686111343
C  C182  1  0.04730000  0.97670000  0.24100000  1.0 -0.1686111343
C  C183  1  0.59350000  0.82990000  0.54290000  1.0 -0.160129287
C  C184  1  0.40650000  0.17010000  0.45710000  1.0 -0.160129287
C  C185  1  0.54690000  0.71980000  0.51140000  1.0 -0.160129287
C  C186  1  0.45310000  0.28020000  0.48860000  1.0 -0.160129287
C  C187  1  0.78050000  0.69340000  0.95150000  1.0 -0.1686111343
C  C188  1  0.21950000  0.30660000  0.04850000  1.0 -0.1686111343
C  C189  1  0.85880000  0.80680000  0.99350000  1.0 -0.1509639405
C  C190  1  0.14120000  0.19320000  0.00650000  1.0 -0.1509639405
C  C191  1  0.12560000  0.22830000  0.88300000  1.0 -0.1509639405
C  C192  1  0.87440000  0.77170000  0.11700000  1.0 -0.1509639405
C  C193  1  0.24860000  0.31510000  0.94170000  1.0 -0.160129287
C  C194  1  0.75140000  0.68490000  0.05830000  1.0 -0.160129287
C  C195  1  0.97690000  0.08760000  0.67990000  1.0 0.0892950872
C  C196  1  0.02310000  0.91240000  0.32010000  1.0 0.0892950872
C  C197  1  0.40740000  0.57330000  0.73210000  1.0 0.0892950872
C  C198  1  0.59260000  0.42670000  0.26790000  1.0 0.0892950872
C  C199  1  0.16810000  0.30870000  0.49040000  1.0 0.0702182727
C  C200  1  0.83190000  0.69130000  0.50960000  1.0 0.0702182727
C  C201  1  0.00670000  0.48200000  0.52600000  1.0 0.0816409424
C  C202  1  0.99330000  0.51800000  0.47400000  1.0 0.0816409424
C  C203  1  0.93070000  0.03210000  0.69650000  1.0 0.0816409424
C  C204  1  0.06930000  0.96790000  0.30350000  1.0 0.0816409424
C  C205  1  0.55330000  0.77850000  0.49400000  1.0 0.0892950872
C  C206  1  0.44670000  0.22150000  0.50600000  1.0 0.0892950872
C  C207  1  0.81670000  0.74530000  0.00110000  1.0 0.0994283377
C  C208  1  0.18330000  0.25470000  0.99890000  1.0 0.0994283377
C  C209  1  0.18580000  0.26500000  0.94090000  1.0 0.0994283377
C  C210  1  0.81420000  0.73500000  0.05910000  1.0 0.0994283377
C  C211  1  0.47950000  0.60270000  0.73620000  1.0 0.0892950872
C  C212  1  0.52050000  0.39730000  0.26380000  1.0 0.0892950872
C  C213  1  0.18800000  0.28590000  0.45200000  1.0 0.0816409424
C  C214  1  0.81200000  0.71410000  0.54800000  1.0 0.0816409424
C  C215  1  0.52600000  0.78490000  0.42830000  1.0 0.0994283377
C  C216  1  0.47400000  0.21510000  0.57170000  1.0 0.0994283377
C  C217  1  0.48690000  0.58910000  0.68770000  1.0 -0.160129287
C  C218  1  0.51310000  0.41090000  0.31230000  1.0 -0.160129287
C  C219  1  0.54360000  0.64580000  0.79130000  1.0 -0.1793973039
C  C220  1  0.45640000  0.35420000  0.20870000  1.0 -0.1793973039
C  C221  1  0.25470000  0.32440000  0.45430000  1.0 -0.160129287
C  C222  1  0.74530000  0.67560000  0.54570000  1.0 -0.160129287
C  C223  1  0.14320000  0.22660000  0.41230000  1.0 -0.1793973039
C  C224  1  0.85680000  0.77340000  0.58770000  1.0 -0.1793973039
C  C225  1  0.46600000  0.73220000  0.38060000  1.0 -0.1509639405
C  C226  1  0.53400000  0.26780000  0.61940000  1.0 -0.1509639405
C  C227  1  0.55470000  0.84300000  0.40920000  1.0 -0.1509639405
C  C228  1  0.44530000  0.15700000  0.59080000  1.0 -0.1509639405
C  C229  1  0.55600000  0.61380000  0.69470000  1.0 -0.0410373084
C  C230  1  0.44400000  0.38620000  0.30530000  1.0 -0.0410373084
C  C231  1  0.61080000  0.67190000  0.79520000  1.0 -0.0301641157
C  C232  1  0.38920000  0.32810000  0.20480000  1.0 -0.0301641157
C  C233  1  0.27410000  0.30270000  0.42010000  1.0 -0.0518058591
C  C234  1  0.72590000  0.69730000  0.57990000  1.0 -0.0410373084
C  C235  1  0.16590000  0.20590000  0.37860000  1.0 -0.0118771714
C  C236  1  0.83410000  0.79410000  0.62140000  1.0 -0.0118771714
C  C237  1  0.44410000  0.73550000  0.31840000  1.0 -0.0570207858
C  C238  1  0.55590000  0.26450000  0.68160000  1.0 -0.0570207858
C  C239  1  0.53020000  0.84210000  0.34660000  1.0 -0.0219539842
C  C240  1  0.46980000  0.15790000  0.65340000  1.0 -0.0219539842
C  C241  1  0.87010000  0.58380000  0.02760000  1.0 0.4784760626
C  C242  1  0.12990000  0.41620000  0.97240000  1.0 0.4784760626
S  S1  1  0.94280000  0.62770000  0.00640000  1.0 0.9623643385
S  S2  1  0.05720000  0.37230000  0.99360000  1.0 0.9623643385
N  N1  1  0.73460000  0.28350000  0.77810000  1.0 0.3194249498
N  N2  1  0.26540000  0.71650000  0.22190000  1.0 0.3194249498
N  N3  1  0.61260000  0.08650000  0.75990000  1.0 0.3306811001
N  N4  1  0.38740000  0.91350000  0.24010000  1.0 0.3306811001
N  N5  1  0.79220000  0.20360000  0.92690000  1.0 0.3306811001
N  N6  1  0.20780000  0.79640000  0.07310000  1.0 0.3306811001
N  N7  1  0.71380000  0.26350000  0.99860000  1.0 0.3306811001
N  N8  1  0.28620000  0.73650000  0.00140000  1.0 0.3306811001
N  N9  1  0.67970000  0.35740000  0.86190000  1.0 0.3306811001
N  N10  1  0.32030000  0.64260000  0.13810000  1.0 0.3306811001
N  N11  1  0.49590000  0.20050000  0.84840000  1.0 0.3306811001
N  N12  1  0.50410000  0.79950000  0.15160000  1.0 0.3306811001
N  N13  1  0.57390000  0.07310000  0.90330000  1.0 0.3411231266
N  N14  1  0.42610000  0.92690000  0.09670000  1.0 0.3411231266
N  N15  1  0.99200000  0.28370000  0.71950000  1.0 0.3194249498
N  N16  1  0.00800000  0.71630000  0.28050000  1.0 0.3194249498
N  N17  1  0.70690000  0.84710000  0.80360000  1.0 0.3306811001
N  N18  1  0.29310000  0.15290000  0.19640000  1.0 0.3306811001
N  N19  1  0.05910000  0.16960000  0.19160000  1.0 0.3306811001
N  N20  1  0.94090000  0.83040000  0.80840000  1.0 0.3306811001
N  N21  1  0.81040000  0.54610000  0.16840000  1.0 0.3306811001
N  N22  1  0.18960000  0.45390000  0.83160000  1.0 0.3306811001
N  N23  1  0.76960000  0.64190000  0.74380000  1.0 0.288850628
N  N24  1  0.23040000  0.35810000  0.25620000  1.0 0.288850628
N  N25  1  0.28450000  0.34980000  0.73140000  1.0 0.3491537274
N  N26  1  0.71550000  0.65020000  0.26860000  1.0 0.3491537274
N  N27  1  0.05910000  0.19960000  0.65250000  1.0 0.3194249498
N  N28  1  0.94090000  0.80040000  0.34750000  1.0 0.3194249498
N  N29  1  0.27270000  0.50610000  0.72570000  1.0 0.3411231266
N  N30  1  0.72730000  0.49390000  0.27430000  1.0 0.3411231266
N  N31  1  0.13340000  0.35050000  0.56570000  1.0 0.3029548751
N  N32  1  0.86660000  0.64950000  0.43430000  1.0 0.3029548751
N  N33  1  0.03870000  0.41980000  0.62390000  1.0 0.2570689247
N  N34  1  0.96130000  0.58020000  0.37610000  1.0 0.2570689247
N  N35  1  0.83720000  0.92930000  0.72790000  1.0 0.3411231266
N  N36  1  0.16280000  0.07070000  0.27210000  1.0 0.3411231266
N  N37  1  0.61290000  0.76530000  0.61840000  1.0 0.3306811001
N  N38  1  0.38710000  0.23470000  0.38160000  1.0 0.3306811001
N  N39  1  0.82930000  0.76260000  0.89470000  1.0 0.3306811001
N  N40  1  0.17070000  0.23740000  0.10530000  1.0 0.3306811001
N  N41  1  0.18950000  0.28970000  0.83080000  1.0 0.3306811001
N  N42  1  0.81050000  0.71030000  0.16920000  1.0 0.3306811001
N  N43  1  0.61620000  0.65410000  0.74830000  1.0 0.3306811001
N  N44  1  0.38380000  0.34590000  0.25170000  1.0 0.3306811001
N  N45  1  0.23120000  0.24320000  0.38550000  1.0 0.3029548751
N  N46  1  0.76880000  0.75680000  0.61450000  1.0 0.3029548751
N  N47  1  0.48070000  0.79120000  0.30150000  1.0 0.3306811001
N  N48  1  0.51930000  0.20880000  0.69850000  1.0 0.3306811001
O  O1  1  0.68710000  0.27920000  0.79370000  1.0 -0.5901989916
O  O2  1  0.31290000  0.72080000  0.20630000  1.0 -0.5901989916
O  O3  1  0.59890000  0.13480000  0.75610000  1.0 -0.5901989916
O  O4  1  0.40110000  0.86520000  0.24390000  1.0 -0.5901989916
O  O5  1  0.74420000  0.21070000  0.87290000  1.0 -0.6324875279
O  O6  1  0.25580000  0.78930000  0.12710000  1.0 -0.6324875279
O  O7  1  0.69530000  0.21550000  0.95850000  1.0 -0.5810484184
O  O8  1  0.30470000  0.78450000  0.04150000  1.0 -0.5810484184
O  O9  1  0.66210000  0.30430000  0.88630000  1.0 -0.619303353
O  O10  1  0.33790000  0.69570000  0.11370000  1.0 -0.619303353
O  O11  1  0.54030000  0.17680000  0.86950000  1.0 -0.5901989916
O  O12  1  0.45970000  0.82320000  0.13050000  1.0 -0.5901989916
O  O13  1  0.60100000  0.09950000  0.86620000  1.0 -0.5990486133
O  O14  1  0.39900000  0.90050000  0.13380000  1.0 -0.5990486133
O  O15  1  0.53620000  0.20760000  0.75750000  1.0 -0.5901989916
O  O16  1  0.46380000  0.79240000  0.24250000  1.0 -0.5901989916
O  O17  1  0.03950000  0.27680000  0.71160000  1.0 -0.6097088812
O  O18  1  0.96050000  0.72320000  0.28840000  1.0 -0.6097088812
O  O19  1  0.72860000  0.80410000  0.81050000  1.0 -0.6097088812
O  O20  1  0.27140000  0.19590000  0.18950000  1.0 -0.6097088812
O  O21  1  0.11370000  0.16460000  0.23840000  1.0 -0.5810484184
O  O22  1  0.88630000  0.83540000  0.76160000  1.0 -0.5810484184
O  O23  1  0.83030000  0.60320000  0.19460000  1.0 -0.5901989916
O  O24  1  0.16970000  0.39680000  0.80540000  1.0 -0.5901989916
O  O25  1  0.78520000  0.69670000  0.72390000  1.0 -0.5592442995
O  O26  1  0.21480000  0.30330000  0.27610000  1.0 -0.5592442995
O  O27  1  0.24910000  0.38120000  0.70850000  1.0 -0.5901989916
O  O28  1  0.75090000  0.61880000  0.29150000  1.0 -0.5901989916
O  O29  1  0.09970000  0.25730000  0.64310000  1.0 -0.5901989916
O  O30  1  0.90030000  0.74270000  0.35690000  1.0 -0.5901989916
O  O31  1  0.20810000  0.47170000  0.72140000  1.0 -0.5810484184
O  O32  1  0.79190000  0.52830000  0.27860000  1.0 -0.5810484184
O  O33  1  0.11750000  0.37170000  0.60160000  1.0 -0.5592442995
O  O34  1  0.88250000  0.62830000  0.39840000  1.0 -0.5481519057
O  O35  1  0.05310000  0.38760000  0.66970000  1.0 -0.5710355116
O  O36  1  0.94690000  0.61240000  0.33030000  1.0 -0.5710355116
O  O37  1  0.19040000  0.30160000  0.77790000  1.0 -0.5901989916
O  O38  1  0.80960000  0.69840000  0.22210000  1.0 -0.5901989916
O  O39  1  0.79090000  0.88260000  0.74260000  1.0 -0.6097088812
O  O40  1  0.20910000  0.11740000  0.25740000  1.0 -0.6097088812
O  O41  1  0.64270000  0.75850000  0.67830000  1.0 -0.6097088812
O  O42  1  0.35730000  0.24150000  0.32170000  1.0 -0.6097088812
O  O43  1  0.83880000  0.77070000  0.84520000  1.0 -0.6097088812
O  O44  1  0.16120000  0.22930000  0.15480000  1.0 -0.6097088812
O  O45  1  0.68210000  0.67590000  0.75550000  1.0 -0.5901989916
O  O46  1  0.31790000  0.32410000  0.24450000  1.0 -0.5901989916
O  O47  1  0.74560000  0.77800000  0.64290000  1.0 -0.5990486133
O  O48  1  0.25440000  0.22200000  0.35710000  1.0 -0.5990486133
O  O49  1  0.77040000  0.04700000  0.16140000  1.0 -0.5810484184
O  O50  1  0.22960000  0.95300000  0.83860000  1.0 -0.5810484184
O  O51  1  0.64000000  0.92880000  0.08260000  1.0 -0.8086279465
O  O52  1  0.36000000  0.07120000  0.91740000  1.0 -0.8086279465
O  O53  1  0.75760000  0.92370000  0.16600000  1.0 -0.8086279465
O  O54  1  0.24240000  0.07630000  0.83400000  1.0 -0.8003849894
O  O55  1  0.83460000  0.00360000  0.11530000  1.0 -0.7907186969
O  O56  1  0.16540000  0.99640000  0.88470000  1.0 -0.7907186969
O  O57  1  0.71530000  0.01030000  0.03340000  1.0 -0.8165225062
O  O58  1  0.28470000  0.98970000  0.96660000  1.0 -0.8165225062
O  O59  1  0.50340000  0.81360000  0.01210000  1.0 -0.6097088812
O  O60  1  0.49660000  0.18640000  0.98790000  1.0 -0.6097088812
O  O61  1  0.63380000  0.81470000  0.09270000  1.0 -0.7784807557
O  O62  1  0.36620000  0.18530000  0.90730000  1.0 -0.7784807557
O  O63  1  0.75680000  0.80520000  0.18560000  1.0 -0.5990486133
O  O64  1  0.24320000  0.19480000  0.81440000  1.0 -0.5990486133
O  O65  1  0.58890000  0.90050000  0.96030000  1.0 -0.7784807557
O  O66  1  0.41110000  0.09950000  0.03970000  1.0 -0.7784807557
O  O67  1  0.70880000  0.89680000  0.04350000  1.0 -1.2096011116
O  O68  1  0.29120000  0.10320000  0.95650000  1.0 -1.2096011116
O  O69  1  0.82720000  0.89240000  0.12670000  1.0 -0.8003849894
O  O70  1  0.17280000  0.10760000  0.87330000  1.0 -0.8003849894
O  O71  1  0.66140000  0.98930000  0.90270000  1.0 -0.619303353
O  O72  1  0.33860000  0.01070000  0.09730000  1.0 -0.6097088812
O  O73  1  0.78360000  0.97920000  0.99440000  1.0 -0.8086279465
O  O74  1  0.21640000  0.02080000  0.00560000  1.0 -0.8086279465
O  O75  1  0.91450000  0.97870000  0.07880000  1.0 -0.6324875279
O  O76  1  0.08550000  0.02130000  0.92120000  1.0 -0.6324875279
O  O77  1  0.58410000  0.78900000  0.97030000  1.0 -0.8165225062
O  O78  1  0.41590000  0.21100000  0.02970000  1.0 -0.8165225062
O  O79  1  0.70180000  0.78420000  0.05370000  1.0 -0.8003849894
O  O80  1  0.29820000  0.21580000  0.94630000  1.0 -0.8003849894
O  O81  1  0.65970000  0.87000000  0.92150000  1.0 -0.8003849894
O  O82  1  0.34030000  0.13000000  0.07850000  1.0 -0.8003849894
O  O83  1  0.77690000  0.86440000  0.00570000  1.0 -0.8003849894
O  O84  1  0.22310000  0.13560000  0.99430000  1.0 -0.8003849894
O  O85  1  0.65200000  0.74860000  0.92610000  1.0 -0.6097088812
O  O86  1  0.34800000  0.25140000  0.07390000  1.0 -0.6097088812
O  O87  1  0.64660000  0.18810000  0.56330000  1.0 -0.5592442995
O  O88  1  0.35340000  0.81190000  0.43670000  1.0 -0.5592442995
O  O89  1  0.53300000  0.09110000  0.58320000  1.0 -0.7784807557
O  O90  1  0.46700000  0.90890000  0.41680000  1.0 -0.7784807557
O  O91  1  0.50180000  0.10640000  0.46470000  1.0 -0.7599481417
O  O92  1  0.49820000  0.89360000  0.53530000  1.0 -0.7599481417
O  O93  1  0.60540000  0.08270000  0.48080000  1.0 -0.7907186969
O  O94  1  0.39460000  0.91730000  0.51920000  1.0 -0.7907186969
O  O95  1  0.63440000  0.06880000  0.59700000  1.0 -0.7599481417
O  O96  1  0.36560000  0.93120000  0.40300000  1.0 -0.7599481417
O  O97  1  0.50000000  0.00000000  0.50000000  1.0 -1.1712465359
O  O98  1  0.52790000  0.98350000  0.61530000  1.0 -0.7907186969
O  O99  1  0.47210000  0.01650000  0.38470000  1.0 -0.7907186969
O  O100  1  0.64320000  0.96110000  0.64200000  1.0 -0.6406743004
O  O101  1  0.35680000  0.03890000  0.35800000  1.0 -0.6406743004
O  O102  1  0.60140000  0.97570000  0.51500000  1.0 -0.8165225062
O  O103  1  0.39860000  0.02430000  0.48500000  1.0 -0.8165225062
O  O104  1  0.57800000  0.99000000  0.39270000  1.0 -0.5990486133
O  O105  1  0.42200000  0.01000000  0.60730000  1.0 -0.5901989916
O  O106  1  0.95190000  0.13990000  0.48290000  1.0 -0.6097088812
O  O107  1  0.04810000  0.86010000  0.51710000  1.0 -0.6097088812
O  O108  1  0.06250000  0.11390000  0.56880000  1.0 -0.7907186969
O  O109  1  0.93750000  0.88610000  0.43120000  1.0 -0.7907186969
O  O110  1  0.88710000  0.01220000  0.41530000  1.0 -0.8423678948
O  O111  1  0.11290000  0.98780000  0.58470000  1.0 -0.84734226
O  O112  1  0.02440000  0.10200000  0.44700000  1.0 -0.7784807557
O  O113  1  0.97560000  0.89800000  0.55300000  1.0 -0.7721093966
O  O114  1  0.00000000  0.00000000  0.50000000  1.0 -1.1712465359
O  O115  1  0.13370000  0.09050000  0.53290000  1.0 -0.7721093966
O  O116  1  0.86630000  0.90950000  0.46710000  1.0 -0.7721093966
O  O117  1  0.03880000  0.01250000  0.62080000  1.0 -0.7784807557
O  O118  1  0.96120000  0.98750000  0.37920000  1.0 -0.7784807557
O  O119  1  0.07500000  0.97470000  0.46430000  1.0 -0.8003849894
O  O120  1  0.92500000  0.02530000  0.53570000  1.0 -0.8003849894
O  O121  1  0.10580000  0.08090000  0.40860000  1.0 -0.5810484184
O  O122  1  0.89420000  0.91910000  0.59140000  1.0 -0.5810484184
O  O123  1  0.18490000  0.10890000  0.66410000  1.0 -0.6097088812
O  O124  1  0.81510000  0.89110000  0.33590000  1.0 -0.6097088812
O  O125  1  0.19320000  0.67770000  0.46120000  1.0 -0.5108837856
O  O126  1  0.80680000  0.32230000  0.53880000  1.0 -0.5108837856
O  O127  1  0.11480000  0.54180000  0.45020000  1.0 -0.4975565497
O  O128  1  0.88520000  0.45820000  0.54980000  1.0 -0.4975565497
O  O129  1  0.25780000  0.59940000  0.49470000  1.0 -0.4975565497
O  O130  1  0.74220000  0.40060000  0.50530000  1.0 -0.4975565497
O  O131  1  0.24190000  0.64520000  0.39000000  1.0 -0.5108837856
O  O132  1  0.75810000  0.35480000  0.61000000  1.0 -0.5108837856
O  O133  1  0.09820000  0.58710000  0.34530000  1.0 -0.3904391153
O  O134  1  0.90180000  0.41290000  0.65470000  1.0 -0.3904391153
O  O135  1  0.03000000  0.40910000  0.44810000  1.0 -0.3972411527
O  O136  1  0.97000000  0.59090000  0.55190000  1.0 -0.3972411527
O  O137  1  0.18190000  0.47370000  0.48980000  1.0 -0.2810531928
O  O138  1  0.81810000  0.52630000  0.51020000  1.0 -0.2810531928
O  O139  1  0.33560000  0.53240000  0.54300000  1.0 -0.4502116478
O  O140  1  0.66440000  0.46760000  0.45700000  1.0 -0.4502116478
O  O141  1  0.02140000  0.46110000  0.33930000  1.0 -0.4200795025
O  O142  1  0.97860000  0.53890000  0.66070000  1.0 -0.4144797398
O  O143  1  0.16520000  0.51860000  0.38340000  1.0 -0.4200795025
O  O144  1  0.83480000  0.48140000  0.61660000  1.0 -0.4200795025
O  O145  1  0.30690000  0.57570000  0.42780000  1.0 -0.4502116478
O  O146  1  0.69310000  0.42430000  0.57220000  1.0 -0.4502116478
O  O147  1  0.99400000  0.50490000  0.22420000  1.0 -0.4975565497
O  O148  1  0.00600000  0.49510000  0.77580000  1.0 -0.4975565497
O  O149  1  0.14780000  0.56330000  0.27950000  1.0 -0.4200795025
O  O150  1  0.85220000  0.43670000  0.72050000  1.0 -0.4200795025
O  O151  1  0.29870000  0.62650000  0.31800000  1.0 -0.4200795025
O  O152  1  0.70130000  0.37350000  0.68200000  1.0 -0.4200795025
O  O153  1  0.08810000  0.39280000  0.37770000  1.0 -0.4502116478
O  O154  1  0.91190000  0.60720000  0.62230000  1.0 -0.4502116478
O  O155  1  0.23060000  0.45020000  0.42190000  1.0 -0.4355216099
O  O156  1  0.76940000  0.54980000  0.57810000  1.0 -0.4355216099
O  O157  1  0.07060000  0.43730000  0.27270000  1.0 -0.4502116478
O  O158  1  0.92940000  0.56270000  0.72730000  1.0 -0.4502116478
O  O159  1  0.21400000  0.49450000  0.31700000  1.0 -0.3400404154
O  O160  1  0.78600000  0.50550000  0.68300000  1.0 -0.3400404154
O  O161  1  0.13570000  0.35870000  0.30640000  1.0 -0.3400404154
O  O162  1  0.86430000  0.64130000  0.69360000  1.0 -0.3400404154
O  O163  1  0.43460000  0.42690000  0.43620000  1.0 -0.2660225703
O  O164  1  0.56540000  0.57310000  0.56380000  1.0 -0.263244964
O  O165  1  0.96580000  0.00950000  0.95880000  1.0 0.0031053035
O  O166  1  0.03420000  0.99050000  0.04120000  1.0 0.0031053035
O  O167  1  0.94220000  0.96520000  0.92210000  1.0 0.0702182727
O  O168  1  0.05780000  0.03480000  0.07790000  1.0 0.0702182727
O  O169  1  0.93430000  0.57990000  0.96820000  1.0 -0.5481519057
O  O170  1  0.00860000  0.65590000  0.06590000  1.0 -0.5481519057
O  O171  1  0.92100000  0.67040000  0.96980000  1.0 -0.5592442995
O  O172  1  0.06570000  0.42010000  0.03180000  1.0 -0.5481519057
O  O173  1  0.99140000  0.34410000  0.93410000  1.0 -0.5481519057
O  O174  1  0.07900000  0.32960000  0.03020000  1.0 -0.5592442995
F  F1  1  0.87940000  0.54330000  0.05880000  1.0 -0.1686111343
F  F2  1  0.80570000  0.55670000  0.97740000  1.0 -0.1879523172
F  F3  1  0.87400000  0.62330000  0.06350000  1.0 -0.1793973039
F  F4  1  0.12060000  0.45670000  0.94120000  1.0 -0.1686111343
F  F5  1  0.19430000  0.44330000  0.02260000  1.0 -0.1879523172
F  F6  1  0.12600000  0.37670000  0.93650000  1.0 -0.1793973039
