# DDEC6 charges by PACMAN v1.1 (https://github.com/mtap-research/PACMAN-charge/)
data_BIYYEP_ion_pacman
_symmetry_space_group_name_H-M   'P 1'
_cell_length_a   23.90610000
_cell_length_b   24.03930000
_cell_length_c   24.54960000
_cell_angle_alpha   86.05300000
_cell_angle_beta   118.39800000
_cell_angle_gamma   118.50200000
_symmetry_Int_Tables_number   1
_chemical_formula_structural   Er6Mo54H192C242S2N48O149F6
_chemical_formula_sum   'Er6 Mo54 H192 C242 S2 N48 O149 F6'
_cell_volume   10675.86434232
_cell_formula_units_Z   1
loop_
 _symmetry_equiv_pos_site_id
 _symmetry_equiv_pos_as_xyz
  1  'x, y, z'
loop_
 _atom_site_type_symbol
 _atom_site_label
 _atom_site_symmetry_multiplicity
 _atom_site_fract_x
 _atom_site_fract_y
 _atom_site_fract_z
 _atom_site_occupancy
 _atom_site_charge
Er  Er1  1  0.63386000  0.20400000  0.84644000  1.0 1.908501501
Er  Er2  1  0.36614000  0.79600000  0.15356000  1.0 1.908501501
Er  Er3  1  0.13946000  0.35529000  0.70407000  1.0 1.8799603533
Er  Er4  1  0.86054000  0.64471000  0.29593000  1.0 1.8799603533
Er  Er5  1  0.76067000  0.77570000  0.74256000  1.0 1.908501501
Er  Er6  1  0.23933000  0.22430000  0.25744000  1.0 1.908501501
Mo  Mo1  1  0.74230000  0.98280000  0.11140000  1.0 2.165140922
Mo  Mo2  1  0.25770000  0.01720000  0.88860000  1.0 2.165140922
Mo  Mo3  1  0.73613000  0.84388000  0.12578000  1.0 2.109106953
Mo  Mo4  1  0.26387000  0.15612000  0.87422000  1.0 2.109106953
Mo  Mo5  1  0.67296000  0.81135000  0.97328000  1.0 2.1327705931
Mo  Mo6  1  0.32704000  0.18865000  0.02672000  1.0 2.1327705931
Mo  Mo7  1  0.58794000  0.84843000  0.02403000  1.0 2.1502677154
Mo  Mo8  1  0.41206000  0.15157000  0.97597000  1.0 2.1502677154
Mo  Mo9  1  0.82745000  0.94507000  0.06261000  1.0 2.1502677154
Mo  Mo10  1  0.17255000  0.05493000  0.93739000  1.0 2.1502677154
Mo  Mo11  1  0.67866000  0.94966000  0.96022000  1.0 2.109106953
Mo  Mo12  1  0.32134000  0.05034000  0.03978000  1.0 2.109106953
Mo  Mo13  1  0.96870000  0.08060000  0.48670000  1.0 2.1367714952
Mo  Mo14  1  0.03130000  0.91940000  0.51330000  1.0 2.1367714952
Mo  Mo15  1  0.10710000  0.06340000  0.59420000  1.0 2.1154301714
Mo  Mo16  1  0.89290000  0.93660000  0.40580000  1.0 2.1154301714
Mo  Mo17  1  0.05740000  0.04240000  0.44360000  1.0 2.1013448786
Mo  Mo18  1  0.94260000  0.95760000  0.55640000  1.0 2.1013448786
Mo  Mo19  1  0.19710000  0.61140000  0.43350000  1.0 0.6721416663
Mo  Mo20  1  0.80290000  0.38860000  0.56650000  1.0 0.679871594
Mo  Mo21  1  0.09210000  0.45600000  0.42040000  1.0 0.4257412504
Mo  Mo22  1  0.90790000  0.54400000  0.57960000  1.0 0.4239598523
Mo  Mo23  1  0.26690000  0.51680000  0.47190000  1.0 0.4239598523
Mo  Mo24  1  0.73310000  0.48320000  0.52810000  1.0 0.4239598523
Mo  Mo25  1  0.07280000  0.51600000  0.29350000  1.0 0.4239598523
Mo  Mo26  1  0.92720000  0.48400000  0.70650000  1.0 0.4239598523
Mo  Mo27  1  0.24840000  0.57900000  0.34340000  1.0 0.7747944545
Mo  Mo28  1  0.75160000  0.42100000  0.65660000  1.0 0.7837346147
Mo  Mo29  1  0.14350000  0.42230000  0.33150000  1.0 0.3896177958
Mo  Mo30  1  0.85650000  0.57770000  0.66850000  1.0 0.3896177958
Mo  Mo31  1  0.24330000  0.64340000  0.44340000  1.0 0.718981738
Mo  Mo32  1  0.75670000  0.35660000  0.55660000  1.0 0.718981738
Mo  Mo33  1  0.15650000  0.49780000  0.46560000  1.0 0.2981452893
Mo  Mo34  1  0.84350000  0.50220000  0.53440000  1.0 0.2981452893
Mo  Mo35  1  0.31750000  0.55240000  0.47660000  1.0 0.679871594
Mo  Mo36  1  0.68250000  0.44760000  0.52340000  1.0 0.679871594
Mo  Mo37  1  0.09140000  0.53050000  0.32380000  1.0 0.2116400402
Mo  Mo38  1  0.90860000  0.46950000  0.67620000  1.0 0.2116400402
Mo  Mo39  1  0.25200000  0.58000000  0.33180000  1.0 0.6928802084
Mo  Mo40  1  0.74800000  0.42000000  0.66820000  1.0 0.6928802084
Mo  Mo41  1  0.16800000  0.43670000  0.35820000  1.0 0.1891414623
Mo  Mo42  1  0.83200000  0.56330000  0.64180000  1.0 0.1891414623
Mo  Mo43  1  0.17300000  0.49410000  0.43300000  1.0 0.0991071389
Mo  Mo44  1  0.82700000  0.50590000  0.56700000  1.0 0.0991071389
Mo  Mo45  1  0.99500000  0.38880000  0.33800000  1.0 0.6082701336
Mo  Mo46  1  0.00500000  0.61120000  0.66200000  1.0 0.6082701336
Mo  Mo47  1  0.06680000  0.53430000  0.30960000  1.0 0.3170371718
Mo  Mo48  1  0.93320000  0.46570000  0.69040000  1.0 0.3134650738
Mo  Mo49  1  0.13610000  0.37720000  0.33240000  1.0 0.3658026408
Mo  Mo50  1  0.86390000  0.62280000  0.66760000  1.0 0.3616541079
Mo  Mo51  1  0.19440000  0.52250000  0.30660000  1.0 0.0613151237
Mo  Mo52  1  0.80560000  0.47750000  0.69340000  1.0 0.0613151237
Mo  Mo53  1  0.98100000  0.36600000  0.15500000  1.0 0.5402044307
Mo  Mo54  1  0.01900000  0.63400000  0.84500000  1.0 0.5402044307
H  H1  1  0.81930000  0.35340000  0.85650000  1.0 0.1110794342
H  H2  1  0.18070000  0.64660000  0.14350000  1.0 0.1110794342
H  H3  1  0.65820000  0.22160000  0.69470000  1.0 0.1292104041
H  H4  1  0.34180000  0.77840000  0.30530000  1.0 0.1292104041
H  H5  1  0.51120000  0.01620000  0.73720000  1.0 0.1292104041
H  H6  1  0.48880000  0.98380000  0.26280000  1.0 0.1292104041
H  H7  1  0.72230000  0.14910000  0.78360000  1.0 0.1214151154
H  H8  1  0.27770000  0.85090000  0.21640000  1.0 0.1214151154
H  H9  1  0.73100000  0.10750000  0.91110000  1.0 0.1292104041
H  H10  1  0.26900000  0.89250000  0.08890000  1.0 0.1292104041
H  H11  1  0.86990000  0.29860000  0.95790000  1.0 0.1292104041
H  H12  1  0.13010000  0.70140000  0.04210000  1.0 0.1292104041
H  H13  1  0.81560000  0.32340000  0.01350000  1.0 0.1110794342
H  H14  1  0.18440000  0.67660000  0.98650000  1.0 0.1110794342
H  H15  1  0.62310000  0.22390000  0.99730000  1.0 0.1292104041
H  H16  1  0.37690000  0.77610000  0.00270000  1.0 0.1292104041
H  H17  1  0.78840000  0.40210000  0.92290000  1.0 0.1292104041
H  H18  1  0.21160000  0.59790000  0.07710000  1.0 0.1292104041
H  H19  1  0.57340000  0.33240000  0.79700000  1.0 0.1214151154
H  H20  1  0.42660000  0.66760000  0.20300000  1.0 0.1214151154
H  H21  1  0.56710000  0.28410000  0.92230000  1.0 0.1214151154
H  H22  1  0.43290000  0.71590000  0.07770000  1.0 0.1214151154
H  H23  1  0.41510000  0.12950000  0.78210000  1.0 0.1292104041
H  H24  1  0.58490000  0.87050000  0.21790000  1.0 0.1292104041
H  H25  1  0.66890000  0.09580000  0.97750000  1.0 0.1292104041
H  H26  1  0.33110000  0.90420000  0.02250000  1.0 0.1292104041
H  H27  1  0.47520000  0.03760000  0.83350000  1.0 0.1214151154
H  H28  1  0.52480000  0.96240000  0.16650000  1.0 0.1214151154
H  H29  1  0.91130000  0.36020000  0.82910000  1.0 0.1292104041
H  H30  1  0.08870000  0.63980000  0.17090000  1.0 0.1292104041
H  H31  1  0.73930000  0.22520000  0.66940000  1.0 0.1214151154
H  H32  1  0.26070000  0.77480000  0.33060000  1.0 0.1214151154
H  H33  1  0.53300000  0.93160000  0.75080000  1.0 0.1292104041
H  H34  1  0.46700000  0.06840000  0.24920000  1.0 0.1292104041
H  H35  1  0.74090000  0.06110000  0.78380000  1.0 0.1387425169
H  H36  1  0.25910000  0.93890000  0.21620000  1.0 0.1387425169
H  H37  1  0.81530000  0.08970000  0.99350000  1.0 0.1509676394
H  H38  1  0.18470000  0.91030000  0.00650000  1.0 0.1509676394
H  H39  1  0.95720000  0.28760000  0.04680000  1.0 0.1214151154
H  H40  1  0.04280000  0.71240000  0.95320000  1.0 0.1214151154
H  H41  1  0.84940000  0.40430000  0.08070000  1.0 0.1387425169
H  H42  1  0.15060000  0.59570000  0.91930000  1.0 0.1387425169
H  H43  1  0.64620000  0.31110000  0.05670000  1.0 0.1387425169
H  H44  1  0.35380000  0.68890000  0.94330000  1.0 0.1387425169
H  H45  1  0.82140000  0.49040000  0.87940000  1.0 0.1387425169
H  H46  1  0.17860000  0.50960000  0.12060000  1.0 0.1387425169
H  H47  1  0.60140000  0.41890000  0.75600000  1.0 0.1387425169
H  H48  1  0.39860000  0.58110000  0.24400000  1.0 0.1387425169
H  H49  1  0.49940000  0.32660000  0.88370000  1.0 0.1214151154
H  H50  1  0.50060000  0.67340000  0.11630000  1.0 0.1214151154
H  H51  1  0.33610000  0.16960000  0.74630000  1.0 0.1387425169
H  H52  1  0.66390000  0.83040000  0.25370000  1.0 0.1387425169
H  H53  1  0.62650000  0.05630000  0.05060000  1.0 0.1292104041
H  H54  1  0.37350000  0.94370000  0.94940000  1.0 0.1292104041
H  H55  1  0.41970000  0.00060000  0.90180000  1.0 0.1387425169
H  H56  1  0.58030000  0.99940000  0.09820000  1.0 0.1387425169
H  H57  1  0.82620000  0.25710000  0.64620000  1.0 0.1292104041
H  H58  1  0.17380000  0.74290000  0.35380000  1.0 0.1292104041
H  H59  1  0.97610000  0.33030000  0.83090000  1.0 0.1214151154
H  H60  1  0.02390000  0.66970000  0.16910000  1.0 0.1214151154
H  H61  1  0.76680000  0.99410000  0.85080000  1.0 0.1387425169
H  H62  1  0.23320000  0.00590000  0.14920000  1.0 0.1387425169
H  H63  1  0.56210000  0.86270000  0.73250000  1.0 0.1292104041
H  H64  1  0.43790000  0.13730000  0.26750000  1.0 0.1292104041
H  H65  1  0.93050000  0.09990000  0.04660000  1.0 0.1292104041
H  H66  1  0.06950000  0.90010000  0.95340000  1.0 0.1292104041
H  H67  1  0.98230000  0.25610000  0.15510000  1.0 0.0991071389
H  H68  1  0.01770000  0.74390000  0.84490000  1.0 0.0991071389
H  H69  1  0.87170000  0.45280000  0.18410000  1.0 0.1609862547
H  H70  1  0.12830000  0.54720000  0.81590000  1.0 0.1609862547
H  H71  1  0.67520000  0.42330000  0.06150000  1.0 0.1292104041
H  H72  1  0.32480000  0.57670000  0.93850000  1.0 0.1292104041
H  H73  1  0.64190000  0.49090000  0.69910000  1.0 0.1214151154
H  H74  1  0.35810000  0.50910000  0.30090000  1.0 0.1214151154
H  H75  1  0.83360000  0.58490000  0.87020000  1.0 0.1214151154
H  H76  1  0.16640000  0.41510000  0.12980000  1.0 0.1214151154
H  H77  1  0.29000000  0.22860000  0.69250000  1.0 0.1387425169
H  H78  1  0.71000000  0.77140000  0.30750000  1.0 0.1387425169
H  H79  1  0.42270000  0.36180000  0.86060000  1.0 0.1292104041
H  H80  1  0.57730000  0.63820000  0.13940000  1.0 0.1292104041
H  H81  1  0.91370000  0.25360000  0.62960000  1.0 0.1214151154
H  H82  1  0.08630000  0.74640000  0.37040000  1.0 0.1214151154
H  H83  1  0.06310000  0.31770000  0.81490000  1.0 0.1214151154
H  H84  1  0.93690000  0.68230000  0.18510000  1.0 0.1214151154
H  H85  1  0.80760000  0.92020000  0.86590000  1.0 0.1214151154
H  H86  1  0.19240000  0.07980000  0.13410000  1.0 0.1214151154
H  H87  1  0.60250000  0.78850000  0.74320000  1.0 0.1214151154
H  H88  1  0.39750000  0.21150000  0.25680000  1.0 0.1214151154
H  H89  1  0.02760000  0.09390000  0.13220000  1.0 0.1214151154
H  H90  1  0.97240000  0.90610000  0.86780000  1.0 0.1214151154
H  H91  1  0.07620000  0.24470000  0.23790000  1.0 0.1214151154
H  H92  1  0.92380000  0.75530000  0.76210000  1.0 0.1214151154
H  H93  1  0.90760000  0.54780000  0.23000000  1.0 0.1387425169
H  H94  1  0.09240000  0.45220000  0.77000000  1.0 0.1387425169
H  H95  1  0.70900000  0.52480000  0.10200000  1.0 0.1110794342
H  H96  1  0.29100000  0.47520000  0.89800000  1.0 0.1110794342
H  H97  1  0.67030000  0.58800000  0.66580000  1.0 0.1214151154
H  H98  1  0.32970000  0.41200000  0.33420000  1.0 0.1214151154
H  H99  1  0.86380000  0.67930000  0.82240000  1.0 0.1110794342
H  H100  1  0.13620000  0.32070000  0.17760000  1.0 0.1110794342
H  H101  1  0.22520000  0.28600000  0.65790000  1.0 0.1292104041
H  H102  1  0.77480000  0.71400000  0.34210000  1.0 0.1292104041
H  H103  1  0.35260000  0.41260000  0.81250000  1.0 0.1110794342
H  H104  1  0.64740000  0.58740000  0.18750000  1.0 0.1110794342
H  H105  1  0.14590000  0.18920000  0.71670000  1.0 0.1292104041
H  H106  1  0.85410000  0.81080000  0.28330000  1.0 0.1292104041
H  H107  1  0.96300000  0.19360000  0.58700000  1.0 0.1387425169
H  H108  1  0.03700000  0.80640000  0.41300000  1.0 0.1387425169
H  H109  1  0.22500000  0.51220000  0.62920000  1.0 0.1509676394
H  H110  1  0.77500000  0.48780000  0.37080000  1.0 0.1509676394
H  H111  1  0.33080000  0.51510000  0.81750000  1.0 0.1110794342
H  H112  1  0.66920000  0.48490000  0.18250000  1.0 0.1110794342
H  H113  1  0.02690000  0.27560000  0.50600000  1.0 0.1292104041
H  H114  1  0.97310000  0.72440000  0.49400000  1.0 0.1292104041
H  H115  1  0.23780000  0.41830000  0.61200000  1.0 0.1110794342
H  H116  1  0.76220000  0.58170000  0.38800000  1.0 0.1110794342
H  H117  1  0.10960000  0.50430000  0.67950000  1.0 0.1110794342
H  H118  1  0.89040000  0.49570000  0.32050000  1.0 0.1110794342
H  H119  1  0.95700000  0.33510000  0.55950000  1.0 0.1214151154
H  H120  1  0.04300000  0.66490000  0.44050000  1.0 0.1214151154
H  H121  1  0.76580000  0.89730000  0.63130000  1.0 0.1214151154
H  H122  1  0.23420000  0.10270000  0.36870000  1.0 0.1214151154
H  H123  1  0.91830000  0.96780000  0.81560000  1.0 0.1214151154
H  H124  1  0.08170000  0.03220000  0.18440000  1.0 0.1214151154
H  H125  1  0.64330000  0.85500000  0.63780000  1.0 0.1110794342
H  H126  1  0.35670000  0.14500000  0.36220000  1.0 0.1110794342
H  H127  1  0.56780000  0.67200000  0.57680000  1.0 0.1214151154
H  H128  1  0.43220000  0.32800000  0.42320000  1.0 0.1214151154
H  H129  1  0.77490000  0.66760000  0.87330000  1.0 0.1292104041
H  H130  1  0.22510000  0.33240000  0.12670000  1.0 0.1292104041
H  H131  1  0.90240000  0.85770000  0.93720000  1.0 0.1214151154
H  H132  1  0.09760000  0.14230000  0.06280000  1.0 0.1214151154
H  H133  1  0.09030000  0.21060000  0.78610000  1.0 0.1110794342
H  H134  1  0.90970000  0.78940000  0.21390000  1.0 0.1110794342
H  H135  1  0.29040000  0.35400000  0.88500000  1.0 0.1214151154
H  H136  1  0.70960000  0.64600000  0.11500000  1.0 0.1214151154
H  H137  1  0.07460000  0.09170000  0.73150000  1.0 0.1509676394
H  H138  1  0.92540000  0.90830000  0.26850000  1.0 0.1509676394
H  H139  1  0.89300000  0.09440000  0.60740000  1.0 0.1214151154
H  H140  1  0.10700000  0.90560000  0.39260000  1.0 0.1214151154
H  H141  1  0.33960000  0.57070000  0.63410000  1.0 0.1509676394
H  H142  1  0.66040000  0.42930000  0.36590000  1.0 0.1509676394
H  H143  1  0.44280000  0.56480000  0.82110000  1.0 0.1292104041
H  H144  1  0.55720000  0.43520000  0.17890000  1.0 0.1292104041
H  H145  1  0.06010000  0.23430000  0.44990000  1.0 0.1110794342
H  H146  1  0.93990000  0.76570000  0.55010000  1.0 0.1110794342
H  H147  1  0.26720000  0.38160000  0.54660000  1.0 0.1110794342
H  H148  1  0.73280000  0.61840000  0.45340000  1.0 0.1110794342
H  H149  1  0.08770000  0.55790000  0.59540000  1.0 0.1110794342
H  H150  1  0.91230000  0.44210000  0.40460000  1.0 0.1110794342
H  H151  1  0.93210000  0.38760000  0.47520000  1.0 0.1110794342
H  H152  1  0.06790000  0.61240000  0.52480000  1.0 0.1110794342
H  H153  1  0.84430000  0.99170000  0.60840000  1.0 0.1292104041
H  H154  1  0.15570000  0.00830000  0.39160000  1.0 0.1292104041
H  H155  1  0.00220000  0.05410000  0.78830000  1.0 0.1387425169
H  H156  1  0.99780000  0.94590000  0.21170000  1.0 0.1387425169
H  H157  1  0.60540000  0.87250000  0.53410000  1.0 0.1387425169
H  H158  1  0.39460000  0.12750000  0.46590000  1.0 0.1387425169
H  H159  1  0.53470000  0.68910000  0.47770000  1.0 0.1387425169
H  H160  1  0.46530000  0.31090000  0.52230000  1.0 0.1509676394
H  H161  1  0.73890000  0.65690000  0.94790000  1.0 0.1214151154
H  H162  1  0.26110000  0.34310000  0.05210000  1.0 0.1214151154
H  H163  1  0.88100000  0.84530000  0.02270000  1.0 0.1387425169
H  H164  1  0.11900000  0.15470000  0.97730000  1.0 0.1387425169
H  H165  1  0.08230000  0.19650000  0.88180000  1.0 0.1292104041
H  H166  1  0.91770000  0.80350000  0.11820000  1.0 0.1292104041
H  H167  1  0.29260000  0.34360000  0.97980000  1.0 0.1214151154
H  H168  1  0.70740000  0.65640000  0.02020000  1.0 0.1214151154
H  H169  1  0.44200000  0.55720000  0.65030000  1.0 0.1387425169
H  H170  1  0.55800000  0.44280000  0.34970000  1.0 0.1387425169
H  H171  1  0.53590000  0.65990000  0.82050000  1.0 0.1292104041
H  H172  1  0.46410000  0.34010000  0.17950000  1.0 0.1292104041
H  H173  1  0.28330000  0.37070000  0.47090000  1.0 0.1292104041
H  H174  1  0.71670000  0.62930000  0.52910000  1.0 0.1292104041
H  H175  1  0.10010000  0.19620000  0.41680000  1.0 0.1292104041
H  H176  1  0.89990000  0.80380000  0.58320000  1.0 0.1292104041
H  H177  1  0.43880000  0.69490000  0.39030000  1.0 0.1387425169
H  H178  1  0.56120000  0.30510000  0.60970000  1.0 0.1387425169
H  H179  1  0.59450000  0.88270000  0.43230000  1.0 0.1387425169
H  H180  1  0.40550000  0.11730000  0.56770000  1.0 0.1387425169
H  H181  1  0.55850000  0.61210000  0.65530000  1.0 0.1292104041
H  H182  1  0.44150000  0.38790000  0.34470000  1.0 0.1292104041
H  H183  1  0.65300000  0.70740000  0.83110000  1.0 0.1292104041
H  H184  1  0.34700000  0.29260000  0.16890000  1.0 0.1292104041
H  H185  1  0.31450000  0.32700000  0.41900000  1.0 0.1110794342
H  H186  1  0.68550000  0.67300000  0.58100000  1.0 0.1110794342
H  H187  1  0.13530000  0.16060000  0.35860000  1.0 0.1292104041
H  H188  1  0.86470000  0.83940000  0.64140000  1.0 0.1292104041
H  H189  1  0.40380000  0.70050000  0.28170000  1.0 0.1214151154
H  H190  1  0.59620000  0.29950000  0.71830000  1.0 0.1214151154
H  H191  1  0.54730000  0.88310000  0.33260000  1.0 0.1214151154
H  H192  1  0.45270000  0.11690000  0.66740000  1.0 0.1214151154
C  C1  1  0.80480000  0.32760000  0.81950000  1.0 0.044892824
C  C2  1  0.19520000  0.67240000  0.18050000  1.0 0.044892824
C  C3  1  0.70980000  0.24850000  0.72220000  1.0 -0.0566291063
C  C4  1  0.29020000  0.75150000  0.27780000  1.0 -0.0566291063
C  C5  1  0.55890000  0.02430000  0.74930000  1.0 -0.0493037597
C  C6  1  0.44110000  0.97570000  0.25070000  1.0 -0.0493037597
C  C7  1  0.68450000  0.10560000  0.77510000  1.0 -0.0039402843
C  C8  1  0.31550000  0.89440000  0.22490000  1.0 -0.0039402843
C  C9  1  0.77780000  0.14350000  0.93960000  1.0 -0.0723139916
C  C10  1  0.22220000  0.85650000  0.06040000  1.0 -0.0723139916
C  C11  1  0.85890000  0.25680000  0.96720000  1.0 -0.041040589
C  C12  1  0.14110000  0.74320000  0.03280000  1.0 -0.041040589
C  C13  1  0.78100000  0.31900000  0.02490000  1.0 -0.0959673051
C  C14  1  0.21900000  0.68100000  0.97510000  1.0 -0.0959673051
C  C15  1  0.67000000  0.26220000  0.01370000  1.0 -0.041040589
C  C16  1  0.33000000  0.73780000  0.98630000  1.0 -0.041040589
C  C17  1  0.75100000  0.40660000  0.88750000  1.0 -0.0493037597
C  C18  1  0.24900000  0.59340000  0.11250000  1.0 -0.0493037597
C  C19  1  0.62360000  0.36500000  0.81380000  1.0 -0.041040589
C  C20  1  0.37640000  0.63500000  0.18620000  1.0 -0.041040589
C  C21  1  0.52130000  0.26190000  0.88380000  1.0 -0.0493037597
C  C22  1  0.47870000  0.73810000  0.11620000  1.0 -0.0493037597
C  C23  1  0.43210000  0.17090000  0.80290000  1.0 -0.0194971802
C  C24  1  0.56790000  0.82910000  0.19710000  1.0 -0.0194971802
C  C25  1  0.61780000  0.07620000  0.96320000  1.0 0.0104937347
C  C26  1  0.38220000  0.92380000  0.03680000  1.0 0.0104937347
C  C27  1  0.50480000  0.04340000  0.87790000  1.0 -0.0100087441
C  C28  1  0.49520000  0.95660000  0.12210000  1.0 -0.0100087441
C  C29  1  0.86010000  0.33050000  0.80260000  1.0 -0.1501726542
C  C30  1  0.13990000  0.66950000  0.19740000  1.0 -0.1501726542
C  C31  1  0.75710000  0.25060000  0.70800000  1.0 -0.1501726542
C  C32  1  0.24290000  0.74940000  0.29200000  1.0 -0.1501726542
C  C33  1  0.57050000  0.97430000  0.75620000  1.0 -0.1718048179
C  C34  1  0.42950000  0.02570000  0.24380000  1.0 -0.1718048179
C  C35  1  0.69540000  0.05330000  0.77780000  1.0 -0.2115388859
C  C36  1  0.30460000  0.94670000  0.22220000  1.0 -0.2115388859
C  C37  1  0.82510000  0.13240000  0.98840000  1.0 -0.1501726542
C  C38  1  0.17490000  0.86760000  0.01160000  1.0 -0.1501726542
C  C39  1  0.91060000  0.25050000  0.02040000  1.0 -0.16082211
C  C40  1  0.08940000  0.74950000  0.97960000  1.0 -0.16082211
C  C41  1  0.80040000  0.36860000  0.06220000  1.0 -0.1718048179
C  C42  1  0.19960000  0.63140000  0.93780000  1.0 -0.1718048179
C  C43  1  0.68330000  0.31410000  0.04980000  1.0 -0.2010627115
C  C44  1  0.31670000  0.68590000  0.95020000  1.0 -0.2010627115
C  C45  1  0.77090000  0.45930000  0.86360000  1.0 -0.1501726542
C  C46  1  0.22910000  0.54070000  0.13640000  1.0 -0.1501726542
C  C47  1  0.64100000  0.41650000  0.79070000  1.0 -0.16082211
C  C48  1  0.35900000  0.58350000  0.20930000  1.0 -0.16082211
C  C49  1  0.48120000  0.28530000  0.86170000  1.0 -0.16082211
C  C50  1  0.51880000  0.71470000  0.13830000  1.0 -0.16082211
C  C51  1  0.38530000  0.19550000  0.78000000  1.0 -0.1501726542
C  C52  1  0.61470000  0.80450000  0.22000000  1.0 -0.1501726542
C  C53  1  0.59340000  0.05040000  0.00690000  1.0 -0.16082211
C  C54  1  0.40660000  0.94960000  0.99310000  1.0 -0.16082211
C  C55  1  0.47070000  0.01600000  0.91880000  1.0 -0.1718048179
C  C56  1  0.52930000  0.98400000  0.08120000  1.0 -0.1718048179
C  C57  1  0.83710000  0.29150000  0.75070000  1.0 0.079790298
C  C58  1  0.16290000  0.70850000  0.24930000  1.0 0.079790298
C  C59  1  0.64190000  0.98890000  0.77220000  1.0 0.1214151154
C  C60  1  0.35810000  0.01110000  0.22780000  1.0 0.1292104041
C  C61  1  0.89630000  0.19160000  0.03620000  1.0 0.079790298
C  C62  1  0.10370000  0.80840000  0.96380000  1.0 0.079790298
C  C63  1  0.75210000  0.37040000  0.07540000  1.0 0.0887420964
C  C64  1  0.24790000  0.62960000  0.92460000  1.0 0.0887420964
C  C65  1  0.71140000  0.46880000  0.81110000  1.0 0.1110794342
C  C66  1  0.28860000  0.53120000  0.18890000  1.0 0.1110794342
C  C67  1  0.40820000  0.25590000  0.80490000  1.0 0.0887420964
C  C68  1  0.59180000  0.74410000  0.19510000  1.0 0.0887420964
C  C69  1  0.51090000  0.01290000  0.97820000  1.0 0.079790298
C  C70  1  0.48910000  0.98710000  0.02180000  1.0 0.079790298
C  C71  1  0.89290000  0.29370000  0.74100000  1.0 0.0887420964
C  C72  1  0.10710000  0.70630000  0.25900000  1.0 0.0887420964
C  C73  1  0.66560000  0.93840000  0.78290000  1.0 0.079790298
C  C74  1  0.33440000  0.06160000  0.21710000  1.0 0.079790298
C  C75  1  0.95080000  0.18420000  0.09100000  1.0 0.079790298
C  C76  1  0.04920000  0.81580000  0.90900000  1.0 0.079790298
C  C77  1  0.77380000  0.43050000  0.11260000  1.0 0.0887420964
C  C78  1  0.22620000  0.56950000  0.88740000  1.0 0.0887420964
C  C79  1  0.73870000  0.53010000  0.78820000  1.0 0.0718405893
C  C80  1  0.26130000  0.46990000  0.21180000  1.0 0.0718405893
C  C81  1  0.36560000  0.28890000  0.77960000  1.0 0.0991071389
C  C82  1  0.63440000  0.71110000  0.22040000  1.0 0.0991071389
C  C83  1  0.87430000  0.27060000  0.68090000  1.0 -0.1501726542
C  C84  1  0.12570000  0.72940000  0.31910000  1.0 -0.1501726542
C  C85  1  0.96210000  0.31260000  0.79000000  1.0 -0.16082211
C  C86  1  0.03790000  0.68740000  0.21000000  1.0 -0.16082211
C  C87  1  0.73290000  0.95160000  0.82560000  1.0 -0.1897659996
C  C88  1  0.26710000  0.04840000  0.17440000  1.0 -0.1897659996
C  C89  1  0.61300000  0.87610000  0.75610000  1.0 -0.1718048179
C  C90  1  0.38700000  0.12390000  0.24390000  1.0 -0.1718048179
C  C91  1  0.96150000  0.13110000  0.08500000  1.0 -0.1396669667
C  C92  1  0.03850000  0.86890000  0.91500000  1.0 -0.1501726542
C  C93  1  0.99140000  0.22350000  0.14870000  1.0 -0.1718048179
C  C94  1  0.00860000  0.77650000  0.85130000  1.0 -0.1718048179
C  C95  1  0.83860000  0.46870000  0.16570000  1.0 -0.16082211
C  C96  1  0.16140000  0.53130000  0.83430000  1.0 -0.16082211
C  C97  1  0.72460000  0.45120000  0.09380000  1.0 -0.2115388859
C  C98  1  0.27540000  0.54880000  0.90620000  1.0 -0.2115388859
C  C99  1  0.68650000  0.52960000  0.72560000  1.0 -0.1718048179
C  C100  1  0.31350000  0.47040000  0.27440000  1.0 -0.1718048179
C  C101  1  0.80180000  0.58420000  0.82770000  1.0 -0.1778151963
C  C102  1  0.19820000  0.41580000  0.17230000  1.0 -0.1778151963
C  C103  1  0.30520000  0.26570000  0.71930000  1.0 -0.16082211
C  C104  1  0.69480000  0.73430000  0.28070000  1.0 -0.16082211
C  C105  1  0.38330000  0.34540000  0.81800000  1.0 -0.2010627115
C  C106  1  0.61670000  0.65460000  0.18200000  1.0 -0.2010627115
C  C107  1  0.92570000  0.26710000  0.67110000  1.0 0.0299461379
C  C108  1  0.07430000  0.73290000  0.32890000  1.0 0.0299461379
C  C109  1  0.01510000  0.30640000  0.78130000  1.0 -0.0493037597
C  C110  1  0.98490000  0.69360000  0.21870000  1.0 -0.0493037597
C  C111  1  0.75790000  0.90810000  0.83640000  1.0 0.0184727635
C  C112  1  0.24210000  0.09190000  0.16360000  1.0 0.0184727635
C  C113  1  0.63740000  0.83220000  0.76500000  1.0 -0.0194971802
C  C114  1  0.36260000  0.16780000  0.23500000  1.0 -0.0194971802
C  C115  1  0.01770000  0.12680000  0.13640000  1.0 -0.0493037597
C  C116  1  0.98230000  0.87320000  0.86360000  1.0 -0.0493037597
C  C117  1  0.04660000  0.21540000  0.19840000  1.0 0.0044570544
C  C118  1  0.95340000  0.78460000  0.80160000  1.0 0.0044570544
C  C119  1  0.86010000  0.52350000  0.19370000  1.0 -0.0288454149
C  C120  1  0.13990000  0.47650000  0.80630000  1.0 -0.0288454149
C  C121  1  0.74310000  0.50990000  0.11910000  1.0 -0.0493037597
C  C122  1  0.25690000  0.49010000  0.88090000  1.0 -0.0493037597
C  C123  1  0.70390000  0.58660000  0.70650000  1.0 -0.0100087441
C  C124  1  0.29610000  0.41340000  0.29350000  1.0 -0.0100087441
C  C125  1  0.81710000  0.64100000  0.79990000  1.0 -0.0194971802
C  C126  1  0.18290000  0.35900000  0.20010000  1.0 -0.0288454149
C  C127  1  0.26670000  0.30080000  0.69940000  1.0 -0.0100087441
C  C128  1  0.73330000  0.69920000  0.30060000  1.0 -0.0100087441
C  C129  1  0.33990000  0.37430000  0.78950000  1.0 -0.041040589
C  C130  1  0.66010000  0.62570000  0.21050000  1.0 -0.041040589
C  C131  1  0.09390000  0.17090000  0.69580000  1.0 -0.0100087441
C  C132  1  0.90610000  0.82910000  0.30420000  1.0 -0.0100087441
C  C133  1  0.98550000  0.17420000  0.61870000  1.0 -0.0039402843
C  C134  1  0.01450000  0.82580000  0.38130000  1.0 -0.0039402843
C  C135  1  0.26970000  0.52320000  0.66750000  1.0 -0.0493037597
C  C136  1  0.73030000  0.47680000  0.33250000  1.0 -0.0493037597
C  C137  1  0.33280000  0.52380000  0.77990000  1.0 -0.0493037597
C  C138  1  0.66720000  0.47620000  0.22010000  1.0 -0.0493037597
C  C139  1  0.07700000  0.29670000  0.51660000  1.0 -0.0100087441
C  C140  1  0.92300000  0.70330000  0.48340000  1.0 -0.0100087441
C  C141  1  0.20060000  0.38170000  0.57840000  1.0 -0.0959673051
C  C142  1  0.79940000  0.61830000  0.42160000  1.0 -0.0959673051
C  C143  1  0.07400000  0.48120000  0.63710000  1.0 0.0104937347
C  C144  1  0.92600000  0.51880000  0.36290000  1.0 0.0104937347
C  C145  1  0.98310000  0.38090000  0.56570000  1.0 -0.0194971802
C  C146  1  0.01690000  0.61910000  0.43430000  1.0 -0.0194971802
C  C147  1  0.81190000  0.93090000  0.66360000  1.0 -0.0288454149
C  C148  1  0.18810000  0.06910000  0.33640000  1.0 -0.0288454149
C  C149  1  0.90340000  0.97190000  0.77280000  1.0 0.0104937347
C  C150  1  0.09660000  0.02810000  0.22720000  1.0 0.0104937347
C  C151  1  0.61940000  0.82050000  0.60370000  1.0 0.0104937347
C  C152  1  0.38060000  0.17950000  0.39630000  1.0 0.0104937347
C  C153  1  0.57520000  0.71310000  0.56750000  1.0 -0.041040589
C  C154  1  0.42480000  0.28690000  0.43250000  1.0 -0.041040589
C  C155  1  0.79100000  0.70450000  0.90080000  1.0 -0.0566291063
C  C156  1  0.20900000  0.29550000  0.09920000  1.0 -0.0566291063
C  C157  1  0.86820000  0.81650000  0.93890000  1.0 -0.0288454149
C  C158  1  0.13180000  0.18350000  0.06110000  1.0 -0.0288454149
C  C159  1  0.12970000  0.23940000  0.82540000  1.0 -0.0288454149
C  C160  1  0.87030000  0.76060000  0.17460000  1.0 -0.0288454149
C  C161  1  0.24670000  0.32260000  0.88460000  1.0 -0.0566291063
C  C162  1  0.75330000  0.67740000  0.11540000  1.0 -0.0566291063
C  C163  1  0.05120000  0.11410000  0.70570000  1.0 -0.1778151963
C  C164  1  0.94880000  0.88590000  0.29430000  1.0 -0.1778151963
C  C165  1  0.94520000  0.11600000  0.63230000  1.0 -0.1718048179
C  C166  1  0.05480000  0.88400000  0.36770000  1.0 -0.1718048179
C  C167  1  0.33680000  0.55770000  0.67060000  1.0 -0.1396669667
C  C168  1  0.66320000  0.44230000  0.32940000  1.0 -0.1396669667
C  C169  1  0.39930000  0.55560000  0.78240000  1.0 -0.1718048179
C  C170  1  0.60070000  0.44440000  0.21760000  1.0 -0.1718048179
C  C171  1  0.09630000  0.27340000  0.48070000  1.0 -0.1396669667
C  C172  1  0.90370000  0.72660000  0.51930000  1.0 -0.1396669667
C  C173  1  0.21800000  0.35900000  0.53860000  1.0 -0.1229341104
C  C174  1  0.78200000  0.64100000  0.46140000  1.0 -0.1229341104
C  C175  1  0.05870000  0.51210000  0.58630000  1.0 -0.16082211
C  C176  1  0.94130000  0.48790000  0.41370000  1.0 -0.16082211
C  C177  1  0.96870000  0.41260000  0.51680000  1.0 -0.0723139916
C  C178  1  0.03130000  0.58740000  0.48320000  1.0 -0.0723139916
C  C179  1  0.86140000  0.98600000  0.65080000  1.0 -0.1501726542
C  C180  1  0.13860000  0.01400000  0.34920000  1.0 -0.1501726542
C  C181  1  0.95340000  0.02430000  0.75610000  1.0 -0.1897659996
C  C182  1  0.04660000  0.97570000  0.24390000  1.0 -0.1897659996
C  C183  1  0.59390000  0.83000000  0.54130000  1.0 -0.2360395614
C  C184  1  0.40610000  0.17000000  0.45870000  1.0 -0.2360395614
C  C185  1  0.55230000  0.72350000  0.50900000  1.0 -0.1897659996
C  C186  1  0.44770000  0.27650000  0.49100000  1.0 -0.1897659996
C  C187  1  0.77730000  0.69700000  0.94930000  1.0 -0.1501726542
C  C188  1  0.22270000  0.30300000  0.05070000  1.0 -0.1501726542
C  C189  1  0.85890000  0.80780000  0.99260000  1.0 -0.1501726542
C  C190  1  0.14110000  0.19220000  0.00740000  1.0 -0.1501726542
C  C191  1  0.12770000  0.22840000  0.88500000  1.0 -0.16082211
C  C192  1  0.87230000  0.77160000  0.11500000  1.0 -0.16082211
C  C193  1  0.24990000  0.31470000  0.94180000  1.0 -0.1396669667
C  C194  1  0.75010000  0.68530000  0.05820000  1.0 -0.1396669667
C  C195  1  0.97750000  0.08650000  0.68170000  1.0 0.0887420964
C  C196  1  0.02250000  0.91350000  0.31830000  1.0 0.0887420964
C  C197  1  0.40440000  0.57410000  0.73150000  1.0 0.0991071389
C  C198  1  0.59560000  0.42590000  0.26850000  1.0 0.0991071389
C  C199  1  0.16540000  0.30550000  0.48910000  1.0 0.0515497278
C  C200  1  0.83460000  0.69450000  0.51090000  1.0 0.0515497278
C  C201  1  0.00650000  0.48280000  0.52530000  1.0 0.0718405893
C  C202  1  0.99350000  0.51720000  0.47470000  1.0 0.0718405893
C  C203  1  0.93060000  0.03030000  0.69510000  1.0 0.079790298
C  C204  1  0.06940000  0.96970000  0.30490000  1.0 0.079790298
C  C205  1  0.55040000  0.77720000  0.48750000  1.0 0.0991071389
C  C206  1  0.44960000  0.22280000  0.51250000  1.0 0.0991071389
C  C207  1  0.82080000  0.74980000  0.00350000  1.0 0.0718405893
C  C208  1  0.17920000  0.25020000  0.99650000  1.0 0.0718405893
C  C209  1  0.18570000  0.26050000  0.94290000  1.0 0.0887420964
C  C210  1  0.81430000  0.73950000  0.05710000  1.0 0.0887420964
C  C211  1  0.47910000  0.60870000  0.73400000  1.0 0.0887420964
C  C212  1  0.52090000  0.39130000  0.26600000  1.0 0.0887420964
C  C213  1  0.18100000  0.28230000  0.45130000  1.0 0.0613151237
C  C214  1  0.81900000  0.71770000  0.54870000  1.0 0.0613151237
C  C215  1  0.52880000  0.78530000  0.42500000  1.0 0.0991071389
C  C216  1  0.47120000  0.21470000  0.57500000  1.0 0.0991071389
C  C217  1  0.48460000  0.58960000  0.68610000  1.0 -0.16082211
C  C218  1  0.51540000  0.41040000  0.31390000  1.0 -0.16082211
C  C219  1  0.54020000  0.64920000  0.78670000  1.0 -0.1718048179
C  C220  1  0.45980000  0.35080000  0.21330000  1.0 -0.1718048179
C  C221  1  0.25260000  0.32650000  0.45020000  1.0 -0.125054722
C  C222  1  0.74740000  0.67350000  0.54980000  1.0 -0.1229341104
C  C223  1  0.14540000  0.22590000  0.41860000  1.0 -0.1501726542
C  C224  1  0.85460000  0.77410000  0.58140000  1.0 -0.16082211
C  C225  1  0.46660000  0.73280000  0.37920000  1.0 -0.16082211
C  C226  1  0.53340000  0.26720000  0.62080000  1.0 -0.16082211
C  C227  1  0.55610000  0.84310000  0.40280000  1.0 -0.2010627115
C  C228  1  0.44390000  0.15690000  0.59720000  1.0 -0.2010627115
C  C229  1  0.55430000  0.61890000  0.69050000  1.0 -0.0493037597
C  C230  1  0.44570000  0.38110000  0.30950000  1.0 -0.0493037597
C  C231  1  0.61050000  0.67650000  0.79420000  1.0 -0.0194971802
C  C232  1  0.38950000  0.32350000  0.20580000  1.0 -0.0194971802
C  C233  1  0.27000000  0.29960000  0.41860000  1.0 -0.041040589
C  C234  1  0.73000000  0.70040000  0.58140000  1.0 -0.041040589
C  C235  1  0.16710000  0.20290000  0.38420000  1.0 -0.0100087441
C  C236  1  0.83290000  0.79710000  0.61580000  1.0 -0.0100087441
C  C237  1  0.44470000  0.73670000  0.31490000  1.0 -0.0493037597
C  C238  1  0.55530000  0.26330000  0.68510000  1.0 -0.0493037597
C  C239  1  0.53000000  0.84240000  0.34450000  1.0 -0.0100087441
C  C240  1  0.47000000  0.15760000  0.65550000  1.0 -0.0100087441
C  C241  1  0.87220000  0.58620000  0.02930000  1.0 0.4960476707
C  C242  1  0.12780000  0.41380000  0.97070000  1.0 0.4960476707
S  S1  1  0.94480000  0.62750000  0.00930000  1.0 0.980117346
S  S2  1  0.05520000  0.37250000  0.99070000  1.0 0.980117346
N  N1  1  0.73790000  0.28750000  0.77970000  1.0 0.2625554156
N  N2  1  0.26210000  0.71250000  0.22030000  1.0 0.2625554156
N  N3  1  0.61480000  0.08880000  0.75910000  1.0 0.3170371718
N  N4  1  0.38520000  0.91120000  0.24090000  1.0 0.3170371718
N  N5  1  0.79240000  0.20490000  0.92760000  1.0 0.3512311926
N  N6  1  0.20760000  0.79510000  0.07240000  1.0 0.3512311926
N  N7  1  0.71710000  0.26210000  0.00060000  1.0 0.3321018766
N  N8  1  0.28290000  0.73790000  0.99940000  1.0 0.3321018766
N  N9  1  0.67850000  0.35780000  0.86310000  1.0 0.3170371718
N  N10  1  0.32150000  0.64220000  0.13690000  1.0 0.3170371718
N  N11  1  0.49980000  0.20250000  0.85240000  1.0 0.3321018766
N  N12  1  0.50020000  0.79750000  0.14760000  1.0 0.3321018766
N  N13  1  0.57440000  0.07440000  0.90540000  1.0 0.2625554156
N  N14  1  0.42560000  0.92560000  0.09460000  1.0 0.2625554156
N  N15  1  0.98840000  0.28200000  0.71800000  1.0 0.2824622344
N  N16  1  0.01160000  0.71800000  0.28200000  1.0 0.2824622344
N  N17  1  0.70800000  0.84920000  0.80310000  1.0 0.2981452893
N  N18  1  0.29200000  0.15080000  0.19690000  1.0 0.2981452893
N  N19  1  0.05990000  0.16960000  0.19370000  1.0 0.3170371718
N  N20  1  0.94010000  0.83040000  0.80630000  1.0 0.3170371718
N  N21  1  0.81110000  0.54640000  0.16880000  1.0 0.3170371718
N  N22  1  0.18890000  0.45360000  0.83120000  1.0 0.3170371718
N  N23  1  0.76630000  0.64060000  0.74280000  1.0 0.2701896753
N  N24  1  0.23370000  0.35940000  0.25720000  1.0 0.2701896753
N  N25  1  0.28410000  0.35060000  0.73350000  1.0 0.2824622344
N  N26  1  0.71590000  0.64940000  0.26650000  1.0 0.2824622344
N  N27  1  0.06110000  0.20090000  0.65550000  1.0 0.3134650738
N  N28  1  0.93890000  0.79910000  0.34450000  1.0 0.3134650738
N  N29  1  0.26960000  0.50470000  0.72360000  1.0 0.3405095886
N  N30  1  0.73040000  0.49530000  0.27640000  1.0 0.3405095886
N  N31  1  0.12890000  0.34930000  0.56650000  1.0 0.3512311926
N  N32  1  0.87110000  0.65070000  0.43350000  1.0 0.3512311926
N  N33  1  0.03610000  0.41850000  0.62230000  1.0 0.2348690729
N  N34  1  0.96390000  0.58150000  0.37770000  1.0 0.2352102201
N  N35  1  0.83770000  0.93120000  0.72710000  1.0 0.3170371718
N  N36  1  0.16230000  0.06880000  0.27290000  1.0 0.3170371718
N  N37  1  0.61040000  0.76630000  0.61380000  1.0 0.2701896753
N  N38  1  0.38960000  0.23370000  0.38620000  1.0 0.2701896753
N  N39  1  0.82910000  0.76680000  0.89110000  1.0 0.3616541079
N  N40  1  0.17090000  0.23320000  0.10890000  1.0 0.3616541079
N  N41  1  0.18680000  0.28940000  0.82910000  1.0 0.3170371718
N  N42  1  0.81320000  0.71060000  0.17090000  1.0 0.3170371718
N  N43  1  0.61610000  0.65770000  0.74750000  1.0 0.3512311926
N  N44  1  0.38390000  0.34230000  0.25250000  1.0 0.3512311926
N  N45  1  0.23240000  0.24130000  0.38820000  1.0 0.2893829893
N  N46  1  0.76760000  0.75870000  0.61180000  1.0 0.2893829893
N  N47  1  0.48470000  0.79490000  0.30180000  1.0 0.2824622344
N  N48  1  0.51530000  0.20510000  0.69820000  1.0 0.2824622344
O  O1  1  0.68600000  0.28130000  0.79580000  1.0 -0.6298811783
O  O2  1  0.31400000  0.71870000  0.20420000  1.0 -0.6298811783
O  O3  1  0.60240000  0.13950000  0.75780000  1.0 -0.6298811783
O  O4  1  0.39760000  0.86050000  0.24220000  1.0 -0.6298811783
O  O5  1  0.74560000  0.21070000  0.87440000  1.0 -0.5630797673
O  O6  1  0.25440000  0.78930000  0.12560000  1.0 -0.5630797673
O  O7  1  0.69670000  0.21670000  0.95830000  1.0 -0.5491254676
O  O8  1  0.30330000  0.78330000  0.04170000  1.0 -0.5491254676
O  O9  1  0.66110000  0.30410000  0.88710000  1.0 -0.6001949739
O  O10  1  0.33890000  0.69590000  0.11290000  1.0 -0.6001949739
O  O11  1  0.54360000  0.17960000  0.87350000  1.0 -0.5255917956
O  O12  1  0.45640000  0.82040000  0.12650000  1.0 -0.5255917956
O  O13  1  0.60210000  0.10070000  0.86760000  1.0 -0.6001949739
O  O14  1  0.39790000  0.89930000  0.13240000  1.0 -0.6001949739
O  O15  1  0.53630000  0.20780000  0.75980000  1.0 -0.6298811783
O  O16  1  0.46370000  0.79220000  0.24020000  1.0 -0.6298811783
O  O17  1  0.04010000  0.27560000  0.71160000  1.0 -0.689462905
O  O18  1  0.95990000  0.72440000  0.28840000  1.0 -0.689462905
O  O19  1  0.73030000  0.80520000  0.81000000  1.0 -0.6392450084
O  O20  1  0.26970000  0.19480000  0.19000000  1.0 -0.6392450084
O  O21  1  0.11680000  0.16690000  0.24170000  1.0 -0.5904002715
O  O22  1  0.88320000  0.83310000  0.75830000  1.0 -0.5904002715
O  O23  1  0.83140000  0.60320000  0.19590000  1.0 -0.5795750709
O  O24  1  0.16860000  0.39680000  0.80410000  1.0 -0.5795750709
O  O25  1  0.78220000  0.69440000  0.71940000  1.0 -0.5795750709
O  O26  1  0.21780000  0.30560000  0.28060000  1.0 -0.5795750709
O  O27  1  0.24790000  0.38190000  0.70890000  1.0 -0.6001949739
O  O28  1  0.75210000  0.61810000  0.29110000  1.0 -0.6001949739
O  O29  1  0.10050000  0.25800000  0.64300000  1.0 -0.6001949739
O  O30  1  0.89950000  0.74200000  0.35700000  1.0 -0.6001949739
O  O31  1  0.20250000  0.47000000  0.71870000  1.0 -0.6091052243
O  O32  1  0.79750000  0.53000000  0.28130000  1.0 -0.6091052243
O  O33  1  0.11550000  0.36870000  0.60150000  1.0 -0.4017342974
O  O34  1  0.88450000  0.63130000  0.39850000  1.0 -0.4017342974
O  O35  1  0.05050000  0.38680000  0.66900000  1.0 -0.5630797673
O  O36  1  0.94950000  0.61320000  0.33100000  1.0 -0.5630797673
O  O37  1  0.19130000  0.30230000  0.78040000  1.0 -0.4712991391
O  O38  1  0.80870000  0.69770000  0.21960000  1.0 -0.4712991391
O  O39  1  0.79070000  0.88250000  0.74250000  1.0 -0.6585273195
O  O40  1  0.20930000  0.11750000  0.25750000  1.0 -0.6585273195
O  O41  1  0.64290000  0.75920000  0.67600000  1.0 -0.6663228322
O  O42  1  0.35710000  0.24080000  0.32400000  1.0 -0.6663228322
O  O43  1  0.83800000  0.77070000  0.84380000  1.0 -0.5128139157
O  O44  1  0.16200000  0.22930000  0.15620000  1.0 -0.5128139157
O  O45  1  0.68040000  0.67570000  0.75430000  1.0 -0.5655731012
O  O46  1  0.31960000  0.32430000  0.24570000  1.0 -0.5630797673
O  O47  1  0.74370000  0.77870000  0.64190000  1.0 -0.6298811783
O  O48  1  0.25630000  0.22130000  0.35810000  1.0 -0.6298811783
O  O49  1  0.83300000  0.00230000  0.11640000  1.0 -0.7805798301
O  O50  1  0.16700000  0.99770000  0.88360000  1.0 -0.7805798301
O  O51  1  0.91730000  0.97800000  0.07870000  1.0 -0.6812736441
O  O52  1  0.08270000  0.02200000  0.92130000  1.0 -0.6812736441
O  O53  1  0.75420000  0.91990000  0.16230000  1.0 -0.7497174192
O  O54  1  0.24580000  0.08010000  0.83770000  1.0 -0.7497174192
O  O55  1  0.75180000  0.80550000  0.18370000  1.0 -0.5795750709
O  O56  1  0.24820000  0.19450000  0.81630000  1.0 -0.5795750709
O  O57  1  0.49850000  0.81350000  0.00600000  1.0 -0.6214732577
O  O58  1  0.50150000  0.18650000  0.99400000  1.0 -0.6214732577
O  O59  1  0.71610000  0.00970000  0.03390000  1.0 -0.801468556
O  O60  1  0.28390000  0.99030000  0.96610000  1.0 -0.801468556
O  O61  1  0.63230000  0.81580000  0.09270000  1.0 -0.7805798301
O  O62  1  0.36770000  0.18420000  0.90730000  1.0 -0.7805798301
O  O63  1  0.82730000  0.89200000  0.12710000  1.0 -0.8079256302
O  O64  1  0.17270000  0.10800000  0.87290000  1.0 -0.8079256302
O  O65  1  0.77220000  0.04790000  0.16510000  1.0 -0.6392450084
O  O66  1  0.22780000  0.95210000  0.83490000  1.0 -0.6392450084
O  O67  1  0.66300000  0.87540000  0.92110000  1.0 -0.8079256302
O  O68  1  0.33700000  0.12460000  0.07890000  1.0 -0.8079256302
O  O69  1  0.77730000  0.86400000  0.00570000  1.0 -0.8079256302
O  O70  1  0.22270000  0.13600000  0.99430000  1.0 -0.8079256302
O  O71  1  0.78620000  0.98310000  0.99370000  1.0 -0.8474649239
O  O72  1  0.21380000  0.01690000  0.00630000  1.0 -0.8474649239
O  O73  1  0.63860000  0.92890000  0.08260000  1.0 -0.8179425646
O  O74  1  0.36140000  0.07110000  0.91740000  1.0 -0.8179425646
O  O75  1  0.66190000  0.99220000  0.90250000  1.0 -0.6091052243
O  O76  1  0.33810000  0.00780000  0.09750000  1.0 -0.6091052243
O  O77  1  0.71030000  0.89760000  0.04590000  1.0 -1.2089031983
O  O78  1  0.28970000  0.10240000  0.95410000  1.0 -1.2089031983
O  O79  1  0.69710000  0.78150000  0.04970000  1.0 -0.8079256302
O  O80  1  0.30290000  0.21850000  0.95030000  1.0 -0.801468556
O  O81  1  0.58850000  0.90340000  0.95950000  1.0 -0.8079256302
O  O82  1  0.41150000  0.09660000  0.04050000  1.0 -0.801468556
O  O83  1  0.65050000  0.74980000  0.92490000  1.0 -0.6001949739
O  O84  1  0.34950000  0.25020000  0.07510000  1.0 -0.5904002715
O  O85  1  0.58160000  0.78960000  0.96960000  1.0 -0.8284170378
O  O86  1  0.41840000  0.21040000  0.03040000  1.0 -0.8284170378
O  O87  1  0.94500000  0.13760000  0.47750000  1.0 -0.6001949739
O  O88  1  0.05500000  0.86240000  0.52250000  1.0 -0.6001949739
O  O89  1  0.02310000  0.10110000  0.44410000  1.0 -0.8079256302
O  O90  1  0.97690000  0.89890000  0.55590000  1.0 -0.8179425646
O  O91  1  0.06020000  0.11540000  0.56540000  1.0 -0.8079256302
O  O92  1  0.93980000  0.88460000  0.43460000  1.0 -0.8079256302
O  O93  1  0.13460000  0.08810000  0.53030000  1.0 -0.7805798301
O  O94  1  0.86540000  0.91190000  0.46970000  1.0 -0.7805798301
O  O95  1  0.03200000  0.01000000  0.61470000  1.0 -0.6392450084
O  O96  1  0.96800000  0.99000000  0.38530000  1.0 -0.6392450084
O  O97  1  0.00000000  0.00000000  0.50000000  1.0 -1.148833697
O  O98  1  0.07630000  0.97190000  0.46630000  1.0 -0.8284170378
O  O99  1  0.92370000  0.02810000  0.53370000  1.0 -0.8284170378
O  O100  1  0.10270000  0.07640000  0.40310000  1.0 -0.6091052243
O  O101  1  0.89730000  0.92360000  0.59690000  1.0 -0.6091052243
O  O102  1  0.11220000  0.98650000  0.58480000  1.0 -0.8284170378
O  O103  1  0.88780000  0.01350000  0.41520000  1.0 -0.8284170378
O  O104  1  0.18280000  0.10840000  0.66230000  1.0 -0.5904002715
O  O105  1  0.81720000  0.89160000  0.33770000  1.0 -0.5904002715
O  O106  1  0.21680000  0.68040000  0.47050000  1.0 -0.4127282608
O  O107  1  0.78320000  0.31960000  0.52950000  1.0 -0.4127282608
O  O108  1  0.12850000  0.54450000  0.45410000  1.0 -0.4591446071
O  O109  1  0.87150000  0.45550000  0.54590000  1.0 -0.4712991391
O  O110  1  0.27110000  0.59380000  0.49600000  1.0 -0.536615615
O  O111  1  0.72890000  0.40620000  0.50400000  1.0 -0.536615615
O  O112  1  0.25580000  0.64320000  0.39280000  1.0 -0.5795750709
O  O113  1  0.74420000  0.35680000  0.60720000  1.0 -0.5795750709
O  O114  1  0.11320000  0.59310000  0.35180000  1.0 -0.4286605169
O  O115  1  0.88680000  0.40690000  0.64820000  1.0 -0.4286605169
O  O116  1  0.03520000  0.41290000  0.44870000  1.0 -0.4171649366
O  O117  1  0.96480000  0.58710000  0.55130000  1.0 -0.4127282608
O  O118  1  0.18580000  0.46820000  0.48600000  1.0 -0.3015084316
O  O119  1  0.81420000  0.53180000  0.51400000  1.0 -0.3015084316
O  O120  1  0.33860000  0.51720000  0.53660000  1.0 -0.4549597551
O  O121  1  0.66140000  0.48280000  0.46340000  1.0 -0.4591446071
O  O122  1  0.02770000  0.46770000  0.34120000  1.0 -0.4127282608
O  O123  1  0.97230000  0.53230000  0.65880000  1.0 -0.4127282608
O  O124  1  0.17100000  0.51750000  0.38250000  1.0 -0.4945375968
O  O125  1  0.82900000  0.48250000  0.61750000  1.0 -0.4945375968
O  O126  1  0.31170000  0.56570000  0.42330000  1.0 -0.5128139157
O  O127  1  0.68830000  0.43430000  0.57670000  1.0 -0.5128139157
O  O128  1  0.00180000  0.51670000  0.22890000  1.0 -0.4754718889
O  O129  1  0.99820000  0.48330000  0.77110000  1.0 -0.4712991391
O  O130  1  0.15430000  0.56560000  0.27930000  1.0 -0.4591446071
O  O131  1  0.84570000  0.43440000  0.72070000  1.0 -0.4591446071
O  O132  1  0.30480000  0.62090000  0.31540000  1.0 -0.4286605169
O  O133  1  0.69520000  0.37910000  0.68460000  1.0 -0.4286605169
O  O134  1  0.08520000  0.39120000  0.37230000  1.0 -0.4591446071
O  O135  1  0.91480000  0.60880000  0.62770000  1.0 -0.4591446071
O  O136  1  0.22750000  0.44040000  0.41380000  1.0 -0.4171649366
O  O137  1  0.77250000  0.55960000  0.58620000  1.0 -0.4171649366
O  O138  1  0.06920000  0.43980000  0.26900000  1.0 -0.6392450084
O  O139  1  0.93080000  0.56020000  0.73100000  1.0 -0.6392450084
O  O140  1  0.21160000  0.48940000  0.31050000  1.0 -0.3591595043
O  O141  1  0.78840000  0.51060000  0.68950000  1.0 -0.3591595043
O  O142  1  0.12420000  0.35350000  0.29480000  1.0 -0.3406006295
O  O143  1  0.87580000  0.64650000  0.70520000  1.0 -0.3406006295
O  O144  1  0.93750000  0.57860000  0.97120000  1.0 -0.5795750709
O  O145  1  0.01370000  0.65690000  0.06980000  1.0 -0.5795750709
O  O146  1  0.93100000  0.67560000  0.97480000  1.0 -0.5795750709
O  O147  1  0.06250000  0.42140000  0.02880000  1.0 -0.5795750709
O  O148  1  0.98630000  0.34310000  0.93020000  1.0 -0.5795750709
O  O149  1  0.06900000  0.32440000  0.02520000  1.0 -0.5795750709
F  F1  1  0.80670000  0.55590000  0.97750000  1.0 -0.1897659996
F  F2  1  0.87340000  0.62850000  0.06230000  1.0 -0.1897659996
F  F3  1  0.88240000  0.54360000  0.06400000  1.0 -0.1897659996
F  F4  1  0.19330000  0.44410000  0.02250000  1.0 -0.1897659996
F  F5  1  0.12660000  0.37150000  0.93770000  1.0 -0.1897659996
F  F6  1  0.11760000  0.45640000  0.93600000  1.0 -0.1897659996
