# DDEC6 charges by PACMAN v1.1 (https://github.com/mtap-research/PACMAN-charge/)
data_BIYYAL_ion_pacman
_symmetry_space_group_name_H-M   'P 1'
_cell_length_a   23.97240000
_cell_length_b   24.09280000
_cell_length_c   24.56930000
_cell_angle_alpha   86.14500000
_cell_angle_beta   118.40700000
_cell_angle_gamma   118.46700000
_symmetry_Int_Tables_number   1
_chemical_formula_structural   Ho3Mo30H96C121SN24O104F3
_chemical_formula_sum   'Ho6 Mo60 H192 C242 S2 N48 O208 F6'
_cell_volume   10736.46372907
_cell_formula_units_Z   2
loop_
 _symmetry_equiv_pos_site_id
 _symmetry_equiv_pos_as_xyz
  1  'x, y, z'
loop_
 _atom_site_type_symbol
 _atom_site_label
 _atom_site_symmetry_multiplicity
 _atom_site_fract_x
 _atom_site_fract_y
 _atom_site_fract_z
 _atom_site_occupancy
 _atom_site_charge
Ho  Ho1  1  0.63401000  0.20411000  0.84649000  1.0 1.9227216375
Ho  Ho2  1  0.36599000  0.79589000  0.15351000  1.0 1.9227216375
Ho  Ho3  1  0.13876000  0.35443000  0.70338000  1.0 1.9142686557
Ho  Ho4  1  0.86124000  0.64557000  0.29662000  1.0 1.9142686557
Ho  Ho5  1  0.75986000  0.77517000  0.74305000  1.0 1.9227216375
Ho  Ho6  1  0.24014000  0.22483000  0.25695000  1.0 1.9227216375
Mo  Mo1  1  0.74271000  0.98398000  0.11226000  1.0 2.1701679659
Mo  Mo2  1  0.25729000  0.01602000  0.88774000  1.0 2.1701679659
Mo  Mo3  1  0.73691000  0.84528000  0.12708000  1.0 2.1300975911
Mo  Mo4  1  0.26309000  0.15472000  0.87292000  1.0 2.1300975911
Mo  Mo5  1  0.67423000  0.81211000  0.97482000  1.0 2.1396160952
Mo  Mo6  1  0.32577000  0.18789000  0.02518000  1.0 2.1396160952
Mo  Mo7  1  0.58831000  0.84887000  0.02494000  1.0 2.1453764868
Mo  Mo8  1  0.41169000  0.15113000  0.97506000  1.0 2.1453764868
Mo  Mo9  1  0.82769000  0.94589000  0.06412000  1.0 2.1396160952
Mo  Mo10  1  0.17231000  0.05411000  0.93588000  1.0 2.1396160952
Mo  Mo11  1  0.67856000  0.94965000  0.96108000  1.0 2.1201571655
Mo  Mo12  1  0.32144000  0.05035000  0.03892000  1.0 2.1201571655
Mo  Mo13  1  0.58459000  0.97984000  0.58336000  1.0 2.1396160952
Mo  Mo14  1  0.41541000  0.02016000  0.41664000  1.0 2.1396160952
Mo  Mo15  1  0.58081000  0.10880000  0.53654000  1.0 2.1300975911
Mo  Mo16  1  0.41919000  0.89120000  0.46346000  1.0 2.1300975911
Mo  Mo17  1  0.54652000  0.99526000  0.43776000  1.0 2.0699333382
Mo  Mo18  1  0.45348000  0.00474000  0.56224000  1.0 2.0699333382
Mo  Mo19  1  0.97246000  0.08190000  0.48894000  1.0 2.1300975911
Mo  Mo20  1  0.02754000  0.91810000  0.51106000  1.0 2.1300975911
Mo  Mo21  1  0.10960000  0.06343000  0.59456000  1.0 2.1874365044
Mo  Mo22  1  0.89040000  0.93657000  0.40544000  1.0 2.1874365044
Mo  Mo23  1  0.05660000  0.04186000  0.44310000  1.0 2.0998131466
Mo  Mo24  1  0.94340000  0.95814000  0.55690000  1.0 2.0998131466
Mo  Mo25  1  0.19010000  0.61130000  0.43010000  1.0 0.7159448099
Mo  Mo26  1  0.80990000  0.38870000  0.56990000  1.0 0.7129776907
Mo  Mo27  1  0.09190000  0.45690000  0.42180000  1.0 0.5789519978
Mo  Mo28  1  0.90810000  0.54310000  0.57820000  1.0 0.5789519978
Mo  Mo29  1  0.26540000  0.52080000  0.47360000  1.0 0.5521999728
Mo  Mo30  1  0.73460000  0.47920000  0.52640000  1.0 0.5521999728
Mo  Mo31  1  0.07050000  0.51350000  0.29150000  1.0 0.4803970736
Mo  Mo32  1  0.92950000  0.48650000  0.70850000  1.0 0.4803970736
Mo  Mo33  1  0.24650000  0.58220000  0.34440000  1.0 0.9614746851
Mo  Mo34  1  0.75350000  0.41780000  0.65560000  1.0 0.9614746851
Mo  Mo35  1  0.14580000  0.42380000  0.33360000  1.0 0.470543867
Mo  Mo36  1  0.85420000  0.57620000  0.66640000  1.0 0.470543867
Mo  Mo37  1  0.24080000  0.64210000  0.44220000  1.0 0.8462879491
Mo  Mo38  1  0.75920000  0.35790000  0.55780000  1.0 0.8421714139
Mo  Mo39  1  0.15610000  0.49760000  0.46450000  1.0 0.440150125
Mo  Mo40  1  0.84390000  0.50240000  0.53550000  1.0 0.440150125
Mo  Mo41  1  0.31600000  0.55220000  0.47589000  1.0 0.8325000835
Mo  Mo42  1  0.68400000  0.44780000  0.52411000  1.0 0.8325000835
Mo  Mo43  1  0.09180000  0.53000000  0.32240000  1.0 0.4586878451
Mo  Mo44  1  0.90820000  0.47000000  0.67760000  1.0 0.4523714018
Mo  Mo45  1  0.25140000  0.57920000  0.33320000  1.0 0.9124372137
Mo  Mo46  1  0.74860000  0.42080000  0.66680000  1.0 0.9124372137
Mo  Mo47  1  0.16750000  0.43740000  0.35730000  1.0 0.470543867
Mo  Mo48  1  0.83250000  0.56260000  0.64270000  1.0 0.470543867
Mo  Mo49  1  0.17630000  0.50160000  0.43070000  1.0 0.3284980062
Mo  Mo50  1  0.82370000  0.49840000  0.56930000  1.0 0.3284980062
Mo  Mo51  1  0.00290000  0.39100000  0.34080000  1.0 0.1845771504
Mo  Mo52  1  0.99710000  0.60900000  0.65920000  1.0 0.168376295
Mo  Mo53  1  0.06560000  0.53310000  0.31130000  1.0 0.440150125
Mo  Mo54  1  0.93440000  0.46690000  0.68870000  1.0 0.440150125
Mo  Mo55  1  0.12340000  0.37520000  0.33200000  1.0 0.3113746655
Mo  Mo56  1  0.87660000  0.62480000  0.66800000  1.0 0.3167153728
Mo  Mo57  1  0.19480000  0.52570000  0.30700000  1.0 0.3577859533
Mo  Mo58  1  0.80520000  0.47430000  0.69300000  1.0 0.3523151112
Mo  Mo59  1  0.02240000  0.41300000  0.21620000  1.0 0.5521999728
Mo  Mo60  1  0.97760000  0.58700000  0.78380000  1.0 0.5521999728
H  H1  1  0.82420000  0.35430000  0.85560000  1.0 0.1197879205
H  H2  1  0.17580000  0.64570000  0.14440000  1.0 0.1197879205
H  H3  1  0.90830000  0.35870000  0.83130000  1.0 0.1304584082
H  H4  1  0.09170000  0.64130000  0.16870000  1.0 0.1304584082
H  H5  1  0.74400000  0.22470000  0.67140000  1.0 0.1304584082
H  H6  1  0.25600000  0.77530000  0.32860000  1.0 0.1304584082
H  H7  1  0.66140000  0.22300000  0.69700000  1.0 0.1197879205
H  H8  1  0.33860000  0.77700000  0.30300000  1.0 0.1197879205
H  H9  1  0.91050000  0.24940000  0.62940000  1.0 0.1383809684
H  H10  1  0.08950000  0.75060000  0.37060000  1.0 0.1383809684
H  H11  1  0.82710000  0.25750000  0.64350000  1.0 0.1304584082
H  H12  1  0.17290000  0.74250000  0.35650000  1.0 0.1304584082
H  H13  1  0.97630000  0.32660000  0.83070000  1.0 0.1304584082
H  H14  1  0.02370000  0.67340000  0.16930000  1.0 0.1304584082
H  H15  1  0.05710000  0.31440000  0.81320000  1.0 0.1197879205
H  H16  1  0.94290000  0.68560000  0.18680000  1.0 0.1197879205
H  H17  1  0.51190000  0.01760000  0.73830000  1.0 0.1383809684
H  H18  1  0.48810000  0.98240000  0.26170000  1.0 0.1383809684
H  H19  1  0.54060000  0.93630000  0.75400000  1.0 0.1304584082
H  H20  1  0.45940000  0.06370000  0.24600000  1.0 0.1304584082
H  H21  1  0.74510000  0.06420000  0.78940000  1.0 0.1304584082
H  H22  1  0.25490000  0.93580000  0.21060000  1.0 0.1304584082
H  H23  1  0.71470000  0.14670000  0.77570000  1.0 0.1197879205
H  H24  1  0.28530000  0.85330000  0.22430000  1.0 0.1197879205
H  H25  1  0.80600000  0.91930000  0.86510000  1.0 0.1304584082
H  H26  1  0.19400000  0.08070000  0.13490000  1.0 0.1383809684
H  H27  1  0.77280000  0.99770000  0.85320000  1.0 0.1383809684
H  H28  1  0.22720000  0.00230000  0.14680000  1.0 0.1383809684
H  H29  1  0.56320000  0.86220000  0.73200000  1.0 0.1383809684
H  H30  1  0.43680000  0.13780000  0.26800000  1.0 0.1383809684
H  H31  1  0.59840000  0.78740000  0.74040000  1.0 0.1304584082
H  H32  1  0.40160000  0.21260000  0.25960000  1.0 0.1304584082
H  H33  1  0.73140000  0.10720000  0.90970000  1.0 0.1304584082
H  H34  1  0.26860000  0.89280000  0.09030000  1.0 0.1304584082
H  H35  1  0.81560000  0.09380000  0.99800000  1.0 0.1479892904
H  H36  1  0.18440000  0.90620000  0.00200000  1.0 0.1479892904
H  H37  1  0.95500000  0.28860000  0.05020000  1.0 0.1383809684
H  H38  1  0.04500000  0.71140000  0.94980000  1.0 0.1383809684
H  H39  1  0.87110000  0.29970000  0.95700000  1.0 0.1383809684
H  H40  1  0.12890000  0.70030000  0.04300000  1.0 0.1383809684
H  H41  1  0.02800000  0.09360000  0.13440000  1.0 0.1304584082
H  H42  1  0.97200000  0.90640000  0.86560000  1.0 0.1304584082
H  H43  1  0.93030000  0.10100000  0.04770000  1.0 0.1383809684
H  H44  1  0.06970000  0.89900000  0.95230000  1.0 0.1383809684
H  H45  1  0.98440000  0.25780000  0.15320000  1.0 0.1304584082
H  H46  1  0.01560000  0.74220000  0.84680000  1.0 0.1304584082
H  H47  1  0.07510000  0.24420000  0.24090000  1.0 0.1197879205
H  H48  1  0.92490000  0.75580000  0.75910000  1.0 0.1197879205
H  H49  1  0.82120000  0.31820000  0.02030000  1.0 0.1304584082
H  H50  1  0.17880000  0.68180000  0.97970000  1.0 0.1304584082
H  H51  1  0.85210000  0.40710000  0.08080000  1.0 0.1479892904
H  H52  1  0.14790000  0.59290000  0.91920000  1.0 0.1479892904
H  H53  1  0.64800000  0.31020000  0.06040000  1.0 0.1479892904
H  H54  1  0.35200000  0.68980000  0.93960000  1.0 0.1479892904
H  H55  1  0.62140000  0.22450000  0.99800000  1.0 0.1383809684
H  H56  1  0.37860000  0.77550000  0.00200000  1.0 0.1383809684
H  H57  1  0.90720000  0.55200000  0.22900000  1.0 0.1197879205
H  H58  1  0.09280000  0.44800000  0.77100000  1.0 0.1197879205
H  H59  1  0.87420000  0.45150000  0.17970000  1.0 0.1304584082
H  H60  1  0.12580000  0.54850000  0.82030000  1.0 0.1304584082
H  H61  1  0.67820000  0.42760000  0.05610000  1.0 0.1304584082
H  H62  1  0.32180000  0.57240000  0.94390000  1.0 0.1304584082
H  H63  1  0.71570000  0.53090000  0.10430000  1.0 0.1097222743
H  H64  1  0.28430000  0.46910000  0.89570000  1.0 0.1097222743
H  H65  1  0.78820000  0.39960000  0.92010000  1.0 0.1304584082
H  H66  1  0.21180000  0.60040000  0.07990000  1.0 0.1304584082
H  H67  1  0.81870000  0.49060000  0.87820000  1.0 0.1383809684
H  H68  1  0.18130000  0.50940000  0.12180000  1.0 0.1383809684
H  H69  1  0.60430000  0.42300000  0.75370000  1.0 0.1197879205
H  H70  1  0.39570000  0.57700000  0.24630000  1.0 0.1197879205
H  H71  1  0.57370000  0.33333333  0.80080000  1.0 0.1197879205
H  H72  1  0.42630000  0.66666667  0.19920000  1.0 0.1197879205
H  H73  1  0.67040000  0.58650000  0.66440000  1.0 0.1197879205
H  H74  1  0.32960000  0.41350000  0.33560000  1.0 0.1197879205
H  H75  1  0.64440000  0.49270000  0.70160000  1.0 0.1197879205
H  H76  1  0.35560000  0.50730000  0.29840000  1.0 0.1197879205
H  H77  1  0.83350000  0.58450000  0.86430000  1.0 0.1197879205
H  H78  1  0.16650000  0.41550000  0.13570000  1.0 0.1197879205
H  H79  1  0.86220000  0.68090000  0.82390000  1.0 0.1097222743
H  H80  1  0.13780000  0.31910000  0.17610000  1.0 0.1097222743
H  H81  1  0.56670000  0.28230000  0.91960000  1.0 0.1197879205
H  H82  1  0.43330000  0.71770000  0.08040000  1.0 0.1197879205
H  H83  1  0.49450000  0.32680000  0.87960000  1.0 0.1304584082
H  H84  1  0.50550000  0.67320000  0.12040000  1.0 0.1304584082
H  H85  1  0.33570000  0.17080000  0.74390000  1.0 0.1479892904
H  H86  1  0.66430000  0.82920000  0.25610000  1.0 0.1479892904
H  H87  1  0.41150000  0.12800000  0.77970000  1.0 0.1304584082
H  H88  1  0.58850000  0.87200000  0.22030000  1.0 0.1304584082
H  H89  1  0.22140000  0.27770000  0.65520000  1.0 0.1383809684
H  H90  1  0.77860000  0.72230000  0.34480000  1.0 0.1383809684
H  H91  1  0.28750000  0.22630000  0.69560000  1.0 0.1479892904
H  H92  1  0.71250000  0.77370000  0.30440000  1.0 0.1479892904
H  H93  1  0.42640000  0.36320000  0.85540000  1.0 0.1304584082
H  H94  1  0.57360000  0.63680000  0.14460000  1.0 0.1304584082
H  H95  1  0.35590000  0.41210000  0.81260000  1.0 0.1197879205
H  H96  1  0.64410000  0.58790000  0.18740000  1.0 0.1197879205
H  H97  1  0.67130000  0.09740000  0.98160000  1.0 0.1383809684
H  H98  1  0.32870000  0.90260000  0.01840000  1.0 0.1383809684
H  H99  1  0.62550000  0.05570000  0.04840000  1.0 0.1383809684
H  H100  1  0.37450000  0.94430000  0.95160000  1.0 0.1383809684
H  H101  1  0.42090000  0.99030000  0.89850000  1.0 0.1383809684
H  H102  1  0.57910000  0.00970000  0.10150000  1.0 0.1383809684
H  H103  1  0.47010000  0.03980000  0.83810000  1.0 0.1383809684
H  H104  1  0.52990000  0.96020000  0.16190000  1.0 0.1383809684
H  H105  1  0.14360000  0.18860000  0.71560000  1.0 0.1383809684
H  H106  1  0.85640000  0.81140000  0.28440000  1.0 0.1383809684
H  H107  1  0.07390000  0.09370000  0.73760000  1.0 0.1591605079
H  H108  1  0.92610000  0.90630000  0.26240000  1.0 0.1591605079
H  H109  1  0.89100000  0.09790000  0.60980000  1.0 0.1304584082
H  H110  1  0.10900000  0.90210000  0.39020000  1.0 0.1304584082
H  H111  1  0.96450000  0.19040000  0.58820000  1.0 0.1304584082
H  H112  1  0.03550000  0.80960000  0.41180000  1.0 0.1304584082
H  H113  1  0.76210000  0.90460000  0.63200000  1.0 0.1304584082
H  H114  1  0.23790000  0.09540000  0.36800000  1.0 0.1304584082
H  H115  1  0.83990000  0.98570000  0.60600000  1.0 0.1383809684
H  H116  1  0.16010000  0.01430000  0.39400000  1.0 0.1383809684
H  H117  1  0.99770000  0.05360000  0.79010000  1.0 0.1479892904
H  H118  1  0.00230000  0.94640000  0.20990000  1.0 0.1479892904
H  H119  1  0.91940000  0.96940000  0.81550000  1.0 0.1383809684
H  H120  1  0.08060000  0.03060000  0.18450000  1.0 0.1383809684
H  H121  1  0.22780000  0.51340000  0.63260000  1.0 0.1383809684
H  H122  1  0.77220000  0.48660000  0.36740000  1.0 0.1383809684
H  H123  1  0.34420000  0.57640000  0.63980000  1.0 0.1383809684
H  H124  1  0.65580000  0.42360000  0.36020000  1.0 0.1383809684
H  H125  1  0.43990000  0.56360000  0.82170000  1.0 0.1304584082
H  H126  1  0.56010000  0.43640000  0.17830000  1.0 0.1304584082
H  H127  1  0.33220000  0.51040000  0.81560000  1.0 0.1197879205
H  H128  1  0.66780000  0.48960000  0.18440000  1.0 0.1197879205
H  H129  1  0.55730000  0.60780000  0.65790000  1.0 0.1304584082
H  H130  1  0.44270000  0.39220000  0.34210000  1.0 0.1304584082
H  H131  1  0.44180000  0.56050000  0.64820000  1.0 0.1383809684
H  H132  1  0.55820000  0.43950000  0.35180000  1.0 0.1383809684
H  H133  1  0.53670000  0.65870000  0.82350000  1.0 0.1383809684
H  H134  1  0.46330000  0.34130000  0.17650000  1.0 0.1383809684
H  H135  1  0.65130000  0.70310000  0.83250000  1.0 0.1304584082
H  H136  1  0.34870000  0.29690000  0.16750000  1.0 0.1304584082
H  H137  1  0.03160000  0.27350000  0.51360000  1.0 0.1197879205
H  H138  1  0.96840000  0.72650000  0.48640000  1.0 0.1197879205
H  H139  1  0.05950000  0.23330000  0.45230000  1.0 0.1304584082
H  H140  1  0.94050000  0.76670000  0.54770000  1.0 0.1304584082
H  H141  1  0.26550000  0.38650000  0.54500000  1.0 0.1197879205
H  H142  1  0.73450000  0.61350000  0.45500000  1.0 0.1197879205
H  H143  1  0.23410000  0.41780000  0.60580000  1.0 0.1097222743
H  H144  1  0.76590000  0.58220000  0.39420000  1.0 0.1097222743
H  H145  1  0.31890000  0.33110000  0.41920000  1.0 0.1197879205
H  H146  1  0.68110000  0.66890000  0.58080000  1.0 0.1197879205
H  H147  1  0.28310000  0.36960000  0.47400000  1.0 0.1197879205
H  H148  1  0.71690000  0.63040000  0.52600000  1.0 0.1197879205
H  H149  1  0.09800000  0.19510000  0.41150000  1.0 0.1383809684
H  H150  1  0.90200000  0.80490000  0.58850000  1.0 0.1383809684
H  H151  1  0.13740000  0.16250000  0.35610000  1.0 0.1304584082
H  H152  1  0.86260000  0.83750000  0.64390000  1.0 0.1304584082
H  H153  1  0.10890000  0.50210000  0.67920000  1.0 0.1097222743
H  H154  1  0.89110000  0.49790000  0.32080000  1.0 0.1097222743
H  H155  1  0.08670000  0.55810000  0.59770000  1.0 0.1197879205
H  H156  1  0.91330000  0.44190000  0.40230000  1.0 0.1197879205
H  H157  1  0.92370000  0.39200000  0.47440000  1.0 0.1197879205
H  H158  1  0.07630000  0.60800000  0.52560000  1.0 0.1197879205
H  H159  1  0.96340000  0.33920000  0.55850000  1.0 0.1097222743
H  H160  1  0.03660000  0.66080000  0.44150000  1.0 0.1097222743
H  H161  1  0.64660000  0.85670000  0.63850000  1.0 0.1304584082
H  H162  1  0.35340000  0.14330000  0.36150000  1.0 0.1304584082
H  H163  1  0.60610000  0.87140000  0.53320000  1.0 0.1383809684
H  H164  1  0.39390000  0.12860000  0.46680000  1.0 0.1383809684
H  H165  1  0.52340000  0.68410000  0.47750000  1.0 0.1479892904
H  H166  1  0.47660000  0.31590000  0.52250000  1.0 0.1479892904
H  H167  1  0.56510000  0.67170000  0.57800000  1.0 0.1304584082
H  H168  1  0.43490000  0.32830000  0.42200000  1.0 0.1304584082
H  H169  1  0.40230000  0.69670000  0.28300000  1.0 0.1097222743
H  H170  1  0.59770000  0.30330000  0.71700000  1.0 0.1097222743
H  H171  1  0.43860000  0.69320000  0.38850000  1.0 0.1304584082
H  H172  1  0.56140000  0.30680000  0.61150000  1.0 0.1304584082
H  H173  1  0.59600000  0.88050000  0.43830000  1.0 0.1383809684
H  H174  1  0.40400000  0.11950000  0.56170000  1.0 0.1383809684
H  H175  1  0.54780000  0.87980000  0.33130000  1.0 0.1304584082
H  H176  1  0.45220000  0.12020000  0.66870000  1.0 0.1304584082
H  H177  1  0.76480000  0.66850000  0.86620000  1.0 0.1197879205
H  H178  1  0.23520000  0.33150000  0.13380000  1.0 0.1197879205
H  H179  1  0.74620000  0.65170000  0.95320000  1.0 0.1197879205
H  H180  1  0.25380000  0.34830000  0.04680000  1.0 0.1197879205
H  H181  1  0.88330000  0.84460000  0.02440000  1.0 0.1383809684
H  H182  1  0.11670000  0.15540000  0.97560000  1.0 0.1383809684
H  H183  1  0.89030000  0.85550000  0.93130000  1.0 0.1304584082
H  H184  1  0.10970000  0.14450000  0.06870000  1.0 0.1304584082
H  H185  1  0.91560000  0.78390000  0.21170000  1.0 0.1197879205
H  H186  1  0.08440000  0.21610000  0.78830000  1.0 0.1197879205
H  H187  1  0.91540000  0.80590000  0.11740000  1.0 0.1304584082
H  H188  1  0.08460000  0.19410000  0.88260000  1.0 0.1304584082
H  H189  1  0.70770000  0.66140000  0.01850000  1.0 0.1304584082
H  H190  1  0.29230000  0.33860000  0.98150000  1.0 0.1304584082
H  H191  1  0.70720000  0.64060000  0.11230000  1.0 0.1197879205
H  H192  1  0.29280000  0.35940000  0.88770000  1.0 0.1197879205
C  C1  1  0.80790000  0.32700000  0.81880000  1.0 -0.0225545335
C  C2  1  0.19210000  0.67300000  0.18120000  1.0 -0.0225545335
C  C3  1  0.85740000  0.32930000  0.80390000  1.0 -0.1197932082
C  C4  1  0.14260000  0.67070000  0.19610000  1.0 -0.1197932082
C  C5  1  0.83590000  0.29090000  0.75110000  1.0 0.0900923029
C  C6  1  0.16410000  0.70910000  0.24890000  1.0 0.0900923029
C  C7  1  0.76120000  0.25060000  0.70950000  1.0 -0.1583217396
C  C8  1  0.23880000  0.74940000  0.29050000  1.0 -0.1583217396
C  C9  1  0.71270000  0.24960000  0.72550000  1.0 -0.0414122731
C  C10  1  0.28730000  0.75040000  0.27450000  1.0 -0.0414122731
C  C11  1  0.92340000  0.26510000  0.67050000  1.0 -0.0711021913
C  C12  1  0.07660000  0.73490000  0.32950000  1.0 -0.0711021913
C  C13  1  0.87410000  0.26940000  0.67890000  1.0 -0.1147022861
C  C14  1  0.12590000  0.73060000  0.32110000  1.0 -0.1147022861
C  C15  1  0.89090000  0.29130000  0.73870000  1.0 0.0988010976
C  C16  1  0.10910000  0.70870000  0.26130000  1.0 0.0988010976
C  C17  1  0.96170000  0.30990000  0.78930000  1.0 -0.170666856
C  C18  1  0.03830000  0.69010000  0.21070000  1.0 -0.170666856
C  C19  1  0.01020000  0.30360000  0.77830000  1.0 -0.029289314
C  C20  1  0.98980000  0.69640000  0.22170000  1.0 -0.029289314
C  C21  1  0.56000000  0.02720000  0.75030000  1.0 0.0103929389
C  C22  1  0.44000000  0.97280000  0.24970000  1.0 0.0103929389
C  C23  1  0.57720000  0.97900000  0.75840000  1.0 -0.1499645599
C  C24  1  0.42280000  0.02100000  0.24160000  1.0 -0.1499645599
C  C25  1  0.64420000  0.98990000  0.77260000  1.0 0.1097222743
C  C26  1  0.35580000  0.01010000  0.22740000  1.0 0.1097222743
C  C27  1  0.69750000  0.05410000  0.77960000  1.0 -0.170666856
C  C28  1  0.30250000  0.94590000  0.22040000  1.0 -0.170666856
C  C29  1  0.67970000  0.10350000  0.77210000  1.0 -0.0103668118
C  C30  1  0.32030000  0.89650000  0.22790000  1.0 -0.0103668118
C  C31  1  0.75670000  0.90850000  0.83630000  1.0 -0.0009667349
C  C32  1  0.24330000  0.09150000  0.16370000  1.0 -0.0009667349
C  C33  1  0.73730000  0.95490000  0.82920000  1.0 -0.1583217396
C  C34  1  0.26270000  0.04510000  0.17080000  1.0 -0.1583217396
C  C35  1  0.66460000  0.93830000  0.78610000  1.0 0.1097222743
C  C36  1  0.33540000  0.06170000  0.21390000  1.0 0.1097222743
C  C37  1  0.61380000  0.87500000  0.75710000  1.0 -0.1583217396
C  C38  1  0.38620000  0.12500000  0.24290000  1.0 -0.1583217396
C  C39  1  0.63400000  0.83060000  0.76320000  1.0 -0.029289314
C  C40  1  0.36600000  0.16940000  0.23680000  1.0 -0.029289314
C  C41  1  0.77690000  0.14360000  0.93900000  1.0 -0.0414122731
C  C42  1  0.22310000  0.85640000  0.06100000  1.0 -0.0414122731
C  C43  1  0.82580000  0.13590000  0.99060000  1.0 -0.1583217396
C  C44  1  0.17420000  0.86410000  0.00940000  1.0 -0.1583217396
C  C45  1  0.89580000  0.19290000  0.03610000  1.0 0.0900923029
C  C46  1  0.10420000  0.80710000  0.96390000  1.0 0.0900923029
C  C47  1  0.90970000  0.25140000  0.02190000  1.0 -0.1499645599
C  C48  1  0.09030000  0.74860000  0.97810000  1.0 -0.1499645599
C  C49  1  0.85980000  0.25850000  0.96760000  1.0 -0.0414122731
C  C50  1  0.14020000  0.74150000  0.03240000  1.0 -0.0414122731
C  C51  1  0.01910000  0.12710000  0.13830000  1.0 -0.0225545335
C  C52  1  0.98090000  0.87290000  0.86170000  1.0 -0.0225545335
C  C53  1  0.96140000  0.13220000  0.08600000  1.0 -0.1499645599
C  C54  1  0.03860000  0.86780000  0.91400000  1.0 -0.1499645599
C  C55  1  0.95090000  0.18350000  0.09140000  1.0 0.0900923029
C  C56  1  0.04910000  0.81650000  0.90860000  1.0 0.0900923029
C  C57  1  0.99240000  0.22390000  0.14830000  1.0 -0.170666856
C  C58  1  0.00760000  0.77610000  0.85170000  1.0 -0.170666856
C  C59  1  0.04770000  0.21650000  0.20080000  1.0 -0.0225545335
C  C60  1  0.95230000  0.78350000  0.79920000  1.0 -0.0225545335
C  C61  1  0.78540000  0.31800000  0.02730000  1.0 -0.0808559727
C  C62  1  0.21460000  0.68200000  0.97270000  1.0 -0.0808559727
C  C63  1  0.80420000  0.37020000  0.06340000  1.0 -0.1583217396
C  C64  1  0.19580000  0.62980000  0.93660000  1.0 -0.1583217396
C  C65  1  0.75170000  0.36980000  0.07520000  1.0 0.1097222743
C  C66  1  0.24830000  0.63020000  0.92480000  1.0 0.1097222743
C  C67  1  0.68350000  0.31330000  0.05110000  1.0 -0.170666856
C  C68  1  0.31650000  0.68670000  0.94890000  1.0 -0.170666856
C  C69  1  0.66820000  0.26260000  0.01420000  1.0 -0.0225545335
C  C70  1  0.33180000  0.73740000  0.98580000  1.0 -0.0225545335
C  C71  1  0.86000000  0.52670000  0.19270000  1.0 -0.0103668118
C  C72  1  0.14000000  0.47330000  0.80730000  1.0 -0.0103668118
C  C73  1  0.84030000  0.46660000  0.16340000  1.0 -0.1499645599
C  C74  1  0.15970000  0.53340000  0.83660000  1.0 -0.1499645599
C  C75  1  0.77270000  0.43070000  0.11200000  1.0 0.0819722462
C  C76  1  0.22730000  0.56930000  0.88800000  1.0 0.0819722462
C  C77  1  0.72650000  0.45300000  0.09110000  1.0 -0.1917779166
C  C78  1  0.27350000  0.54700000  0.90890000  1.0 -0.1917779166
C  C79  1  0.74830000  0.51450000  0.12060000  1.0 -0.0481344307
C  C80  1  0.25170000  0.48550000  0.87940000  1.0 -0.0481344307
C  C81  1  0.75030000  0.40450000  0.88620000  1.0 -0.029289314
C  C82  1  0.24970000  0.59550000  0.11380000  1.0 -0.029289314
C  C83  1  0.76840000  0.45860000  0.86150000  1.0 -0.1499645599
C  C84  1  0.23160000  0.54140000  0.13850000  1.0 -0.1499645599
C  C85  1  0.71390000  0.46790000  0.81180000  1.0 0.1097222743
C  C86  1  0.28610000  0.53210000  0.18820000  1.0 0.1097222743
C  C87  1  0.64240000  0.41940000  0.78890000  1.0 -0.170666856
C  C88  1  0.35760000  0.58060000  0.21110000  1.0 -0.170666856
C  C89  1  0.62380000  0.36480000  0.81550000  1.0 -0.0481344307
C  C90  1  0.37620000  0.63520000  0.18450000  1.0 -0.0481344307
C  C91  1  0.70400000  0.58680000  0.70590000  1.0 -0.029289314
C  C92  1  0.29600000  0.41320000  0.29410000  1.0 -0.029289314
C  C93  1  0.68910000  0.53110000  0.72840000  1.0 -0.1499645599
C  C94  1  0.31090000  0.46890000  0.27160000  1.0 -0.1499645599
C  C95  1  0.73510000  0.52740000  0.78760000  1.0 0.0819722462
C  C96  1  0.26490000  0.47260000  0.21240000  1.0 0.0819722462
C  C97  1  0.79930000  0.58400000  0.82300000  1.0 -0.1583217396
C  C98  1  0.20070000  0.41600000  0.17700000  1.0 -0.1499645599
C  C99  1  0.81630000  0.64240000  0.79960000  1.0 -0.0808559727
C  C100  1  0.18370000  0.35760000  0.20040000  1.0 -0.0808559727
C  C101  1  0.52040000  0.26010000  0.88170000  1.0 -0.0414122731
C  C102  1  0.47960000  0.73990000  0.11830000  1.0 -0.0414122731
C  C103  1  0.47760000  0.28590000  0.85790000  1.0 -0.170666856
C  C104  1  0.52240000  0.71410000  0.14210000  1.0 -0.170666856
C  C105  1  0.41080000  0.25650000  0.80420000  1.0 0.0900923029
C  C106  1  0.58920000  0.74350000  0.19580000  1.0 0.0900923029
C  C107  1  0.38480000  0.19550000  0.77800000  1.0 -0.1499645599
C  C108  1  0.61520000  0.80450000  0.22200000  1.0 -0.1499645599
C  C109  1  0.42920000  0.16960000  0.80040000  1.0 -0.029289314
C  C110  1  0.57080000  0.83040000  0.19960000  1.0 -0.0225545335
C  C111  1  0.26360000  0.29510000  0.69640000  1.0 -0.0225545335
C  C112  1  0.73640000  0.70490000  0.30360000  1.0 -0.0225545335
C  C113  1  0.30330000  0.26490000  0.72040000  1.0 -0.1402736883
C  C114  1  0.69670000  0.73510000  0.27960000  1.0 -0.1402736883
C  C115  1  0.36480000  0.28810000  0.77870000  1.0 0.0988010976
C  C116  1  0.63520000  0.71190000  0.22130000  1.0 0.0988010976
C  C117  1  0.38440000  0.34510000  0.81410000  1.0 -0.1917779166
C  C118  1  0.61560000  0.65490000  0.18590000  1.0 -0.1917779166
C  C119  1  0.34270000  0.37410000  0.78870000  1.0 -0.0481344307
C  C120  1  0.65730000  0.62590000  0.21130000  1.0 -0.0481344307
C  C121  1  0.61990000  0.07710000  0.96560000  1.0 0.0103929389
C  C122  1  0.38010000  0.92290000  0.03440000  1.0 0.0103929389
C  C123  1  0.59290000  0.05100000  0.00490000  1.0 -0.170666856
C  C124  1  0.40710000  0.94900000  0.99510000  1.0 -0.170666856
C  C125  1  0.51530000  0.01670000  0.97980000  1.0 0.0900923029
C  C126  1  0.48470000  0.98330000  0.02020000  1.0 0.0900923029
C  C127  1  0.47290000  0.01370000  0.91720000  1.0 -0.1499645599
C  C128  1  0.52710000  0.98630000  0.08280000  1.0 -0.1499645599
C  C129  1  0.50150000  0.04210000  0.88130000  1.0 -0.0481344307
C  C130  1  0.49850000  0.95790000  0.11870000  1.0 -0.0481344307
C  C131  1  0.09170000  0.16990000  0.69510000  1.0 -0.0103668118
C  C132  1  0.90830000  0.83010000  0.30490000  1.0 -0.0103668118
C  C133  1  0.05060000  0.11420000  0.70850000  1.0 -0.1583217396
C  C134  1  0.94940000  0.88580000  0.29150000  1.0 -0.1583217396
C  C135  1  0.97700000  0.08810000  0.68070000  1.0 0.0988010976
C  C136  1  0.02300000  0.91190000  0.31930000  1.0 0.0988010976
C  C137  1  0.94300000  0.11670000  0.63270000  1.0 -0.1788487869
C  C138  1  0.05700000  0.88330000  0.36730000  1.0 -0.1788487869
C  C139  1  0.98680000  0.17150000  0.62050000  1.0 0.0206854462
C  C140  1  0.01320000  0.82850000  0.37950000  1.0 0.0206854462
C  C141  1  0.81080000  0.93440000  0.66410000  1.0 -0.0414122731
C  C142  1  0.18920000  0.06560000  0.33590000  1.0 -0.0414122731
C  C143  1  0.85620000  0.98300000  0.64920000  1.0 -0.1499645599
C  C144  1  0.14380000  0.01700000  0.35080000  1.0 -0.1499645599
C  C145  1  0.92910000  0.03140000  0.69680000  1.0 0.0819722462
C  C146  1  0.07090000  0.96860000  0.30320000  1.0 0.0819722462
C  C147  1  0.94970000  0.02340000  0.75720000  1.0 -0.1583217396
C  C148  1  0.05030000  0.97660000  0.24280000  1.0 -0.1583217396
C  C149  1  0.90360000  0.97290000  0.77260000  1.0 -0.0414122731
C  C150  1  0.09640000  0.02710000  0.22740000  1.0 -0.0414122731
C  C151  1  0.27180000  0.52420000  0.67130000  1.0 -0.0225545335
C  C152  1  0.72820000  0.47580000  0.32870000  1.0 -0.0225545335
C  C153  1  0.34120000  0.56050000  0.67530000  1.0 -0.1583217396
C  C154  1  0.65880000  0.43950000  0.32470000  1.0 -0.1499645599
C  C155  1  0.40470000  0.57290000  0.73130000  1.0 0.0900923029
C  C156  1  0.59530000  0.42710000  0.26870000  1.0 0.0900923029
C  C157  1  0.39700000  0.55350000  0.78220000  1.0 -0.1583217396
C  C158  1  0.60300000  0.44650000  0.21780000  1.0 -0.1583217396
C  C159  1  0.33400000  0.52220000  0.77860000  1.0 -0.0711021913
C  C160  1  0.66600000  0.47780000  0.22140000  1.0 -0.0808559727
C  C161  1  0.55310000  0.61650000  0.69250000  1.0 -0.0481344307
C  C162  1  0.44690000  0.38350000  0.30750000  1.0 -0.0481344307
C  C163  1  0.48430000  0.58960000  0.68610000  1.0 -0.1499645599
C  C164  1  0.51570000  0.41040000  0.31390000  1.0 -0.1499645599
C  C165  1  0.47760000  0.60510000  0.73480000  1.0 0.0900923029
C  C166  1  0.52240000  0.39490000  0.26520000  1.0 0.0900923029
C  C167  1  0.54050000  0.64730000  0.78960000  1.0 -0.170666856
C  C168  1  0.45950000  0.35270000  0.21040000  1.0 -0.170666856
C  C169  1  0.60860000  0.67300000  0.79530000  1.0 -0.029289314
C  C170  1  0.39140000  0.32700000  0.20470000  1.0 -0.029289314
C  C171  1  0.08000000  0.29600000  0.51990000  1.0 0.0206854462
C  C172  1  0.92000000  0.70400000  0.48010000  1.0 0.0206854462
C  C173  1  0.09600000  0.27270000  0.48250000  1.0 -0.1583217396
C  C174  1  0.90400000  0.72730000  0.51750000  1.0 -0.1583217396
C  C175  1  0.16620000  0.30740000  0.48940000  1.0 0.0819722462
C  C176  1  0.83380000  0.69260000  0.51060000  1.0 0.0819722462
C  C177  1  0.21660000  0.36190000  0.53730000  1.0 -0.1788487869
C  C178  1  0.78340000  0.63810000  0.46270000  1.0 -0.1788487869
C  C179  1  0.19800000  0.38050000  0.57280000  1.0 -0.0481344307
C  C180  1  0.80200000  0.61950000  0.42720000  1.0 -0.0481344307
C  C181  1  0.27400000  0.30300000  0.41840000  1.0 -0.0481344307
C  C182  1  0.72600000  0.69700000  0.58160000  1.0 -0.0481344307
C  C183  1  0.25280000  0.32610000  0.45150000  1.0 -0.1788487869
C  C184  1  0.74720000  0.67390000  0.54850000  1.0 -0.1788487869
C  C185  1  0.18540000  0.28470000  0.45180000  1.0 0.0684895758
C  C186  1  0.81460000  0.71530000  0.54820000  1.0 0.0684895758
C  C187  1  0.14410000  0.22430000  0.41490000  1.0 -0.1583217396
C  C188  1  0.85590000  0.77570000  0.58510000  1.0 -0.1583217396
C  C189  1  0.16820000  0.20450000  0.38200000  1.0 -0.0225545335
C  C190  1  0.83180000  0.79550000  0.61800000  1.0 -0.0225545335
C  C191  1  0.07290000  0.47940000  0.63670000  1.0 -0.0009667349
C  C192  1  0.92710000  0.52060000  0.36330000  1.0 -0.0009667349
C  C193  1  0.05880000  0.51230000  0.58790000  1.0 -0.1402736883
C  C194  1  0.94120000  0.48770000  0.41210000  1.0 -0.1402736883
C  C195  1  0.00660000  0.48170000  0.52630000  1.0 0.0900923029
C  C196  1  0.99340000  0.51830000  0.47370000  1.0 0.0900923029
C  C197  1  0.96510000  0.41600000  0.51500000  1.0 -0.0808559727
C  C198  1  0.03490000  0.58400000  0.48500000  1.0 -0.0808559727
C  C199  1  0.98640000  0.38490000  0.56630000  1.0 0.0206854462
C  C200  1  0.01360000  0.61510000  0.43370000  1.0 0.0206854462
C  C201  1  0.62090000  0.82140000  0.60460000  1.0 -0.0225545335
C  C202  1  0.37910000  0.17860000  0.39540000  1.0 -0.0225545335
C  C203  1  0.59450000  0.82950000  0.54190000  1.0 -0.170666856
C  C204  1  0.40550000  0.17050000  0.45810000  1.0 -0.170666856
C  C205  1  0.55160000  0.77700000  0.49250000  1.0 0.0988010976
C  C206  1  0.44840000  0.22300000  0.50750000  1.0 0.0988010976
C  C207  1  0.54670000  0.72000000  0.50980000  1.0 -0.1788487869
C  C208  1  0.45330000  0.28000000  0.49020000  1.0 -0.1788487869
C  C209  1  0.57260000  0.71280000  0.56880000  1.0 -0.029289314
C  C210  1  0.42740000  0.28720000  0.43120000  1.0 -0.029289314
C  C211  1  0.44280000  0.73380000  0.31510000  1.0 -0.0414122731
C  C212  1  0.55720000  0.26620000  0.68490000  1.0 -0.0414122731
C  C213  1  0.46520000  0.73190000  0.37790000  1.0 -0.170666856
C  C214  1  0.53480000  0.26810000  0.62210000  1.0 -0.170666856
C  C215  1  0.52440000  0.78400000  0.42570000  1.0 0.0988010976
C  C216  1  0.47560000  0.21600000  0.57430000  1.0 0.0988010976
C  C217  1  0.55670000  0.84180000  0.40790000  1.0 -0.1583217396
C  C218  1  0.44330000  0.15820000  0.59210000  1.0 -0.1583217396
C  C219  1  0.52880000  0.83990000  0.34390000  1.0 -0.0103668118
C  C220  1  0.47120000  0.16010000  0.65610000  1.0 -0.0103668118
C  C221  1  0.78760000  0.70420000  0.89860000  1.0 -0.0225545335
C  C222  1  0.21240000  0.29580000  0.10140000  1.0 -0.0225545335
C  C223  1  0.77790000  0.69380000  0.95110000  1.0 -0.170666856
C  C224  1  0.22210000  0.30620000  0.04890000  1.0 -0.170666856
C  C225  1  0.81550000  0.74630000  0.00020000  1.0 0.0988010976
C  C226  1  0.18450000  0.25370000  0.99980000  1.0 0.0988010976
C  C227  1  0.85780000  0.80760000  0.99250000  1.0 -0.1583217396
C  C228  1  0.14220000  0.19240000  0.00750000  1.0 -0.1583217396
C  C229  1  0.86220000  0.81400000  0.93710000  1.0 -0.0225545335
C  C230  1  0.13780000  0.18600000  0.06290000  1.0 -0.0225545335
C  C231  1  0.87260000  0.75900000  0.17220000  1.0 -0.0414122731
C  C232  1  0.12740000  0.24100000  0.82780000  1.0 -0.0414122731
C  C233  1  0.87230000  0.77150000  0.11560000  1.0 -0.1583217396
C  C234  1  0.12770000  0.22850000  0.88440000  1.0 -0.1583217396
C  C235  1  0.81200000  0.73610000  0.05800000  1.0 0.0900923029
C  C236  1  0.18800000  0.26390000  0.94200000  1.0 0.0900923029
C  C237  1  0.75070000  0.68720000  0.05770000  1.0 -0.1583217396
C  C238  1  0.24930000  0.31280000  0.94230000  1.0 -0.1583217396
C  C239  1  0.75030000  0.67470000  0.11370000  1.0 -0.0414122731
C  C240  1  0.24970000  0.32530000  0.88630000  1.0 -0.0414122731
C  C241  1  0.87200000  0.58440000  0.02750000  1.0 0.4586878451
C  C242  1  0.12800000  0.41560000  0.97250000  1.0 0.4586878451
S  S1  1  0.94340000  0.62870000  0.00670000  1.0 0.9614746851
S  S2  1  0.05660000  0.37130000  0.99330000  1.0 0.9614746851
N  N1  1  0.73500000  0.28460000  0.77960000  1.0 0.2984460947
N  N2  1  0.26500000  0.71540000  0.22040000  1.0 0.2984460947
N  N3  1  0.99370000  0.28330000  0.72160000  1.0 0.3284980062
N  N4  1  0.00630000  0.71670000  0.27840000  1.0 0.3284980062
N  N5  1  0.61300000  0.08810000  0.75970000  1.0 0.3284980062
N  N6  1  0.38700000  0.91190000  0.24030000  1.0 0.3284980062
N  N7  1  0.70630000  0.84820000  0.80270000  1.0 0.3284980062
N  N8  1  0.29370000  0.15180000  0.19730000  1.0 0.3284980062
N  N9  1  0.79280000  0.20430000  0.92870000  1.0 0.3401798588
N  N10  1  0.20720000  0.79570000  0.07130000  1.0 0.3401798588
N  N11  1  0.06090000  0.17020000  0.19330000  1.0 0.3284980062
N  N12  1  0.93910000  0.82980000  0.80670000  1.0 0.3284980062
N  N13  1  0.71530000  0.26370000  0.99970000  1.0 0.3401798588
N  N14  1  0.28470000  0.73630000  0.00030000  1.0 0.3401798588
N  N15  1  0.81340000  0.54770000  0.16980000  1.0 0.293379767
N  N16  1  0.18660000  0.45230000  0.83020000  1.0 0.293379767
N  N17  1  0.67910000  0.35760000  0.86330000  1.0 0.3284980062
N  N18  1  0.32090000  0.64240000  0.13670000  1.0 0.3284980062
N  N19  1  0.76540000  0.64130000  0.74200000  1.0 0.2680207026
N  N20  1  0.23460000  0.35870000  0.25800000  1.0 0.2680207026
N  N21  1  0.49750000  0.20140000  0.85120000  1.0 0.3401798588
N  N22  1  0.50250000  0.79860000  0.14880000  1.0 0.3401798588
N  N23  1  0.28360000  0.34910000  0.73040000  1.0 0.3401798588
N  N24  1  0.71640000  0.65090000  0.26960000  1.0 0.3401798588
N  N25  1  0.57660000  0.07490000  0.90630000  1.0 0.3284980062
N  N26  1  0.42340000  0.92510000  0.09370000  1.0 0.3284980062
N  N27  1  0.05790000  0.19850000  0.65180000  1.0 0.3113746655
N  N28  1  0.94210000  0.80150000  0.34820000  1.0 0.3113746655
N  N29  1  0.83470000  0.92750000  0.72560000  1.0 0.3685407472
N  N30  1  0.16530000  0.07250000  0.27440000  1.0 0.3685407472
N  N31  1  0.26920000  0.50520000  0.72320000  1.0 0.3401798588
N  N32  1  0.73080000  0.49480000  0.27680000  1.0 0.3401798588
N  N33  1  0.61530000  0.65580000  0.74840000  1.0 0.3577859533
N  N34  1  0.38470000  0.34420000  0.25160000  1.0 0.3577859533
N  N35  1  0.12970000  0.34770000  0.56310000  1.0 0.2680207026
N  N36  1  0.87030000  0.65230000  0.43690000  1.0 0.2680207026
N  N37  1  0.23310000  0.24320000  0.38600000  1.0 0.3167153728
N  N38  1  0.76690000  0.75680000  0.61400000  1.0 0.3167153728
N  N39  1  0.03620000  0.41770000  0.62300000  1.0 0.2330942881
N  N40  1  0.96380000  0.58230000  0.37700000  1.0 0.2330942881
N  N41  1  0.60910000  0.76280000  0.61550000  1.0 0.2984460947
N  N42  1  0.39090000  0.23720000  0.38450000  1.0 0.2984460947
N  N43  1  0.47950000  0.78940000  0.30010000  1.0 0.3113746655
N  N44  1  0.52050000  0.21060000  0.69990000  1.0 0.3113746655
N  N45  1  0.82810000  0.76330000  0.89370000  1.0 0.3167153728
N  N46  1  0.17190000  0.23670000  0.10630000  1.0 0.3167153728
N  N47  1  0.81080000  0.71080000  0.17010000  1.0 0.3523151112
N  N48  1  0.18920000  0.28920000  0.82990000  1.0 0.3523151112
O  O1  1  0.68750000  0.28070000  0.79550000  1.0 -0.6003525168
O  O2  1  0.31250000  0.71930000  0.20450000  1.0 -0.6003525168
O  O3  1  0.03910000  0.27530000  0.71160000  1.0 -0.6003525168
O  O4  1  0.96090000  0.72470000  0.28840000  1.0 -0.6003525168
O  O5  1  0.60130000  0.13730000  0.75830000  1.0 -0.5914549697
O  O6  1  0.39870000  0.86270000  0.24170000  1.0 -0.5914549697
O  O7  1  0.72750000  0.80410000  0.80970000  1.0 -0.6119229066
O  O8  1  0.27250000  0.19590000  0.19030000  1.0 -0.6119229066
O  O9  1  0.74560000  0.21190000  0.87560000  1.0 -0.6003525168
O  O10  1  0.25440000  0.78810000  0.12440000  1.0 -0.6003525168
O  O11  1  0.11710000  0.16680000  0.24050000  1.0 -0.5914549697
O  O12  1  0.88290000  0.83320000  0.75950000  1.0 -0.5914549697
O  O13  1  0.69810000  0.21700000  0.96050000  1.0 -0.5589749503
O  O14  1  0.30190000  0.78300000  0.03950000  1.0 -0.5589749503
O  O15  1  0.83220000  0.60540000  0.19590000  1.0 -0.6198328602
O  O16  1  0.16780000  0.39460000  0.80410000  1.0 -0.6198328602
O  O17  1  0.66270000  0.30500000  0.88910000  1.0 -0.6287220287
O  O18  1  0.33730000  0.69500000  0.11090000  1.0 -0.6287220287
O  O19  1  0.78060000  0.69460000  0.72160000  1.0 -0.5471212584
O  O20  1  0.21940000  0.30540000  0.27840000  1.0 -0.5471212584
O  O21  1  0.54200000  0.17760000  0.87170000  1.0 -0.5793820588
O  O22  1  0.45800000  0.82240000  0.12830000  1.0 -0.5793820588
O  O23  1  0.24790000  0.38120000  0.70780000  1.0 -0.6003525168
O  O24  1  0.75210000  0.61880000  0.29220000  1.0 -0.6003525168
O  O25  1  0.60280000  0.10120000  0.86750000  1.0 -0.6119229066
O  O26  1  0.39720000  0.89880000  0.13250000  1.0 -0.6119229066
O  O27  1  0.10070000  0.25750000  0.64400000  1.0 -0.6119229066
O  O28  1  0.89930000  0.74250000  0.35600000  1.0 -0.6119229066
O  O29  1  0.78820000  0.88200000  0.73960000  1.0 -0.5793820588
O  O30  1  0.21180000  0.11800000  0.26040000  1.0 -0.5793820588
O  O31  1  0.20430000  0.46950000  0.71960000  1.0 -0.5793820588
O  O32  1  0.79570000  0.53050000  0.28040000  1.0 -0.5793820588
O  O33  1  0.68070000  0.67650000  0.75570000  1.0 -0.5793820588
O  O34  1  0.31930000  0.32350000  0.24430000  1.0 -0.5793820588
O  O35  1  0.11440000  0.36970000  0.60050000  1.0 -0.5733177531
O  O36  1  0.88560000  0.63030000  0.39950000  1.0 -0.5733177531
O  O37  1  0.25630000  0.22210000  0.35800000  1.0 -0.5914549697
O  O38  1  0.74370000  0.77790000  0.64200000  1.0 -0.5914549697
O  O39  1  0.05030000  0.38470000  0.66850000  1.0 -0.5793820588
O  O40  1  0.94970000  0.61530000  0.33150000  1.0 -0.5793820588
O  O41  1  0.64240000  0.75800000  0.67740000  1.0 -0.657981323
O  O42  1  0.35760000  0.24200000  0.32260000  1.0 -0.657981323
O  O43  1  0.46220000  0.79010000  0.23960000  1.0 -0.6198328602
O  O44  1  0.53780000  0.20990000  0.76040000  1.0 -0.6198328602
O  O45  1  0.83610000  0.76960000  0.84390000  1.0 -0.5793820588
O  O46  1  0.16390000  0.23040000  0.15610000  1.0 -0.5793820588
O  O47  1  0.81090000  0.69890000  0.22260000  1.0 -0.5589749503
O  O48  1  0.18910000  0.30110000  0.77740000  1.0 -0.5589749503
O  O49  1  0.76910000  0.04960000  0.16280000  1.0 -0.6401587295
O  O50  1  0.23090000  0.95040000  0.83720000  1.0 -0.6401587295
O  O51  1  0.83440000  0.00360000  0.11750000  1.0 -0.7907258618
O  O52  1  0.16560000  0.99640000  0.88250000  1.0 -0.7907258618
O  O53  1  0.71490000  0.01120000  0.03310000  1.0 -0.8192778926
O  O54  1  0.28510000  0.98880000  0.96690000  1.0 -0.8192778926
O  O55  1  0.63860000  0.93050000  0.08180000  1.0 -0.8192778926
O  O56  1  0.36140000  0.06950000  0.91820000  1.0 -0.8192778926
O  O57  1  0.75480000  0.92250000  0.16610000  1.0 -0.7996246609
O  O58  1  0.24520000  0.07750000  0.83390000  1.0 -0.7996246609
O  O59  1  0.91600000  0.97950000  0.08110000  1.0 -0.6119229066
O  O60  1  0.08400000  0.02050000  0.91890000  1.0 -0.6119229066
O  O61  1  0.78510000  0.98130000  0.99450000  1.0 -0.8304853606
O  O62  1  0.21490000  0.01870000  0.00550000  1.0 -0.8304853606
O  O63  1  0.82780000  0.89430000  0.12880000  1.0 -0.7996246609
O  O64  1  0.17220000  0.10570000  0.87120000  1.0 -0.7996246609
O  O65  1  0.66230000  0.99260000  0.90470000  1.0 -0.6119229066
O  O66  1  0.33770000  0.00740000  0.09530000  1.0 -0.6119229066
O  O67  1  0.70960000  0.89820000  0.04510000  1.0 -1.2183757591
O  O68  1  0.29040000  0.10180000  0.95490000  1.0 -1.2183757591
O  O69  1  0.75520000  0.80610000  0.18710000  1.0 -0.6119229066
O  O70  1  0.24480000  0.19390000  0.81290000  1.0 -0.6119229066
O  O71  1  0.58830000  0.90150000  0.96000000  1.0 -0.7907258618
O  O72  1  0.41170000  0.09850000  0.04000000  1.0 -0.7907258618
O  O73  1  0.63180000  0.81530000  0.09250000  1.0 -0.7907258618
O  O74  1  0.36820000  0.18470000  0.90750000  1.0 -0.7907258618
O  O75  1  0.50050000  0.81380000  0.00840000  1.0 -0.6198328602
O  O76  1  0.49950000  0.18620000  0.99160000  1.0 -0.6198328602
O  O77  1  0.77630000  0.86380000  0.00570000  1.0 -0.7996246609
O  O78  1  0.22370000  0.13620000  0.99430000  1.0 -0.7996246609
O  O79  1  0.66040000  0.87160000  0.92170000  1.0 -0.7996246609
O  O80  1  0.33960000  0.12840000  0.07830000  1.0 -0.7996246609
O  O81  1  0.70200000  0.78570000  0.05400000  1.0 -0.7996246609
O  O82  1  0.29800000  0.21430000  0.94600000  1.0 -0.7996246609
O  O83  1  0.58300000  0.78960000  0.97010000  1.0 -0.8192778926
O  O84  1  0.41700000  0.21040000  0.02990000  1.0 -0.8304853606
O  O85  1  0.65170000  0.75050000  0.92580000  1.0 -0.6003525168
O  O86  1  0.34830000  0.24950000  0.07420000  1.0 -0.6003525168
O  O87  1  0.64740000  0.18900000  0.56320000  1.0 -0.5733177531
O  O88  1  0.35260000  0.81100000  0.43680000  1.0 -0.5733177531
O  O89  1  0.49970000  0.10610000  0.46680000  1.0 -0.7635132241
O  O90  1  0.50030000  0.89390000  0.53320000  1.0 -0.7635132241
O  O91  1  0.53490000  0.09110000  0.58390000  1.0 -0.750042038
O  O92  1  0.46510000  0.90890000  0.41610000  1.0 -0.750042038
O  O93  1  0.60770000  0.08150000  0.48190000  1.0 -0.7996246609
O  O94  1  0.39230000  0.91850000  0.51810000  1.0 -0.7996246609
O  O95  1  0.47100000  0.01690000  0.38440000  1.0 -0.7996246609
O  O96  1  0.52900000  0.98310000  0.61560000  1.0 -0.7996246609
O  O97  1  0.63640000  0.06910000  0.59900000  1.0 -0.7659903335
O  O98  1  0.36360000  0.93090000  0.40100000  1.0 -0.7659903335
O  O99  1  0.50000000  0.00000000  0.50000000  1.0 -1.1762918997
O  O100  1  0.57220000  0.98540000  0.39300000  1.0 -0.5589749503
O  O101  1  0.42780000  0.01460000  0.60700000  1.0 -0.5589749503
O  O102  1  0.60420000  0.97760000  0.51530000  1.0 -0.8192778926
O  O103  1  0.39580000  0.02240000  0.48470000  1.0 -0.8192778926
O  O104  1  0.64330000  0.96110000  0.64210000  1.0 -0.6287220287
O  O105  1  0.35670000  0.03890000  0.35790000  1.0 -0.6287220287
O  O106  1  0.95250000  0.14050000  0.48060000  1.0 -0.6003525168
O  O107  1  0.04750000  0.85950000  0.51940000  1.0 -0.6003525168
O  O108  1  0.02890000  0.10480000  0.44770000  1.0 -0.8192778926
O  O109  1  0.97110000  0.89520000  0.55230000  1.0 -0.8192778926
O  O110  1  0.06550000  0.11420000  0.56960000  1.0 -0.7996246609
O  O111  1  0.93450000  0.88580000  0.43040000  1.0 -0.7996246609
O  O112  1  0.13480000  0.09040000  0.53100000  1.0 -0.7907258618
O  O113  1  0.86520000  0.90960000  0.46900000  1.0 -0.7907258618
O  O114  1  0.03750000  0.01180000  0.61850000  1.0 -0.7359448838
O  O115  1  0.96250000  0.98820000  0.38150000  1.0 -0.7359448838
O  O116  1  0.00000000  0.00000000  0.50000000  1.0 -1.1762918997
O  O117  1  0.07570000  0.97580000  0.46520000  1.0 -0.7907258618
O  O118  1  0.92430000  0.02420000  0.53480000  1.0 -0.7907258618
O  O119  1  0.09670000  0.07490000  0.39950000  1.0 -0.6003525168
O  O120  1  0.90330000  0.92510000  0.60050000  1.0 -0.6003525168
O  O121  1  0.11500000  0.98730000  0.58670000  1.0 -0.8740174341
O  O122  1  0.88500000  0.01270000  0.41330000  1.0 -0.8740174341
O  O123  1  0.19530000  0.11380000  0.66320000  1.0 -0.7093849945
O  O124  1  0.80470000  0.88620000  0.33680000  1.0 -0.7093849945
O  O125  1  0.20580000  0.67920000  0.46550000  1.0 -0.2315491655
O  O126  1  0.79420000  0.32080000  0.53450000  1.0 -0.2315491655
O  O127  1  0.12300000  0.54400000  0.45200000  1.0 -0.2772350478
O  O128  1  0.87700000  0.45600000  0.54800000  1.0 -0.2772350478
O  O129  1  0.26550000  0.59660000  0.49500000  1.0 -0.1964065003
O  O130  1  0.73450000  0.40340000  0.50500000  1.0 -0.1964065003
O  O131  1  0.24970000  0.64470000  0.39110000  1.0 -0.2587096292
O  O132  1  0.75030000  0.35530000  0.60890000  1.0 -0.2587096292
O  O133  1  0.10650000  0.59040000  0.34740000  1.0 -0.2587096292
O  O134  1  0.89350000  0.40960000  0.65260000  1.0 -0.2587096292
O  O135  1  0.03370000  0.41210000  0.44810000  1.0 -0.3698782045
O  O136  1  0.96630000  0.58790000  0.55190000  1.0 -0.3698782045
O  O137  1  0.18500000  0.47100000  0.48780000  1.0 -0.1402736883
O  O138  1  0.81500000  0.52900000  0.51220000  1.0 -0.1402736883
O  O139  1  0.33800000  0.52430000  0.53950000  1.0 -0.2315491655
O  O140  1  0.66200000  0.47570000  0.46050000  1.0 -0.2315491655
O  O141  1  0.02610000  0.46520000  0.33980000  1.0 -0.2587096292
O  O142  1  0.97390000  0.53480000  0.66020000  1.0 -0.2587096292
O  O143  1  0.16870000  0.51780000  0.38200000  1.0 -0.3065928388
O  O144  1  0.83130000  0.48220000  0.61800000  1.0 -0.3065928388
O  O145  1  0.31000000  0.57080000  0.42540000  1.0 -0.2772350478
O  O146  1  0.69000000  0.42920000  0.57460000  1.0 -0.2772350478
O  O147  1  0.99840000  0.51060000  0.22510000  1.0 -0.2989643681
O  O148  1  0.00160000  0.48940000  0.77490000  1.0 -0.2989643681
O  O149  1  0.15180000  0.56530000  0.27790000  1.0 -0.5914549697
O  O150  1  0.84820000  0.43470000  0.72210000  1.0 -0.5914549697
O  O151  1  0.30340000  0.62470000  0.31730000  1.0 -0.1583217396
O  O152  1  0.69660000  0.37530000  0.68270000  1.0 -0.1583217396
O  O153  1  0.08740000  0.39270000  0.37410000  1.0 -0.2731797564
O  O154  1  0.91260000  0.60730000  0.62590000  1.0 -0.2731797564
O  O155  1  0.22960000  0.44510000  0.41710000  1.0 -0.2188215919
O  O156  1  0.77040000  0.55490000  0.58290000  1.0 -0.2188215919
O  O157  1  0.07080000  0.43880000  0.26950000  1.0 -0.2587096292
O  O158  1  0.92920000  0.56120000  0.73050000  1.0 -0.2587096292
O  O159  1  0.21340000  0.49300000  0.31350000  1.0 -0.4726988542
O  O160  1  0.78660000  0.50700000  0.68650000  1.0 -0.4726988542
O  O161  1  0.13050000  0.35670000  0.29880000  1.0 -0.1402736883
O  O162  1  0.86950000  0.64330000  0.70120000  1.0 -0.1402736883
O  O163  1  0.05660000  0.03280000  0.07550000  1.0 -0.2989643681
O  O164  1  0.94340000  0.96720000  0.92450000  1.0 -0.2875912158
O  O165  1  0.26970000  0.71780000  0.47280000  1.0 -0.2188215919
O  O166  1  0.73030000  0.28220000  0.52720000  1.0 -0.2188215919
O  O167  1  0.19680000  0.58960000  0.48850000  1.0 -0.2490111048
O  O168  1  0.80320000  0.41040000  0.51150000  1.0 -0.2490111048
O  O169  1  0.32550000  0.63290000  0.49600000  1.0 -0.3963371683
O  O170  1  0.67450000  0.36710000  0.50400000  1.0 -0.3963371683
O  O171  1  0.27310000  0.65560000  0.38080000  1.0 -0.2369432765
O  O172  1  0.72690000  0.34440000  0.61920000  1.0 -0.2369432765
O  O173  1  0.14410000  0.61520000  0.37120000  1.0 -0.2587096292
O  O174  1  0.85590000  0.38480000  0.62880000  1.0 -0.2587096292
O  O175  1  0.12150000  0.46740000  0.51270000  1.0 -0.2875912158
O  O176  1  0.87850000  0.53260000  0.48730000  1.0 -0.2875912158
O  O177  1  0.25610000  0.51540000  0.51470000  1.0 -0.2315491655
O  O178  1  0.74390000  0.48460000  0.48530000  1.0 -0.2315491655
O  O179  1  0.39760000  0.56030000  0.53200000  1.0 -0.3593697119
O  O180  1  0.60240000  0.43970000  0.46800000  1.0 -0.3593697119
O  O181  1  0.07540000  0.49810000  0.39090000  1.0 -0.2188215919
O  O182  1  0.92460000  0.50190000  0.60910000  1.0 -0.2188215919
O  O183  1  0.20360000  0.54000000  0.39880000  1.0 -0.340716036
O  O184  1  0.79640000  0.46000000  0.60120000  1.0 -0.340716036
O  O185  1  0.33370000  0.58260000  0.40820000  1.0 -0.3593697119
O  O186  1  0.66630000  0.41740000  0.59180000  1.0 -0.3593697119
O  O187  1  0.01080000  0.52060000  0.26690000  1.0 -0.1402736883
O  O188  1  0.98920000  0.47940000  0.73310000  1.0 -0.1402736883
O  O189  1  0.15240000  0.56440000  0.28420000  1.0 -0.5471212584
O  O190  1  0.84760000  0.43560000  0.71580000  1.0 -0.5471212584
O  O191  1  0.28660000  0.61130000  0.28580000  1.0 -0.2130022961
O  O192  1  0.71340000  0.38870000  0.71420000  1.0 -0.2130022961
O  O193  1  0.13500000  0.42280000  0.41820000  1.0 -0.1583217396
O  O194  1  0.86500000  0.57720000  0.58180000  1.0 -0.1583217396
O  O195  1  0.26460000  0.46590000  0.42740000  1.0 -0.2490111048
O  O196  1  0.73540000  0.53410000  0.57260000  1.0 -0.2490111048
O  O197  1  0.08370000  0.44830000  0.30420000  1.0 -0.2772350478
O  O198  1  0.91630000  0.55170000  0.69580000  1.0 -0.2772350478
O  O199  1  0.21180000  0.48920000  0.31120000  1.0 -0.4792729783
O  O200  1  0.78820000  0.51080000  0.68880000  1.0 -0.4792729783
O  O201  1  0.13850000  0.36200000  0.32600000  1.0 0.0103929389
O  O202  1  0.86150000  0.63800000  0.67400000  1.0 0.0048432081
O  O203  1  0.00840000  0.65490000  0.06600000  1.0 -0.5396334398
O  O204  1  0.93250000  0.58070000  0.96620000  1.0 -0.5589749503
O  O205  1  0.92160000  0.67210000  0.97080000  1.0 -0.5589749503
O  O206  1  0.99160000  0.34510000  0.93400000  1.0 -0.5396334398
O  O207  1  0.06750000  0.41930000  0.03380000  1.0 -0.5589749503
O  O208  1  0.07840000  0.32790000  0.02920000  1.0 -0.5589749503
F  F1  1  0.87590000  0.62560000  0.06450000  1.0 -0.170666856
F  F2  1  0.80630000  0.55890000  0.97870000  1.0 -0.1788487869
F  F3  1  0.88610000  0.55170000  0.06450000  1.0 -0.1402736883
F  F4  1  0.12410000  0.37440000  0.93550000  1.0 -0.170666856
F  F5  1  0.19370000  0.44110000  0.02130000  1.0 -0.1788487869
F  F6  1  0.11390000  0.44830000  0.93550000  1.0 -0.1402736883
