# DDEC6 charges by PACMAN v1.1 (https://github.com/mtap-research/PACMAN-charge/)
data_BIZMAA_ion_pacman
_symmetry_space_group_name_H-M   'P 1'
_cell_length_a   24.02400000
_cell_length_b   24.18760000
_cell_length_c   24.39900000
_cell_angle_alpha   84.06700000
_cell_angle_beta   118.05700000
_cell_angle_gamma   118.34900000
_symmetry_Int_Tables_number   1
_chemical_formula_structural   DyH32C42S2N8(O7F3)2
_chemical_formula_sum   'Dy6 H192 C252 S12 N48 O84 F36'
_cell_volume   10878.98116045
_cell_formula_units_Z   6
loop_
 _symmetry_equiv_pos_site_id
 _symmetry_equiv_pos_as_xyz
  1  'x, y, z'
loop_
 _atom_site_type_symbol
 _atom_site_label
 _atom_site_symmetry_multiplicity
 _atom_site_fract_x
 _atom_site_fract_y
 _atom_site_fract_z
 _atom_site_occupancy
 _atom_site_charge
Dy  Dy1  1  0.35131000  0.14371000  0.79032000  1.0 1.9347585143
Dy  Dy2  1  0.64869000  0.85629000  0.20968000  1.0 1.9411500395
Dy  Dy3  1  0.84516000  0.28278000  0.63957000  1.0 1.9411500395
Dy  Dy4  1  0.15484000  0.71722000  0.36043000  1.0 1.9411500395
Dy  Dy5  1  0.74278000  0.72024000  0.76847000  1.0 1.9347585143
Dy  Dy6  1  0.25722000  0.27976000  0.23153000  1.0 1.9347585143
H  H1  1  0.26480000  0.22040000  0.83440000  1.0 0.129619207
H  H2  1  0.73520000  0.77960000  0.16560000  1.0 0.129619207
H  H3  1  0.12720000  0.08310000  0.68540000  1.0 0.129619207
H  H4  1  0.87280000  0.91690000  0.31460000  1.0 0.129619207
H  H5  1  0.26460000  0.98910000  0.85990000  1.0 0.129619207
H  H6  1  0.73540000  0.01090000  0.14010000  1.0 0.129619207
H  H7  1  0.16420000  0.98760000  0.68050000  1.0 0.1197656267
H  H8  1  0.83580000  0.01240000  0.31950000  1.0 0.1197656267
H  H9  1  0.25170000  0.07850000  0.88600000  1.0 0.1197656267
H  H10  1  0.74830000  0.92150000  0.11400000  1.0 0.1197656267
H  H11  1  0.45790000  0.20230000  0.98400000  1.0 0.1197656267
H  H12  1  0.54210000  0.79770000  0.01600000  1.0 0.1197656267
H  H13  1  0.38140000  0.99800000  0.81800000  1.0 0.129619207
H  H14  1  0.61860000  0.00200000  0.18200000  1.0 0.129619207
H  H15  1  0.53700000  0.15850000  0.92970000  1.0 0.1197656267
H  H16  1  0.46300000  0.84150000  0.07030000  1.0 0.1197656267
H  H17  1  0.35820000  0.30940000  0.78100000  1.0 0.1389186116
H  H18  1  0.64180000  0.69060000  0.21900000  1.0 0.1389186116
H  H19  1  0.52550000  0.29600000  0.92050000  1.0 0.1197656267
H  H20  1  0.47450000  0.70400000  0.07950000  1.0 0.1197656267
H  H21  1  0.19710000  0.26950000  0.79130000  1.0 0.1389186116
H  H22  1  0.80290000  0.73050000  0.20870000  1.0 0.1389186116
H  H23  1  0.06860000  0.13830000  0.63730000  1.0 0.129619207
H  H24  1  0.93140000  0.86170000  0.36270000  1.0 0.129619207
H  H25  1  0.15770000  0.92980000  0.86190000  1.0 0.1389186116
H  H26  1  0.84230000  0.07020000  0.13810000  1.0 0.1389186116
H  H27  1  0.04860000  0.92700000  0.67630000  1.0 0.1487098221
H  H28  1  0.95140000  0.07300000  0.32370000  1.0 0.1487098221
H  H29  1  0.22290000  0.11570000  0.94730000  1.0 0.1487098221
H  H30  1  0.77710000  0.88430000  0.05270000  1.0 0.1487098221
H  H31  1  0.43490000  0.23970000  0.05460000  1.0 0.129619207
H  H32  1  0.56510000  0.76030000  0.94540000  1.0 0.129619207
H  H33  1  0.40420000  0.93970000  0.90680000  1.0 0.129619207
H  H34  1  0.59580000  0.06030000  0.09320000  1.0 0.129619207
H  H35  1  0.56970000  0.10630000  0.02200000  1.0 0.129619207
H  H36  1  0.43030000  0.89370000  0.97800000  1.0 0.129619207
H  H37  1  0.43850000  0.41210000  0.77050000  1.0 0.1487098221
H  H38  1  0.56150000  0.58790000  0.22950000  1.0 0.1487098221
H  H39  1  0.60380000  0.39530000  0.91460000  1.0 0.1389186116
H  H40  1  0.39620000  0.60470000  0.08540000  1.0 0.1389186116
H  H41  1  0.14290000  0.32200000  0.74960000  1.0 0.1389186116
H  H42  1  0.85710000  0.67800000  0.25040000  1.0 0.1389186116
H  H43  1  0.99660000  0.17180000  0.61290000  1.0 0.1389186116
H  H44  1  0.00340000  0.82820000  0.38710000  1.0 0.1389186116
H  H45  1  0.05060000  0.93720000  0.84910000  1.0 0.1389186116
H  H46  1  0.94940000  0.06280000  0.15090000  1.0 0.1389186116
H  H47  1  0.96500000  0.82870000  0.69000000  1.0 0.1389186116
H  H48  1  0.03500000  0.17130000  0.31000000  1.0 0.1389186116
H  H49  1  0.20860000  0.13440000  0.01420000  1.0 0.1389186116
H  H50  1  0.79140000  0.86560000  0.98580000  1.0 0.1389186116
H  H51  1  0.39190000  0.29050000  0.07350000  1.0 0.129619207
H  H52  1  0.60810000  0.70950000  0.92650000  1.0 0.129619207
H  H53  1  0.65490000  0.50150000  0.91320000  1.0 0.1389186116
H  H54  1  0.34510000  0.49850000  0.08680000  1.0 0.1389186116
H  H55  1  0.51820000  0.45130000  0.72750000  1.0 0.1389186116
H  H56  1  0.48180000  0.54870000  0.27250000  1.0 0.1389186116
H  H57  1  0.06020000  0.36520000  0.69870000  1.0 0.129619207
H  H58  1  0.93980000  0.63480000  0.30130000  1.0 0.129619207
H  H59  1  0.91810000  0.21030000  0.56870000  1.0 0.1197656267
H  H60  1  0.08190000  0.78970000  0.43130000  1.0 0.1197656267
H  H61  1  0.93470000  0.89870000  0.83520000  1.0 0.129619207
H  H62  1  0.06530000  0.10130000  0.16480000  1.0 0.129619207
H  H63  1  0.85140000  0.78970000  0.68270000  1.0 0.129619207
H  H64  1  0.14860000  0.21030000  0.31730000  1.0 0.129619207
H  H65  1  0.17380000  0.17590000  0.06640000  1.0 0.1197656267
H  H66  1  0.82620000  0.82410000  0.93360000  1.0 0.1197656267
H  H67  1  0.36570000  0.33880000  0.13280000  1.0 0.1389186116
H  H68  1  0.63430000  0.66120000  0.86720000  1.0 0.1389186116
H  H69  1  0.73880000  0.59090000  0.89560000  1.0 0.1389186116
H  H70  1  0.26120000  0.40910000  0.10440000  1.0 0.1389186116
H  H71  1  0.61140000  0.53430000  0.70990000  1.0 0.1197656267
H  H72  1  0.38860000  0.46570000  0.29010000  1.0 0.1197656267
H  H73  1  0.99820000  0.46020000  0.66020000  1.0 0.1197656267
H  H74  1  0.00180000  0.53980000  0.33980000  1.0 0.1197656267
H  H75  1  0.82240000  0.38020000  0.49730000  1.0 0.129619207
H  H76  1  0.17760000  0.61980000  0.50270000  1.0 0.129619207
H  H77  1  0.85430000  0.26270000  0.48280000  1.0 0.1389186116
H  H78  1  0.14570000  0.73730000  0.51720000  1.0 0.1389186116
H  H79  1  0.67250000  0.16600000  0.48800000  1.0 0.1104572829
H  H80  1  0.32750000  0.83400000  0.51200000  1.0 0.1104572829
H  H81  1  0.66270000  0.13920000  0.63670000  1.0 0.129619207
H  H82  1  0.33730000  0.86080000  0.36330000  1.0 0.1197656267
H  H83  1  0.82070000  0.25970000  0.79190000  1.0 0.129619207
H  H84  1  0.17930000  0.74030000  0.20810000  1.0 0.129619207
H  H85  1  0.91210000  0.15940000  0.69530000  1.0 0.129619207
H  H86  1  0.08790000  0.84060000  0.30470000  1.0 0.129619207
H  H87  1  0.70320000  0.09350000  0.57580000  1.0 0.1104572829
H  H88  1  0.29680000  0.90650000  0.42420000  1.0 0.1104572829
H  H89  1  0.61760000  0.19450000  0.52530000  1.0 0.1104572829
H  H90  1  0.38240000  0.80550000  0.47470000  1.0 0.1104572829
H  H91  1  0.75320000  0.38540000  0.57260000  1.0 0.129619207
H  H92  1  0.24680000  0.61460000  0.42740000  1.0 0.129619207
H  H93  1  0.89480000  0.19050000  0.77950000  1.0 0.1197656267
H  H94  1  0.10520000  0.80950000  0.22050000  1.0 0.1197656267
H  H95  1  0.03320000  0.37240000  0.81000000  1.0 0.129619207
H  H96  1  0.96680000  0.62760000  0.19000000  1.0 0.129619207
H  H97  1  0.63940000  0.81480000  0.68100000  1.0 0.129619207
H  H98  1  0.36060000  0.18520000  0.31900000  1.0 0.129619207
H  H99  1  0.82350000  0.90140000  0.83870000  1.0 0.129619207
H  H100  1  0.17650000  0.09860000  0.16130000  1.0 0.129619207
H  H101  1  0.88620000  0.69650000  0.76110000  1.0 0.129619207
H  H102  1  0.11380000  0.30350000  0.23890000  1.0 0.129619207
H  H103  1  0.68730000  0.57990000  0.64430000  1.0 0.129619207
H  H104  1  0.31270000  0.42010000  0.35570000  1.0 0.129619207
H  H105  1  0.74630000  0.82780000  0.64650000  1.0 0.1197656267
H  H106  1  0.25370000  0.17220000  0.35350000  1.0 0.1197656267
H  H107  1  0.59270000  0.65060000  0.56850000  1.0 0.1197656267
H  H108  1  0.40730000  0.34940000  0.43150000  1.0 0.1197656267
H  H109  1  0.58100000  0.73660000  0.75580000  1.0 0.1389186116
H  H110  1  0.41900000  0.26340000  0.24420000  1.0 0.1389186116
H  H111  1  0.52530000  0.58350000  0.64580000  1.0 0.129619207
H  H112  1  0.47470000  0.41650000  0.35420000  1.0 0.129619207
H  H113  1  0.14400000  0.36220000  0.13020000  1.0 0.1389186116
H  H114  1  0.85600000  0.63780000  0.86980000  1.0 0.1389186116
H  H115  1  0.06970000  0.17300000  0.07810000  1.0 0.129619207
H  H116  1  0.93030000  0.82700000  0.92190000  1.0 0.129619207
H  H117  1  0.06530000  0.51280000  0.60220000  1.0 0.129619207
H  H118  1  0.93470000  0.48720000  0.39780000  1.0 0.1389186116
H  H119  1  0.88660000  0.43880000  0.44360000  1.0 0.1389186116
H  H120  1  0.11340000  0.56120000  0.55640000  1.0 0.1389186116
H  H121  1  0.83420000  0.17740000  0.43270000  1.0 0.1487098221
H  H122  1  0.16580000  0.82260000  0.56730000  1.0 0.1487098221
H  H123  1  0.63710000  0.08460000  0.41880000  1.0 0.1487098221
H  H124  1  0.36290000  0.91540000  0.58120000  1.0 0.1487098221
H  H125  1  0.57090000  0.14580000  0.65460000  1.0 0.1389186116
H  H126  1  0.42910000  0.85420000  0.34540000  1.0 0.1389186116
H  H127  1  0.74320000  0.26200000  0.82100000  1.0 0.129619207
H  H128  1  0.25680000  0.73800000  0.17900000  1.0 0.1389186116
H  H129  1  0.88920000  0.06430000  0.73740000  1.0 0.129619207
H  H130  1  0.11080000  0.93570000  0.26260000  1.0 0.129619207
H  H131  1  0.67780000  0.00300000  0.61750000  1.0 0.1389186116
H  H132  1  0.32220000  0.99700000  0.38250000  1.0 0.1389186116
H  H133  1  0.53450000  0.20930000  0.43490000  1.0 0.1389186116
H  H134  1  0.46550000  0.79070000  0.56510000  1.0 0.1389186116
H  H135  1  0.67180000  0.40220000  0.48190000  1.0 0.129619207
H  H136  1  0.32820000  0.59780000  0.51810000  1.0 0.129619207
H  H137  1  0.93670000  0.18950000  0.88520000  1.0 0.1389186116
H  H138  1  0.06330000  0.81050000  0.11480000  1.0 0.1389186116
H  H139  1  0.08600000  0.37220000  0.91950000  1.0 0.1389186116
H  H140  1  0.91400000  0.62780000  0.08050000  1.0 0.1389186116
H  H141  1  0.66300000  0.90780000  0.64260000  1.0 0.1389186116
H  H142  1  0.33700000  0.09220000  0.35740000  1.0 0.1389186116
H  H143  1  0.84930000  0.00130000  0.80290000  1.0 0.1567896805
H  H144  1  0.15070000  0.99870000  0.19710000  1.0 0.1567896805
H  H145  1  0.91870000  0.61570000  0.77610000  1.0 0.1389186116
H  H146  1  0.08130000  0.38430000  0.22390000  1.0 0.1389186116
H  H147  1  0.71210000  0.49490000  0.65220000  1.0 0.1487098221
H  H148  1  0.28790000  0.50510000  0.34780000  1.0 0.1487098221
H  H149  1  0.76430000  0.84800000  0.55380000  1.0 0.129619207
H  H150  1  0.23570000  0.15200000  0.44620000  1.0 0.129619207
H  H151  1  0.61510000  0.65980000  0.48280000  1.0 0.129619207
H  H152  1  0.38490000  0.34020000  0.51720000  1.0 0.129619207
H  H153  1  0.48780000  0.75220000  0.66600000  1.0 0.1389186116
H  H154  1  0.51220000  0.24780000  0.33400000  1.0 0.1389186116
H  H155  1  0.44360000  0.60170000  0.56490000  1.0 0.1487098221
H  H156  1  0.55640000  0.39830000  0.43510000  1.0 0.1487098221
H  H157  1  0.08220000  0.36600000  0.01260000  1.0 0.129619207
H  H158  1  0.91780000  0.63400000  0.98740000  1.0 0.129619207
H  H159  1  0.01750000  0.18340000  0.97220000  1.0 0.1389186116
H  H160  1  0.98250000  0.81660000  0.02780000  1.0 0.1389186116
H  H161  1  0.61910000  0.03770000  0.32380000  1.0 0.129619207
H  H162  1  0.38090000  0.96230000  0.67620000  1.0 0.129619207
H  H163  1  0.81260000  0.05920000  0.44620000  1.0 0.1487098221
H  H164  1  0.18740000  0.94080000  0.55380000  1.0 0.1487098221
H  H165  1  0.65900000  0.23940000  0.84770000  1.0 0.1197656267
H  H166  1  0.34100000  0.76060000  0.15230000  1.0 0.1197656267
H  H167  1  0.51860000  0.18230000  0.66180000  1.0 0.1197656267
H  H168  1  0.48140000  0.81770000  0.33820000  1.0 0.1197656267
H  H169  1  0.94280000  0.55030000  0.75120000  1.0 0.1197656267
H  H170  1  0.05720000  0.44970000  0.24880000  1.0 0.1197656267
H  H171  1  0.73450000  0.42570000  0.69190000  1.0 0.1487098221
H  H172  1  0.26550000  0.57430000  0.30810000  1.0 0.1487098221
H  H173  1  0.59120000  0.69400000  0.39160000  1.0 0.129619207
H  H174  1  0.40880000  0.30600000  0.60840000  1.0 0.129619207
H  H175  1  0.79230000  0.84470000  0.48510000  1.0 0.1389186116
H  H176  1  0.20770000  0.15530000  0.51490000  1.0 0.1389186116
H  H177  1  0.58490000  0.93640000  0.27120000  1.0 0.129619207
H  H178  1  0.41510000  0.06360000  0.72880000  1.0 0.129619207
H  H179  1  0.78240000  0.96700000  0.39060000  1.0 0.1197656267
H  H180  1  0.21760000  0.03300000  0.60940000  1.0 0.1197656267
H  H181  1  0.57370000  0.24580000  0.86200000  1.0 0.1104572829
H  H182  1  0.42630000  0.75420000  0.13800000  1.0 0.1104572829
H  H183  1  0.43000000  0.18910000  0.68450000  1.0 0.1197656267
H  H184  1  0.57000000  0.81090000  0.31550000  1.0 0.1197656267
H  H185  1  0.96180000  0.45940000  0.74720000  1.0 0.129619207
H  H186  1  0.03820000  0.54060000  0.25280000  1.0 0.129619207
H  H187  1  0.75580000  0.33950000  0.71330000  1.0 0.129619207
H  H188  1  0.24420000  0.66050000  0.28670000  1.0 0.129619207
H  H189  1  0.60260000  0.71120000  0.29940000  1.0 0.1197656267
H  H190  1  0.39740000  0.28880000  0.70060000  1.0 0.1197656267
H  H191  1  0.79060000  0.85820000  0.39090000  1.0 0.129619207
H  H192  1  0.20940000  0.14180000  0.60910000  1.0 0.129619207
C  C1  1  0.22400000  0.20340000  0.79370000  1.0 -0.0188446557
C  C2  1  0.77600000  0.79660000  0.20630000  1.0 -0.0188446557
C  C3  1  0.14430000  0.12380000  0.70540000  1.0 -0.0303400664
C  C4  1  0.85570000  0.87620000  0.29460000  1.0 -0.0303400664
C  C5  1  0.22050000  0.97700000  0.82210000  1.0 -0.0586082307
C  C6  1  0.77950000  0.02300000  0.17790000  1.0 -0.0586082307
C  C7  1  0.16230000  0.97640000  0.71830000  1.0 -0.0396047301
C  C8  1  0.83770000  0.02360000  0.28170000  1.0 -0.0396047301
C  C9  1  0.28910000  0.11280000  0.91940000  1.0 -0.0108956917
C  C10  1  0.71090000  0.88720000  0.08060000  1.0 -0.0108956917
C  C11  1  0.41020000  0.18490000  0.97750000  1.0 -0.0396047301
C  C12  1  0.58980000  0.81510000  0.02250000  1.0 -0.0396047301
C  C13  1  0.41730000  0.01900000  0.85970000  1.0 -0.0303400664
C  C14  1  0.58270000  0.98100000  0.14030000  1.0 -0.0303400664
C  C15  1  0.50980000  0.11370000  0.92620000  1.0 -0.0025624538
C  C16  1  0.49020000  0.88630000  0.07380000  1.0 -0.0025624538
C  C17  1  0.40890000  0.32800000  0.80720000  1.0 0.0016948599
C  C18  1  0.59110000  0.67200000  0.19280000  1.0 0.0016948599
C  C19  1  0.50790000  0.31990000  0.89040000  1.0 -0.0188446557
C  C20  1  0.49210000  0.68010000  0.10960000  1.0 -0.0188446557
C  C21  1  0.18270000  0.23190000  0.76760000  1.0 -0.1408896604
C  C22  1  0.81730000  0.76810000  0.23240000  1.0 -0.1408896604
C  C23  1  0.10740000  0.15420000  0.67910000  1.0 -0.1600784714
C  C24  1  0.89260000  0.84580000  0.32090000  1.0 -0.1600784714
C  C25  1  0.15660000  0.94220000  0.82330000  1.0 -0.1887533815
C  C26  1  0.84340000  0.05780000  0.17670000  1.0 -0.1887533815
C  C27  1  0.09160000  0.93950000  0.71530000  1.0 -0.1705212196
C  C28  1  0.90840000  0.06050000  0.28470000  1.0 -0.1705212196
C  C29  1  0.27180000  0.13440000  0.95630000  1.0 -0.1887533815
C  C30  1  0.72820000  0.86560000  0.04370000  1.0 -0.1887533815
C  C31  1  0.39630000  0.20810000  0.01910000  1.0 -0.1984102265
C  C32  1  0.60370000  0.79190000  0.98090000  1.0 -0.1984102265
C  C33  1  0.43300000  0.98460000  0.91340000  1.0 -0.1887533815
C  C34  1  0.56700000  0.01540000  0.08660000  1.0 -0.1887533815
C  C35  1  0.53100000  0.08290000  0.98200000  1.0 -0.2104869881
C  C36  1  0.46900000  0.91710000  0.01800000  1.0 -0.2104869881
C  C37  1  0.45650000  0.38790000  0.79970000  1.0 -0.1408896604
C  C38  1  0.54350000  0.61210000  0.20030000  1.0 -0.1408896604
C  C39  1  0.55380000  0.37640000  0.88540000  1.0 -0.1984102265
C  C40  1  0.44620000  0.62360000  0.11460000  1.0 -0.1984102265
C  C41  1  0.12440000  0.21230000  0.71230000  1.0 0.1002473596
C  C42  1  0.87560000  0.78770000  0.28770000  1.0 0.1002473596
C  C43  1  0.08860000  0.92370000  0.76860000  1.0 0.1104572829
C  C44  1  0.91140000  0.07630000  0.23140000  1.0 0.1104572829
C  C45  1  0.32540000  0.18350000  0.00650000  1.0 0.1197656267
C  C46  1  0.67460000  0.81650000  0.99350000  1.0 0.129619207
C  C47  1  0.48710000  0.01470000  0.97160000  1.0 0.1002473596
C  C48  1  0.51290000  0.98530000  0.02840000  1.0 0.1002473596
C  C49  1  0.52680000  0.40910000  0.83470000  1.0 0.1104572829
C  C50  1  0.47320000  0.59090000  0.16530000  1.0 0.1104572829
C  C51  1  0.07500000  0.23960000  0.68100000  1.0 0.1002473596
C  C52  1  0.92500000  0.76040000  0.31900000  1.0 0.1002473596
C  C53  1  0.01940000  0.88970000  0.76750000  1.0 0.0899460697
C  C54  1  0.98060000  0.11030000  0.23250000  1.0 0.0899460697
C  C55  1  0.30480000  0.20980000  0.04180000  1.0 0.0816569454
C  C56  1  0.69520000  0.79020000  0.95820000  1.0 0.0816569454
C  C57  1  0.58060000  0.46600000  0.82310000  1.0 0.0899460697
C  C58  1  0.41940000  0.53400000  0.17690000  1.0 0.0899460697
C  C59  1  0.09800000  0.29990000  0.71240000  1.0 -0.1474494287
C  C60  1  0.90200000  0.70010000  0.28760000  1.0 -0.1474494287
C  C61  1  0.01110000  0.21190000  0.63210000  1.0 -0.1600784714
C  C62  1  0.98890000  0.78810000  0.36790000  1.0 -0.1600784714
C  C63  1  0.00990000  0.90780000  0.81270000  1.0 -0.1887533815
C  C64  1  0.99010000  0.09220000  0.18730000  1.0 -0.1887533815
C  C65  1  0.96120000  0.84500000  0.72110000  1.0 -0.1600784714
C  C66  1  0.03880000  0.15500000  0.27890000  1.0 -0.1600784714
C  C67  1  0.24060000  0.17580000  0.03810000  1.0 -0.1705212196
C  C68  1  0.75940000  0.82420000  0.96190000  1.0 -0.1705212196
C  C69  1  0.34710000  0.26680000  0.07360000  1.0 -0.1600784714
C  C70  1  0.65290000  0.73320000  0.92640000  1.0 -0.1600784714
C  C71  1  0.64450000  0.50850000  0.87120000  1.0 -0.1281545558
C  C72  1  0.35550000  0.49150000  0.12880000  1.0 -0.1281545558
C  C73  1  0.56450000  0.47750000  0.76180000  1.0 -0.1600784714
C  C74  1  0.43550000  0.52250000  0.23820000  1.0 -0.1600784714
C  C75  1  0.04720000  0.32420000  0.68280000  1.0 -0.0188446557
C  C76  1  0.95280000  0.67580000  0.31720000  1.0 -0.0108956917
C  C77  1  0.96310000  0.23340000  0.60540000  1.0 -0.0303400664
C  C78  1  0.03690000  0.76660000  0.39460000  1.0 -0.0303400664
C  C79  1  0.94050000  0.88320000  0.80520000  1.0 -0.0188446557
C  C80  1  0.05950000  0.11680000  0.19480000  1.0 -0.0188446557
C  C81  1  0.89280000  0.82110000  0.71730000  1.0 -0.0188446557
C  C82  1  0.10720000  0.17890000  0.28270000  1.0 -0.0188446557
C  C83  1  0.22020000  0.20090000  0.06950000  1.0 -0.0025624538
C  C84  1  0.77980000  0.79910000  0.93050000  1.0 -0.0025624538
C  C85  1  0.33270000  0.29740000  0.10880000  1.0 0.0016948599
C  C86  1  0.66730000  0.70260000  0.89120000  1.0 0.0016948599
C  C87  1  0.69480000  0.56150000  0.86130000  1.0 -0.0396047301
C  C88  1  0.30520000  0.43850000  0.13870000  1.0 -0.0396047301
C  C89  1  0.61870000  0.52930000  0.75150000  1.0 -0.0188446557
C  C90  1  0.38130000  0.47070000  0.24850000  1.0 -0.0188446557
C  C91  1  0.97500000  0.45420000  0.61600000  1.0 0.0099727407
C  C92  1  0.02500000  0.54580000  0.38400000  1.0 0.0099727407
C  C93  1  0.87270000  0.40910000  0.52020000  1.0 -0.0188446557
C  C94  1  0.12730000  0.59090000  0.47980000  1.0 -0.0188446557
C  C95  1  0.81090000  0.22370000  0.47130000  1.0 -0.0396047301
C  C96  1  0.18910000  0.77630000  0.52870000  1.0 -0.0396047301
C  C97  1  0.70340000  0.16910000  0.47260000  1.0 0.0099727407
C  C98  1  0.29660000  0.83090000  0.52740000  1.0 0.0099727407
C  C99  1  0.67680000  0.16690000  0.67120000  1.0 -0.0108956917
C  C100  1  0.32320000  0.83310000  0.32880000  1.0 -0.0108956917
C  C101  1  0.77020000  0.23720000  0.76420000  1.0 -0.0188446557
C  C102  1  0.22980000  0.76280000  0.23580000  1.0 -0.0188446557
C  C103  1  0.86410000  0.12570000  0.68070000  1.0 -0.0303400664
C  C104  1  0.13590000  0.87430000  0.31930000  1.0 -0.0303400664
C  C105  1  0.74060000  0.08810000  0.60980000  1.0 0.0202732235
C  C106  1  0.25940000  0.91190000  0.39020000  1.0 0.0202732235
C  C107  1  0.62710000  0.23630000  0.51660000  1.0 0.0099727407
C  C108  1  0.37290000  0.76370000  0.48340000  1.0 0.0099727407
C  C109  1  0.70810000  0.35100000  0.54430000  1.0 -0.0481448756
C  C110  1  0.29190000  0.64900000  0.45570000  1.0 -0.0481448756
C  C111  1  0.93380000  0.22830000  0.80800000  1.0 -0.0396047301
C  C112  1  0.06620000  0.77170000  0.19200000  1.0 -0.0396047301
C  C113  1  0.01500000  0.33390000  0.82580000  1.0 -0.0303400664
C  C114  1  0.98500000  0.66610000  0.17420000  1.0 -0.0303400664
C  C115  1  0.68260000  0.85270000  0.70570000  1.0 -0.0396047301
C  C116  1  0.31740000  0.14730000  0.29430000  1.0 -0.0396047301
C  C117  1  0.79030000  0.90380000  0.79830000  1.0 -0.0108956917
C  C118  1  0.20970000  0.09620000  0.20170000  1.0 -0.0108956917
C  C119  1  0.85090000  0.65430000  0.73990000  1.0 -0.0025624538
C  C120  1  0.14910000  0.34570000  0.26010000  1.0 -0.0025624538
C  C121  1  0.73480000  0.58660000  0.67140000  1.0 0.0202732235
C  C122  1  0.26520000  0.41340000  0.32860000  1.0 0.0202732235
C  C123  1  0.72030000  0.79440000  0.61250000  1.0 -0.0108956917
C  C124  1  0.27970000  0.20560000  0.38750000  1.0 -0.0108956917
C  C125  1  0.63000000  0.68870000  0.56690000  1.0 -0.0188446557
C  C126  1  0.37000000  0.31130000  0.43310000  1.0 -0.0188446557
C  C127  1  0.55350000  0.71130000  0.71560000  1.0 -0.0303400664
C  C128  1  0.44650000  0.28870000  0.28440000  1.0 -0.0303400664
C  C129  1  0.52050000  0.61960000  0.64930000  1.0 -0.0188446557
C  C130  1  0.47950000  0.38040000  0.35070000  1.0 -0.0188446557
C  C131  1  0.11810000  0.32660000  0.09850000  1.0 -0.0586082307
C  C132  1  0.88190000  0.67340000  0.90150000  1.0 -0.0586082307
C  C133  1  0.07260000  0.21240000  0.06540000  1.0 -0.0732544163
C  C134  1  0.92740000  0.78760000  0.93460000  1.0 -0.0732544163
C  C135  1  0.01430000  0.48730000  0.58010000  1.0 -0.2284305306
C  C136  1  0.98570000  0.51270000  0.41990000  1.0 -0.2284305306
C  C137  1  0.91180000  0.44400000  0.48820000  1.0 -0.1705212196
C  C138  1  0.08820000  0.55600000  0.51180000  1.0 -0.1705212196
C  C139  1  0.79780000  0.17440000  0.44070000  1.0 -0.1705212196
C  C140  1  0.20220000  0.82560000  0.55930000  1.0 -0.1705212196
C  C141  1  0.68460000  0.11960000  0.43520000  1.0 -0.2284305306
C  C142  1  0.31540000  0.88040000  0.56480000  1.0 -0.2284305306
C  C143  1  0.62110000  0.16790000  0.68350000  1.0 -0.1801272182
C  C144  1  0.37890000  0.83210000  0.31650000  1.0 -0.1801272182
C  C145  1  0.72450000  0.23840000  0.78190000  1.0 -0.1984102265
C  C146  1  0.27550000  0.76160000  0.21810000  1.0 -0.1984102265
C  C147  1  0.85080000  0.07100000  0.70710000  1.0 -0.1801272182
C  C148  1  0.14920000  0.92900000  0.29290000  1.0 -0.1801272182
C  C149  1  0.72660000  0.03580000  0.63580000  1.0 -0.2104869881
C  C150  1  0.27340000  0.96420000  0.36420000  1.0 -0.2104869881
C  C151  1  0.57840000  0.24500000  0.46280000  1.0 -0.1887533815
C  C152  1  0.42160000  0.75500000  0.53720000  1.0 -0.1887533815
C  C153  1  0.66020000  0.36020000  0.49090000  1.0 -0.1705212196
C  C154  1  0.33980000  0.63980000  0.50910000  1.0 -0.1705212196
C  C155  1  0.95840000  0.22820000  0.87120000  1.0 -0.1705212196
C  C156  1  0.04160000  0.77180000  0.12880000  1.0 -0.1705212196
C  C157  1  0.04470000  0.33490000  0.89160000  1.0 -0.1600784714
C  C158  1  0.95530000  0.66510000  0.10840000  1.0 -0.1600784714
C  C159  1  0.69790000  0.90760000  0.68310000  1.0 -0.1408896604
C  C160  1  0.30210000  0.09240000  0.31690000  1.0 -0.1408896604
C  C161  1  0.80770000  0.96310000  0.77690000  1.0 -0.1600784714
C  C162  1  0.19230000  0.03690000  0.22310000  1.0 -0.1600784714
C  C163  1  0.87080000  0.60720000  0.74740000  1.0 -0.1984102265
C  C164  1  0.12920000  0.39280000  0.25260000  1.0 -0.1984102265
C  C165  1  0.74970000  0.53600000  0.67500000  1.0 -0.1801272182
C  C166  1  0.25030000  0.46400000  0.32500000  1.0 -0.1801272182
C  C167  1  0.73080000  0.80760000  0.55680000  1.0 -0.1705212196
C  C168  1  0.26920000  0.19240000  0.44320000  1.0 -0.1705212196
C  C169  1  0.64010000  0.69540000  0.51420000  1.0 -0.1600784714
C  C170  1  0.35990000  0.30460000  0.48580000  1.0 -0.1600784714
C  C171  1  0.49760000  0.71940000  0.66260000  1.0 -0.1887533815
C  C172  1  0.50240000  0.28060000  0.33740000  1.0 -0.1887533815
C  C173  1  0.47200000  0.62970000  0.60350000  1.0 -0.1801272182
C  C174  1  0.52800000  0.37030000  0.39650000  1.0 -0.1801272182
C  C175  1  0.08080000  0.32730000  0.02620000  1.0 -0.1705212196
C  C176  1  0.91920000  0.67270000  0.97380000  1.0 -0.1705212196
C  C177  1  0.04260000  0.21980000  0.00270000  1.0 -0.1408896604
C  C178  1  0.95740000  0.78020000  0.99730000  1.0 -0.1408896604
C  C179  1  0.97830000  0.48160000  0.51630000  1.0 0.0899460697
C  C180  1  0.02170000  0.51840000  0.48370000  1.0 0.0899460697
C  C181  1  0.73430000  0.11830000  0.41950000  1.0 0.1197656267
C  C182  1  0.26570000  0.88170000  0.58050000  1.0 0.1104572829
C  C183  1  0.64970000  0.20460000  0.74180000  1.0 0.1197656267
C  C184  1  0.35030000  0.79540000  0.25820000  1.0 0.1197656267
C  C185  1  0.77720000  0.02430000  0.68770000  1.0 0.129619207
C  C186  1  0.22280000  0.97570000  0.31230000  1.0 0.129619207
C  C187  1  0.59340000  0.30870000  0.44820000  1.0 0.1002473596
C  C188  1  0.40660000  0.69130000  0.55180000  1.0 0.1002473596
C  C189  1  0.01270000  0.28080000  0.91510000  1.0 0.0899460697
C  C190  1  0.98730000  0.71920000  0.08490000  1.0 0.0899460697
C  C191  1  0.75850000  0.96200000  0.71330000  1.0 0.0899460697
C  C192  1  0.24150000  0.03800000  0.28670000  1.0 0.0899460697
C  C193  1  0.81780000  0.54680000  0.71130000  1.0 0.1197656267
C  C194  1  0.18220000  0.45320000  0.28870000  1.0 0.1197656267
C  C195  1  0.68710000  0.75520000  0.50820000  1.0 0.1104572829
C  C196  1  0.31290000  0.24480000  0.49180000  1.0 0.1104572829
C  C197  1  0.45840000  0.67810000  0.60660000  1.0 0.1002473596
C  C198  1  0.54160000  0.32190000  0.39340000  1.0 0.1002473596
C  C199  1  0.04600000  0.27600000  0.98070000  1.0 0.0899460697
C  C200  1  0.95400000  0.72400000  0.01930000  1.0 0.0899460697
C  C201  1  0.72240000  0.05930000  0.38890000  1.0 0.0899460697
C  C202  1  0.27760000  0.94070000  0.61110000  1.0 0.0899460697
C  C203  1  0.59950000  0.20910000  0.75670000  1.0 0.0899460697
C  C204  1  0.40050000  0.79090000  0.24330000  1.0 0.0899460697
C  C205  1  0.83600000  0.48820000  0.71960000  1.0 0.0816569454
C  C206  1  0.16400000  0.51180000  0.28040000  1.0 0.0816569454
C  C207  1  0.69090000  0.76280000  0.44800000  1.0 0.1002473596
C  C208  1  0.30910000  0.23720000  0.55200000  1.0 0.1002473596
C  C209  1  0.65290000  0.02260000  0.33800000  1.0 -0.1887533815
C  C210  1  0.34710000  0.97740000  0.66200000  1.0 -0.1887533815
C  C211  1  0.76700000  0.03730000  0.40980000  1.0 -0.1600784714
C  C212  1  0.23300000  0.96270000  0.59020000  1.0 -0.1600784714
C  C213  1  0.61320000  0.22830000  0.81240000  1.0 -0.1600784714
C  C214  1  0.38680000  0.77170000  0.18760000  1.0 -0.1600784714
C  C215  1  0.53040000  0.19460000  0.70320000  1.0 -0.1600784714
C  C216  1  0.46960000  0.80540000  0.29680000  1.0 -0.1600784714
C  C217  1  0.90550000  0.50730000  0.73880000  1.0 -0.1801272182
C  C218  1  0.09450000  0.49270000  0.26120000  1.0 -0.1801272182
C  C219  1  0.78130000  0.43110000  0.70660000  1.0 -0.1281545558
C  C220  1  0.21870000  0.56890000  0.29340000  1.0 -0.1281545558
C  C221  1  0.63460000  0.72700000  0.39310000  1.0 -0.1474494287
C  C222  1  0.36540000  0.27300000  0.60690000  1.0 -0.1474494287
C  C223  1  0.75240000  0.81620000  0.44780000  1.0 -0.1408896604
C  C224  1  0.24760000  0.18380000  0.55220000  1.0 -0.1408896604
C  C225  1  0.63090000  0.96170000  0.30610000  1.0 -0.076948131
C  C226  1  0.36910000  0.03830000  0.69390000  1.0 -0.076948131
C  C227  1  0.74700000  0.97990000  0.37760000  1.0 0.0016948599
C  C228  1  0.25300000  0.02010000  0.62240000  1.0 0.0016948599
C  C229  1  0.56150000  0.23290000  0.82070000  1.0 -0.0303400664
C  C230  1  0.43850000  0.76710000  0.17930000  1.0 -0.0303400664
C  C231  1  0.47730000  0.20020000  0.71730000  1.0 -0.0025624538
C  C232  1  0.52270000  0.79980000  0.28270000  1.0 -0.0025624538
C  C233  1  0.91580000  0.45290000  0.73790000  1.0 -0.0396047301
C  C234  1  0.08420000  0.54710000  0.26210000  1.0 -0.0396047301
C  C235  1  0.79160000  0.38050000  0.71420000  1.0 -0.0586082307
C  C236  1  0.20840000  0.61950000  0.28580000  1.0 -0.0586082307
C  C237  1  0.64040000  0.73890000  0.33780000  1.0 0.0099727407
C  C238  1  0.35960000  0.26110000  0.66220000  1.0 0.0099727407
C  C239  1  0.75000000  0.82350000  0.39220000  1.0 -0.0108956917
C  C240  1  0.25000000  0.17650000  0.60780000  1.0 -0.0108956917
C  C241  1  0.76960000  0.65800000  0.37500000  1.0 0.5166296563
C  C242  1  0.23040000  0.34200000  0.62500000  1.0 0.5166296563
C  C243  1  0.63080000  0.90990000  0.47850000  1.0 0.5007402427
C  C244  1  0.36920000  0.09010000  0.52150000  1.0 0.5007402427
C  C245  1  0.09480000  0.00070000  0.36730000  1.0 0.5055073104
C  C246  1  0.90520000  0.99930000  0.63270000  1.0 0.5055073104
C  C247  1  0.93690000  0.87140000  0.16080000  1.0 0.5007402427
C  C248  1  0.06310000  0.12860000  0.83920000  1.0 0.5007402427
C  C249  1  0.20640000  0.31570000  0.92580000  1.0 0.4916552133
C  C250  1  0.79360000  0.68430000  0.07420000  1.0 0.4916552133
C  C251  1  0.55940000  0.32700000  0.60270000  1.0 0.4916552133
C  C252  1  0.44060000  0.67300000  0.39730000  1.0 0.4916552133
S  S1  1  0.72250000  0.59620000  0.30790000  1.0 0.9752968899
S  S2  1  0.27750000  0.40380000  0.69210000  1.0 0.9752968899
S  S3  1  0.55910000  0.85470000  0.49680000  1.0 0.990882372
S  S4  1  0.44090000  0.14530000  0.50320000  1.0 0.990882372
S  S5  1  0.08160000  0.03280000  0.42260000  1.0 0.990882372
S  S6  1  0.91840000  0.96720000  0.57740000  1.0 0.990882372
S  S7  1  0.96860000  0.92410000  0.11040000  1.0 0.990882372
S  S8  1  0.03140000  0.07590000  0.88960000  1.0 0.990882372
S  S9  1  0.26380000  0.39830000  0.96540000  1.0 0.9752968899
S  S10  1  0.73620000  0.60170000  0.03460000  1.0 0.9752968899
S  S11  1  0.56270000  0.37690000  0.65650000  1.0 0.990882372
S  S12  1  0.43730000  0.62310000  0.34350000  1.0 0.990882372
N  N1  1  0.20650000  0.14970000  0.76070000  1.0 0.299409936
N  N2  1  0.79350000  0.85030000  0.23930000  1.0 0.299409936
N  N3  1  0.22170000  0.99420000  0.76970000  1.0 0.3094059181
N  N4  1  0.77830000  0.00580000  0.23030000  1.0 0.3094059181
N  N5  1  0.35430000  0.13790000  0.92890000  1.0 0.3094059181
N  N6  1  0.64570000  0.86210000  0.07110000  1.0 0.3094059181
N  N7  1  0.45720000  0.08210000  0.87410000  1.0 0.2803481521
N  N8  1  0.54280000  0.91790000  0.12590000  1.0 0.2803481521
N  N9  1  0.43860000  0.29720000  0.85410000  1.0 0.299409936
N  N10  1  0.56140000  0.70280000  0.14590000  1.0 0.299409936
N  N11  1  0.98260000  0.28940000  0.63360000  1.0 0.3205037863
N  N12  1  0.01740000  0.71060000  0.36640000  1.0 0.3205037863
N  N13  1  0.88470000  0.84030000  0.75900000  1.0 0.299409936
N  N14  1  0.11530000  0.15970000  0.24100000  1.0 0.299409936
N  N15  1  0.26260000  0.25800000  0.10330000  1.0 0.3396364799
N  N16  1  0.73740000  0.74200000  0.89670000  1.0 0.3396364799
N  N17  1  0.67920000  0.57050000  0.79970000  1.0 0.3476930908
N  N18  1  0.32080000  0.42950000  0.20030000  1.0 0.3476930908
N  N19  1  0.90690000  0.41700000  0.58210000  1.0 0.2803481521
N  N20  1  0.09310000  0.58300000  0.41790000  1.0 0.2803481521
N  N21  1  0.76020000  0.21830000  0.48680000  1.0 0.2803481521
N  N22  1  0.23980000  0.78170000  0.51320000  1.0 0.2803481521
N  N23  1  0.74660000  0.20610000  0.71040000  1.0 0.3094059181
N  N24  1  0.25340000  0.79390000  0.28960000  1.0 0.3094059181
N  N25  1  0.80690000  0.13130000  0.63240000  1.0 0.2706669918
N  N26  1  0.19310000  0.86870000  0.36760000  1.0 0.2706669918
N  N27  1  0.68650000  0.28510000  0.55600000  1.0 0.3094059181
N  N28  1  0.31350000  0.71490000  0.44400000  1.0 0.3094059181
N  N29  1  0.96360000  0.28060000  0.78570000  1.0 0.3288090355
N  N30  1  0.03640000  0.71940000  0.21430000  1.0 0.3288090355
N  N31  1  0.73020000  0.85210000  0.76480000  1.0 0.3288090355
N  N32  1  0.26980000  0.14790000  0.23520000  1.0 0.3288090355
N  N33  1  0.78340000  0.64000000  0.70340000  1.0 0.2570720515
N  N34  1  0.21660000  0.36000000  0.29660000  1.0 0.2570720515
N  N35  1  0.67500000  0.73670000  0.61580000  1.0 0.3205037863
N  N36  1  0.32500000  0.26330000  0.38420000  1.0 0.3205037863
N  N37  1  0.56370000  0.66190000  0.70200000  1.0 0.3094059181
N  N38  1  0.43630000  0.33810000  0.29800000  1.0 0.3094059181
N  N39  1  0.10760000  0.26680000  0.10900000  1.0 0.3661903045
N  N40  1  0.89240000  0.73320000  0.89100000  1.0 0.3661903045
N  N41  1  0.68580000  0.94540000  0.33333333  1.0 0.3094059181
N  N42  1  0.31420000  0.05460000  0.66666667  1.0 0.3094059181
N  N43  1  0.49760000  0.22040000  0.77500000  1.0 0.3205037863
N  N44  1  0.50240000  0.77960000  0.22500000  1.0 0.3205037863
N  N45  1  0.85900000  0.39190000  0.72360000  1.0 0.3607419333
N  N46  1  0.14100000  0.60810000  0.27640000  1.0 0.3607419333
N  N47  1  0.69630000  0.78680000  0.33890000  1.0 0.2852787873
N  N48  1  0.30370000  0.21320000  0.66110000  1.0 0.2852787873
O  O1  1  0.24530000  0.12000000  0.78950000  1.0 -0.6101147233
O  O2  1  0.75470000  0.88000000  0.21050000  1.0 -0.6101147233
O  O3  1  0.28380000  0.03100000  0.77190000  1.0 -0.5495365029
O  O4  1  0.71620000  0.96900000  0.22810000  1.0 -0.5495365029
O  O5  1  0.37020000  0.11780000  0.89210000  1.0 -0.6101147233
O  O6  1  0.62980000  0.88220000  0.10790000  1.0 -0.6101147233
O  O7  1  0.43940000  0.11320000  0.82510000  1.0 -0.6176465401
O  O8  1  0.56060000  0.88680000  0.17490000  1.0 -0.6176465401
O  O9  1  0.39000000  0.23680000  0.85440000  1.0 -0.6329702535
O  O10  1  0.61000000  0.76320000  0.14560000  1.0 -0.6329702535
O  O11  1  0.33010000  0.10870000  0.69370000  1.0 -0.5975376704
O  O12  1  0.66990000  0.89130000  0.30630000  1.0 -0.5975376704
O  O13  1  0.45300000  0.22830000  0.78550000  1.0 -0.5620493824
O  O14  1  0.54700000  0.77170000  0.21450000  1.0 -0.5620493824
O  O15  1  0.30130000  0.20200000  0.71650000  1.0 -0.6329702535
O  O16  1  0.69870000  0.79800000  0.28350000  1.0 -0.6329702535
O  O17  1  0.93790000  0.31320000  0.61250000  1.0 -0.5875448012
O  O18  1  0.06210000  0.68680000  0.38750000  1.0 -0.5875448012
O  O19  1  0.82000000  0.81640000  0.75470000  1.0 -0.6101147233
O  O20  1  0.18000000  0.18360000  0.24530000  1.0 -0.6101147233
O  O21  1  0.24130000  0.28490000  0.12880000  1.0 -0.5975376704
O  O22  1  0.75870000  0.71510000  0.87120000  1.0 -0.5975376704
O  O23  1  0.72550000  0.61800000  0.78600000  1.0 -0.5875448012
O  O24  1  0.27450000  0.38200000  0.21400000  1.0 -0.5875448012
O  O25  1  0.87090000  0.38570000  0.61570000  1.0 -0.6521788934
O  O26  1  0.12910000  0.61430000  0.38430000  1.0 -0.6521788934
O  O27  1  0.78030000  0.26820000  0.52640000  1.0 -0.6176465401
O  O28  1  0.21970000  0.73180000  0.47360000  1.0 -0.6176465401
O  O29  1  0.79260000  0.20600000  0.69290000  1.0 -0.6329702535
O  O30  1  0.20740000  0.79400000  0.30710000  1.0 -0.6329702535
O  O31  1  0.82400000  0.18750000  0.60350000  1.0 -0.7010934749
O  O32  1  0.17600000  0.81250000  0.39650000  1.0 -0.7010934749
O  O33  1  0.73600000  0.27940000  0.60920000  1.0 -0.5975376704
O  O34  1  0.26400000  0.72060000  0.39080000  1.0 -0.5975376704
O  O35  1  0.94210000  0.27940000  0.72480000  1.0 -0.5975376704
O  O36  1  0.05790000  0.72060000  0.27520000  1.0 -0.5975376704
O  O37  1  0.87120000  0.34320000  0.72590000  1.0 -0.5975376704
O  O38  1  0.12880000  0.65680000  0.27410000  1.0 -0.5975376704
O  O39  1  0.71750000  0.79750000  0.78720000  1.0 -0.5875448012
O  O40  1  0.28250000  0.20250000  0.21280000  1.0 -0.5875448012
O  O41  1  0.76870000  0.69050000  0.69820000  1.0 -0.6754844585
O  O42  1  0.23130000  0.30950000  0.30180000  1.0 -0.6754844585
O  O43  1  0.66480000  0.72580000  0.66690000  1.0 -0.6393639841
O  O44  1  0.33520000  0.27420000  0.33310000  1.0 -0.6393639841
O  O45  1  0.62330000  0.66190000  0.75380000  1.0 -0.6393639841
O  O46  1  0.37670000  0.33810000  0.24620000  1.0 -0.6393639841
O  O47  1  0.86140000  0.73540000  0.83170000  1.0 -0.5213492611
O  O48  1  0.13860000  0.26460000  0.16830000  1.0 -0.5213492611
O  O49  1  0.65400000  0.55170000  0.30610000  1.0 -0.5620493824
O  O50  1  0.76860000  0.56850000  0.32140000  1.0 -0.5495365029
O  O51  1  0.71400000  0.62880000  0.25350000  1.0 -0.5495365029
O  O52  1  0.34600000  0.44830000  0.69390000  1.0 -0.5620493824
O  O53  1  0.23140000  0.43150000  0.67860000  1.0 -0.5430880883
O  O54  1  0.28600000  0.37120000  0.74650000  1.0 -0.5495365029
O  O55  1  0.55550000  0.89450000  0.53440000  1.0 -0.5693800216
O  O56  1  0.49420000  0.82550000  0.43620000  1.0 -0.5693800216
O  O57  1  0.58190000  0.81010000  0.53060000  1.0 -0.5495365029
O  O58  1  0.44450000  0.10550000  0.46560000  1.0 -0.5693800216
O  O59  1  0.50580000  0.17450000  0.56380000  1.0 -0.5693800216
O  O60  1  0.41810000  0.18990000  0.46940000  1.0 -0.5495365029
O  O61  1  0.00870000  0.98860000  0.41020000  1.0 -0.5620493824
O  O62  1  0.09290000  0.09560000  0.40750000  1.0 -0.5693800216
O  O63  1  0.13640000  0.03430000  0.48460000  1.0 -0.5785720447
O  O64  1  0.99130000  0.01140000  0.58980000  1.0 -0.5693800216
O  O65  1  0.90710000  0.90440000  0.59250000  1.0 -0.5693800216
O  O66  1  0.86360000  0.96570000  0.51540000  1.0 -0.5785720447
O  O67  1  0.96800000  0.88570000  0.06870000  1.0 -0.5620493824
O  O68  1  0.91570000  0.94650000  0.07780000  1.0 -0.5785720447
O  O69  1  0.03930000  0.97540000  0.15250000  1.0 -0.5693800216
O  O70  1  0.03200000  0.11430000  0.93130000  1.0 -0.5620493824
O  O71  1  0.08430000  0.05350000  0.92220000  1.0 -0.5785720447
O  O72  1  0.96070000  0.02460000  0.84750000  1.0 -0.5693800216
O  O73  1  0.28270000  0.43540000  0.92020000  1.0 -0.5213492611
O  O74  1  0.32490000  0.39920000  0.02100000  1.0 -0.5495365029
O  O75  1  0.21870000  0.41200000  0.97960000  1.0 -0.5620493824
O  O76  1  0.71730000  0.56460000  0.07980000  1.0 -0.5213492611
O  O77  1  0.67510000  0.60080000  0.97900000  1.0 -0.5495365029
O  O78  1  0.78130000  0.58800000  0.02040000  1.0 -0.5620493824
O  O79  1  0.53860000  0.33570000  0.69740000  1.0 -0.5620493824
O  O80  1  0.51410000  0.40160000  0.61710000  1.0 -0.5785720447
O  O81  1  0.63760000  0.42670000  0.69000000  1.0 -0.5875448012
O  O82  1  0.46140000  0.66430000  0.30260000  1.0 -0.5620493824
O  O83  1  0.48590000  0.59840000  0.38290000  1.0 -0.5785720447
O  O84  1  0.36240000  0.57330000  0.31000000  1.0 -0.5875448012
F  F1  1  0.73070000  0.68560000  0.36680000  1.0 -0.1801272182
F  F2  1  0.83300000  0.70140000  0.38110000  1.0 -0.1887533815
F  F3  1  0.78000000  0.63260000  0.42740000  1.0 -0.1474494287
F  F4  1  0.26930000  0.31440000  0.63320000  1.0 -0.1801272182
F  F5  1  0.16700000  0.29860000  0.61890000  1.0 -0.1887533815
F  F6  1  0.22000000  0.36740000  0.57260000  1.0 -0.1474494287
F  F7  1  0.63470000  0.87950000  0.43990000  1.0 -0.1600784714
F  F8  1  0.69320000  0.93610000  0.53070000  1.0 -0.1801272182
F  F9  1  0.61640000  0.95520000  0.45110000  1.0 -0.1887533815
F  F10  1  0.36530000  0.12050000  0.56010000  1.0 -0.1600784714
F  F11  1  0.30680000  0.06390000  0.46930000  1.0 -0.1801272182
F  F12  1  0.38360000  0.04480000  0.54890000  1.0 -0.1887533815
F  F13  1  0.15590000  0.04220000  0.36810000  1.0 -0.1705212196
F  F14  1  0.09700000  0.94750000  0.38360000  1.0 -0.1801272182
F  F15  1  0.04090000  0.98820000  0.30990000  1.0 -0.1705212196
F  F16  1  0.84410000  0.95780000  0.63190000  1.0 -0.1705212196
F  F17  1  0.90300000  0.05250000  0.61640000  1.0 -0.1801272182
F  F18  1  0.95910000  0.01180000  0.69010000  1.0 -0.1705212196
F  F19  1  0.97810000  0.84520000  0.19100000  1.0 -0.1801272182
F  F20  1  0.86950000  0.82620000  0.12620000  1.0 -0.1801272182
F  F21  1  0.93900000  0.90430000  0.20220000  1.0 -0.1705212196
F  F22  1  0.02190000  0.15480000  0.80900000  1.0 -0.1801272182
F  F23  1  0.13050000  0.17380000  0.87380000  1.0 -0.1801272182
F  F24  1  0.06100000  0.09570000  0.79780000  1.0 -0.1705212196
F  F25  1  0.24600000  0.29440000  0.92120000  1.0 -0.1801272182
F  F26  1  0.15600000  0.31220000  0.86900000  1.0 -0.1801272182
F  F27  1  0.17520000  0.28000000  0.95860000  1.0 -0.1705212196
F  F28  1  0.75400000  0.70560000  0.07880000  1.0 -0.1801272182
F  F29  1  0.84400000  0.68780000  0.13100000  1.0 -0.1801272182
F  F30  1  0.82480000  0.72000000  0.04140000  1.0 -0.1705212196
F  F31  1  0.60360000  0.30350000  0.63380000  1.0 -0.1705212196
F  F32  1  0.57920000  0.36060000  0.56260000  1.0 -0.1887533815
F  F33  1  0.49290000  0.27910000  0.57060000  1.0 -0.1705212196
F  F34  1  0.39640000  0.69650000  0.36620000  1.0 -0.1705212196
F  F35  1  0.42080000  0.63940000  0.43740000  1.0 -0.1887533815
F  F36  1  0.50710000  0.72090000  0.42940000  1.0 -0.1705212196
