# DDEC6 charges by PACMAN v1.1 (https://github.com/mtap-research/PACMAN-charge/)
data_BOBDII_FSR_pacman
_symmetry_space_group_name_H-M   'P 1'
_cell_length_a   33.47410000
_cell_length_b   33.47410000
_cell_length_c   33.47410000
_cell_angle_alpha   110.50900000
_cell_angle_beta   110.50900000
_cell_angle_gamma   107.41500000
_symmetry_Int_Tables_number   1
_chemical_formula_structural   NaU6Ni2H36C72(N3O10)4
_chemical_formula_sum   'Na8 U48 Ni16 H288 C576 N96 O320'
_cell_volume   28846.10135856
_cell_formula_units_Z   8
loop_
 _symmetry_equiv_pos_site_id
 _symmetry_equiv_pos_as_xyz
  1  'x, y, z'
loop_
 _atom_site_type_symbol
 _atom_site_label
 _atom_site_symmetry_multiplicity
 _atom_site_fract_x
 _atom_site_fract_y
 _atom_site_fract_z
 _atom_site_occupancy
 _atom_site_charge
Na  Na1  1  0.39980000  0.39980000  0.00000000  1.0 0.8997962164
Na  Na2  1  0.14980000  0.64980000  0.50000000  1.0 0.8997962164
Na  Na3  1  0.85020000  0.35020000  0.50000000  1.0 0.8997962164
Na  Na4  1  0.10020000  0.10020000  0.00000000  1.0 0.8997962164
Na  Na5  1  0.35020000  0.85020000  0.50000000  1.0 0.8997962164
Na  Na6  1  0.60020000  0.60020000  0.00000000  1.0 0.8997962164
Na  Na7  1  0.89980000  0.89980000  0.00000000  1.0 0.8997962164
Na  Na8  1  0.64980000  0.14980000  0.50000000  1.0 0.8997962164
U  U1  1  0.34991000  0.44455000  0.17440000  1.0 2.5796025457
U  U2  1  0.39279000  0.35321000  0.16900000  1.0 2.5796025457
U  U3  1  0.44889000  0.45067000  0.13878000  1.0 2.5303763585
U  U4  1  0.27015000  0.17551000  0.82560000  1.0 2.5796025457
U  U5  1  0.18421000  0.22379000  0.83100000  1.0 2.5796025457
U  U6  1  0.31189000  0.31011000  0.86122000  1.0 2.5303763585
U  U7  1  0.92551000  0.59991000  0.40536000  1.0 2.5796025457
U  U8  1  0.97379000  0.64279000  0.53958000  1.0 2.5796025457
U  U9  1  0.06011000  0.69889000  0.49822000  1.0 2.5303763585
U  U10  1  0.19455000  0.52015000  0.59464000  1.0 2.5796025457
U  U11  1  0.10321000  0.43421000  0.46042000  1.0 2.5796025457
U  U12  1  0.20067000  0.56189000  0.50178000  1.0 2.5303763585
U  U13  1  0.90009000  0.57449000  0.59464000  1.0 2.5796025457
U  U14  1  0.85721000  0.52621000  0.46042000  1.0 2.5796025457
U  U15  1  0.80111000  0.43989000  0.50178000  1.0 2.5303763585
U  U16  1  0.97985000  0.30545000  0.40536000  1.0 2.5796025457
U  U17  1  0.06579000  0.39679000  0.53958000  1.0 2.5796025457
U  U18  1  0.93811000  0.29933000  0.49822000  1.0 2.5303763585
U  U19  1  0.32449000  0.22985000  0.17440000  1.0 2.5796025457
U  U20  1  0.27621000  0.31579000  0.16900000  1.0 2.5796025457
U  U21  1  0.18989000  0.18811000  0.13878000  1.0 2.5303763585
U  U22  1  0.05545000  0.15009000  0.82560000  1.0 2.5796025457
U  U23  1  0.14679000  0.10721000  0.83100000  1.0 2.5796025457
U  U24  1  0.04933000  0.05111000  0.86122000  1.0 2.5303763585
U  U25  1  0.40009000  0.80545000  0.32560000  1.0 2.5796025457
U  U26  1  0.35721000  0.89679000  0.33100000  1.0 2.5796025457
U  U27  1  0.30111000  0.79933000  0.36122000  1.0 2.5303763585
U  U28  1  0.47985000  0.07449000  0.67440000  1.0 2.5796025457
U  U29  1  0.56579000  0.02621000  0.66900000  1.0 2.5796025457
U  U30  1  0.43811000  0.93989000  0.63878000  1.0 2.5303763585
U  U31  1  0.82449000  0.65009000  0.09464000  1.0 2.5796025457
U  U32  1  0.77621000  0.60721000  0.96042000  1.0 2.5796025457
U  U33  1  0.68989000  0.55111000  0.00178000  1.0 2.5303763585
U  U34  1  0.55545000  0.72985000  0.90536000  1.0 2.5796025457
U  U35  1  0.64679000  0.81579000  0.03958000  1.0 2.5796025457
U  U36  1  0.54933000  0.68811000  0.99822000  1.0 2.5303763585
U  U37  1  0.84991000  0.67551000  0.90536000  1.0 2.5796025457
U  U38  1  0.89279000  0.72379000  0.03958000  1.0 2.5796025457
U  U39  1  0.94889000  0.81011000  0.99822000  1.0 2.5303763585
U  U40  1  0.77015000  0.94455000  0.09464000  1.0 2.5796025457
U  U41  1  0.68421000  0.85321000  0.96042000  1.0 2.5796025457
U  U42  1  0.81189000  0.95067000  0.00178000  1.0 2.5303763585
U  U43  1  0.42551000  0.02015000  0.32560000  1.0 2.5796025457
U  U44  1  0.47379000  0.93421000  0.33100000  1.0 2.5796025457
U  U45  1  0.56011000  0.06189000  0.36122000  1.0 2.5303763585
U  U46  1  0.69455000  0.09991000  0.67440000  1.0 2.5796025457
U  U47  1  0.60321000  0.14279000  0.66900000  1.0 2.5796025457
U  U48  1  0.70067000  0.19889000  0.63878000  1.0 2.5303763585
Ni  Ni1  1  0.52458000  0.70957000  0.19895000  1.0 0.4226816228
Ni  Ni2  1  0.51062000  0.32563000  0.80105000  1.0 0.4226816228
Ni  Ni3  1  0.07563000  0.77458000  0.31501000  1.0 0.4226816228
Ni  Ni4  1  0.45957000  0.76062000  0.68499000  1.0 0.4226816228
Ni  Ni5  1  0.72542000  0.42437000  0.68499000  1.0 0.4226816228
Ni  Ni6  1  0.73938000  0.04043000  0.31501000  1.0 0.4226816228
Ni  Ni7  1  0.17437000  0.98938000  0.19895000  1.0 0.4226816228
Ni  Ni8  1  0.79043000  0.97542000  0.80105000  1.0 0.4226816228
Ni  Ni9  1  0.22542000  0.54043000  0.30105000  1.0 0.4226816228
Ni  Ni10  1  0.23938000  0.92437000  0.69895000  1.0 0.4226816228
Ni  Ni11  1  0.67437000  0.47542000  0.18499000  1.0 0.4226816228
Ni  Ni12  1  0.29043000  0.48938000  0.81501000  1.0 0.4226816228
Ni  Ni13  1  0.02458000  0.82563000  0.81501000  1.0 0.4226816228
Ni  Ni14  1  0.01062000  0.20957000  0.18499000  1.0 0.4226816228
Ni  Ni15  1  0.57563000  0.26062000  0.30105000  1.0 0.4226816228
Ni  Ni16  1  0.95957000  0.27458000  0.69895000  1.0 0.4226816228
H  H1  1  0.52962000  0.41641000  0.23595000  1.0 0.1592509806
H  H2  1  0.61081000  0.47002000  0.29983000  1.0 0.1396720043
H  H3  1  0.66928000  0.49297000  0.27873000  1.0 0.1180388356
H  H4  1  0.64499000  0.39679000  0.07924000  1.0 0.1138555127
H  H5  1  0.57396000  0.35097000  0.00221000  1.0 0.1396720043
H  H6  1  0.50428000  0.35203000  0.99993000  1.0 0.1482840582
H  H7  1  0.15052000  0.35691000  0.13489000  1.0 0.1482840582
H  H8  1  0.09606000  0.37963000  0.14837000  1.0 0.1396720043
H  H9  1  0.12451000  0.45680000  0.21239000  1.0 0.1180388356
H  H10  1  0.34130000  0.58966000  0.36814000  1.0 0.1138555127
H  H11  1  0.39895000  0.61470000  0.34677000  1.0 0.1482840582
H  H12  1  0.37754000  0.57936000  0.26522000  1.0 0.1396720043
H  H13  1  0.43866000  0.56177000  0.23487000  1.0 0.1482840582
H  H14  1  0.49867000  0.63920000  0.30285000  1.0 0.1482840582
H  H15  1  0.53793000  0.69716000  0.28817000  1.0 0.1180388356
H  H16  1  0.47951000  0.67641000  0.08668000  1.0 0.1180388356
H  H17  1  0.45603000  0.60799000  0.01590000  1.0 0.1482840582
H  H18  1  0.45291000  0.53985000  0.01980000  1.0 0.1482840582
H  H19  1  0.18046000  0.29367000  0.76405000  1.0 0.1482840582
H  H20  1  0.17019000  0.31098000  0.70017000  1.0 0.1396720043
H  H21  1  0.21424000  0.39055000  0.72127000  1.0 0.1180388356
H  H22  1  0.31755000  0.56575000  0.92076000  1.0 0.1138555127
H  H23  1  0.34876000  0.57175000  0.99779000  1.0 0.1396720043
H  H24  1  0.35210000  0.50435000  0.00007000  1.0 0.1482840582
H  H25  1  0.22202000  0.01563000  0.86511000  1.0 0.1482840582
H  H26  1  0.23126000  0.94769000  0.85163000  1.0 0.1396720043
H  H27  1  0.24441000  0.91212000  0.78761000  1.0 0.1180388356
H  H28  1  0.22152000  0.97316000  0.63186000  1.0 0.1138555127
H  H29  1  0.26793000  0.05218000  0.65323000  1.0 0.1482840582
H  H30  1  0.31414000  0.11232000  0.73478000  1.0 0.1396720043
H  H31  1  0.32690000  0.20379000  0.76513000  1.0 0.1482840582
H  H32  1  0.33635000  0.19582000  0.69715000  1.0 0.1482840582
H  H33  1  0.40899000  0.24976000  0.71183000  1.0 0.1180388356
H  H34  1  0.58973000  0.39283000  0.91332000  1.0 0.1180388356
H  H35  1  0.59209000  0.44013000  0.98410000  1.0 0.1482840582
H  H36  1  0.52005000  0.43311000  0.98020000  1.0 0.1482840582
H  H37  1  0.04367000  0.77962000  0.61321000  1.0 0.1592509806
H  H38  1  0.06098000  0.86081000  0.64079000  1.0 0.1396720043
H  H39  1  0.14055000  0.91928000  0.67631000  1.0 0.1180388356
H  H40  1  0.31575000  0.89499000  0.74820000  1.0 0.1138555127
H  H41  1  0.32175000  0.82396000  0.72299000  1.0 0.1396720043
H  H42  1  0.25435000  0.75428000  0.65225000  1.0 0.1482840582
H  H43  1  0.76563000  0.40052000  0.29361000  1.0 0.1482840582
H  H44  1  0.69769000  0.34606000  0.21643000  1.0 0.1396720043
H  H45  1  0.66212000  0.37451000  0.16771000  1.0 0.1180388356
H  H46  1  0.72316000  0.59130000  0.25164000  1.0 0.1138555127
H  H47  1  0.80218000  0.64895000  0.28425000  1.0 0.1482840582
H  H48  1  0.86232000  0.62754000  0.29818000  1.0 0.1396720043
H  H49  1  0.95379000  0.68866000  0.37689000  1.0 0.1482840582
H  H50  1  0.94582000  0.74867000  0.35947000  1.0 0.1482840582
H  H51  1  0.99976000  0.78793000  0.34077000  1.0 0.1180388356
H  H52  1  0.14283000  0.72951000  0.30310000  1.0 0.1180388356
H  H53  1  0.19013000  0.70603000  0.34804000  1.0 0.1482840582
H  H54  1  0.18311000  0.70291000  0.41306000  1.0 0.1482840582
H  H55  1  0.16641000  0.43046000  0.38679000  1.0 0.1482840582
H  H56  1  0.22002000  0.42019000  0.35921000  1.0 0.1396720043
H  H57  1  0.24297000  0.46424000  0.32369000  1.0 0.1180388356
H  H58  1  0.14679000  0.56755000  0.25180000  1.0 0.1138555127
H  H59  1  0.10097000  0.59876000  0.27701000  1.0 0.1396720043
H  H60  1  0.10203000  0.60210000  0.34775000  1.0 0.1482840582
H  H61  1  0.10691000  0.47202000  0.70639000  1.0 0.1482840582
H  H62  1  0.12963000  0.48126000  0.78357000  1.0 0.1396720043
H  H63  1  0.20680000  0.49441000  0.83229000  1.0 0.1180388356
H  H64  1  0.33966000  0.47152000  0.74836000  1.0 0.1138555127
H  H65  1  0.36470000  0.51793000  0.71575000  1.0 0.1482840582
H  H66  1  0.32936000  0.56414000  0.70182000  1.0 0.1396720043
H  H67  1  0.31177000  0.57690000  0.62311000  1.0 0.1482840582
H  H68  1  0.38920000  0.58635000  0.64053000  1.0 0.1482840582
H  H69  1  0.44716000  0.65899000  0.65923000  1.0 0.1180388356
H  H70  1  0.42641000  0.83973000  0.69690000  1.0 0.1180388356
H  H71  1  0.35799000  0.84209000  0.65196000  1.0 0.1482840582
H  H72  1  0.28985000  0.77005000  0.58694000  1.0 0.1482840582
H  H73  1  0.72038000  0.45633000  0.38679000  1.0 0.1592509806
H  H74  1  0.63919000  0.43902000  0.35921000  1.0 0.1396720043
H  H75  1  0.58072000  0.35945000  0.32369000  1.0 0.1180388356
H  H76  1  0.60501000  0.18425000  0.25180000  1.0 0.1138555127
H  H77  1  0.67604000  0.17825000  0.27701000  1.0 0.1396720043
H  H78  1  0.74572000  0.24565000  0.34775000  1.0 0.1482840582
H  H79  1  0.09948000  0.73437000  0.70639000  1.0 0.1482840582
H  H80  1  0.15394000  0.80231000  0.78357000  1.0 0.1396720043
H  H81  1  0.12549000  0.83788000  0.83229000  1.0 0.1180388356
H  H82  1  0.90870000  0.77684000  0.74836000  1.0 0.1138555127
H  H83  1  0.85105000  0.69782000  0.71575000  1.0 0.1482840582
H  H84  1  0.87246000  0.63768000  0.70182000  1.0 0.1396720043
H  H85  1  0.81134000  0.54621000  0.62311000  1.0 0.1482840582
H  H86  1  0.75133000  0.55418000  0.64053000  1.0 0.1482840582
H  H87  1  0.71207000  0.50024000  0.65923000  1.0 0.1180388356
H  H88  1  0.77049000  0.35717000  0.69690000  1.0 0.1180388356
H  H89  1  0.79397000  0.30987000  0.65196000  1.0 0.1482840582
H  H90  1  0.79709000  0.31689000  0.58694000  1.0 0.1482840582
H  H91  1  0.06954000  0.33359000  0.61321000  1.0 0.1482840582
H  H92  1  0.07981000  0.27998000  0.64079000  1.0 0.1396720043
H  H93  1  0.03576000  0.25703000  0.67631000  1.0 0.1180388356
H  H94  1  0.93245000  0.35321000  0.74820000  1.0 0.1138555127
H  H95  1  0.90124000  0.39903000  0.72299000  1.0 0.1396720043
H  H96  1  0.89790000  0.39797000  0.65225000  1.0 0.1482840582
H  H97  1  0.02798000  0.39309000  0.29361000  1.0 0.1482840582
H  H98  1  0.01874000  0.37037000  0.21643000  1.0 0.1396720043
H  H99  1  0.00559000  0.29320000  0.16771000  1.0 0.1180388356
H  H100  1  0.02848000  0.16034000  0.25164000  1.0 0.1138555127
H  H101  1  0.98207000  0.13530000  0.28425000  1.0 0.1482840582
H  H102  1  0.93586000  0.17064000  0.29818000  1.0 0.1396720043
H  H103  1  0.92310000  0.18823000  0.37689000  1.0 0.1482840582
H  H104  1  0.91365000  0.11080000  0.35947000  1.0 0.1482840582
H  H105  1  0.84101000  0.05284000  0.34077000  1.0 0.1180388356
H  H106  1  0.66027000  0.07359000  0.30310000  1.0 0.1180388356
H  H107  1  0.65791000  0.14201000  0.34804000  1.0 0.1482840582
H  H108  1  0.72995000  0.21015000  0.41306000  1.0 0.1482840582
H  H109  1  0.20633000  0.31954000  0.23595000  1.0 0.1592509806
H  H110  1  0.18902000  0.32981000  0.29983000  1.0 0.1396720043
H  H111  1  0.10945000  0.28576000  0.27873000  1.0 0.1180388356
H  H112  1  0.93425000  0.18245000  0.07924000  1.0 0.1138555127
H  H113  1  0.92825000  0.15124000  0.00221000  1.0 0.1396720043
H  H114  1  0.99565000  0.14790000  0.99993000  1.0 0.1482840582
H  H115  1  0.48437000  0.27798000  0.13489000  1.0 0.1482840582
H  H116  1  0.55231000  0.26874000  0.14837000  1.0 0.1396720043
H  H117  1  0.58788000  0.25559000  0.21239000  1.0 0.1180388356
H  H118  1  0.52684000  0.27848000  0.36814000  1.0 0.1138555127
H  H119  1  0.44782000  0.23207000  0.34677000  1.0 0.1482840582
H  H120  1  0.38768000  0.18586000  0.26522000  1.0 0.1396720043
H  H121  1  0.29621000  0.17310000  0.23487000  1.0 0.1482840582
H  H122  1  0.30418000  0.16365000  0.30285000  1.0 0.1482840582
H  H123  1  0.25024000  0.09101000  0.28817000  1.0 0.1180388356
H  H124  1  0.10717000  0.91027000  0.08668000  1.0 0.1180388356
H  H125  1  0.05987000  0.90791000  0.01590000  1.0 0.1482840582
H  H126  1  0.06689000  0.97995000  0.01980000  1.0 0.1482840582
H  H127  1  0.08359000  0.97038000  0.76405000  1.0 0.1482840582
H  H128  1  0.02998000  0.88919000  0.70017000  1.0 0.1396720043
H  H129  1  0.00703000  0.83072000  0.72127000  1.0 0.1180388356
H  H130  1  0.10321000  0.85501000  0.92076000  1.0 0.1138555127
H  H131  1  0.14903000  0.92604000  0.99779000  1.0 0.1396720043
H  H132  1  0.14797000  0.99572000  0.00007000  1.0 0.1482840582
H  H133  1  0.14309000  0.34948000  0.86511000  1.0 0.1482840582
H  H134  1  0.12037000  0.40394000  0.85163000  1.0 0.1396720043
H  H135  1  0.04320000  0.37549000  0.78761000  1.0 0.1180388356
H  H136  1  0.91034000  0.15870000  0.63186000  1.0 0.1138555127
H  H137  1  0.88530000  0.10105000  0.65323000  1.0 0.1482840582
H  H138  1  0.92064000  0.12246000  0.73478000  1.0 0.1396720043
H  H139  1  0.93823000  0.06134000  0.76513000  1.0 0.1482840582
H  H140  1  0.86080000  0.00133000  0.69715000  1.0 0.1482840582
H  H141  1  0.80284000  0.96207000  0.71183000  1.0 0.1180388356
H  H142  1  0.82359000  0.02049000  0.91332000  1.0 0.1180388356
H  H143  1  0.89201000  0.04397000  0.98410000  1.0 0.1482840582
H  H144  1  0.96015000  0.04709000  0.98020000  1.0 0.1482840582
H  H145  1  0.22038000  0.83359000  0.26405000  1.0 0.1592509806
H  H146  1  0.13919000  0.77998000  0.20017000  1.0 0.1396720043
H  H147  1  0.08072000  0.75703000  0.22127000  1.0 0.1180388356
H  H148  1  0.10501000  0.85321000  0.42076000  1.0 0.1138555127
H  H149  1  0.17604000  0.89903000  0.49779000  1.0 0.1396720043
H  H150  1  0.24572000  0.89797000  0.50007000  1.0 0.1482840582
H  H151  1  0.59948000  0.89309000  0.36511000  1.0 0.1482840582
H  H152  1  0.65394000  0.87037000  0.35163000  1.0 0.1396720043
H  H153  1  0.62549000  0.79320000  0.28761000  1.0 0.1180388356
H  H154  1  0.40870000  0.66034000  0.13186000  1.0 0.1138555127
H  H155  1  0.35105000  0.63530000  0.15323000  1.0 0.1482840582
H  H156  1  0.37246000  0.67064000  0.23478000  1.0 0.1396720043
H  H157  1  0.31134000  0.68823000  0.26513000  1.0 0.1482840582
H  H158  1  0.25133000  0.61080000  0.19715000  1.0 0.1482840582
H  H159  1  0.21207000  0.55284000  0.21183000  1.0 0.1180388356
H  H160  1  0.27049000  0.57359000  0.41332000  1.0 0.1180388356
H  H161  1  0.29397000  0.64201000  0.48410000  1.0 0.1482840582
H  H162  1  0.29709000  0.71015000  0.48020000  1.0 0.1482840582
H  H163  1  0.56954000  0.95633000  0.73595000  1.0 0.1482840582
H  H164  1  0.57981000  0.93902000  0.79983000  1.0 0.1396720043
H  H165  1  0.53576000  0.85945000  0.77873000  1.0 0.1180388356
H  H166  1  0.43245000  0.68425000  0.57924000  1.0 0.1138555127
H  H167  1  0.40124000  0.67825000  0.50221000  1.0 0.1396720043
H  H168  1  0.39790000  0.74565000  0.49993000  1.0 0.1482840582
H  H169  1  0.52798000  0.23437000  0.63489000  1.0 0.1482840582
H  H170  1  0.51874000  0.30231000  0.64837000  1.0 0.1396720043
H  H171  1  0.50559000  0.33788000  0.71239000  1.0 0.1180388356
H  H172  1  0.52848000  0.27684000  0.86814000  1.0 0.1138555127
H  H173  1  0.48207000  0.19782000  0.84677000  1.0 0.1482840582
H  H174  1  0.43586000  0.13768000  0.76522000  1.0 0.1396720043
H  H175  1  0.42310000  0.04621000  0.73487000  1.0 0.1482840582
H  H176  1  0.41365000  0.05418000  0.80285000  1.0 0.1482840582
H  H177  1  0.34101000  0.00024000  0.78817000  1.0 0.1180388356
H  H178  1  0.16027000  0.85717000  0.58668000  1.0 0.1180388356
H  H179  1  0.15791000  0.80987000  0.51590000  1.0 0.1482840582
H  H180  1  0.22995000  0.81689000  0.51980000  1.0 0.1482840582
H  H181  1  0.70633000  0.47038000  0.88679000  1.0 0.1482840582
H  H182  1  0.68902000  0.38919000  0.85921000  1.0 0.1396720043
H  H183  1  0.60945000  0.33072000  0.82369000  1.0 0.1180388356
H  H184  1  0.43425000  0.35501000  0.75180000  1.0 0.1138555127
H  H185  1  0.42825000  0.42604000  0.77701000  1.0 0.1396720043
H  H186  1  0.49565000  0.49572000  0.84775000  1.0 0.1482840582
H  H187  1  0.98437000  0.84948000  0.20639000  1.0 0.1482840582
H  H188  1  0.05231000  0.90394000  0.28357000  1.0 0.1396720043
H  H189  1  0.08788000  0.87549000  0.33229000  1.0 0.1180388356
H  H190  1  0.02684000  0.65870000  0.24836000  1.0 0.1138555127
H  H191  1  0.94782000  0.60105000  0.21575000  1.0 0.1482840582
H  H192  1  0.88768000  0.62246000  0.20182000  1.0 0.1396720043
H  H193  1  0.79621000  0.56134000  0.12311000  1.0 0.1482840582
H  H194  1  0.80418000  0.50133000  0.14053000  1.0 0.1482840582
H  H195  1  0.75024000  0.46207000  0.15923000  1.0 0.1180388356
H  H196  1  0.60717000  0.52049000  0.19690000  1.0 0.1180388356
H  H197  1  0.55987000  0.54397000  0.15196000  1.0 0.1482840582
H  H198  1  0.56689000  0.54709000  0.08694000  1.0 0.1482840582
H  H199  1  0.58359000  0.81954000  0.11321000  1.0 0.1592509806
H  H200  1  0.52998000  0.82981000  0.14079000  1.0 0.1396720043
H  H201  1  0.50703000  0.78576000  0.17631000  1.0 0.1180388356
H  H202  1  0.60321000  0.68245000  0.24820000  1.0 0.1138555127
H  H203  1  0.64903000  0.65124000  0.22299000  1.0 0.1396720043
H  H204  1  0.64797000  0.64790000  0.15225000  1.0 0.1482840582
H  H205  1  0.64309000  0.77798000  0.79361000  1.0 0.1482840582
H  H206  1  0.62037000  0.76874000  0.71643000  1.0 0.1396720043
H  H207  1  0.54320000  0.75559000  0.66771000  1.0 0.1180388356
H  H208  1  0.41034000  0.77848000  0.75164000  1.0 0.1138555127
H  H209  1  0.38530000  0.73207000  0.78425000  1.0 0.1482840582
H  H210  1  0.42064000  0.68586000  0.79818000  1.0 0.1396720043
H  H211  1  0.43823000  0.67310000  0.87689000  1.0 0.1482840582
H  H212  1  0.36080000  0.66365000  0.85947000  1.0 0.1482840582
H  H213  1  0.30284000  0.59101000  0.84077000  1.0 0.1180388356
H  H214  1  0.32359000  0.41027000  0.80310000  1.0 0.1180388356
H  H215  1  0.39201000  0.40791000  0.84804000  1.0 0.1482840582
H  H216  1  0.46015000  0.47995000  0.91306000  1.0 0.1482840582
H  H217  1  0.02962000  0.79367000  0.11321000  1.0 0.1592509806
H  H218  1  0.11081000  0.81098000  0.14079000  1.0 0.1396720043
H  H219  1  0.16928000  0.89055000  0.17631000  1.0 0.1180388356
H  H220  1  0.14499000  0.06575000  0.24820000  1.0 0.1138555127
H  H221  1  0.07396000  0.07175000  0.22299000  1.0 0.1396720043
H  H222  1  0.00428000  0.00435000  0.15225000  1.0 0.1482840582
H  H223  1  0.65052000  0.51563000  0.79361000  1.0 0.1482840582
H  H224  1  0.59606000  0.44769000  0.71643000  1.0 0.1396720043
H  H225  1  0.62451000  0.41212000  0.66771000  1.0 0.1180388356
H  H226  1  0.84130000  0.47316000  0.75164000  1.0 0.1138555127
H  H227  1  0.89895000  0.55218000  0.78425000  1.0 0.1482840582
H  H228  1  0.87754000  0.61232000  0.79818000  1.0 0.1396720043
H  H229  1  0.93866000  0.70379000  0.87689000  1.0 0.1482840582
H  H230  1  0.99867000  0.69582000  0.85947000  1.0 0.1482840582
H  H231  1  0.03793000  0.74976000  0.84077000  1.0 0.1180388356
H  H232  1  0.97951000  0.89283000  0.80310000  1.0 0.1180388356
H  H233  1  0.95603000  0.94013000  0.84804000  1.0 0.1482840582
H  H234  1  0.95291000  0.93311000  0.91306000  1.0 0.1482840582
H  H235  1  0.68046000  0.91641000  0.88679000  1.0 0.1482840582
H  H236  1  0.67019000  0.97002000  0.85921000  1.0 0.1396720043
H  H237  1  0.71424000  0.99297000  0.82369000  1.0 0.1180388356
H  H238  1  0.81755000  0.89679000  0.75180000  1.0 0.1138555127
H  H239  1  0.84876000  0.85097000  0.77701000  1.0 0.1396720043
H  H240  1  0.85210000  0.85203000  0.84775000  1.0 0.1482840582
H  H241  1  0.72202000  0.85691000  0.20639000  1.0 0.1482840582
H  H242  1  0.73126000  0.87963000  0.28357000  1.0 0.1396720043
H  H243  1  0.74441000  0.95680000  0.33229000  1.0 0.1180388356
H  H244  1  0.72152000  0.08966000  0.24836000  1.0 0.1138555127
H  H245  1  0.76793000  0.11470000  0.21575000  1.0 0.1482840582
H  H246  1  0.81414000  0.07936000  0.20182000  1.0 0.1396720043
H  H247  1  0.82690000  0.06177000  0.12311000  1.0 0.1482840582
H  H248  1  0.83635000  0.13920000  0.14053000  1.0 0.1482840582
H  H249  1  0.90899000  0.19716000  0.15923000  1.0 0.1180388356
H  H250  1  0.08973000  0.17641000  0.19690000  1.0 0.1180388356
H  H251  1  0.09209000  0.10799000  0.15196000  1.0 0.1482840582
H  H252  1  0.02005000  0.03985000  0.08694000  1.0 0.1482840582
H  H253  1  0.54367000  0.93046000  0.26405000  1.0 0.1592509806
H  H254  1  0.56098000  0.92019000  0.20017000  1.0 0.1396720043
H  H255  1  0.64055000  0.96424000  0.22127000  1.0 0.1180388356
H  H256  1  0.81575000  0.06755000  0.42076000  1.0 0.1138555127
H  H257  1  0.82175000  0.09876000  0.49779000  1.0 0.1396720043
H  H258  1  0.75435000  0.10210000  0.50007000  1.0 0.1482840582
H  H259  1  0.26563000  0.97202000  0.36511000  1.0 0.1482840582
H  H260  1  0.19769000  0.98126000  0.35163000  1.0 0.1396720043
H  H261  1  0.16212000  0.99441000  0.28761000  1.0 0.1180388356
H  H262  1  0.22316000  0.97152000  0.13186000  1.0 0.1138555127
H  H263  1  0.30218000  0.01793000  0.15323000  1.0 0.1482840582
H  H264  1  0.36232000  0.06414000  0.23478000  1.0 0.1396720043
H  H265  1  0.45379000  0.07690000  0.26513000  1.0 0.1482840582
H  H266  1  0.44582000  0.08635000  0.19715000  1.0 0.1482840582
H  H267  1  0.49976000  0.15899000  0.21183000  1.0 0.1180388356
H  H268  1  0.64283000  0.33973000  0.41332000  1.0 0.1180388356
H  H269  1  0.69013000  0.34209000  0.48410000  1.0 0.1482840582
H  H270  1  0.68311000  0.27005000  0.48020000  1.0 0.1482840582
H  H271  1  0.66641000  0.27962000  0.73595000  1.0 0.1482840582
H  H272  1  0.72002000  0.36081000  0.79983000  1.0 0.1396720043
H  H273  1  0.74297000  0.41928000  0.77873000  1.0 0.1180388356
H  H274  1  0.64679000  0.39499000  0.57924000  1.0 0.1138555127
H  H275  1  0.60097000  0.32396000  0.50221000  1.0 0.1396720043
H  H276  1  0.60203000  0.25428000  0.49993000  1.0 0.1482840582
H  H277  1  0.60691000  0.90052000  0.63489000  1.0 0.1482840582
H  H278  1  0.62963000  0.84606000  0.64837000  1.0 0.1396720043
H  H279  1  0.70680000  0.87451000  0.71239000  1.0 0.1180388356
H  H280  1  0.83966000  0.09130000  0.86814000  1.0 0.1138555127
H  H281  1  0.86470000  0.14895000  0.84677000  1.0 0.1482840582
H  H282  1  0.82936000  0.12754000  0.76522000  1.0 0.1396720043
H  H283  1  0.81177000  0.18866000  0.73487000  1.0 0.1482840582
H  H284  1  0.88920000  0.24867000  0.80285000  1.0 0.1482840582
H  H285  1  0.94716000  0.28793000  0.78817000  1.0 0.1180388356
H  H286  1  0.92641000  0.22951000  0.58668000  1.0 0.1180388356
H  H287  1  0.85799000  0.20603000  0.51590000  1.0 0.1482840582
H  H288  1  0.78985000  0.20291000  0.51980000  1.0 0.1482840582
C  C1  1  0.48950000  0.36940000  0.14030000  1.0 0.6084690578
C  C2  1  0.54240000  0.40750000  0.17990000  1.0 -0.0682069957
C  C3  1  0.55390000  0.42560000  0.22850000  1.0 -0.0399162048
C  C4  1  0.60230000  0.45790000  0.26680000  1.0 -0.1522646331
C  C5  1  0.63700000  0.47140000  0.25380000  1.0 0.0629177727
C  C6  1  0.57890000  0.42220000  0.16870000  1.0 0.1592509806
C  C7  1  0.57370000  0.40710000  0.11900000  1.0 0.1592509806
C  C8  1  0.61570000  0.39290000  0.07760000  1.0 0.0689907701
C  C9  1  0.57380000  0.36710000  0.03110000  1.0 -0.1522646331
C  C10  1  0.53240000  0.36690000  0.03030000  1.0 -0.0399162048
C  C11  1  0.53150000  0.38830000  0.07360000  1.0 -0.075701699
C  C12  1  0.48940000  0.39620000  0.07040000  1.0 0.6084690578
C  C13  1  0.24570000  0.40530000  0.17980000  1.0 0.6407078492
C  C14  1  0.21120000  0.42260000  0.18600000  1.0 -0.0919907301
C  C15  1  0.16150000  0.38860000  0.15890000  1.0 -0.0246898731
C  C16  1  0.12920000  0.40170000  0.16750000  1.0 -0.1575694834
C  C17  1  0.14620000  0.44840000  0.20520000  1.0 0.0689907701
C  C18  1  0.22580000  0.47100000  0.22140000  1.0 0.1757933745
C  C19  1  0.27690000  0.51280000  0.25330000  1.0 0.1482840582
C  C20  1  0.33290000  0.57400000  0.33510000  1.0 0.0629177727
C  C21  1  0.36750000  0.58970000  0.32240000  1.0 -0.1298315687
C  C22  1  0.35510000  0.56830000  0.27420000  1.0 -0.0464339604
C  C23  1  0.30830000  0.52950000  0.23780000  1.0 -0.0682069957
C  C24  1  0.29340000  0.50900000  0.18440000  1.0 0.6084690578
C  C25  1  0.40330000  0.52720000  0.14050000  1.0 0.6313537756
C  C26  1  0.44600000  0.57530000  0.18290000  1.0 -0.0618563113
C  C27  1  0.45580000  0.58560000  0.23020000  1.0 -0.0464339604
C  C28  1  0.49130000  0.63170000  0.27080000  1.0 -0.1298315687
C  C29  1  0.51520000  0.66580000  0.26160000  1.0 0.0629177727
C  C30  1  0.47470000  0.61090000  0.17700000  1.0 0.1708745394
C  C31  1  0.47220000  0.60480000  0.12940000  1.0 0.1592509806
C  C32  1  0.47520000  0.64780000  0.08700000  1.0 0.0689907701
C  C33  1  0.46220000  0.60740000  0.04500000  1.0 -0.1105944475
C  C34  1  0.45840000  0.56640000  0.04680000  1.0 -0.0618563113
C  C35  1  0.46300000  0.56390000  0.08930000  1.0 -0.0682069957
C  C36  1  0.45900000  0.51660000  0.08660000  1.0 0.6037661123
C  C37  1  0.22910000  0.34920000  0.85970000  1.0 0.6084690578
C  C38  1  0.22760000  0.36250000  0.82010000  1.0 -0.0682069957
C  C39  1  0.19710000  0.32540000  0.77150000  1.0 -0.0399162048
C  C40  1  0.19110000  0.33550000  0.73320000  1.0 -0.1522646331
C  C41  1  0.21760000  0.38320000  0.74620000  1.0 0.0629177727
C  C42  1  0.25350000  0.41020000  0.83130000  1.0 0.1592509806
C  C43  1  0.28810000  0.45470000  0.88100000  1.0 0.1592509806
C  C44  1  0.31530000  0.53810000  0.92240000  1.0 0.0689907701
C  C45  1  0.33600000  0.54270000  0.96890000  1.0 -0.1522646331
C  C46  1  0.33660000  0.50210000  0.96970000  1.0 -0.0399162048
C  C47  1  0.31470000  0.45790000  0.92640000  1.0 -0.075701699
C  C48  1  0.32580000  0.41900000  0.92960000  1.0 0.6084690578
C  C49  1  0.22550000  0.06590000  0.82020000  1.0 0.6407078492
C  C50  1  0.23660000  0.02520000  0.81400000  1.0 -0.0919907301
C  C51  1  0.22970000  0.00260000  0.84110000  1.0 -0.0246898731
C  C52  1  0.23420000  0.96170000  0.83250000  1.0 -0.1575694834
C  C53  1  0.24320000  0.94100000  0.79480000  1.0 0.0689907701
C  C54  1  0.24960000  0.00440000  0.77860000  1.0 0.1757933745
C  C55  1  0.25950000  0.02360000  0.74670000  1.0 0.1482840582
C  C56  1  0.23890000  0.99780000  0.66490000  1.0 0.0629177727
C  C57  1  0.26730000  0.04510000  0.67760000  1.0 -0.1298315687
C  C58  1  0.29410000  0.08090000  0.72580000  1.0 -0.0464339604
C  C59  1  0.29170000  0.07050000  0.76220000  1.0 -0.0682069957
C  C60  1  0.32460000  0.10900000  0.81560000  1.0 0.6084690578
C  C61  1  0.38670000  0.26280000  0.85950000  1.0 0.6313537756
C  C62  1  0.39240000  0.26310000  0.81710000  1.0 -0.0682069957
C  C63  1  0.35540000  0.22560000  0.76980000  1.0 -0.0464339604
C  C64  1  0.36090000  0.22050000  0.72920000  1.0 -0.1298315687
C  C65  1  0.40420000  0.25360000  0.73840000  1.0 0.0629177727
C  C66  1  0.43390000  0.29770000  0.82300000  1.0 0.1708745394
C  C67  1  0.47540000  0.34280000  0.87060000  1.0 0.1592509806
C  C68  1  0.56080000  0.38820000  0.91300000  1.0 0.0689907701
C  C69  1  0.56240000  0.41720000  0.95500000  1.0 -0.1105944475
C  C70  1  0.51960000  0.41160000  0.95320000  1.0 -0.0618563113
C  C71  1  0.47460000  0.37370000  0.91070000  1.0 -0.0682069957
C  C72  1  0.43000000  0.37240000  0.91340000  1.0 0.6037661123
C  C73  1  0.09920000  0.73950000  0.62010000  1.0 0.6084690578
C  C74  1  0.11250000  0.79240000  0.63490000  1.0 -0.0682069957
C  C75  1  0.07540000  0.80390000  0.62830000  1.0 -0.0399162048
C  C76  1  0.08550000  0.85230000  0.64440000  1.0 -0.1575694834
C  C77  1  0.13320000  0.88700000  0.66560000  1.0 0.0629177727
C  C78  1  0.16020000  0.82890000  0.65670000  1.0 0.1592509806
C  C79  1  0.20470000  0.82370000  0.66666667  1.0 0.1592509806
C  C80  1  0.28810000  0.86570000  0.72280000  1.0 0.0689907701
C  C81  1  0.29270000  0.82380000  0.70670000  1.0 -0.1522646331
C  C82  1  0.25210000  0.78240000  0.66550000  1.0 -0.0399162048
C  C83  1  0.20790000  0.78150000  0.64320000  1.0 -0.075701699
C  C84  1  0.16900000  0.73940000  0.59320000  1.0 0.6084690578
C  C85  1  0.81590000  0.49570000  0.34040000  1.0 0.6407078492
C  C86  1  0.77520000  0.46120000  0.28860000  1.0 -0.0919907301
C  C87  1  0.75260000  0.41150000  0.27290000  1.0 -0.0253413276
C  C88  1  0.71170000  0.37920000  0.22750000  1.0 -0.1575694834
C  C89  1  0.69100000  0.39620000  0.19780000  1.0 0.0689907701
C  C90  1  0.75440000  0.47580000  0.25480000  1.0 0.1757933745
C  C91  1  0.77360000  0.52690000  0.26410000  1.0 0.1482840582
C  C92  1  0.74780000  0.58290000  0.25890000  1.0 0.0629177727
C  C93  1  0.79510000  0.61750000  0.27780000  1.0 -0.1298315687
C  C94  1  0.83090000  0.60510000  0.28680000  1.0 -0.0464339604
C  C95  1  0.82050000  0.55830000  0.27880000  1.0 -0.0682069957
C  C96  1  0.85900000  0.54340000  0.28440000  1.0 0.6084690578
C  C97  1  0.01280000  0.65330000  0.37610000  1.0 0.6313537756
C  C98  1  0.01310000  0.69600000  0.37070000  1.0 -0.0682069957
C  C99  1  0.97560000  0.70580000  0.37020000  1.0 -0.0464339604
C  C100  1  0.97050000  0.74130000  0.35960000  1.0 -0.124804647
C  C101  1  0.00360000  0.76520000  0.34940000  1.0 0.0629177727
C  C102  1  0.04770000  0.72470000  0.36380000  1.0 0.1708745394
C  C103  1  0.09280000  0.72220000  0.36740000  1.0 0.1592509806
C  C104  1  0.13820000  0.72520000  0.32740000  1.0 0.0689907701
C  C105  1  0.16720000  0.71220000  0.35480000  1.0 -0.1105944475
C  C106  1  0.16160000  0.70840000  0.39200000  1.0 -0.0618563113
C  C107  1  0.12370000  0.71300000  0.39910000  1.0 -0.0682069957
C  C108  1  0.12240000  0.70900000  0.44240000  1.0 0.6037661123
C  C109  1  0.11940000  0.47910000  0.37990000  1.0 0.6084690578
C  C110  1  0.15750000  0.47760000  0.36510000  1.0 -0.0682069957
C  C111  1  0.17560000  0.44710000  0.37170000  1.0 -0.0399162048
C  C112  1  0.20790000  0.44110000  0.35560000  1.0 -0.1522646331
C  C113  1  0.22140000  0.46760000  0.33440000  1.0 0.0629177727
C  C114  1  0.17220000  0.50350000  0.34330000  1.0 0.1592509806
C  C115  1  0.15710000  0.53810000  0.33340000  1.0 0.1592509806
C  C116  1  0.14290000  0.56530000  0.27720000  1.0 0.0689907701
C  C117  1  0.11710000  0.58600000  0.29330000  1.0 -0.1522646331
C  C118  1  0.11690000  0.58660000  0.33450000  1.0 -0.0399162048
C  C119  1  0.13830000  0.56470000  0.35680000  1.0 -0.075701699
C  C120  1  0.14620000  0.57580000  0.40680000  1.0 0.6084690578
C  C121  1  0.15530000  0.47550000  0.65960000  1.0 0.6407078492
C  C122  1  0.17260000  0.48660000  0.71140000  1.0 -0.0919907301
C  C123  1  0.13860000  0.47970000  0.72710000  1.0 -0.0246898731
C  C124  1  0.15170000  0.48420000  0.77250000  1.0 -0.1575694834
C  C125  1  0.19840000  0.49320000  0.80220000  1.0 0.0689907701
C  C126  1  0.22100000  0.49960000  0.74520000  1.0 0.1757933745
C  C127  1  0.26280000  0.50950000  0.73590000  1.0 0.1482840582
C  C128  1  0.32400000  0.48890000  0.74110000  1.0 0.0629177727
C  C129  1  0.33970000  0.51730000  0.72220000  1.0 -0.1298315687
C  C130  1  0.31830000  0.54410000  0.71320000  1.0 -0.0464339604
C  C131  1  0.27950000  0.54170000  0.72120000  1.0 -0.0682069957
C  C132  1  0.25900000  0.57460000  0.71560000  1.0 0.6084690578
C  C133  1  0.27720000  0.63670000  0.62390000  1.0 0.6313537756
C  C134  1  0.32530000  0.64240000  0.62930000  1.0 -0.0682069957
C  C135  1  0.33560000  0.60540000  0.62980000  1.0 -0.0464339604
C  C136  1  0.38170000  0.61090000  0.64040000  1.0 -0.1298315687
C  C137  1  0.41580000  0.65420000  0.65060000  1.0 0.0629177727
C  C138  1  0.36090000  0.68390000  0.63620000  1.0 0.1708745394
C  C139  1  0.35480000  0.72540000  0.63260000  1.0 0.1592509806
C  C140  1  0.39780000  0.81080000  0.67260000  1.0 0.0689907701
C  C141  1  0.35740000  0.81240000  0.64520000  1.0 -0.1105944475
C  C142  1  0.31640000  0.76960000  0.60800000  1.0 -0.0618563113
C  C143  1  0.31390000  0.72460000  0.60090000  1.0 -0.0682069957
C  C144  1  0.26660000  0.68000000  0.55760000  1.0 0.6037661123
C  C145  1  0.76050000  0.40080000  0.37990000  1.0 0.6084690578
C  C146  1  0.70760000  0.38750000  0.36510000  1.0 -0.0682069957
C  C147  1  0.69610000  0.42460000  0.37170000  1.0 -0.0399162048
C  C148  1  0.64770000  0.41450000  0.35560000  1.0 -0.1522646331
C  C149  1  0.61300000  0.36680000  0.33440000  1.0 0.0629177727
C  C150  1  0.67110000  0.33980000  0.34330000  1.0 0.1592509806
C  C151  1  0.67630000  0.29530000  0.33340000  1.0 0.1592509806
C  C152  1  0.63430000  0.21190000  0.27720000  1.0 0.0689907701
C  C153  1  0.67620000  0.20730000  0.29330000  1.0 -0.1522646331
C  C154  1  0.71760000  0.24790000  0.33450000  1.0 -0.0399162048
C  C155  1  0.71850000  0.29210000  0.35680000  1.0 -0.075701699
C  C156  1  0.76060000  0.33100000  0.40680000  1.0 0.6084690578
C  C157  1  0.00430000  0.68410000  0.65960000  1.0 0.6407078492
C  C158  1  0.03880000  0.72480000  0.71140000  1.0 -0.0919907301
C  C159  1  0.08850000  0.74740000  0.72710000  1.0 -0.0253413276
C  C160  1  0.12080000  0.78830000  0.77250000  1.0 -0.1575694834
C  C161  1  0.10380000  0.80900000  0.80220000  1.0 0.0689907701
C  C162  1  0.02420000  0.74560000  0.74520000  1.0 0.1757933745
C  C163  1  0.97310000  0.72640000  0.73590000  1.0 0.1482840582
C  C164  1  0.91710000  0.75220000  0.74110000  1.0 0.0629177727
C  C165  1  0.88250000  0.70490000  0.72220000  1.0 -0.1298315687
C  C166  1  0.89490000  0.66910000  0.71320000  1.0 -0.0464339604
C  C167  1  0.94170000  0.67950000  0.72120000  1.0 -0.0682069957
C  C168  1  0.95660000  0.64100000  0.71560000  1.0 0.6084690578
C  C169  1  0.84670000  0.48720000  0.62390000  1.0 0.6313537756
C  C170  1  0.80400000  0.48690000  0.62930000  1.0 -0.0682069957
C  C171  1  0.79420000  0.52440000  0.62980000  1.0 -0.0464339604
C  C172  1  0.75870000  0.52950000  0.64040000  1.0 -0.1298315687
C  C173  1  0.73480000  0.49640000  0.65060000  1.0 0.0629177727
C  C174  1  0.77530000  0.45230000  0.63620000  1.0 0.1708745394
C  C175  1  0.77780000  0.40720000  0.63260000  1.0 0.1592509806
C  C176  1  0.77480000  0.36180000  0.67260000  1.0 0.0689907701
C  C177  1  0.78780000  0.33280000  0.64520000  1.0 -0.1105944475
C  C178  1  0.79160000  0.33840000  0.60800000  1.0 -0.0618563113
C  C179  1  0.78700000  0.37630000  0.60090000  1.0 -0.0682069957
C  C180  1  0.79100000  0.37760000  0.55760000  1.0 0.6037661123
C  C181  1  0.02090000  0.38060000  0.62010000  1.0 0.6084690578
C  C182  1  0.02240000  0.34250000  0.63490000  1.0 -0.0682069957
C  C183  1  0.05290000  0.32440000  0.62830000  1.0 -0.0399162048
C  C184  1  0.05890000  0.29210000  0.64440000  1.0 -0.1522646331
C  C185  1  0.03240000  0.27860000  0.66560000  1.0 0.0629177727
C  C186  1  0.99650000  0.32780000  0.65670000  1.0 0.1592509806
C  C187  1  0.96190000  0.34290000  0.66666667  1.0 0.1592509806
C  C188  1  0.93470000  0.35710000  0.72280000  1.0 0.0689907701
C  C189  1  0.91400000  0.38290000  0.70670000  1.0 -0.1522646331
C  C190  1  0.91340000  0.38310000  0.66550000  1.0 -0.0399162048
C  C191  1  0.93530000  0.36170000  0.64320000  1.0 -0.075701699
C  C192  1  0.92420000  0.35380000  0.59320000  1.0 0.6084690578
C  C193  1  0.02450000  0.34470000  0.34040000  1.0 0.6407078492
C  C194  1  0.01340000  0.32740000  0.28860000  1.0 -0.0919907301
C  C195  1  0.02030000  0.36140000  0.27290000  1.0 -0.0253413276
C  C196  1  0.01580000  0.34830000  0.22750000  1.0 -0.1575694834
C  C197  1  0.00680000  0.30160000  0.19780000  1.0 0.0689907701
C  C198  1  0.00040000  0.27900000  0.25480000  1.0 0.1757933745
C  C199  1  0.99050000  0.23720000  0.26410000  1.0 0.1482840582
C  C200  1  0.01110000  0.17600000  0.25890000  1.0 0.0629177727
C  C201  1  0.98270000  0.16030000  0.27780000  1.0 -0.1298315687
C  C202  1  0.95590000  0.18170000  0.28680000  1.0 -0.0464339604
C  C203  1  0.95830000  0.22050000  0.27880000  1.0 -0.0682069957
C  C204  1  0.92540000  0.24100000  0.28440000  1.0 0.6084690578
C  C205  1  0.86330000  0.22280000  0.37610000  1.0 0.6313537756
C  C206  1  0.85760000  0.17470000  0.37070000  1.0 -0.0682069957
C  C207  1  0.89460000  0.16440000  0.37020000  1.0 -0.0464339604
C  C208  1  0.88910000  0.11830000  0.35960000  1.0 -0.1298315687
C  C209  1  0.84580000  0.08420000  0.34940000  1.0 0.0629177727
C  C210  1  0.81610000  0.13910000  0.36380000  1.0 0.1708745394
C  C211  1  0.77460000  0.14520000  0.36740000  1.0 0.1592509806
C  C212  1  0.68920000  0.10220000  0.32740000  1.0 0.0689907701
C  C213  1  0.68760000  0.14260000  0.35480000  1.0 -0.1105944475
C  C214  1  0.73040000  0.18360000  0.39200000  1.0 -0.0618563113
C  C215  1  0.77540000  0.18610000  0.39910000  1.0 -0.0682069957
C  C216  1  0.82000000  0.23340000  0.44240000  1.0 0.6037661123
C  C217  1  0.15080000  0.27090000  0.14030000  1.0 0.6084690578
C  C218  1  0.13750000  0.27240000  0.17990000  1.0 -0.0618563113
C  C219  1  0.17460000  0.30290000  0.22850000  1.0 -0.0399162048
C  C220  1  0.16450000  0.30890000  0.26680000  1.0 -0.1522646331
C  C221  1  0.11680000  0.28240000  0.25380000  1.0 0.0629177727
C  C222  1  0.08980000  0.24650000  0.16870000  1.0 0.1592509806
C  C223  1  0.04530000  0.21190000  0.11900000  1.0 0.1592509806
C  C224  1  0.96190000  0.18470000  0.07760000  1.0 0.0689907701
C  C225  1  0.95730000  0.16400000  0.03110000  1.0 -0.1522646331
C  C226  1  0.99790000  0.16340000  0.03030000  1.0 -0.0399162048
C  C227  1  0.04210000  0.18530000  0.07360000  1.0 -0.075701699
C  C228  1  0.08100000  0.17420000  0.07040000  1.0 0.6084690578
C  C229  1  0.43410000  0.27450000  0.17980000  1.0 0.6407078492
C  C230  1  0.47480000  0.26340000  0.18600000  1.0 -0.0919907301
C  C231  1  0.49740000  0.27030000  0.15890000  1.0 -0.0246898731
C  C232  1  0.53830000  0.26580000  0.16750000  1.0 -0.1575694834
C  C233  1  0.55900000  0.25680000  0.20520000  1.0 0.0689907701
C  C234  1  0.49560000  0.25040000  0.22140000  1.0 0.1757933745
C  C235  1  0.47640000  0.24050000  0.25330000  1.0 0.1482840582
C  C236  1  0.50220000  0.26110000  0.33510000  1.0 0.0629177727
C  C237  1  0.45490000  0.23270000  0.32240000  1.0 -0.1298315687
C  C238  1  0.41910000  0.20590000  0.27420000  1.0 -0.0464339604
C  C239  1  0.42950000  0.20830000  0.23780000  1.0 -0.0682069957
C  C240  1  0.39100000  0.17540000  0.18440000  1.0 0.6084690578
C  C241  1  0.23720000  0.11330000  0.14050000  1.0 0.6313537756
C  C242  1  0.23690000  0.10760000  0.18290000  1.0 -0.0682069957
C  C243  1  0.27440000  0.14460000  0.23020000  1.0 -0.0464339604
C  C244  1  0.27950000  0.13910000  0.27080000  1.0 -0.124804647
C  C245  1  0.24640000  0.09580000  0.26160000  1.0 0.0629177727
C  C246  1  0.20230000  0.06610000  0.17700000  1.0 0.1708745394
C  C247  1  0.15720000  0.02460000  0.12940000  1.0 0.1592509806
C  C248  1  0.11180000  0.93920000  0.08700000  1.0 0.0689907701
C  C249  1  0.08280000  0.93760000  0.04500000  1.0 -0.1105944475
C  C250  1  0.08840000  0.98040000  0.04680000  1.0 -0.0618563113
C  C251  1  0.12630000  0.02540000  0.08930000  1.0 -0.0682069957
C  C252  1  0.12760000  0.07000000  0.08660000  1.0 0.6037661123
C  C253  1  0.13060000  0.01050000  0.85970000  1.0 0.6084690578
C  C254  1  0.09250000  0.95760000  0.82010000  1.0 -0.0682069957
C  C255  1  0.07440000  0.94610000  0.77150000  1.0 -0.0399162048
C  C256  1  0.04210000  0.89770000  0.73320000  1.0 -0.1575694834
C  C257  1  0.02860000  0.86300000  0.74620000  1.0 0.0629177727
C  C258  1  0.07780000  0.92110000  0.83130000  1.0 0.1592509806
C  C259  1  0.09290000  0.92630000  0.88100000  1.0 0.1592509806
C  C260  1  0.10710000  0.88430000  0.92240000  1.0 0.0689907701
C  C261  1  0.13290000  0.92620000  0.96890000  1.0 -0.1522646331
C  C262  1  0.13310000  0.96760000  0.96970000  1.0 -0.0399162048
C  C263  1  0.11170000  0.96850000  0.92640000  1.0 -0.075701699
C  C264  1  0.10380000  0.01060000  0.92960000  1.0 0.6084690578
C  C265  1  0.09470000  0.25430000  0.82020000  1.0 0.6407078492
C  C266  1  0.07740000  0.28880000  0.81400000  1.0 -0.0919907301
C  C267  1  0.11140000  0.33850000  0.84110000  1.0 -0.0246898731
C  C268  1  0.09830000  0.37080000  0.83250000  1.0 -0.1575694834
C  C269  1  0.05160000  0.35380000  0.79480000  1.0 0.0689907701
C  C270  1  0.02900000  0.27420000  0.77860000  1.0 0.1757933745
C  C271  1  0.98720000  0.22310000  0.74670000  1.0 0.1482840582
C  C272  1  0.92600000  0.16710000  0.66490000  1.0 0.0629177727
C  C273  1  0.91030000  0.13250000  0.67760000  1.0 -0.1298315687
C  C274  1  0.93170000  0.14490000  0.72580000  1.0 -0.0464339604
C  C275  1  0.97050000  0.19170000  0.76220000  1.0 -0.0682069957
C  C276  1  0.99100000  0.20660000  0.81560000  1.0 0.6084690578
C  C277  1  0.97280000  0.09670000  0.85950000  1.0 0.6313537756
C  C278  1  0.92470000  0.05400000  0.81710000  1.0 -0.0682069957
C  C279  1  0.91440000  0.04420000  0.76980000  1.0 -0.0464339604
C  C280  1  0.86830000  0.00870000  0.72920000  1.0 -0.1298315687
C  C281  1  0.83420000  0.98480000  0.73840000  1.0 0.0629177727
C  C282  1  0.88910000  0.02530000  0.82300000  1.0 0.1708745394
C  C283  1  0.89520000  0.02780000  0.87060000  1.0 0.1592509806
C  C284  1  0.85220000  0.02480000  0.91300000  1.0 0.0689907701
C  C285  1  0.89260000  0.03780000  0.95500000  1.0 -0.1105944475
C  C286  1  0.93360000  0.04160000  0.95320000  1.0 -0.0618563113
C  C287  1  0.93610000  0.03700000  0.91070000  1.0 -0.0682069957
C  C288  1  0.98340000  0.04100000  0.91340000  1.0 0.6037661123
C  C289  1  0.26050000  0.88060000  0.35970000  1.0 0.6084690578
C  C290  1  0.20760000  0.84250000  0.32010000  1.0 -0.0682069957
C  C291  1  0.19610000  0.82440000  0.27150000  1.0 -0.0399162048
C  C292  1  0.14770000  0.79210000  0.23320000  1.0 -0.1522646331
C  C293  1  0.11300000  0.77860000  0.24620000  1.0 0.0629177727
C  C294  1  0.17110000  0.82780000  0.33130000  1.0 0.1592509806
C  C295  1  0.17630000  0.84290000  0.38100000  1.0 0.1592509806
C  C296  1  0.13430000  0.85710000  0.42240000  1.0 0.0689907701
C  C297  1  0.17620000  0.88290000  0.46890000  1.0 -0.1522646331
C  C298  1  0.21760000  0.88310000  0.46970000  1.0 -0.0399162048
C  C299  1  0.21850000  0.86170000  0.42640000  1.0 -0.075701699
C  C300  1  0.26060000  0.85380000  0.42960000  1.0 0.6084690578
C  C301  1  0.50430000  0.84470000  0.32020000  1.0 0.6407078492
C  C302  1  0.53880000  0.82740000  0.31400000  1.0 -0.0919907301
C  C303  1  0.58850000  0.86140000  0.34110000  1.0 -0.0253413276
C  C304  1  0.62080000  0.84830000  0.33250000  1.0 -0.1575694834
C  C305  1  0.60380000  0.80160000  0.29480000  1.0 0.0689907701
C  C306  1  0.52420000  0.77900000  0.27860000  1.0 0.1757933745
C  C307  1  0.47310000  0.73720000  0.24670000  1.0 0.1482840582
C  C308  1  0.41710000  0.67600000  0.16490000  1.0 0.0629177727
C  C309  1  0.38250000  0.66030000  0.17760000  1.0 -0.1298315687
C  C310  1  0.39490000  0.68170000  0.22580000  1.0 -0.0464339604
C  C311  1  0.44170000  0.72050000  0.26220000  1.0 -0.0682069957
C  C312  1  0.45660000  0.74100000  0.31560000  1.0 0.6084690578
C  C313  1  0.34670000  0.72280000  0.35950000  1.0 0.6313537756
C  C314  1  0.30400000  0.67470000  0.31710000  1.0 -0.0682069957
C  C315  1  0.29420000  0.66440000  0.26980000  1.0 -0.0464339604
C  C316  1  0.25870000  0.61830000  0.22920000  1.0 -0.1298315687
C  C317  1  0.23480000  0.58420000  0.23840000  1.0 0.0629177727
C  C318  1  0.27530000  0.63910000  0.32300000  1.0 0.1708745394
C  C319  1  0.27780000  0.64520000  0.37060000  1.0 0.1592509806
C  C320  1  0.27480000  0.60220000  0.41300000  1.0 0.0689907701
C  C321  1  0.28780000  0.64260000  0.45500000  1.0 -0.1105944475
C  C322  1  0.29160000  0.68360000  0.45320000  1.0 -0.0618563113
C  C323  1  0.28700000  0.68610000  0.41070000  1.0 -0.0682069957
C  C324  1  0.29100000  0.73340000  0.41340000  1.0 0.6037661123
C  C325  1  0.52090000  0.90080000  0.64030000  1.0 0.6084690578
C  C326  1  0.52240000  0.88750000  0.67990000  1.0 -0.0682069957
C  C327  1  0.55290000  0.92460000  0.72850000  1.0 -0.0399162048
C  C328  1  0.55890000  0.91450000  0.76680000  1.0 -0.1575694834
C  C329  1  0.53240000  0.86680000  0.75380000  1.0 0.0629177727
C  C330  1  0.49650000  0.83980000  0.66870000  1.0 0.1592509806
C  C331  1  0.46190000  0.79530000  0.61900000  1.0 0.1592509806
C  C332  1  0.43470000  0.71190000  0.57760000  1.0 0.0689907701
C  C333  1  0.41400000  0.70730000  0.53110000  1.0 -0.1522646331
C  C334  1  0.41340000  0.74790000  0.53030000  1.0 -0.0399162048
C  C335  1  0.43530000  0.79210000  0.57360000  1.0 -0.075701699
C  C336  1  0.42420000  0.83100000  0.57040000  1.0 0.6084690578
C  C337  1  0.52450000  0.18410000  0.67980000  1.0 0.6407078492
C  C338  1  0.51340000  0.22480000  0.68600000  1.0 -0.0919907301
C  C339  1  0.52030000  0.24740000  0.65890000  1.0 -0.0246898731
C  C340  1  0.51580000  0.28830000  0.66750000  1.0 -0.1575694834
C  C341  1  0.50680000  0.30900000  0.70520000  1.0 0.0689907701
C  C342  1  0.50040000  0.24560000  0.72140000  1.0 0.1757933745
C  C343  1  0.49050000  0.22640000  0.75330000  1.0 0.1482840582
C  C344  1  0.51110000  0.25220000  0.83510000  1.0 0.0629177727
C  C345  1  0.48270000  0.20490000  0.82240000  1.0 -0.1298315687
C  C346  1  0.45590000  0.16910000  0.77420000  1.0 -0.0464339604
C  C347  1  0.45830000  0.17950000  0.73780000  1.0 -0.0682069957
C  C348  1  0.42540000  0.14100000  0.68440000  1.0 0.6084690578
C  C349  1  0.36330000  0.98720000  0.64050000  1.0 0.6313537756
C  C350  1  0.35760000  0.98690000  0.68290000  1.0 -0.0682069957
C  C351  1  0.39460000  0.02440000  0.73020000  1.0 -0.0464339604
C  C352  1  0.38910000  0.02950000  0.77080000  1.0 -0.124804647
C  C353  1  0.34580000  0.99640000  0.76160000  1.0 0.0629177727
C  C354  1  0.31610000  0.95230000  0.67700000  1.0 0.1708745394
C  C355  1  0.27460000  0.90720000  0.62940000  1.0 0.1592509806
C  C356  1  0.18920000  0.86180000  0.58700000  1.0 0.0689907701
C  C357  1  0.18760000  0.83280000  0.54500000  1.0 -0.1105944475
C  C358  1  0.23040000  0.83840000  0.54680000  1.0 -0.0618563113
C  C359  1  0.27540000  0.87630000  0.58930000  1.0 -0.0682069957
C  C360  1  0.32000000  0.87760000  0.58660000  1.0 0.6037661123
C  C361  1  0.65080000  0.51050000  0.87990000  1.0 0.6084690578
C  C362  1  0.63750000  0.45760000  0.86510000  1.0 -0.0682069957
C  C363  1  0.67460000  0.44610000  0.87170000  1.0 -0.0399162048
C  C364  1  0.66450000  0.39770000  0.85560000  1.0 -0.1522646331
C  C365  1  0.61680000  0.36300000  0.83440000  1.0 0.0629177727
C  C366  1  0.58980000  0.42110000  0.84330000  1.0 0.1592509806
C  C367  1  0.54530000  0.42630000  0.83340000  1.0 0.1592509806
C  C368  1  0.46190000  0.38430000  0.77720000  1.0 0.0689907701
C  C369  1  0.45730000  0.42620000  0.79330000  1.0 -0.1522646331
C  C370  1  0.49790000  0.46760000  0.83450000  1.0 -0.0399162048
C  C371  1  0.54210000  0.46850000  0.85680000  1.0 -0.075701699
C  C372  1  0.58100000  0.51060000  0.90680000  1.0 0.6084690578
C  C373  1  0.93410000  0.75430000  0.15960000  1.0 0.6407078492
C  C374  1  0.97480000  0.78880000  0.21140000  1.0 -0.0919907301
C  C375  1  0.99740000  0.83850000  0.22710000  1.0 -0.0253413276
C  C376  1  0.03830000  0.87080000  0.27250000  1.0 -0.1575694834
C  C377  1  0.05900000  0.85380000  0.30220000  1.0 0.0689907701
C  C378  1  0.99560000  0.77420000  0.24520000  1.0 0.1757933745
C  C379  1  0.97640000  0.72310000  0.23590000  1.0 0.1482840582
C  C380  1  0.00220000  0.66710000  0.24110000  1.0 0.0629177727
C  C381  1  0.95490000  0.63250000  0.22220000  1.0 -0.1298315687
C  C382  1  0.91910000  0.64490000  0.21320000  1.0 -0.0464339604
C  C383  1  0.92950000  0.69170000  0.22120000  1.0 -0.0682069957
C  C384  1  0.89100000  0.70660000  0.21560000  1.0 0.6084690578
C  C385  1  0.73720000  0.59670000  0.12390000  1.0 0.6313537756
C  C386  1  0.73690000  0.55400000  0.12930000  1.0 -0.0618563113
C  C387  1  0.77440000  0.54420000  0.12980000  1.0 -0.0464339604
C  C388  1  0.77950000  0.50870000  0.14040000  1.0 -0.124804647
C  C389  1  0.74640000  0.48480000  0.15060000  1.0 0.0629177727
C  C390  1  0.70230000  0.52530000  0.13620000  1.0 0.1708745394
C  C391  1  0.65720000  0.52780000  0.13260000  1.0 0.1592509806
C  C392  1  0.61180000  0.52480000  0.17260000  1.0 0.0689907701
C  C393  1  0.58280000  0.53780000  0.14520000  1.0 -0.1105944475
C  C394  1  0.58840000  0.54160000  0.10800000  1.0 -0.0618563113
C  C395  1  0.62630000  0.53700000  0.10090000  1.0 -0.0682069957
C  C396  1  0.62760000  0.54100000  0.05760000  1.0 0.6037661123
C  C397  1  0.63060000  0.77090000  0.12010000  1.0 0.6084690578
C  C398  1  0.59250000  0.77240000  0.13490000  1.0 -0.0682069957
C  C399  1  0.57440000  0.80290000  0.12830000  1.0 -0.0399162048
C  C400  1  0.54210000  0.80890000  0.14440000  1.0 -0.1575694834
C  C401  1  0.52860000  0.78240000  0.16560000  1.0 0.0629177727
C  C402  1  0.57780000  0.74650000  0.15670000  1.0 0.1592509806
C  C403  1  0.59290000  0.71190000  0.16660000  1.0 0.1592509806
C  C404  1  0.60710000  0.68470000  0.22280000  1.0 0.0689907701
C  C405  1  0.63290000  0.66400000  0.20670000  1.0 -0.1522646331
C  C406  1  0.63310000  0.66340000  0.16550000  1.0 -0.0399162048
C  C407  1  0.61170000  0.68530000  0.14320000  1.0 -0.075701699
C  C408  1  0.60380000  0.67420000  0.09320000  1.0 0.6084690578
C  C409  1  0.59470000  0.77450000  0.84040000  1.0 0.6407078492
C  C410  1  0.57740000  0.76340000  0.78860000  1.0 -0.0919907301
C  C411  1  0.61140000  0.77030000  0.77290000  1.0 -0.0246898731
C  C412  1  0.59830000  0.76580000  0.72750000  1.0 -0.1575694834
C  C413  1  0.55160000  0.75680000  0.69780000  1.0 0.0689907701
C  C414  1  0.52900000  0.75040000  0.75480000  1.0 0.1757933745
C  C415  1  0.48720000  0.74050000  0.76410000  1.0 0.1482840582
C  C416  1  0.42600000  0.76110000  0.75890000  1.0 0.0629177727
C  C417  1  0.41030000  0.73270000  0.77780000  1.0 -0.1298315687
C  C418  1  0.43170000  0.70590000  0.78680000  1.0 -0.0464339604
C  C419  1  0.47050000  0.70830000  0.77880000  1.0 -0.0682069957
C  C420  1  0.49100000  0.67540000  0.78440000  1.0 0.6084690578
C  C421  1  0.47280000  0.61330000  0.87610000  1.0 0.6313537756
C  C422  1  0.42470000  0.60760000  0.87070000  1.0 -0.0682069957
C  C423  1  0.41440000  0.64460000  0.87020000  1.0 -0.0464339604
C  C424  1  0.36830000  0.63910000  0.85960000  1.0 -0.1298315687
C  C425  1  0.33420000  0.59580000  0.84940000  1.0 0.0629177727
C  C426  1  0.38910000  0.56610000  0.86380000  1.0 0.1708745394
C  C427  1  0.39520000  0.52460000  0.86740000  1.0 0.1592509806
C  C428  1  0.35220000  0.43920000  0.82740000  1.0 0.0689907701
C  C429  1  0.39260000  0.43760000  0.85480000  1.0 -0.1105944475
C  C430  1  0.43360000  0.48040000  0.89200000  1.0 -0.0618563113
C  C431  1  0.43610000  0.52540000  0.89910000  1.0 -0.0682069957
C  C432  1  0.48340000  0.57000000  0.94240000  1.0 0.6037661123
C  C433  1  0.98950000  0.84920000  0.12010000  1.0 0.6084690578
C  C434  1  0.04240000  0.86250000  0.13490000  1.0 -0.0682069957
C  C435  1  0.05390000  0.82540000  0.12830000  1.0 -0.0399162048
C  C436  1  0.10230000  0.83550000  0.14440000  1.0 -0.1522646331
C  C437  1  0.13700000  0.88320000  0.16560000  1.0 0.0629177727
C  C438  1  0.07890000  0.91020000  0.15670000  1.0 0.1592509806
C  C439  1  0.07370000  0.95470000  0.16660000  1.0 0.1592509806
C  C440  1  0.11570000  0.03810000  0.22280000  1.0 0.0689907701
C  C441  1  0.07380000  0.04270000  0.20670000  1.0 -0.1522646331
C  C442  1  0.03240000  0.00210000  0.16550000  1.0 -0.0399162048
C  C443  1  0.03150000  0.95790000  0.14320000  1.0 -0.075701699
C  C444  1  0.98940000  0.91900000  0.09320000  1.0 0.6084690578
C  C445  1  0.74570000  0.56590000  0.84040000  1.0 0.6407078492
C  C446  1  0.71120000  0.52520000  0.78860000  1.0 -0.0919907301
C  C447  1  0.66150000  0.50260000  0.77290000  1.0 -0.0246898731
C  C448  1  0.62920000  0.46170000  0.72750000  1.0 -0.1575694834
C  C449  1  0.64620000  0.44100000  0.69780000  1.0 0.0689907701
C  C450  1  0.72580000  0.50440000  0.75480000  1.0 0.1757933745
C  C451  1  0.77690000  0.52360000  0.76410000  1.0 0.1482840582
C  C452  1  0.83290000  0.49780000  0.75890000  1.0 0.0629177727
C  C453  1  0.86750000  0.54510000  0.77780000  1.0 -0.1298315687
C  C454  1  0.85510000  0.58090000  0.78680000  1.0 -0.0464339604
C  C455  1  0.80830000  0.57050000  0.77880000  1.0 -0.0682069957
C  C456  1  0.79340000  0.60900000  0.78440000  1.0 0.6084690578
C  C457  1  0.90330000  0.76280000  0.87610000  1.0 0.6313537756
C  C458  1  0.94600000  0.76310000  0.87070000  1.0 -0.0682069957
C  C459  1  0.95580000  0.72560000  0.87020000  1.0 -0.0464339604
C  C460  1  0.99130000  0.72050000  0.85960000  1.0 -0.1298315687
C  C461  1  0.01520000  0.75360000  0.84940000  1.0 0.0629177727
C  C462  1  0.97470000  0.79770000  0.86380000  1.0 0.1708745394
C  C463  1  0.97220000  0.84280000  0.86740000  1.0 0.1592509806
C  C464  1  0.97520000  0.88820000  0.82740000  1.0 0.0689907701
C  C465  1  0.96220000  0.91720000  0.85480000  1.0 -0.1105944475
C  C466  1  0.95840000  0.91160000  0.89200000  1.0 -0.0618563113
C  C467  1  0.96300000  0.87370000  0.89910000  1.0 -0.0682069957
C  C468  1  0.95900000  0.87240000  0.94240000  1.0 0.6037661123
C  C469  1  0.72910000  0.86940000  0.87990000  1.0 0.6084690578
C  C470  1  0.72760000  0.90750000  0.86510000  1.0 -0.0682069957
C  C471  1  0.69710000  0.92560000  0.87170000  1.0 -0.0399162048
C  C472  1  0.69110000  0.95790000  0.85560000  1.0 -0.1522646331
C  C473  1  0.71760000  0.97140000  0.83440000  1.0 0.0629177727
C  C474  1  0.75350000  0.92220000  0.84330000  1.0 0.1592509806
C  C475  1  0.78810000  0.90710000  0.83340000  1.0 0.1592509806
C  C476  1  0.81530000  0.89290000  0.77720000  1.0 0.0689907701
C  C477  1  0.83600000  0.86710000  0.79330000  1.0 -0.1522646331
C  C478  1  0.83660000  0.86690000  0.83450000  1.0 -0.0399162048
C  C479  1  0.81470000  0.88830000  0.85680000  1.0 -0.075701699
C  C480  1  0.82580000  0.89620000  0.90680000  1.0 0.6084690578
C  C481  1  0.72550000  0.90530000  0.15960000  1.0 0.6407078492
C  C482  1  0.73660000  0.92260000  0.21140000  1.0 -0.0919907301
C  C483  1  0.72970000  0.88860000  0.22710000  1.0 -0.0253413276
C  C484  1  0.73420000  0.90170000  0.27250000  1.0 -0.1575694834
C  C485  1  0.74320000  0.94840000  0.30220000  1.0 0.0689907701
C  C486  1  0.74960000  0.97100000  0.24520000  1.0 0.1757933745
C  C487  1  0.75950000  0.01280000  0.23590000  1.0 0.1482840582
C  C488  1  0.73890000  0.07400000  0.24110000  1.0 0.0629177727
C  C489  1  0.76730000  0.08970000  0.22220000  1.0 -0.1298315687
C  C490  1  0.79410000  0.06830000  0.21320000  1.0 -0.0464339604
C  C491  1  0.79170000  0.02950000  0.22120000  1.0 -0.0682069957
C  C492  1  0.82460000  0.00900000  0.21560000  1.0 0.6084690578
C  C493  1  0.88670000  0.02720000  0.12390000  1.0 0.6313537756
C  C494  1  0.89240000  0.07530000  0.12930000  1.0 -0.0618563113
C  C495  1  0.85540000  0.08560000  0.12980000  1.0 -0.0464339604
C  C496  1  0.86090000  0.13170000  0.14040000  1.0 -0.124804647
C  C497  1  0.90420000  0.16580000  0.15060000  1.0 0.0629177727
C  C498  1  0.93390000  0.11090000  0.13620000  1.0 0.1708745394
C  C499  1  0.97540000  0.10480000  0.13260000  1.0 0.1592509806
C  C500  1  0.06080000  0.14780000  0.17260000  1.0 0.0689907701
C  C501  1  0.06240000  0.10740000  0.14520000  1.0 -0.1105944475
C  C502  1  0.01960000  0.06640000  0.10800000  1.0 -0.0618563113
C  C503  1  0.97460000  0.06390000  0.10090000  1.0 -0.0682069957
C  C504  1  0.93000000  0.01660000  0.05760000  1.0 0.6037661123
C  C505  1  0.59920000  0.97910000  0.35970000  1.0 0.6084690578
C  C506  1  0.61250000  0.97760000  0.32010000  1.0 -0.0682069957
C  C507  1  0.57540000  0.94710000  0.27150000  1.0 -0.0399162048
C  C508  1  0.58550000  0.94110000  0.23320000  1.0 -0.1522646331
C  C509  1  0.63320000  0.96760000  0.24620000  1.0 0.0629177727
C  C510  1  0.66020000  0.00350000  0.33130000  1.0 0.1592509806
C  C511  1  0.70470000  0.03810000  0.38100000  1.0 0.1592509806
C  C512  1  0.78810000  0.06530000  0.42240000  1.0 0.0689907701
C  C513  1  0.79270000  0.08600000  0.46890000  1.0 -0.1522646331
C  C514  1  0.75210000  0.08660000  0.46970000  1.0 -0.0399162048
C  C515  1  0.70790000  0.06470000  0.42640000  1.0 -0.075701699
C  C516  1  0.66900000  0.07580000  0.42960000  1.0 0.6084690578
C  C517  1  0.31590000  0.97550000  0.32020000  1.0 0.6407078492
C  C518  1  0.27520000  0.98660000  0.31400000  1.0 -0.0919907301
C  C519  1  0.25260000  0.97970000  0.34110000  1.0 -0.0246898731
C  C520  1  0.21170000  0.98420000  0.33250000  1.0 -0.1575694834
C  C521  1  0.19100000  0.99320000  0.29480000  1.0 0.0689907701
C  C522  1  0.25440000  0.99960000  0.27860000  1.0 0.1757933745
C  C523  1  0.27360000  0.00950000  0.24670000  1.0 0.1482840582
C  C524  1  0.24780000  0.98890000  0.16490000  1.0 0.0629177727
C  C525  1  0.29510000  0.01730000  0.17760000  1.0 -0.1298315687
C  C526  1  0.33090000  0.04410000  0.22580000  1.0 -0.0464339604
C  C527  1  0.32050000  0.04170000  0.26220000  1.0 -0.0682069957
C  C528  1  0.35900000  0.07460000  0.31560000  1.0 0.6084690578
C  C529  1  0.51280000  0.13670000  0.35950000  1.0 0.6313537756
C  C530  1  0.51310000  0.14240000  0.31710000  1.0 -0.0682069957
C  C531  1  0.47560000  0.10540000  0.26980000  1.0 -0.0464339604
C  C532  1  0.47050000  0.11090000  0.22920000  1.0 -0.124804647
C  C533  1  0.50360000  0.15420000  0.23840000  1.0 0.0629177727
C  C534  1  0.54770000  0.18390000  0.32300000  1.0 0.1708745394
C  C535  1  0.59280000  0.22540000  0.37060000  1.0 0.1592509806
C  C536  1  0.63820000  0.31080000  0.41300000  1.0 0.0689907701
C  C537  1  0.66720000  0.31240000  0.45500000  1.0 -0.1105944475
C  C538  1  0.66160000  0.26960000  0.45320000  1.0 -0.0618563113
C  C539  1  0.62370000  0.22460000  0.41070000  1.0 -0.0682069957
C  C540  1  0.62240000  0.18000000  0.41340000  1.0 0.6037661123
C  C541  1  0.61940000  0.23950000  0.64030000  1.0 0.6084690578
C  C542  1  0.65750000  0.29240000  0.67990000  1.0 -0.0682069957
C  C543  1  0.67560000  0.30390000  0.72850000  1.0 -0.0399162048
C  C544  1  0.70790000  0.35230000  0.76680000  1.0 -0.1522646331
C  C545  1  0.72140000  0.38700000  0.75380000  1.0 0.0629177727
C  C546  1  0.67220000  0.32890000  0.66870000  1.0 0.1592509806
C  C547  1  0.65710000  0.32370000  0.61900000  1.0 0.1592509806
C  C548  1  0.64290000  0.36570000  0.57760000  1.0 0.0689907701
C  C549  1  0.61710000  0.32380000  0.53110000  1.0 -0.1522646331
C  C550  1  0.61690000  0.28240000  0.53030000  1.0 -0.0399162048
C  C551  1  0.63830000  0.28150000  0.57360000  1.0 -0.075701699
C  C552  1  0.64620000  0.23940000  0.57040000  1.0 0.6084690578
C  C553  1  0.65530000  0.99570000  0.67980000  1.0 0.6407078492
C  C554  1  0.67260000  0.96120000  0.68600000  1.0 -0.0919907301
C  C555  1  0.63860000  0.91150000  0.65890000  1.0 -0.0253413276
C  C556  1  0.65170000  0.87920000  0.66750000  1.0 -0.1575694834
C  C557  1  0.69840000  0.89620000  0.70520000  1.0 0.0689907701
C  C558  1  0.72100000  0.97580000  0.72140000  1.0 0.1757933745
C  C559  1  0.76280000  0.02690000  0.75330000  1.0 0.1482840582
C  C560  1  0.82400000  0.08290000  0.83510000  1.0 0.0629177727
C  C561  1  0.83970000  0.11750000  0.82240000  1.0 -0.1298315687
C  C562  1  0.81830000  0.10510000  0.77420000  1.0 -0.0464339604
C  C563  1  0.77950000  0.05830000  0.73780000  1.0 -0.0682069957
C  C564  1  0.75900000  0.04340000  0.68440000  1.0 0.6084690578
C  C565  1  0.77720000  0.15330000  0.64050000  1.0 0.6313537756
C  C566  1  0.82530000  0.19600000  0.68290000  1.0 -0.0682069957
C  C567  1  0.83560000  0.20580000  0.73020000  1.0 -0.0464339604
C  C568  1  0.88170000  0.24130000  0.77080000  1.0 -0.1298315687
C  C569  1  0.91580000  0.26520000  0.76160000  1.0 0.0629177727
C  C570  1  0.86090000  0.22470000  0.67700000  1.0 0.1708745394
C  C571  1  0.85480000  0.22220000  0.62940000  1.0 0.1592509806
C  C572  1  0.89780000  0.22520000  0.58700000  1.0 0.0689907701
C  C573  1  0.85740000  0.21220000  0.54500000  1.0 -0.1105944475
C  C574  1  0.81640000  0.20840000  0.54680000  1.0 -0.0618563113
C  C575  1  0.81390000  0.21300000  0.58930000  1.0 -0.0682069957
C  C576  1  0.76660000  0.20900000  0.58660000  1.0 0.6037661123
N  N1  1  0.62550000  0.45430000  0.20660000  1.0 -0.2191784689
N  N2  1  0.61590000  0.41230000  0.12000000  1.0 -0.2300277415
N  N3  1  0.19310000  0.48120000  0.23110000  1.0 -0.2191784689
N  N4  1  0.28760000  0.53660000  0.30080000  1.0 -0.2300277415
N  N5  1  0.50690000  0.65550000  0.21600000  1.0 -0.2191784689
N  N6  1  0.48170000  0.64680000  0.12870000  1.0 -0.2300277415
N  N7  1  0.24770000  0.41890000  0.79340000  1.0 -0.2191784689
N  N8  1  0.29230000  0.49590000  0.88000000  1.0 -0.2300277415
N  N9  1  0.25010000  0.96200000  0.76890000  1.0 -0.2300277415
N  N10  1  0.23580000  0.98680000  0.69920000  1.0 -0.2350645972
N  N11  1  0.43950000  0.29090000  0.78400000  1.0 -0.2191784689
N  N12  1  0.51810000  0.35300000  0.87130000  1.0 -0.2300277415
N  N13  1  0.16890000  0.87550000  0.67120000  1.0 -0.2191784689
N  N14  1  0.24590000  0.86590000  0.70360000  1.0 -0.2300277415
N  N15  1  0.71200000  0.44310000  0.21190000  1.0 -0.2191784689
N  N16  1  0.73680000  0.53760000  0.25100000  1.0 -0.2300277415
N  N17  1  0.04090000  0.75690000  0.35140000  1.0 -0.2191784689
N  N18  1  0.10300000  0.73170000  0.33490000  1.0 -0.2300277415
N  N19  1  0.20430000  0.49770000  0.32880000  1.0 -0.2191784689
N  N20  1  0.16230000  0.54230000  0.29640000  1.0 -0.2300277415
N  N21  1  0.23120000  0.50010000  0.78810000  1.0 -0.2300277415
N  N22  1  0.28660000  0.48580000  0.74900000  1.0 -0.2300277415
N  N23  1  0.40550000  0.68950000  0.64860000  1.0 -0.2191784689
N  N24  1  0.39680000  0.76810000  0.66510000  1.0 -0.2300277415
N  N25  1  0.62450000  0.33110000  0.32880000  1.0 -0.21425295
N  N26  1  0.63410000  0.25410000  0.29640000  1.0 -0.2300277415
N  N27  1  0.05690000  0.78800000  0.78810000  1.0 -0.2191784689
N  N28  1  0.96240000  0.76320000  0.74900000  1.0 -0.2300277415
N  N29  1  0.74310000  0.45910000  0.64860000  1.0 -0.2191784689
N  N30  1  0.76830000  0.39700000  0.66510000  1.0 -0.2300277415
N  N31  1  0.00230000  0.29570000  0.67120000  1.0 -0.2191784689
N  N32  1  0.95770000  0.33770000  0.70360000  1.0 -0.2300277415
N  N33  1  0.99990000  0.26880000  0.21190000  1.0 -0.2191784689
N  N34  1  0.01420000  0.21340000  0.25100000  1.0 -0.2300277415
N  N35  1  0.81050000  0.09450000  0.35140000  1.0 -0.2191784689
N  N36  1  0.73190000  0.10320000  0.33490000  1.0 -0.2300277415
N  N37  1  0.08110000  0.25230000  0.20660000  1.0 -0.21425295
N  N38  1  0.00410000  0.20770000  0.12000000  1.0 -0.2300277415
N  N39  1  0.53800000  0.24990000  0.23110000  1.0 -0.2191784689
N  N40  1  0.51320000  0.26420000  0.30080000  1.0 -0.2300277415
N  N41  1  0.20910000  0.06050000  0.21600000  1.0 -0.2191784689
N  N42  1  0.14700000  0.98190000  0.12870000  1.0 -0.2300277415
N  N43  1  0.04570000  0.87450000  0.79340000  1.0 -0.2191784689
N  N44  1  0.08770000  0.88410000  0.88000000  1.0 -0.2300277415
N  N45  1  0.01880000  0.30690000  0.76890000  1.0 -0.2191784689
N  N46  1  0.96340000  0.21240000  0.69920000  1.0 -0.2300277415
N  N47  1  0.84450000  0.99310000  0.78400000  1.0 -0.2191784689
N  N48  1  0.85320000  0.01830000  0.87130000  1.0 -0.2300277415
N  N49  1  0.12450000  0.79570000  0.29340000  1.0 -0.2191784689
N  N50  1  0.13410000  0.83770000  0.38000000  1.0 -0.2300277415
N  N51  1  0.55690000  0.76880000  0.26890000  1.0 -0.2191784689
N  N52  1  0.46240000  0.71340000  0.19920000  1.0 -0.2350645972
N  N53  1  0.24310000  0.59450000  0.28400000  1.0 -0.2191784689
N  N54  1  0.26830000  0.60320000  0.37130000  1.0 -0.2300277415
N  N55  1  0.50230000  0.83110000  0.70660000  1.0 -0.2191784689
N  N56  1  0.45770000  0.75410000  0.62000000  1.0 -0.2300277415
N  N57  1  0.49990000  0.28800000  0.73110000  1.0 -0.2191784689
N  N58  1  0.51420000  0.26320000  0.80080000  1.0 -0.2300277415
N  N59  1  0.31050000  0.95910000  0.71600000  1.0 -0.2191784689
N  N60  1  0.23190000  0.89700000  0.62870000  1.0 -0.2300277415
N  N61  1  0.58110000  0.37450000  0.82880000  1.0 -0.2191784689
N  N62  1  0.50410000  0.38410000  0.79640000  1.0 -0.2300277415
N  N63  1  0.03800000  0.80690000  0.28810000  1.0 -0.2191784689
N  N64  1  0.01320000  0.71240000  0.24900000  1.0 -0.2300277415
N  N65  1  0.70910000  0.49310000  0.14860000  1.0 -0.2191784689
N  N66  1  0.64700000  0.51830000  0.16510000  1.0 -0.2300277415
N  N67  1  0.54570000  0.75230000  0.17120000  1.0 -0.21425295
N  N68  1  0.58770000  0.70770000  0.20360000  1.0 -0.2300277415
N  N69  1  0.51880000  0.74990000  0.71190000  1.0 -0.2191784689
N  N70  1  0.46340000  0.76420000  0.75100000  1.0 -0.2300277415
N  N71  1  0.34450000  0.56050000  0.85140000  1.0 -0.2191784689
N  N72  1  0.35320000  0.48190000  0.83490000  1.0 -0.2300277415
N  N73  1  0.12550000  0.91890000  0.17120000  1.0 -0.2191784689
N  N74  1  0.11590000  0.99590000  0.20360000  1.0 -0.2300277415
N  N75  1  0.69310000  0.46200000  0.71190000  1.0 -0.2191784689
N  N76  1  0.78760000  0.48680000  0.75100000  1.0 -0.2300277415
N  N77  1  0.00690000  0.79090000  0.85140000  1.0 -0.2191784689
N  N78  1  0.98170000  0.85300000  0.83490000  1.0 -0.2300277415
N  N79  1  0.74770000  0.95430000  0.82880000  1.0 -0.2191784689
N  N80  1  0.79230000  0.91230000  0.79640000  1.0 -0.2300277415
N  N81  1  0.75010000  0.98120000  0.28810000  1.0 -0.2191784689
N  N82  1  0.73580000  0.03660000  0.24900000  1.0 -0.2300277415
N  N83  1  0.93950000  0.15550000  0.14860000  1.0 -0.2191784689
N  N84  1  0.01810000  0.14680000  0.16510000  1.0 -0.2300277415
N  N85  1  0.66890000  0.99770000  0.29340000  1.0 -0.21425295
N  N86  1  0.74590000  0.04230000  0.38000000  1.0 -0.2300277415
N  N87  1  0.21200000  0.00010000  0.26890000  1.0 -0.2300277415
N  N88  1  0.23680000  0.98580000  0.19920000  1.0 -0.2350645972
N  N89  1  0.54090000  0.18950000  0.28400000  1.0 -0.2191784689
N  N90  1  0.60300000  0.26810000  0.37130000  1.0 -0.2300277415
N  N91  1  0.70430000  0.37550000  0.70660000  1.0 -0.2191784689
N  N92  1  0.66230000  0.36590000  0.62000000  1.0 -0.2300277415
N  N93  1  0.73120000  0.94310000  0.73110000  1.0 -0.2300277415
N  N94  1  0.78660000  0.03760000  0.80080000  1.0 -0.2350645972
N  N95  1  0.90550000  0.25690000  0.71600000  1.0 -0.2191784689
N  N96  1  0.89680000  0.23170000  0.62870000  1.0 -0.2300277415
O  O1  1  0.30330000  0.40350000  0.11040000  1.0 -0.6514173349
O  O2  1  0.39429000  0.48759000  0.23850000  1.0 -0.6736129088
O  O3  1  0.35011000  0.31682000  0.10385000  1.0 -0.6375845888
O  O4  1  0.43830000  0.38830000  0.23300000  1.0 -0.6578508852
O  O5  1  0.39873000  0.41099000  0.07628000  1.0 -0.7083592968
O  O6  1  0.49981000  0.49221000  0.20040000  1.0 -0.682721102
O  O7  1  0.40296000  0.42096000  0.16460000  1.0 -1.0989380715
O  O8  1  0.34480000  0.30410000  0.18370000  1.0 -1.1088235615
O  O9  1  0.45855000  0.38266000  0.14839000  1.0 -0.6989832459
O  O10  1  0.47863000  0.33218000  0.10645000  1.0 -0.4385337097
O  O11  1  0.49838000  0.43265000  0.10883000  1.0 -0.6578508852
O  O12  1  0.44938000  0.36911000  0.03109000  1.0 -0.5274970507
O  O13  1  0.23050000  0.36040000  0.15810000  1.0 -0.5774859873
O  O14  1  0.28957000  0.43627000  0.19790000  1.0 -0.6111741302
O  O15  1  0.25150000  0.49860000  0.15470000  1.0 -0.5211766598
O  O16  1  0.32425000  0.50485000  0.17200000  1.0 -0.6206975927
O  O17  1  0.39853000  0.49126000  0.14933000  1.0 -0.7083592968
O  O18  1  0.37609000  0.52339000  0.10270000  1.0 -0.455696701
O  O19  1  0.47312000  0.51754000  0.12782000  1.0 -0.6375845888
O  O20  1  0.44560000  0.48270000  0.04730000  1.0 -0.5274970507
O  O21  1  0.29310000  0.19290000  0.88960000  1.0 -0.6514173349
O  O22  1  0.24909000  0.15579000  0.76150000  1.0 -0.6736129088
O  O23  1  0.21297000  0.24626000  0.89615000  1.0 -0.6375845888
O  O24  1  0.15530000  0.20530000  0.76700000  1.0 -0.6578508852
O  O25  1  0.33471000  0.32245000  0.92372000  1.0 -0.7083592968
O  O26  1  0.29181000  0.29941000  0.79960000  1.0 -0.682721102
O  O27  1  0.25636000  0.23836000  0.83540000  1.0 -1.0989380715
O  O28  1  0.12040000  0.16110000  0.81630000  1.0 -1.1088235615
O  O29  1  0.23427000  0.31016000  0.85161000  1.0 -0.6989832459
O  O30  1  0.22573000  0.37218000  0.89355000  1.0 -0.4385337097
O  O31  1  0.32382000  0.38955000  0.89117000  1.0 -0.6578508852
O  O32  1  0.33802000  0.41829000  0.96891000  1.0 -0.5274970507
O  O33  1  0.20230000  0.07240000  0.84190000  1.0 -0.5774859873
O  O34  1  0.23837000  0.09167000  0.80210000  1.0 -0.6111741302
O  O35  1  0.34390000  0.09680000  0.84530000  1.0 -0.5211766598
O  O36  1  0.33285000  0.15225000  0.82800000  1.0 -0.6206975927
O  O37  1  0.34193000  0.24920000  0.85067000  1.0 -0.7083592968
O  O38  1  0.42069000  0.27339000  0.89730000  1.0 -0.455696701
O  O39  1  0.38972000  0.34530000  0.87218000  1.0 -0.6375845888
O  O40  1  0.43540000  0.39830000  0.95270000  1.0 -0.5274970507
O  O41  1  0.94290000  0.55330000  0.39980000  1.0 -0.6514173349
O  O42  1  0.90579000  0.64429000  0.40670000  1.0 -0.6736129088
O  O43  1  0.99626000  0.60011000  0.53329000  1.0 -0.6375845888
O  O44  1  0.95530000  0.68830000  0.55000000  1.0 -0.6578508852
O  O45  1  0.07245000  0.64873000  0.48774000  1.0 -0.7083592968
O  O46  1  0.04941000  0.74981000  0.50760000  1.0 -0.682721102
O  O47  1  0.98836000  0.65296000  0.48200000  1.0 -1.0989380715
O  O48  1  0.91110000  0.59480000  0.54070000  1.0 -1.1088235615
O  O49  1  0.06016000  0.70855000  0.57589000  1.0 -0.6989832459
O  O50  1  0.12218000  0.72863000  0.64645000  1.0 -0.4385337097
O  O51  1  0.13955000  0.74838000  0.56573000  1.0 -0.6578508852
O  O52  1  0.16829000  0.69938000  0.58027000  1.0 -0.5274970507
O  O53  1  0.82240000  0.48050000  0.37010000  1.0 -0.5774859873
O  O54  1  0.84167000  0.53957000  0.35330000  1.0 -0.6111741302
O  O55  1  0.84680000  0.50150000  0.25290000  1.0 -0.5211766598
O  O56  1  0.90225000  0.57425000  0.31940000  1.0 -0.6206975927
O  O57  1  0.99920000  0.64853000  0.40727000  1.0 -0.7083592968
O  O58  1  0.02339000  0.62609000  0.35270000  1.0 -0.455696701
O  O59  1  0.09530000  0.72312000  0.45558000  1.0 -0.6375845888
O  O60  1  0.14830000  0.69560000  0.46290000  1.0 -0.5274970507
O  O61  1  0.15350000  0.54310000  0.60020000  1.0 -0.6514173349
O  O62  1  0.23759000  0.49909000  0.59330000  1.0 -0.6736129088
O  O63  1  0.06682000  0.46297000  0.46671000  1.0 -0.6375845888
O  O64  1  0.13830000  0.40530000  0.45000000  1.0 -0.6578508852
O  O65  1  0.16099000  0.58471000  0.51226000  1.0 -0.7083592968
O  O66  1  0.24221000  0.54181000  0.49240000  1.0 -0.682721102
O  O67  1  0.17096000  0.50636000  0.51800000  1.0 -1.0989380715
O  O68  1  0.05410000  0.37040000  0.45930000  1.0 -1.1088235615
O  O69  1  0.13266000  0.48427000  0.42411000  1.0 -0.6989832459
O  O70  1  0.08218000  0.47573000  0.35355000  1.0 -0.4385337097
O  O71  1  0.18265000  0.57382000  0.43427000  1.0 -0.6578508852
O  O72  1  0.11911000  0.58802000  0.41973000  1.0 -0.5274970507
O  O73  1  0.11040000  0.45230000  0.62990000  1.0 -0.5774859873
O  O74  1  0.18627000  0.48837000  0.64670000  1.0 -0.6111741302
O  O75  1  0.24860000  0.59390000  0.74710000  1.0 -0.5211766598
O  O76  1  0.25485000  0.58285000  0.68060000  1.0 -0.6206975927
O  O77  1  0.24126000  0.59193000  0.59273000  1.0 -0.7083592968
O  O78  1  0.27339000  0.67069000  0.64730000  1.0 -0.4539462738
O  O79  1  0.26754000  0.63972000  0.54442000  1.0 -0.6375845888
O  O80  1  0.23270000  0.68540000  0.53710000  1.0 -0.5274970507
O  O81  1  0.94670000  0.55710000  0.60020000  1.0 -0.6514173349
O  O82  1  0.85571000  0.59421000  0.59330000  1.0 -0.6736129088
O  O83  1  0.89989000  0.50374000  0.46671000  1.0 -0.6375845888
O  O84  1  0.81170000  0.54470000  0.45000000  1.0 -0.6578508852
O  O85  1  0.85127000  0.42755000  0.51226000  1.0 -0.7083592968
O  O86  1  0.75019000  0.45059000  0.49240000  1.0 -0.682721102
O  O87  1  0.84704000  0.51164000  0.51800000  1.0 -1.0989380715
O  O88  1  0.90520000  0.58890000  0.45930000  1.0 -1.1088235615
O  O89  1  0.79145000  0.43984000  0.42411000  1.0 -0.6989832459
O  O90  1  0.77137000  0.37782000  0.35355000  1.0 -0.4385337097
O  O91  1  0.75162000  0.36045000  0.43427000  1.0 -0.6578508852
O  O92  1  0.80062000  0.33171000  0.41973000  1.0 -0.5274970507
O  O93  1  0.01950000  0.67760000  0.62990000  1.0 -0.5774859873
O  O94  1  0.96043000  0.65833000  0.64670000  1.0 -0.6111741302
O  O95  1  0.99850000  0.65320000  0.74710000  1.0 -0.5211766598
O  O96  1  0.92575000  0.59775000  0.68060000  1.0 -0.6206975927
O  O97  1  0.85147000  0.50080000  0.59273000  1.0 -0.7083592968
O  O98  1  0.87391000  0.47661000  0.64730000  1.0 -0.455696701
O  O99  1  0.77688000  0.40470000  0.54442000  1.0 -0.6375845888
O  O100  1  0.80440000  0.35170000  0.53710000  1.0 -0.5274970507
O  O101  1  0.95690000  0.34650000  0.39980000  1.0 -0.6514173349
O  O102  1  0.00091000  0.26241000  0.40670000  1.0 -0.6736129088
O  O103  1  0.03703000  0.43318000  0.53329000  1.0 -0.6375845888
O  O104  1  0.09470000  0.36170000  0.55000000  1.0 -0.6578508852
O  O105  1  0.91529000  0.33901000  0.48774000  1.0 -0.7083592968
O  O106  1  0.95819000  0.25779000  0.50760000  1.0 -0.682721102
O  O107  1  0.99364000  0.32904000  0.48200000  1.0 -1.0989380715
O  O108  1  0.12960000  0.44590000  0.54070000  1.0 -1.1088235615
O  O109  1  0.01573000  0.36734000  0.57589000  1.0 -0.6989832459
O  O110  1  0.02427000  0.41782000  0.64645000  1.0 -0.4385337097
O  O111  1  0.92618000  0.31735000  0.56573000  1.0 -0.6578508852
O  O112  1  0.91198000  0.38089000  0.58027000  1.0 -0.5274970507
O  O113  1  0.04770000  0.38960000  0.37010000  1.0 -0.5774859873
O  O114  1  0.01163000  0.31373000  0.35330000  1.0 -0.6111741302
O  O115  1  0.90610000  0.25140000  0.25290000  1.0 -0.5211766598
O  O116  1  0.91715000  0.24515000  0.31940000  1.0 -0.6206975927
O  O117  1  0.90807000  0.25874000  0.40727000  1.0 -0.7083592968
O  O118  1  0.82931000  0.22661000  0.35270000  1.0 -0.455696701
O  O119  1  0.86028000  0.23246000  0.45558000  1.0 -0.6375845888
O  O120  1  0.81460000  0.26730000  0.46290000  1.0 -0.5274970507
O  O121  1  0.30710000  0.20690000  0.11040000  1.0 -0.6514173349
O  O122  1  0.34421000  0.25091000  0.23850000  1.0 -0.6736129088
O  O123  1  0.25374000  0.28703000  0.10385000  1.0 -0.6375845888
O  O124  1  0.29470000  0.34470000  0.23300000  1.0 -0.6578508852
O  O125  1  0.17755000  0.16529000  0.07628000  1.0 -0.7083592968
O  O126  1  0.20059000  0.20819000  0.20040000  1.0 -0.682721102
O  O127  1  0.26164000  0.24364000  0.16460000  1.0 -1.0989380715
O  O128  1  0.33890000  0.37960000  0.18370000  1.0 -1.1088235615
O  O129  1  0.18984000  0.26573000  0.14839000  1.0 -0.6989832459
O  O130  1  0.12782000  0.27427000  0.10645000  1.0 -0.4385337097
O  O131  1  0.11045000  0.17618000  0.10883000  1.0 -0.6578508852
O  O132  1  0.08171000  0.16198000  0.03109000  1.0 -0.5274970507
O  O133  1  0.42760000  0.29770000  0.15810000  1.0 -0.5774859873
O  O134  1  0.40833000  0.26163000  0.19790000  1.0 -0.6111741302
O  O135  1  0.40320000  0.15610000  0.15470000  1.0 -0.5211766598
O  O136  1  0.34775000  0.16715000  0.17200000  1.0 -0.6206975927
O  O137  1  0.25080000  0.15807000  0.14933000  1.0 -0.7083592968
O  O138  1  0.22661000  0.07931000  0.10270000  1.0 -0.4539462738
O  O139  1  0.15470000  0.11028000  0.12782000  1.0 -0.6375845888
O  O140  1  0.10170000  0.06460000  0.04730000  1.0 -0.5274970507
O  O141  1  0.09650000  0.19670000  0.88960000  1.0 -0.6514173349
O  O142  1  0.01241000  0.10571000  0.76150000  1.0 -0.6736129088
O  O143  1  0.18318000  0.14989000  0.89615000  1.0 -0.6375845888
O  O144  1  0.11170000  0.06170000  0.76700000  1.0 -0.6578508852
O  O145  1  0.08901000  0.10127000  0.92372000  1.0 -0.7083592968
O  O146  1  0.00779000  0.00019000  0.79960000  1.0 -0.682721102
O  O147  1  0.07904000  0.09704000  0.83540000  1.0 -1.0989380715
O  O148  1  0.19590000  0.15520000  0.81630000  1.0 -1.1088235615
O  O149  1  0.11734000  0.04145000  0.85161000  1.0 -0.6989832459
O  O150  1  0.16782000  0.02137000  0.89355000  1.0 -0.4385337097
O  O151  1  0.06735000  0.00162000  0.89117000  1.0 -0.6578508852
O  O152  1  0.13089000  0.05062000  0.96891000  1.0 -0.5274970507
O  O153  1  0.13960000  0.26950000  0.84190000  1.0 -0.5774859873
O  O154  1  0.06373000  0.21043000  0.80210000  1.0 -0.6111741302
O  O155  1  0.00140000  0.24850000  0.84530000  1.0 -0.5211766598
O  O156  1  0.99515000  0.17575000  0.82800000  1.0 -0.6206975927
O  O157  1  0.00874000  0.10147000  0.85067000  1.0 -0.7083592968
O  O158  1  0.97661000  0.12391000  0.89730000  1.0 -0.455696701
O  O159  1  0.98246000  0.02688000  0.87218000  1.0 -0.6375845888
O  O160  1  0.01730000  0.05440000  0.95270000  1.0 -0.5274970507
O  O161  1  0.44670000  0.84650000  0.38960000  1.0 -0.6514173349
O  O162  1  0.35571000  0.76241000  0.26150000  1.0 -0.6736129088
O  O163  1  0.39989000  0.93318000  0.39615000  1.0 -0.6375845888
O  O164  1  0.31170000  0.86170000  0.26700000  1.0 -0.6578508852
O  O165  1  0.35127000  0.83901000  0.42372000  1.0 -0.7083592968
O  O166  1  0.25019000  0.75779000  0.29960000  1.0 -0.682721102
O  O167  1  0.34704000  0.82904000  0.33540000  1.0 -1.0989380715
O  O168  1  0.40520000  0.94590000  0.31630000  1.0 -1.1088235615
O  O169  1  0.29145000  0.86734000  0.35161000  1.0 -0.6989832459
O  O170  1  0.27137000  0.91782000  0.39355000  1.0 -0.4385337097
O  O171  1  0.25162000  0.81735000  0.39117000  1.0 -0.6578508852
O  O172  1  0.30062000  0.88089000  0.46891000  1.0 -0.5274970507
O  O173  1  0.51950000  0.88960000  0.34190000  1.0 -0.5774859873
O  O174  1  0.46043000  0.81373000  0.30210000  1.0 -0.6111741302
O  O175  1  0.49850000  0.75140000  0.34530000  1.0 -0.5211766598
O  O176  1  0.42575000  0.74515000  0.32800000  1.0 -0.6206975927
O  O177  1  0.35147000  0.75874000  0.35067000  1.0 -0.7083592968
O  O178  1  0.37391000  0.72661000  0.39730000  1.0 -0.455696701
O  O179  1  0.27688000  0.73246000  0.37218000  1.0 -0.6375845888
O  O180  1  0.30440000  0.76730000  0.45270000  1.0 -0.5274970507
O  O181  1  0.45690000  0.05710000  0.61040000  1.0 -0.6514173349
O  O182  1  0.50091000  0.09421000  0.73850000  1.0 -0.6736129088
O  O183  1  0.53703000  0.00374000  0.60385000  1.0 -0.6375845888
O  O184  1  0.59470000  0.04470000  0.73300000  1.0 -0.6578508852
O  O185  1  0.41529000  0.92755000  0.57628000  1.0 -0.7083592968
O  O186  1  0.45819000  0.95059000  0.70040000  1.0 -0.682721102
O  O187  1  0.49364000  0.01164000  0.66460000  1.0 -1.0989380715
O  O188  1  0.62960000  0.08890000  0.68370000  1.0 -1.1088235615
O  O189  1  0.51573000  0.93984000  0.64839000  1.0 -0.6989832459
O  O190  1  0.52427000  0.87782000  0.60645000  1.0 -0.4385337097
O  O191  1  0.42618000  0.86045000  0.60883000  1.0 -0.6578508852
O  O192  1  0.41198000  0.83171000  0.53109000  1.0 -0.5274970507
O  O193  1  0.54770000  0.17760000  0.65810000  1.0 -0.5774859873
O  O194  1  0.51163000  0.15833000  0.69790000  1.0 -0.6111741302
O  O195  1  0.40610000  0.15320000  0.65470000  1.0 -0.5211766598
O  O196  1  0.41715000  0.09775000  0.67200000  1.0 -0.6206975927
O  O197  1  0.40807000  0.00080000  0.64933000  1.0 -0.7083592968
O  O198  1  0.32931000  0.97661000  0.60270000  1.0 -0.455696701
O  O199  1  0.36028000  0.90470000  0.62782000  1.0 -0.6375845888
O  O200  1  0.31460000  0.85170000  0.54730000  1.0 -0.5274970507
O  O201  1  0.80710000  0.69670000  0.10020000  1.0 -0.6514173349
O  O202  1  0.84421000  0.60571000  0.09330000  1.0 -0.6736129088
O  O203  1  0.75374000  0.64989000  0.96671000  1.0 -0.6375845888
O  O204  1  0.79470000  0.56170000  0.95000000  1.0 -0.6578508852
O  O205  1  0.67755000  0.60127000  0.01226000  1.0 -0.7083592968
O  O206  1  0.70059000  0.50019000  0.99240000  1.0 -0.682721102
O  O207  1  0.76164000  0.59704000  0.01800000  1.0 -1.0989380715
O  O208  1  0.83890000  0.65520000  0.95930000  1.0 -1.1088235615
O  O209  1  0.68984000  0.54145000  0.92411000  1.0 -0.6989832459
O  O210  1  0.62782000  0.52137000  0.85355000  1.0 -0.4385337097
O  O211  1  0.61045000  0.50162000  0.93427000  1.0 -0.6578508852
O  O212  1  0.58171000  0.55062000  0.91973000  1.0 -0.5274970507
O  O213  1  0.92760000  0.76950000  0.12990000  1.0 -0.5774859873
O  O214  1  0.90833000  0.71043000  0.14670000  1.0 -0.6111741302
O  O215  1  0.90320000  0.74850000  0.24710000  1.0 -0.5211766598
O  O216  1  0.84775000  0.67575000  0.18060000  1.0 -0.6206975927
O  O217  1  0.75080000  0.60147000  0.09273000  1.0 -0.7083592968
O  O218  1  0.72661000  0.62391000  0.14730000  1.0 -0.455696701
O  O219  1  0.65470000  0.52688000  0.04442000  1.0 -0.6375845888
O  O220  1  0.60170000  0.55440000  0.03710000  1.0 -0.5274970507
O  O221  1  0.59650000  0.70690000  0.89980000  1.0 -0.6514173349
O  O222  1  0.51241000  0.75091000  0.90670000  1.0 -0.6736129088
O  O223  1  0.68318000  0.78703000  0.03329000  1.0 -0.6375845888
O  O224  1  0.61170000  0.84470000  0.05000000  1.0 -0.6578508852
O  O225  1  0.58901000  0.66529000  0.98774000  1.0 -0.7083592968
O  O226  1  0.50779000  0.70819000  0.00760000  1.0 -0.682721102
O  O227  1  0.57904000  0.74364000  0.98200000  1.0 -1.0989380715
O  O228  1  0.69590000  0.87960000  0.04070000  1.0 -1.1088235615
O  O229  1  0.61734000  0.76573000  0.07589000  1.0 -0.6989832459
O  O230  1  0.66782000  0.77427000  0.14645000  1.0 -0.4385337097
O  O231  1  0.56735000  0.67618000  0.06573000  1.0 -0.6578508852
O  O232  1  0.63089000  0.66198000  0.08027000  1.0 -0.5274970507
O  O233  1  0.63960000  0.79770000  0.87010000  1.0 -0.5774859873
O  O234  1  0.56373000  0.76163000  0.85330000  1.0 -0.6111741302
O  O235  1  0.50140000  0.65610000  0.75290000  1.0 -0.5211766598
O  O236  1  0.49515000  0.66715000  0.81940000  1.0 -0.6206975927
O  O237  1  0.50874000  0.65807000  0.90727000  1.0 -0.7083592968
O  O238  1  0.47661000  0.57931000  0.85270000  1.0 -0.455696701
O  O239  1  0.48246000  0.61028000  0.95558000  1.0 -0.6375845888
O  O240  1  0.51730000  0.56460000  0.96290000  1.0 -0.5274970507
O  O241  1  0.80330000  0.69290000  0.89980000  1.0 -0.6514173349
O  O242  1  0.89429000  0.65579000  0.90670000  1.0 -0.6736129088
O  O243  1  0.85011000  0.74626000  0.03329000  1.0 -0.6375845888
O  O244  1  0.93830000  0.70530000  0.05000000  1.0 -0.6578508852
O  O245  1  0.89873000  0.82245000  0.98774000  1.0 -0.7083592968
O  O246  1  0.99981000  0.79941000  0.00760000  1.0 -0.682721102
O  O247  1  0.90296000  0.73836000  0.98200000  1.0 -1.0989380715
O  O248  1  0.84480000  0.66110000  0.04070000  1.0 -1.1088235615
O  O249  1  0.95855000  0.81016000  0.07589000  1.0 -0.6989832459
O  O250  1  0.97863000  0.87218000  0.14645000  1.0 -0.4385337097
O  O251  1  0.99838000  0.88955000  0.06573000  1.0 -0.6578508852
O  O252  1  0.94938000  0.91829000  0.08027000  1.0 -0.5274970507
O  O253  1  0.73050000  0.57240000  0.87010000  1.0 -0.5774859873
O  O254  1  0.78957000  0.59167000  0.85330000  1.0 -0.6111741302
O  O255  1  0.75150000  0.59680000  0.75290000  1.0 -0.5211766598
O  O256  1  0.82425000  0.65225000  0.81940000  1.0 -0.6206975927
O  O257  1  0.89853000  0.74920000  0.90727000  1.0 -0.7083592968
O  O258  1  0.87609000  0.77339000  0.85270000  1.0 -0.455696701
O  O259  1  0.97312000  0.84530000  0.95558000  1.0 -0.6375845888
O  O260  1  0.94560000  0.89830000  0.96290000  1.0 -0.5274970507
O  O261  1  0.79310000  0.90350000  0.10020000  1.0 -0.6514173349
O  O262  1  0.74909000  0.98759000  0.09330000  1.0 -0.6736129088
O  O263  1  0.71297000  0.81682000  0.96671000  1.0 -0.6375845888
O  O264  1  0.65530000  0.88830000  0.95000000  1.0 -0.6578508852
O  O265  1  0.83471000  0.91099000  0.01226000  1.0 -0.7083592968
O  O266  1  0.79181000  0.99221000  0.99240000  1.0 -0.682721102
O  O267  1  0.75636000  0.92096000  0.01800000  1.0 -1.0989380715
O  O268  1  0.62040000  0.80410000  0.95930000  1.0 -1.1088235615
O  O269  1  0.73427000  0.88266000  0.92411000  1.0 -0.6989832459
O  O270  1  0.72573000  0.83218000  0.85355000  1.0 -0.4385337097
O  O271  1  0.82382000  0.93265000  0.93427000  1.0 -0.6578508852
O  O272  1  0.83802000  0.86911000  0.91973000  1.0 -0.5274970507
O  O273  1  0.70230000  0.86040000  0.12990000  1.0 -0.5774859873
O  O274  1  0.73837000  0.93627000  0.14670000  1.0 -0.6111741302
O  O275  1  0.84390000  0.99860000  0.24710000  1.0 -0.5211766598
O  O276  1  0.83285000  0.00485000  0.18060000  1.0 -0.6206975927
O  O277  1  0.84193000  0.99126000  0.09273000  1.0 -0.7083592968
O  O278  1  0.92069000  0.02339000  0.14730000  1.0 -0.455696701
O  O279  1  0.88972000  0.01754000  0.04442000  1.0 -0.6375845888
O  O280  1  0.93540000  0.98270000  0.03710000  1.0 -0.5274970507
O  O281  1  0.44290000  0.04310000  0.38960000  1.0 -0.6514173349
O  O282  1  0.40579000  0.99909000  0.26150000  1.0 -0.6736129088
O  O283  1  0.49626000  0.96297000  0.39615000  1.0 -0.6375845888
O  O284  1  0.45530000  0.90530000  0.26700000  1.0 -0.6578508852
O  O285  1  0.57245000  0.08471000  0.42372000  1.0 -0.7083592968
O  O286  1  0.54941000  0.04181000  0.29960000  1.0 -0.682721102
O  O287  1  0.48836000  0.00636000  0.33540000  1.0 -1.0989380715
O  O288  1  0.41110000  0.87040000  0.31630000  1.0 -1.1088235615
O  O289  1  0.56016000  0.98427000  0.35161000  1.0 -0.6989832459
O  O290  1  0.62218000  0.97573000  0.39355000  1.0 -0.4385337097
O  O291  1  0.63955000  0.07382000  0.39117000  1.0 -0.6578508852
O  O292  1  0.66829000  0.08802000  0.46891000  1.0 -0.5274970507
O  O293  1  0.32240000  0.95230000  0.34190000  1.0 -0.5774859873
O  O294  1  0.34167000  0.98837000  0.30210000  1.0 -0.6111741302
O  O295  1  0.34680000  0.09390000  0.34530000  1.0 -0.5211766598
O  O296  1  0.40225000  0.08285000  0.32800000  1.0 -0.6206975927
O  O297  1  0.49920000  0.09193000  0.35067000  1.0 -0.7083592968
O  O298  1  0.52339000  0.17069000  0.39730000  1.0 -0.455696701
O  O299  1  0.59530000  0.13972000  0.37218000  1.0 -0.6375845888
O  O300  1  0.64830000  0.18540000  0.45270000  1.0 -0.5274970507
O  O301  1  0.65350000  0.05330000  0.61040000  1.0 -0.6514173349
O  O302  1  0.73759000  0.14429000  0.73850000  1.0 -0.6736129088
O  O303  1  0.56682000  0.10011000  0.60385000  1.0 -0.6375845888
O  O304  1  0.63830000  0.18830000  0.73300000  1.0 -0.6578508852
O  O305  1  0.66099000  0.14873000  0.57628000  1.0 -0.7083592968
O  O306  1  0.74221000  0.24981000  0.70040000  1.0 -0.682721102
O  O307  1  0.67096000  0.15296000  0.66460000  1.0 -1.0989380715
O  O308  1  0.55410000  0.09480000  0.68370000  1.0 -1.1088235615
O  O309  1  0.63266000  0.20855000  0.64839000  1.0 -0.6989832459
O  O310  1  0.58218000  0.22863000  0.60645000  1.0 -0.4385337097
O  O311  1  0.68265000  0.24838000  0.60883000  1.0 -0.6578508852
O  O312  1  0.61911000  0.19938000  0.53109000  1.0 -0.5274970507
O  O313  1  0.61040000  0.98050000  0.65810000  1.0 -0.5774859873
O  O314  1  0.68627000  0.03957000  0.69790000  1.0 -0.6111741302
O  O315  1  0.74860000  0.00150000  0.65470000  1.0 -0.5211766598
O  O316  1  0.75485000  0.07425000  0.67200000  1.0 -0.6206975927
O  O317  1  0.74126000  0.14853000  0.64933000  1.0 -0.7083592968
O  O318  1  0.77339000  0.12609000  0.60270000  1.0 -0.4539462738
O  O319  1  0.76754000  0.22312000  0.62782000  1.0 -0.6375845888
O  O320  1  0.73270000  0.19560000  0.54730000  1.0 -0.5274970507
