# DDEC6 charges by PACMAN v1.1 (https://github.com/mtap-research/PACMAN-charge/)
data_BODPAN_FSR_pacman
_symmetry_space_group_name_H-M   'P 1'
_cell_length_a   37.12860000
_cell_length_b   37.12860000
_cell_length_c   37.12860000
_cell_angle_alpha   60.00000000
_cell_angle_beta   60.00000000
_cell_angle_gamma   60.00000000
_symmetry_Int_Tables_number   1
_chemical_formula_structural   Cu5H4C17O10
_chemical_formula_sum   'Cu240 H192 C816 O480'
_cell_volume   36191.84499578
_cell_formula_units_Z   48
loop_
 _symmetry_equiv_pos_site_id
 _symmetry_equiv_pos_as_xyz
  1  'x, y, z'
loop_
 _atom_site_type_symbol
 _atom_site_label
 _atom_site_symmetry_multiplicity
 _atom_site_fract_x
 _atom_site_fract_y
 _atom_site_fract_z
 _atom_site_occupancy
 _atom_site_charge
Cu  Cu1  1  0.71481000  0.49589000  0.28519000  1.0 0.9033763546
Cu  Cu2  1  0.99589000  0.21481000  0.78519000  1.0 0.9033763546
Cu  Cu3  1  0.49589000  0.71481000  0.50411000  1.0 0.9033763546
Cu  Cu4  1  0.21481000  0.99589000  0.00411000  1.0 0.9033763546
Cu  Cu5  1  0.00411000  0.99589000  0.78519000  1.0 0.9033763546
Cu  Cu6  1  0.50411000  0.28519000  0.49589000  1.0 0.9033763546
Cu  Cu7  1  0.21481000  0.78519000  0.99589000  1.0 0.9033763546
Cu  Cu8  1  0.00411000  0.21481000  0.99589000  1.0 0.9033763546
Cu  Cu9  1  0.28519000  0.50411000  0.71481000  1.0 0.9033763546
Cu  Cu10  1  0.99589000  0.78519000  0.00411000  1.0 0.9033763546
Cu  Cu11  1  0.28519000  0.71481000  0.49589000  1.0 0.9033763546
Cu  Cu12  1  0.49589000  0.28519000  0.71481000  1.0 0.9033763546
Cu  Cu13  1  0.28519000  0.49589000  0.50411000  1.0 0.9033763546
Cu  Cu14  1  0.50411000  0.49589000  0.71481000  1.0 0.9033763546
Cu  Cu15  1  0.71481000  0.50411000  0.49589000  1.0 0.9033763546
Cu  Cu16  1  0.71481000  0.28519000  0.50411000  1.0 0.9033763546
Cu  Cu17  1  0.49589000  0.50411000  0.28519000  1.0 0.9033763546
Cu  Cu18  1  0.50411000  0.71481000  0.28519000  1.0 0.9033763546
Cu  Cu19  1  0.78519000  0.00411000  0.99589000  1.0 0.9033763546
Cu  Cu20  1  0.00411000  0.78519000  0.21481000  1.0 0.9033763546
Cu  Cu21  1  0.99589000  0.00411000  0.21481000  1.0 0.9033763546
Cu  Cu22  1  0.78519000  0.21481000  0.00411000  1.0 0.9033763546
Cu  Cu23  1  0.78519000  0.99589000  0.21481000  1.0 0.9033763546
Cu  Cu24  1  0.21481000  0.00411000  0.78519000  1.0 0.9033763546
Cu  Cu25  1  0.78543000  0.49475000  0.21457000  1.0 0.8495828597
Cu  Cu26  1  0.99475000  0.28543000  0.71457000  1.0 0.8495828597
Cu  Cu27  1  0.49475000  0.78543000  0.50525000  1.0 0.8495828597
Cu  Cu28  1  0.28543000  0.99475000  0.00525000  1.0 0.8495828597
Cu  Cu29  1  0.00525000  0.99475000  0.71457000  1.0 0.8495828597
Cu  Cu30  1  0.50525000  0.21457000  0.49475000  1.0 0.8495828597
Cu  Cu31  1  0.28543000  0.71457000  0.99475000  1.0 0.8495828597
Cu  Cu32  1  0.00525000  0.28543000  0.99475000  1.0 0.8495828597
Cu  Cu33  1  0.21457000  0.50525000  0.78543000  1.0 0.8495828597
Cu  Cu34  1  0.99475000  0.71457000  0.00525000  1.0 0.8495828597
Cu  Cu35  1  0.21457000  0.78543000  0.49475000  1.0 0.8495828597
Cu  Cu36  1  0.49475000  0.21457000  0.78543000  1.0 0.8495828597
Cu  Cu37  1  0.21457000  0.49475000  0.50525000  1.0 0.8495828597
Cu  Cu38  1  0.50525000  0.49475000  0.78543000  1.0 0.8495828597
Cu  Cu39  1  0.78543000  0.50525000  0.49475000  1.0 0.8495828597
Cu  Cu40  1  0.78543000  0.21457000  0.50525000  1.0 0.8495828597
Cu  Cu41  1  0.49475000  0.50525000  0.21457000  1.0 0.8495828597
Cu  Cu42  1  0.50525000  0.78543000  0.21457000  1.0 0.8495828597
Cu  Cu43  1  0.71457000  0.00525000  0.99475000  1.0 0.8495828597
Cu  Cu44  1  0.00525000  0.71457000  0.28543000  1.0 0.8495828597
Cu  Cu45  1  0.99475000  0.00525000  0.28543000  1.0 0.8495828597
Cu  Cu46  1  0.71457000  0.28543000  0.00525000  1.0 0.8495828597
Cu  Cu47  1  0.71457000  0.99475000  0.28543000  1.0 0.8495828597
Cu  Cu48  1  0.28543000  0.00525000  0.71457000  1.0 0.8495828597
Cu  Cu49  1  0.00070000  0.21448000  0.28491000  1.0 0.8759627052
Cu  Cu50  1  0.00010000  0.21508000  0.49930000  1.0 0.8747573434
Cu  Cu51  1  0.21449000  0.00069000  0.49990000  1.0 0.8759627052
Cu  Cu52  1  0.21508000  0.00009000  0.28552000  1.0 0.8759627052
Cu  Cu53  1  0.28552000  0.00009000  0.49930000  1.0 0.8759627052
Cu  Cu54  1  0.49991000  0.28491000  0.21449000  1.0 0.8747573434
Cu  Cu55  1  0.21508000  0.49930000  0.00010000  1.0 0.8759627052
Cu  Cu56  1  0.28552000  0.21508000  0.00010000  1.0 0.8759627052
Cu  Cu57  1  0.28491000  0.49990000  0.00069000  1.0 0.8759627052
Cu  Cu58  1  0.00010000  0.49930000  0.28552000  1.0 0.8759627052
Cu  Cu59  1  0.28491000  0.00070000  0.21449000  1.0 0.8747573434
Cu  Cu60  1  0.21449000  0.28491000  0.00069000  1.0 0.8759627052
Cu  Cu61  1  0.28491000  0.21449000  0.49990000  1.0 0.8759627052
Cu  Cu62  1  0.49991000  0.21449000  0.00069000  1.0 0.8747573434
Cu  Cu63  1  0.00070000  0.49990000  0.21449000  1.0 0.8747573434
Cu  Cu64  1  0.00069000  0.28491000  0.49990000  1.0 0.8747573434
Cu  Cu65  1  0.21449000  0.49990000  0.28491000  1.0 0.8759627052
Cu  Cu66  1  0.49991000  0.00070000  0.28491000  1.0 0.8759627052
Cu  Cu67  1  0.49930000  0.28552000  0.00010000  1.0 0.8759627052
Cu  Cu68  1  0.28552000  0.49930000  0.21508000  1.0 0.8747573434
Cu  Cu69  1  0.00010000  0.28552000  0.21508000  1.0 0.8747573434
Cu  Cu70  1  0.49930000  0.21508000  0.28552000  1.0 0.8759627052
Cu  Cu71  1  0.49930000  0.00009000  0.21508000  1.0 0.8759627052
Cu  Cu72  1  0.21509000  0.28552000  0.49930000  1.0 0.8759627052
Cu  Cu73  1  0.99930000  0.78551000  0.71508000  1.0 0.8759627052
Cu  Cu74  1  0.99991000  0.78492000  0.50070000  1.0 0.8759627052
Cu  Cu75  1  0.78551000  0.99930000  0.50009000  1.0 0.8759627052
Cu  Cu76  1  0.78492000  0.99991000  0.71449000  1.0 0.8759627052
Cu  Cu77  1  0.71449000  0.99991000  0.50070000  1.0 0.8759627052
Cu  Cu78  1  0.50010000  0.71508000  0.78551000  1.0 0.8759627052
Cu  Cu79  1  0.78492000  0.50070000  0.99990000  1.0 0.8759627052
Cu  Cu80  1  0.71449000  0.78492000  0.99990000  1.0 0.8759627052
Cu  Cu81  1  0.71509000  0.50009000  0.99930000  1.0 0.8759627052
Cu  Cu82  1  0.99991000  0.50070000  0.71449000  1.0 0.8759627052
Cu  Cu83  1  0.71508000  0.99930000  0.78551000  1.0 0.8759627052
Cu  Cu84  1  0.78551000  0.71509000  0.99930000  1.0 0.8759627052
Cu  Cu85  1  0.71508000  0.78551000  0.50009000  1.0 0.8759627052
Cu  Cu86  1  0.50009000  0.78552000  0.99930000  1.0 0.8759627052
Cu  Cu87  1  0.99931000  0.50009000  0.78551000  1.0 0.8759627052
Cu  Cu88  1  0.99931000  0.71508000  0.50009000  1.0 0.8759627052
Cu  Cu89  1  0.78551000  0.50009000  0.71508000  1.0 0.8759627052
Cu  Cu90  1  0.50010000  0.99930000  0.71508000  1.0 0.8759627052
Cu  Cu91  1  0.50070000  0.71448000  0.99990000  1.0 0.8759627052
Cu  Cu92  1  0.71449000  0.50070000  0.78492000  1.0 0.8759627052
Cu  Cu93  1  0.99991000  0.71449000  0.78492000  1.0 0.8759627052
Cu  Cu94  1  0.50070000  0.78491000  0.71449000  1.0 0.8759627052
Cu  Cu95  1  0.50070000  0.99991000  0.78492000  1.0 0.8759627052
Cu  Cu96  1  0.78492000  0.71449000  0.50070000  1.0 0.8747573434
Cu  Cu97  1  0.13481000  0.21095000  0.28789000  1.0 0.0264829044
Cu  Cu98  1  0.13365000  0.21211000  0.36519000  1.0 0.0264829044
Cu  Cu99  1  0.21095000  0.13481000  0.36635000  1.0 0.0264829044
Cu  Cu100  1  0.21211000  0.13365000  0.28905000  1.0 0.0223114268
Cu  Cu101  1  0.28905000  0.13365000  0.36519000  1.0 0.0223114268
Cu  Cu102  1  0.36635000  0.28789000  0.21095000  1.0 0.0223114268
Cu  Cu103  1  0.21211000  0.36519000  0.13365000  1.0 0.0264829044
Cu  Cu104  1  0.28905000  0.21211000  0.13365000  1.0 0.037652772
Cu  Cu105  1  0.28789000  0.36635000  0.13481000  1.0 0.0223114268
Cu  Cu106  1  0.13365000  0.36519000  0.28905000  1.0 0.0264829044
Cu  Cu107  1  0.28789000  0.13481000  0.21095000  1.0 0.0223114268
Cu  Cu108  1  0.21095000  0.28789000  0.13481000  1.0 0.0223114268
Cu  Cu109  1  0.28789000  0.21095000  0.36635000  1.0 0.0223114268
Cu  Cu110  1  0.36635000  0.21095000  0.13481000  1.0 0.0022046179
Cu  Cu111  1  0.13481000  0.36635000  0.21095000  1.0 0.0264829044
Cu  Cu112  1  0.13481000  0.28789000  0.36635000  1.0 0.0264829044
Cu  Cu113  1  0.21095000  0.36635000  0.28789000  1.0 0.0264829044
Cu  Cu114  1  0.36635000  0.13481000  0.28789000  1.0 0.0223114268
Cu  Cu115  1  0.36519000  0.28905000  0.13365000  1.0 0.037652772
Cu  Cu116  1  0.28905000  0.36519000  0.21211000  1.0 0.0264829044
Cu  Cu117  1  0.13365000  0.28905000  0.21211000  1.0 0.0264829044
Cu  Cu118  1  0.36519000  0.21211000  0.28905000  1.0 0.0264829044
Cu  Cu119  1  0.36519000  0.13365000  0.21211000  1.0 0.037652772
Cu  Cu120  1  0.21211000  0.28905000  0.36519000  1.0 0.0264829044
Cu  Cu121  1  0.86519000  0.78905000  0.71211000  1.0 0.0223114268
Cu  Cu122  1  0.86635000  0.78789000  0.63481000  1.0 0.0223114268
Cu  Cu123  1  0.78905000  0.86519000  0.63365000  1.0 0.037652772
Cu  Cu124  1  0.78789000  0.86635000  0.71095000  1.0 0.0223114268
Cu  Cu125  1  0.71095000  0.86635000  0.63481000  1.0 -0.0005036402
Cu  Cu126  1  0.63365000  0.71211000  0.78905000  1.0 0.0223114268
Cu  Cu127  1  0.78789000  0.63481000  0.86635000  1.0 0.0223114268
Cu  Cu128  1  0.71095000  0.78789000  0.86635000  1.0 0.0223114268
Cu  Cu129  1  0.71211000  0.63365000  0.86519000  1.0 0.0223114268
Cu  Cu130  1  0.86635000  0.63481000  0.71095000  1.0 0.0223114268
Cu  Cu131  1  0.71211000  0.86519000  0.78905000  1.0 0.0223114268
Cu  Cu132  1  0.78905000  0.71211000  0.86519000  1.0 0.0223114268
Cu  Cu133  1  0.71211000  0.78905000  0.63365000  1.0 0.0473278229
Cu  Cu134  1  0.63365000  0.78905000  0.86519000  1.0 0.0223114268
Cu  Cu135  1  0.86519000  0.63365000  0.78905000  1.0 0.0223114268
Cu  Cu136  1  0.86519000  0.71211000  0.63365000  1.0 0.037652772
Cu  Cu137  1  0.78905000  0.63365000  0.71211000  1.0 0.0264829044
Cu  Cu138  1  0.63365000  0.86519000  0.71211000  1.0 0.037652772
Cu  Cu139  1  0.63481000  0.71095000  0.86635000  1.0 0.0223114268
Cu  Cu140  1  0.71095000  0.63481000  0.78789000  1.0 0.0223114268
Cu  Cu141  1  0.86635000  0.71095000  0.78789000  1.0 0.0223114268
Cu  Cu142  1  0.63481000  0.78789000  0.71095000  1.0 0.0223114268
Cu  Cu143  1  0.63481000  0.86635000  0.78789000  1.0 0.0223114268
Cu  Cu144  1  0.78789000  0.71095000  0.63481000  1.0 0.0065118442
Cu  Cu145  1  0.08341000  0.15105000  0.34229000  1.0 0.3412583313
Cu  Cu146  1  0.07675000  0.15771000  0.41659000  1.0 0.3412583313
Cu  Cu147  1  0.15105000  0.08341000  0.42325000  1.0 0.3412583313
Cu  Cu148  1  0.15771000  0.07675000  0.34895000  1.0 0.3412583313
Cu  Cu149  1  0.34895000  0.07675000  0.41659000  1.0 0.3412583313
Cu  Cu150  1  0.42325000  0.34229000  0.15105000  1.0 0.3412583313
Cu  Cu151  1  0.15771000  0.41659000  0.07675000  1.0 0.3412583313
Cu  Cu152  1  0.34895000  0.15771000  0.07675000  1.0 0.3412583313
Cu  Cu153  1  0.34229000  0.42325000  0.08341000  1.0 0.3412583313
Cu  Cu154  1  0.07675000  0.41659000  0.34895000  1.0 0.3412583313
Cu  Cu155  1  0.34229000  0.08341000  0.15105000  1.0 0.3412583313
Cu  Cu156  1  0.15105000  0.34229000  0.08341000  1.0 0.3412583313
Cu  Cu157  1  0.34229000  0.15105000  0.42325000  1.0 0.3412583313
Cu  Cu158  1  0.42325000  0.15105000  0.08341000  1.0 0.3475494472
Cu  Cu159  1  0.08341000  0.42325000  0.15105000  1.0 0.3412583313
Cu  Cu160  1  0.08341000  0.34229000  0.42325000  1.0 0.3412583313
Cu  Cu161  1  0.15105000  0.42325000  0.34229000  1.0 0.3412583313
Cu  Cu162  1  0.42325000  0.08341000  0.34229000  1.0 0.3412583313
Cu  Cu163  1  0.41659000  0.34895000  0.07675000  1.0 0.3310593902
Cu  Cu164  1  0.34895000  0.41659000  0.15771000  1.0 0.3412583313
Cu  Cu165  1  0.07675000  0.34895000  0.15771000  1.0 0.3412583313
Cu  Cu166  1  0.41659000  0.15771000  0.34895000  1.0 0.3412583313
Cu  Cu167  1  0.41659000  0.07675000  0.15771000  1.0 0.3310593902
Cu  Cu168  1  0.15771000  0.34895000  0.41659000  1.0 0.3412583313
Cu  Cu169  1  0.91659000  0.84895000  0.65771000  1.0 0.3412583313
Cu  Cu170  1  0.92325000  0.84229000  0.58341000  1.0 0.3412583313
Cu  Cu171  1  0.84895000  0.91659000  0.57675000  1.0 0.3412583313
Cu  Cu172  1  0.84229000  0.92325000  0.65105000  1.0 0.3412583313
Cu  Cu173  1  0.65105000  0.92325000  0.58341000  1.0 0.3475494472
Cu  Cu174  1  0.57675000  0.65771000  0.84895000  1.0 0.3412583313
Cu  Cu175  1  0.84229000  0.58341000  0.92325000  1.0 0.3412583313
Cu  Cu176  1  0.65105000  0.84229000  0.92325000  1.0 0.3412583313
Cu  Cu177  1  0.65771000  0.57675000  0.91659000  1.0 0.3412583313
Cu  Cu178  1  0.92325000  0.58341000  0.65105000  1.0 0.3412583313
Cu  Cu179  1  0.65771000  0.91659000  0.84895000  1.0 0.3412583313
Cu  Cu180  1  0.84895000  0.65771000  0.91659000  1.0 0.3412583313
Cu  Cu181  1  0.65771000  0.84895000  0.57675000  1.0 0.3412583313
Cu  Cu182  1  0.57675000  0.84895000  0.91659000  1.0 0.3412583313
Cu  Cu183  1  0.91659000  0.57675000  0.84895000  1.0 0.3412583313
Cu  Cu184  1  0.91659000  0.65771000  0.57675000  1.0 0.3310593902
Cu  Cu185  1  0.84895000  0.57675000  0.65771000  1.0 0.3412583313
Cu  Cu186  1  0.57675000  0.91659000  0.65771000  1.0 0.3412583313
Cu  Cu187  1  0.58341000  0.65105000  0.92325000  1.0 0.3412583313
Cu  Cu188  1  0.65105000  0.58341000  0.84229000  1.0 0.3412583313
Cu  Cu189  1  0.92325000  0.65105000  0.84229000  1.0 0.3412583313
Cu  Cu190  1  0.58341000  0.84229000  0.65105000  1.0 0.3412583313
Cu  Cu191  1  0.58341000  0.92325000  0.84229000  1.0 0.3412583313
Cu  Cu192  1  0.84229000  0.65105000  0.58341000  1.0 0.3412583313
Cu  Cu193  1  0.95537000  0.13099000  0.42135000  1.0 0.6285998711
Cu  Cu194  1  0.00771000  0.07865000  0.54463000  1.0 0.6285998711
Cu  Cu195  1  0.13099000  0.95537000  0.49229000  1.0 0.6285998711
Cu  Cu196  1  0.07865000  0.00771000  0.36901000  1.0 0.6285998711
Cu  Cu197  1  0.36901000  0.00771000  0.54463000  1.0 0.6285998711
Cu  Cu198  1  0.49229000  0.42135000  0.13099000  1.0 0.6285998711
Cu  Cu199  1  0.07865000  0.54463000  0.00771000  1.0 0.6285998711
Cu  Cu200  1  0.36901000  0.07865000  0.00771000  1.0 0.6285998711
Cu  Cu201  1  0.42135000  0.49229000  0.95537000  1.0 0.6285998711
Cu  Cu202  1  0.00771000  0.54463000  0.36901000  1.0 0.6285998711
Cu  Cu203  1  0.42135000  0.95537000  0.13099000  1.0 0.6285998711
Cu  Cu204  1  0.13099000  0.42135000  0.95537000  1.0 0.6285998711
Cu  Cu205  1  0.42135000  0.13099000  0.49229000  1.0 0.6285998711
Cu  Cu206  1  0.49229000  0.13099000  0.95537000  1.0 0.6285998711
Cu  Cu207  1  0.95537000  0.49229000  0.13099000  1.0 0.6285998711
Cu  Cu208  1  0.95537000  0.42135000  0.49229000  1.0 0.6285998711
Cu  Cu209  1  0.13099000  0.49229000  0.42135000  1.0 0.6285998711
Cu  Cu210  1  0.49229000  0.95537000  0.42135000  1.0 0.6285998711
Cu  Cu211  1  0.54463000  0.36901000  0.00771000  1.0 0.6285998711
Cu  Cu212  1  0.36901000  0.54463000  0.07865000  1.0 0.6285998711
Cu  Cu213  1  0.00771000  0.36901000  0.07865000  1.0 0.6285998711
Cu  Cu214  1  0.54463000  0.07865000  0.36901000  1.0 0.6285998711
Cu  Cu215  1  0.54463000  0.00771000  0.07865000  1.0 0.6285998711
Cu  Cu216  1  0.07865000  0.36901000  0.54463000  1.0 0.6285998711
Cu  Cu217  1  0.04463000  0.86901000  0.57865000  1.0 0.6285998711
Cu  Cu218  1  0.99229000  0.92135000  0.45537000  1.0 0.6285998711
Cu  Cu219  1  0.86901000  0.04463000  0.50771000  1.0 0.6285998711
Cu  Cu220  1  0.92135000  0.99229000  0.63099000  1.0 0.6285998711
Cu  Cu221  1  0.63099000  0.99229000  0.45537000  1.0 0.6285998711
Cu  Cu222  1  0.50771000  0.57865000  0.86901000  1.0 0.6285998711
Cu  Cu223  1  0.92135000  0.45537000  0.99229000  1.0 0.6285998711
Cu  Cu224  1  0.63099000  0.92135000  0.99229000  1.0 0.6285998711
Cu  Cu225  1  0.57865000  0.50771000  0.04463000  1.0 0.6285998711
Cu  Cu226  1  0.99229000  0.45537000  0.63099000  1.0 0.6285998711
Cu  Cu227  1  0.57865000  0.04463000  0.86901000  1.0 0.6285998711
Cu  Cu228  1  0.86901000  0.57865000  0.04463000  1.0 0.6285998711
Cu  Cu229  1  0.57865000  0.86901000  0.50771000  1.0 0.6285998711
Cu  Cu230  1  0.50771000  0.86901000  0.04463000  1.0 0.6285998711
Cu  Cu231  1  0.04463000  0.50771000  0.86901000  1.0 0.6285998711
Cu  Cu232  1  0.04463000  0.57865000  0.50771000  1.0 0.6285998711
Cu  Cu233  1  0.86901000  0.50771000  0.57865000  1.0 0.6285998711
Cu  Cu234  1  0.50771000  0.04463000  0.57865000  1.0 0.6285998711
Cu  Cu235  1  0.45537000  0.63099000  0.99229000  1.0 0.6285998711
Cu  Cu236  1  0.63099000  0.45537000  0.92135000  1.0 0.6285998711
Cu  Cu237  1  0.99229000  0.63099000  0.92135000  1.0 0.6285998711
Cu  Cu238  1  0.45537000  0.92135000  0.63099000  1.0 0.6285998711
Cu  Cu239  1  0.45537000  0.99229000  0.92135000  1.0 0.6285998711
Cu  Cu240  1  0.92135000  0.63099000  0.45537000  1.0 0.6285998711
H  H1  1  0.86390000  0.36090000  0.25810000  1.0 0.1310127824
H  H2  1  0.98290000  0.24190000  0.63610000  1.0 0.1310127824
H  H3  1  0.36090000  0.86390000  0.51710000  1.0 0.1310127824
H  H4  1  0.24190000  0.98290000  0.13910000  1.0 0.1310127824
H  H5  1  0.13910000  0.98290000  0.63610000  1.0 0.1310127824
H  H6  1  0.51710000  0.25810000  0.36090000  1.0 0.1310127824
H  H7  1  0.24190000  0.63610000  0.98290000  1.0 0.1310127824
H  H8  1  0.13910000  0.24190000  0.98290000  1.0 0.1310127824
H  H9  1  0.25810000  0.51710000  0.86390000  1.0 0.1310127824
H  H10  1  0.98290000  0.63610000  0.13910000  1.0 0.1310127824
H  H11  1  0.25810000  0.86390000  0.36090000  1.0 0.1310127824
H  H12  1  0.36090000  0.25810000  0.86390000  1.0 0.1310127824
H  H13  1  0.25810000  0.36090000  0.51710000  1.0 0.1310127824
H  H14  1  0.51710000  0.36090000  0.86390000  1.0 0.1310127824
H  H15  1  0.86390000  0.51710000  0.36090000  1.0 0.1310127824
H  H16  1  0.86390000  0.25810000  0.51710000  1.0 0.1310127824
H  H17  1  0.36090000  0.51710000  0.25810000  1.0 0.1310127824
H  H18  1  0.51710000  0.86390000  0.25810000  1.0 0.1310127824
H  H19  1  0.63610000  0.13910000  0.98290000  1.0 0.1310127824
H  H20  1  0.13910000  0.63610000  0.24190000  1.0 0.1310127824
H  H21  1  0.98290000  0.13910000  0.24190000  1.0 0.1310127824
H  H22  1  0.63610000  0.24190000  0.13910000  1.0 0.1310127824
H  H23  1  0.63610000  0.98290000  0.24190000  1.0 0.1310127824
H  H24  1  0.24190000  0.13910000  0.63610000  1.0 0.1310127824
H  H25  1  0.13610000  0.63910000  0.74190000  1.0 0.1310127824
H  H26  1  0.01710000  0.75810000  0.36390000  1.0 0.1310127824
H  H27  1  0.63910000  0.13610000  0.48290000  1.0 0.1310127824
H  H28  1  0.75810000  0.01710000  0.86090000  1.0 0.1310127824
H  H29  1  0.86090000  0.01710000  0.36390000  1.0 0.1310127824
H  H30  1  0.48290000  0.74190000  0.63910000  1.0 0.1310127824
H  H31  1  0.75810000  0.36390000  0.01710000  1.0 0.1310127824
H  H32  1  0.86090000  0.75810000  0.01710000  1.0 0.1310127824
H  H33  1  0.74190000  0.48290000  0.13610000  1.0 0.1310127824
H  H34  1  0.01710000  0.36390000  0.86090000  1.0 0.1310127824
H  H35  1  0.74190000  0.13610000  0.63910000  1.0 0.1310127824
H  H36  1  0.63910000  0.74190000  0.13610000  1.0 0.1310127824
H  H37  1  0.74190000  0.63910000  0.48290000  1.0 0.1310127824
H  H38  1  0.48290000  0.63910000  0.13610000  1.0 0.1310127824
H  H39  1  0.13610000  0.48290000  0.63910000  1.0 0.1310127824
H  H40  1  0.13610000  0.74190000  0.48290000  1.0 0.1310127824
H  H41  1  0.63910000  0.48290000  0.74190000  1.0 0.1310127824
H  H42  1  0.48290000  0.13610000  0.74190000  1.0 0.1310127824
H  H43  1  0.36390000  0.86090000  0.01710000  1.0 0.1310127824
H  H44  1  0.86090000  0.36390000  0.75810000  1.0 0.1310127824
H  H45  1  0.01710000  0.86090000  0.75810000  1.0 0.1310127824
H  H46  1  0.36390000  0.75810000  0.86090000  1.0 0.1310127824
H  H47  1  0.36390000  0.01710000  0.75810000  1.0 0.1310127824
H  H48  1  0.75810000  0.86090000  0.36390000  1.0 0.1310127824
H  H49  1  0.86610000  0.25310000  0.36870000  1.0 0.1310127824
H  H50  1  0.98790000  0.13130000  0.63390000  1.0 0.1310127824
H  H51  1  0.25310000  0.86610000  0.51210000  1.0 0.1310127824
H  H52  1  0.13130000  0.98790000  0.24690000  1.0 0.1310127824
H  H53  1  0.24690000  0.98790000  0.63390000  1.0 0.1310127824
H  H54  1  0.51210000  0.36870000  0.25310000  1.0 0.1310127824
H  H55  1  0.13130000  0.63390000  0.98790000  1.0 0.1310127824
H  H56  1  0.24690000  0.13130000  0.98790000  1.0 0.1310127824
H  H57  1  0.36870000  0.51210000  0.86610000  1.0 0.1310127824
H  H58  1  0.98790000  0.63390000  0.24690000  1.0 0.1310127824
H  H59  1  0.36870000  0.86610000  0.25310000  1.0 0.1310127824
H  H60  1  0.25310000  0.36870000  0.86610000  1.0 0.1310127824
H  H61  1  0.36870000  0.25310000  0.51210000  1.0 0.1310127824
H  H62  1  0.51210000  0.25310000  0.86610000  1.0 0.1310127824
H  H63  1  0.86610000  0.51210000  0.25310000  1.0 0.1310127824
H  H64  1  0.86610000  0.36870000  0.51210000  1.0 0.1310127824
H  H65  1  0.25310000  0.51210000  0.36870000  1.0 0.1310127824
H  H66  1  0.51210000  0.86610000  0.36870000  1.0 0.1310127824
H  H67  1  0.63390000  0.24690000  0.98790000  1.0 0.1310127824
H  H68  1  0.24690000  0.63390000  0.13130000  1.0 0.1310127824
H  H69  1  0.98790000  0.24690000  0.13130000  1.0 0.1310127824
H  H70  1  0.63390000  0.13130000  0.24690000  1.0 0.1310127824
H  H71  1  0.63390000  0.98790000  0.13130000  1.0 0.1310127824
H  H72  1  0.13130000  0.24690000  0.63390000  1.0 0.1310127824
H  H73  1  0.13390000  0.74690000  0.63130000  1.0 0.1310127824
H  H74  1  0.01210000  0.86870000  0.36610000  1.0 0.1310127824
H  H75  1  0.74690000  0.13390000  0.48790000  1.0 0.1310127824
H  H76  1  0.86870000  0.01210000  0.75310000  1.0 0.1310127824
H  H77  1  0.75310000  0.01210000  0.36610000  1.0 0.1310127824
H  H78  1  0.48790000  0.63130000  0.74690000  1.0 0.1310127824
H  H79  1  0.86870000  0.36610000  0.01210000  1.0 0.1310127824
H  H80  1  0.75310000  0.86870000  0.01210000  1.0 0.1310127824
H  H81  1  0.63130000  0.48790000  0.13390000  1.0 0.1310127824
H  H82  1  0.01210000  0.36610000  0.75310000  1.0 0.1310127824
H  H83  1  0.63130000  0.13390000  0.74690000  1.0 0.1310127824
H  H84  1  0.74690000  0.63130000  0.13390000  1.0 0.1310127824
H  H85  1  0.63130000  0.74690000  0.48790000  1.0 0.1310127824
H  H86  1  0.48790000  0.74690000  0.13390000  1.0 0.1310127824
H  H87  1  0.13390000  0.48790000  0.74690000  1.0 0.1310127824
H  H88  1  0.13390000  0.63130000  0.48790000  1.0 0.1310127824
H  H89  1  0.74690000  0.48790000  0.63130000  1.0 0.1310127824
H  H90  1  0.48790000  0.13390000  0.63130000  1.0 0.1310127824
H  H91  1  0.36610000  0.75310000  0.01210000  1.0 0.1310127824
H  H92  1  0.75310000  0.36610000  0.86870000  1.0 0.1310127824
H  H93  1  0.01210000  0.75310000  0.86870000  1.0 0.1310127824
H  H94  1  0.36610000  0.86870000  0.75310000  1.0 0.1310127824
H  H95  1  0.36610000  0.01210000  0.86870000  1.0 0.1310127824
H  H96  1  0.86870000  0.75310000  0.36610000  1.0 0.1310127824
H  H97  1  0.75540000  0.36060000  0.36800000  1.0 0.1310127824
H  H98  1  0.98400000  0.13200000  0.74460000  1.0 0.1310127824
H  H99  1  0.36060000  0.75540000  0.51600000  1.0 0.1310127824
H  H100  1  0.13200000  0.98400000  0.13940000  1.0 0.1310127824
H  H101  1  0.13940000  0.98400000  0.74460000  1.0 0.1310127824
H  H102  1  0.51600000  0.36800000  0.36060000  1.0 0.1310127824
H  H103  1  0.13200000  0.74460000  0.98400000  1.0 0.1310127824
H  H104  1  0.13940000  0.13200000  0.98400000  1.0 0.1310127824
H  H105  1  0.36800000  0.51600000  0.75540000  1.0 0.1310127824
H  H106  1  0.98400000  0.74460000  0.13940000  1.0 0.1310127824
H  H107  1  0.36800000  0.75540000  0.36060000  1.0 0.1310127824
H  H108  1  0.36060000  0.36800000  0.75540000  1.0 0.1310127824
H  H109  1  0.36800000  0.36060000  0.51600000  1.0 0.1310127824
H  H110  1  0.51600000  0.36060000  0.75540000  1.0 0.1310127824
H  H111  1  0.75540000  0.51600000  0.36060000  1.0 0.1310127824
H  H112  1  0.75540000  0.36800000  0.51600000  1.0 0.1310127824
H  H113  1  0.36060000  0.51600000  0.36800000  1.0 0.1310127824
H  H114  1  0.51600000  0.75540000  0.36800000  1.0 0.1310127824
H  H115  1  0.74460000  0.13940000  0.98400000  1.0 0.1310127824
H  H116  1  0.13940000  0.74460000  0.13200000  1.0 0.1310127824
H  H117  1  0.98400000  0.13940000  0.13200000  1.0 0.1310127824
H  H118  1  0.74460000  0.13200000  0.13940000  1.0 0.1310127824
H  H119  1  0.74460000  0.98400000  0.13200000  1.0 0.1310127824
H  H120  1  0.13200000  0.13940000  0.74460000  1.0 0.1310127824
H  H121  1  0.24460000  0.63940000  0.63200000  1.0 0.1310127824
H  H122  1  0.01600000  0.86800000  0.25540000  1.0 0.1310127824
H  H123  1  0.63940000  0.24460000  0.48400000  1.0 0.1310127824
H  H124  1  0.86800000  0.01600000  0.86060000  1.0 0.1310127824
H  H125  1  0.86060000  0.01600000  0.25540000  1.0 0.1310127824
H  H126  1  0.48400000  0.63200000  0.63940000  1.0 0.1310127824
H  H127  1  0.86800000  0.25540000  0.01600000  1.0 0.1310127824
H  H128  1  0.86060000  0.86800000  0.01600000  1.0 0.1310127824
H  H129  1  0.63200000  0.48400000  0.24460000  1.0 0.1310127824
H  H130  1  0.01600000  0.25540000  0.86060000  1.0 0.1310127824
H  H131  1  0.63200000  0.24460000  0.63940000  1.0 0.1310127824
H  H132  1  0.63940000  0.63200000  0.24460000  1.0 0.1310127824
H  H133  1  0.63200000  0.63940000  0.48400000  1.0 0.1310127824
H  H134  1  0.48400000  0.63940000  0.24460000  1.0 0.1310127824
H  H135  1  0.24460000  0.48400000  0.63940000  1.0 0.1310127824
H  H136  1  0.24460000  0.63200000  0.48400000  1.0 0.1310127824
H  H137  1  0.63940000  0.48400000  0.63200000  1.0 0.1310127824
H  H138  1  0.48400000  0.24460000  0.63200000  1.0 0.1310127824
H  H139  1  0.25540000  0.86060000  0.01600000  1.0 0.1310127824
H  H140  1  0.86060000  0.25540000  0.86800000  1.0 0.1310127824
H  H141  1  0.01600000  0.86060000  0.86800000  1.0 0.1310127824
H  H142  1  0.25540000  0.86800000  0.86060000  1.0 0.1310127824
H  H143  1  0.25540000  0.01600000  0.86800000  1.0 0.1310127824
H  H144  1  0.86800000  0.86060000  0.25540000  1.0 0.1310127824
H  H145  1  0.01820000  0.36240000  0.25440000  1.0 0.1195555566
H  H146  1  0.13500000  0.24560000  0.48180000  1.0 0.1195555566
H  H147  1  0.36240000  0.01820000  0.36500000  1.0 0.1195555566
H  H148  1  0.24560000  0.13500000  0.13760000  1.0 0.1195555566
H  H149  1  0.13760000  0.13500000  0.48180000  1.0 0.1195555566
H  H150  1  0.36500000  0.25440000  0.36240000  1.0 0.1195555566
H  H151  1  0.24560000  0.48180000  0.13500000  1.0 0.1195555566
H  H152  1  0.13760000  0.24560000  0.13500000  1.0 0.1195555566
H  H153  1  0.25440000  0.36500000  0.01820000  1.0 0.1195555566
H  H154  1  0.13500000  0.48180000  0.13760000  1.0 0.1195555566
H  H155  1  0.25440000  0.01820000  0.36240000  1.0 0.1195555566
H  H156  1  0.36240000  0.25440000  0.01820000  1.0 0.1195555566
H  H157  1  0.25440000  0.36240000  0.36500000  1.0 0.1195555566
H  H158  1  0.36500000  0.36240000  0.01820000  1.0 0.1195555566
H  H159  1  0.01820000  0.36500000  0.36240000  1.0 0.1195555566
H  H160  1  0.01820000  0.25440000  0.36500000  1.0 0.1195555566
H  H161  1  0.36240000  0.36500000  0.25440000  1.0 0.1195555566
H  H162  1  0.36500000  0.01820000  0.25440000  1.0 0.1195555566
H  H163  1  0.48180000  0.13760000  0.13500000  1.0 0.1195555566
H  H164  1  0.13760000  0.48180000  0.24560000  1.0 0.1195555566
H  H165  1  0.13500000  0.13760000  0.24560000  1.0 0.1195555566
H  H166  1  0.48180000  0.24560000  0.13760000  1.0 0.1195555566
H  H167  1  0.48180000  0.13500000  0.24560000  1.0 0.1195555566
H  H168  1  0.24560000  0.13760000  0.48180000  1.0 0.1195555566
H  H169  1  0.98180000  0.63760000  0.74560000  1.0 0.1195555566
H  H170  1  0.86500000  0.75440000  0.51820000  1.0 0.1195555566
H  H171  1  0.63760000  0.98180000  0.63500000  1.0 0.1195555566
H  H172  1  0.75440000  0.86500000  0.86240000  1.0 0.1195555566
H  H173  1  0.86240000  0.86500000  0.51820000  1.0 0.1195555566
H  H174  1  0.63500000  0.74560000  0.63760000  1.0 0.1195555566
H  H175  1  0.75440000  0.51820000  0.86500000  1.0 0.1195555566
H  H176  1  0.86240000  0.75440000  0.86500000  1.0 0.1195555566
H  H177  1  0.74560000  0.63500000  0.98180000  1.0 0.1195555566
H  H178  1  0.86500000  0.51820000  0.86240000  1.0 0.1195555566
H  H179  1  0.74560000  0.98180000  0.63760000  1.0 0.1195555566
H  H180  1  0.63760000  0.74560000  0.98180000  1.0 0.1195555566
H  H181  1  0.74560000  0.63760000  0.63500000  1.0 0.1195555566
H  H182  1  0.63500000  0.63760000  0.98180000  1.0 0.1195555566
H  H183  1  0.98180000  0.63500000  0.63760000  1.0 0.1195555566
H  H184  1  0.98180000  0.74560000  0.63500000  1.0 0.1195555566
H  H185  1  0.63760000  0.63500000  0.74560000  1.0 0.1195555566
H  H186  1  0.63500000  0.98180000  0.74560000  1.0 0.1195555566
H  H187  1  0.51820000  0.86240000  0.86500000  1.0 0.1195555566
H  H188  1  0.86240000  0.51820000  0.75440000  1.0 0.1195555566
H  H189  1  0.86500000  0.86240000  0.75440000  1.0 0.1195555566
H  H190  1  0.51820000  0.75440000  0.86240000  1.0 0.1195555566
H  H191  1  0.51820000  0.86500000  0.75440000  1.0 0.1195555566
H  H192  1  0.75440000  0.86240000  0.51820000  1.0 0.1195555566
C  C1  1  0.78365000  0.41435000  0.28649000  1.0 0.5618324464
C  C2  1  0.98449000  0.21351000  0.71635000  1.0 0.5618324464
C  C3  1  0.41435000  0.78365000  0.51551000  1.0 0.5618324464
C  C4  1  0.21351000  0.98449000  0.08565000  1.0 0.5618324464
C  C5  1  0.08565000  0.98449000  0.71635000  1.0 0.5618324464
C  C6  1  0.51551000  0.28649000  0.41435000  1.0 0.5618324464
C  C7  1  0.21351000  0.71635000  0.98449000  1.0 0.5618324464
C  C8  1  0.08565000  0.21351000  0.98449000  1.0 0.5618324464
C  C9  1  0.28649000  0.51551000  0.78365000  1.0 0.5618324464
C  C10  1  0.98449000  0.71635000  0.08565000  1.0 0.5618324464
C  C11  1  0.28649000  0.78365000  0.41435000  1.0 0.5618324464
C  C12  1  0.41435000  0.28649000  0.78365000  1.0 0.5699185618
C  C13  1  0.28649000  0.41435000  0.51551000  1.0 0.5618324464
C  C14  1  0.51551000  0.41435000  0.78365000  1.0 0.5618324464
C  C15  1  0.78365000  0.51551000  0.41435000  1.0 0.5618324464
C  C16  1  0.78365000  0.28649000  0.51551000  1.0 0.5618324464
C  C17  1  0.41435000  0.51551000  0.28649000  1.0 0.5618324464
C  C18  1  0.51551000  0.78365000  0.28649000  1.0 0.5618324464
C  C19  1  0.71635000  0.08565000  0.98449000  1.0 0.5618324464
C  C20  1  0.08565000  0.71635000  0.21351000  1.0 0.5618324464
C  C21  1  0.98449000  0.08565000  0.21351000  1.0 0.5618324464
C  C22  1  0.71635000  0.21351000  0.08565000  1.0 0.5618324464
C  C23  1  0.71635000  0.98449000  0.21351000  1.0 0.5618324464
C  C24  1  0.21351000  0.08565000  0.71635000  1.0 0.5618324464
C  C25  1  0.21635000  0.58565000  0.71351000  1.0 0.5699185618
C  C26  1  0.01551000  0.78649000  0.28365000  1.0 0.5618324464
C  C27  1  0.58565000  0.21635000  0.48449000  1.0 0.5618324464
C  C28  1  0.78649000  0.01551000  0.91435000  1.0 0.5618324464
C  C29  1  0.91435000  0.01551000  0.28365000  1.0 0.5618324464
C  C30  1  0.48449000  0.71351000  0.58565000  1.0 0.5618324464
C  C31  1  0.78649000  0.28365000  0.01551000  1.0 0.5618324464
C  C32  1  0.91435000  0.78649000  0.01551000  1.0 0.5618324464
C  C33  1  0.71351000  0.48449000  0.21635000  1.0 0.5618324464
C  C34  1  0.01551000  0.28365000  0.91435000  1.0 0.5618324464
C  C35  1  0.71351000  0.21635000  0.58565000  1.0 0.5618324464
C  C36  1  0.58565000  0.71351000  0.21635000  1.0 0.5699185618
C  C37  1  0.71351000  0.58565000  0.48449000  1.0 0.5618324464
C  C38  1  0.48449000  0.58565000  0.21635000  1.0 0.5699185618
C  C39  1  0.21635000  0.48449000  0.58565000  1.0 0.5618324464
C  C40  1  0.21635000  0.71351000  0.48449000  1.0 0.5618324464
C  C41  1  0.58565000  0.48449000  0.71351000  1.0 0.5699185618
C  C42  1  0.48449000  0.21635000  0.71351000  1.0 0.5618324464
C  C43  1  0.28365000  0.91435000  0.01551000  1.0 0.5618324464
C  C44  1  0.91435000  0.28365000  0.78649000  1.0 0.5699185618
C  C45  1  0.01551000  0.91435000  0.78649000  1.0 0.5618324464
C  C46  1  0.28365000  0.78649000  0.91435000  1.0 0.5618324464
C  C47  1  0.28365000  0.01551000  0.78649000  1.0 0.5618324464
C  C48  1  0.78649000  0.91435000  0.28365000  1.0 0.5618324464
C  C49  1  0.80642000  0.36736000  0.30938000  1.0 -0.0390031345
C  C50  1  0.98316000  0.19062000  0.69358000  1.0 -0.0390031345
C  C51  1  0.36736000  0.80642000  0.51684000  1.0 -0.0390031345
C  C52  1  0.19062000  0.98316000  0.13264000  1.0 -0.0390031345
C  C53  1  0.13264000  0.98316000  0.69358000  1.0 -0.0390031345
C  C54  1  0.51684000  0.30938000  0.36736000  1.0 -0.0390031345
C  C55  1  0.19062000  0.69358000  0.98316000  1.0 -0.0390031345
C  C56  1  0.13264000  0.19062000  0.98316000  1.0 -0.0390031345
C  C57  1  0.30938000  0.51684000  0.80642000  1.0 -0.0390031345
C  C58  1  0.98316000  0.69358000  0.13264000  1.0 -0.0390031345
C  C59  1  0.30938000  0.80642000  0.36736000  1.0 -0.0390031345
C  C60  1  0.36736000  0.30938000  0.80642000  1.0 -0.0390031345
C  C61  1  0.30938000  0.36736000  0.51684000  1.0 -0.0390031345
C  C62  1  0.51684000  0.36736000  0.80642000  1.0 -0.0390031345
C  C63  1  0.80642000  0.51684000  0.36736000  1.0 -0.0390031345
C  C64  1  0.80642000  0.30938000  0.51684000  1.0 -0.0390031345
C  C65  1  0.36736000  0.51684000  0.30938000  1.0 -0.0390031345
C  C66  1  0.51684000  0.80642000  0.30938000  1.0 -0.0390031345
C  C67  1  0.69358000  0.13264000  0.98316000  1.0 -0.0390031345
C  C68  1  0.13264000  0.69358000  0.19062000  1.0 -0.0390031345
C  C69  1  0.98316000  0.13264000  0.19062000  1.0 -0.0390031345
C  C70  1  0.69358000  0.19062000  0.13264000  1.0 -0.0390031345
C  C71  1  0.69358000  0.98316000  0.19062000  1.0 -0.0390031345
C  C72  1  0.19062000  0.13264000  0.69358000  1.0 -0.0390031345
C  C73  1  0.19358000  0.63264000  0.69062000  1.0 -0.0390031345
C  C74  1  0.01684000  0.80938000  0.30642000  1.0 -0.0390031345
C  C75  1  0.63264000  0.19358000  0.48316000  1.0 -0.0390031345
C  C76  1  0.80938000  0.01684000  0.86736000  1.0 -0.0390031345
C  C77  1  0.86736000  0.01684000  0.30642000  1.0 -0.0390031345
C  C78  1  0.48316000  0.69062000  0.63264000  1.0 -0.0390031345
C  C79  1  0.80938000  0.30642000  0.01684000  1.0 -0.0390031345
C  C80  1  0.86736000  0.80938000  0.01684000  1.0 -0.0390031345
C  C81  1  0.69062000  0.48316000  0.19358000  1.0 -0.0390031345
C  C82  1  0.01684000  0.30642000  0.86736000  1.0 -0.0390031345
C  C83  1  0.69062000  0.19358000  0.63264000  1.0 -0.0390031345
C  C84  1  0.63264000  0.69062000  0.19358000  1.0 -0.0390031345
C  C85  1  0.69062000  0.63264000  0.48316000  1.0 -0.0390031345
C  C86  1  0.48316000  0.63264000  0.19358000  1.0 -0.0390031345
C  C87  1  0.19358000  0.48316000  0.63264000  1.0 -0.0390031345
C  C88  1  0.19358000  0.69062000  0.48316000  1.0 -0.0390031345
C  C89  1  0.63264000  0.48316000  0.69062000  1.0 -0.0390031345
C  C90  1  0.48316000  0.19358000  0.69062000  1.0 -0.0390031345
C  C91  1  0.30642000  0.86736000  0.01684000  1.0 -0.0390031345
C  C92  1  0.86736000  0.30642000  0.80938000  1.0 -0.0390031345
C  C93  1  0.01684000  0.86736000  0.80938000  1.0 -0.0390031345
C  C94  1  0.30642000  0.80938000  0.86736000  1.0 -0.0390031345
C  C95  1  0.30642000  0.01684000  0.80938000  1.0 -0.0390031345
C  C96  1  0.80938000  0.86736000  0.30642000  1.0 -0.0390031345
C  C97  1  0.84931000  0.34625000  0.28779000  1.0 -0.1163921461
C  C98  1  0.98335000  0.21221000  0.65069000  1.0 -0.1111953909
C  C99  1  0.34625000  0.84931000  0.51665000  1.0 -0.1111953909
C  C100  1  0.21221000  0.98335000  0.15375000  1.0 -0.1111953909
C  C101  1  0.15375000  0.98335000  0.65069000  1.0 -0.1111953909
C  C102  1  0.51665000  0.28779000  0.34625000  1.0 -0.1111953909
C  C103  1  0.21221000  0.65069000  0.98335000  1.0 -0.1111953909
C  C104  1  0.15375000  0.21221000  0.98335000  1.0 -0.1111953909
C  C105  1  0.28779000  0.51665000  0.84931000  1.0 -0.1163921461
C  C106  1  0.98335000  0.65069000  0.15375000  1.0 -0.1111953909
C  C107  1  0.28779000  0.84931000  0.34625000  1.0 -0.1111953909
C  C108  1  0.34625000  0.28779000  0.84931000  1.0 -0.1111953909
C  C109  1  0.28779000  0.34625000  0.51665000  1.0 -0.1111953909
C  C110  1  0.51665000  0.34625000  0.84931000  1.0 -0.1111953909
C  C111  1  0.84931000  0.51665000  0.34625000  1.0 -0.1111953909
C  C112  1  0.84931000  0.28779000  0.51665000  1.0 -0.1111953909
C  C113  1  0.34625000  0.51665000  0.28779000  1.0 -0.1111953909
C  C114  1  0.51665000  0.84931000  0.28779000  1.0 -0.1111953909
C  C115  1  0.65069000  0.15375000  0.98335000  1.0 -0.1111953909
C  C116  1  0.15375000  0.65069000  0.21221000  1.0 -0.1111953909
C  C117  1  0.98335000  0.15375000  0.21221000  1.0 -0.1111953909
C  C118  1  0.65069000  0.21221000  0.15375000  1.0 -0.1111953909
C  C119  1  0.65069000  0.98335000  0.21221000  1.0 -0.1111953909
C  C120  1  0.21221000  0.15375000  0.65069000  1.0 -0.1111953909
C  C121  1  0.15069000  0.65375000  0.71221000  1.0 -0.1111953909
C  C122  1  0.01665000  0.78779000  0.34931000  1.0 -0.1111953909
C  C123  1  0.65375000  0.15069000  0.48335000  1.0 -0.1111953909
C  C124  1  0.78779000  0.01665000  0.84625000  1.0 -0.1111953909
C  C125  1  0.84625000  0.01665000  0.34931000  1.0 -0.1111953909
C  C126  1  0.48335000  0.71221000  0.65375000  1.0 -0.1111953909
C  C127  1  0.78779000  0.34931000  0.01665000  1.0 -0.1111953909
C  C128  1  0.84625000  0.78779000  0.01665000  1.0 -0.1111953909
C  C129  1  0.71221000  0.48335000  0.15069000  1.0 -0.1111953909
C  C130  1  0.01665000  0.34931000  0.84625000  1.0 -0.1163921461
C  C131  1  0.71221000  0.15069000  0.65375000  1.0 -0.1111953909
C  C132  1  0.65375000  0.71221000  0.15069000  1.0 -0.1111953909
C  C133  1  0.71221000  0.65375000  0.48335000  1.0 -0.1111953909
C  C134  1  0.48335000  0.65375000  0.15069000  1.0 -0.1111953909
C  C135  1  0.15069000  0.48335000  0.65375000  1.0 -0.1111953909
C  C136  1  0.15069000  0.71221000  0.48335000  1.0 -0.1111953909
C  C137  1  0.65375000  0.48335000  0.71221000  1.0 -0.1111953909
C  C138  1  0.48335000  0.15069000  0.71221000  1.0 -0.1111953909
C  C139  1  0.34931000  0.84625000  0.01665000  1.0 -0.1111953909
C  C140  1  0.84625000  0.34931000  0.78779000  1.0 -0.1111953909
C  C141  1  0.01665000  0.84625000  0.78779000  1.0 -0.1111953909
C  C142  1  0.34931000  0.78779000  0.84625000  1.0 -0.1111953909
C  C143  1  0.34931000  0.01665000  0.78779000  1.0 -0.1111953909
C  C144  1  0.78779000  0.84625000  0.34931000  1.0 -0.1111953909
C  C145  1  0.87125000  0.30315000  0.30989000  1.0 -0.0317309312
C  C146  1  0.98429000  0.19011000  0.62875000  1.0 -0.0317309312
C  C147  1  0.30315000  0.87125000  0.51571000  1.0 -0.0317309312
C  C148  1  0.19011000  0.98429000  0.19685000  1.0 -0.0317309312
C  C149  1  0.19685000  0.98429000  0.62875000  1.0 -0.0317309312
C  C150  1  0.51571000  0.30989000  0.30315000  1.0 -0.0317309312
C  C151  1  0.19011000  0.62875000  0.98429000  1.0 -0.0317309312
C  C152  1  0.19685000  0.19011000  0.98429000  1.0 -0.0317309312
C  C153  1  0.30989000  0.51571000  0.87125000  1.0 -0.0317309312
C  C154  1  0.98429000  0.62875000  0.19685000  1.0 -0.0317309312
C  C155  1  0.30989000  0.87125000  0.30315000  1.0 -0.0317309312
C  C156  1  0.30315000  0.30989000  0.87125000  1.0 -0.0317309312
C  C157  1  0.30989000  0.30315000  0.51571000  1.0 -0.0317309312
C  C158  1  0.51571000  0.30315000  0.87125000  1.0 -0.0317309312
C  C159  1  0.87125000  0.51571000  0.30315000  1.0 -0.0317309312
C  C160  1  0.87125000  0.30989000  0.51571000  1.0 -0.0317309312
C  C161  1  0.30315000  0.51571000  0.30989000  1.0 -0.0317309312
C  C162  1  0.51571000  0.87125000  0.30989000  1.0 -0.0317309312
C  C163  1  0.62875000  0.19685000  0.98429000  1.0 -0.0317309312
C  C164  1  0.19685000  0.62875000  0.19011000  1.0 -0.0317309312
C  C165  1  0.98429000  0.19685000  0.19011000  1.0 -0.0317309312
C  C166  1  0.62875000  0.19011000  0.19685000  1.0 -0.0317309312
C  C167  1  0.62875000  0.98429000  0.19011000  1.0 -0.0317309312
C  C168  1  0.19011000  0.19685000  0.62875000  1.0 -0.0317309312
C  C169  1  0.12875000  0.69685000  0.69011000  1.0 -0.0317309312
C  C170  1  0.01571000  0.80989000  0.37125000  1.0 -0.0317309312
C  C171  1  0.69685000  0.12875000  0.48429000  1.0 -0.0317309312
C  C172  1  0.80989000  0.01571000  0.80315000  1.0 -0.0317309312
C  C173  1  0.80315000  0.01571000  0.37125000  1.0 -0.0317309312
C  C174  1  0.48429000  0.69011000  0.69685000  1.0 -0.0317309312
C  C175  1  0.80989000  0.37125000  0.01571000  1.0 -0.0317309312
C  C176  1  0.80315000  0.80989000  0.01571000  1.0 -0.0317309312
C  C177  1  0.69011000  0.48429000  0.12875000  1.0 -0.0317309312
C  C178  1  0.01571000  0.37125000  0.80315000  1.0 -0.0317309312
C  C179  1  0.69011000  0.12875000  0.69685000  1.0 -0.0317309312
C  C180  1  0.69685000  0.69011000  0.12875000  1.0 -0.0317309312
C  C181  1  0.69011000  0.69685000  0.48429000  1.0 -0.0317309312
C  C182  1  0.48429000  0.69685000  0.12875000  1.0 -0.0317309312
C  C183  1  0.12875000  0.48429000  0.69685000  1.0 -0.0317309312
C  C184  1  0.12875000  0.69011000  0.48429000  1.0 -0.0317309312
C  C185  1  0.69685000  0.48429000  0.69011000  1.0 -0.0317309312
C  C186  1  0.48429000  0.12875000  0.69011000  1.0 -0.0317309312
C  C187  1  0.37125000  0.80315000  0.01571000  1.0 -0.0317309312
C  C188  1  0.80315000  0.37125000  0.80989000  1.0 -0.0317309312
C  C189  1  0.01571000  0.80315000  0.80989000  1.0 -0.0317309312
C  C190  1  0.37125000  0.80989000  0.80315000  1.0 -0.0317309312
C  C191  1  0.37125000  0.01571000  0.80989000  1.0 -0.0317309312
C  C192  1  0.80989000  0.80315000  0.37125000  1.0 -0.0317309312
C  C193  1  0.85065000  0.28209000  0.35373000  1.0 -0.1111953909
C  C194  1  0.98647000  0.14627000  0.64935000  1.0 -0.1111953909
C  C195  1  0.28209000  0.85065000  0.51353000  1.0 -0.1111953909
C  C196  1  0.14627000  0.98647000  0.21791000  1.0 -0.1111953909
C  C197  1  0.21791000  0.98647000  0.64935000  1.0 -0.1111953909
C  C198  1  0.51353000  0.35373000  0.28209000  1.0 -0.1111953909
C  C199  1  0.14627000  0.64935000  0.98647000  1.0 -0.1111953909
C  C200  1  0.21791000  0.14627000  0.98647000  1.0 -0.1111953909
C  C201  1  0.35373000  0.51353000  0.85065000  1.0 -0.1111953909
C  C202  1  0.98647000  0.64935000  0.21791000  1.0 -0.1111953909
C  C203  1  0.35373000  0.85065000  0.28209000  1.0 -0.1111953909
C  C204  1  0.28209000  0.35373000  0.85065000  1.0 -0.1111953909
C  C205  1  0.35373000  0.28209000  0.51353000  1.0 -0.1111953909
C  C206  1  0.51353000  0.28209000  0.85065000  1.0 -0.1111953909
C  C207  1  0.85065000  0.51353000  0.28209000  1.0 -0.1111953909
C  C208  1  0.85065000  0.35373000  0.51353000  1.0 -0.1111953909
C  C209  1  0.28209000  0.51353000  0.35373000  1.0 -0.1111953909
C  C210  1  0.51353000  0.85065000  0.35373000  1.0 -0.1111953909
C  C211  1  0.64935000  0.21791000  0.98647000  1.0 -0.1111953909
C  C212  1  0.21791000  0.64935000  0.14627000  1.0 -0.1111953909
C  C213  1  0.98647000  0.21791000  0.14627000  1.0 -0.1111953909
C  C214  1  0.64935000  0.14627000  0.21791000  1.0 -0.1111953909
C  C215  1  0.64935000  0.98647000  0.14627000  1.0 -0.1111953909
C  C216  1  0.14627000  0.21791000  0.64935000  1.0 -0.1111953909
C  C217  1  0.14935000  0.71791000  0.64627000  1.0 -0.1111953909
C  C218  1  0.01353000  0.85373000  0.35065000  1.0 -0.1111953909
C  C219  1  0.71791000  0.14935000  0.48647000  1.0 -0.1111953909
C  C220  1  0.85373000  0.01353000  0.78209000  1.0 -0.1111953909
C  C221  1  0.78209000  0.01353000  0.35065000  1.0 -0.1111953909
C  C222  1  0.48647000  0.64627000  0.71791000  1.0 -0.1111953909
C  C223  1  0.85373000  0.35065000  0.01353000  1.0 -0.1111953909
C  C224  1  0.78209000  0.85373000  0.01353000  1.0 -0.1111953909
C  C225  1  0.64627000  0.48647000  0.14935000  1.0 -0.1111953909
C  C226  1  0.01353000  0.35065000  0.78209000  1.0 -0.1111953909
C  C227  1  0.64627000  0.14935000  0.71791000  1.0 -0.1111953909
C  C228  1  0.71791000  0.64627000  0.14935000  1.0 -0.1111953909
C  C229  1  0.64627000  0.71791000  0.48647000  1.0 -0.1111953909
C  C230  1  0.48647000  0.71791000  0.14935000  1.0 -0.1111953909
C  C231  1  0.14935000  0.48647000  0.71791000  1.0 -0.1111953909
C  C232  1  0.14935000  0.64627000  0.48647000  1.0 -0.1111953909
C  C233  1  0.71791000  0.48647000  0.64627000  1.0 -0.1111953909
C  C234  1  0.48647000  0.14935000  0.64627000  1.0 -0.1111953909
C  C235  1  0.35065000  0.78209000  0.01353000  1.0 -0.1111953909
C  C236  1  0.78209000  0.35065000  0.85373000  1.0 -0.1111953909
C  C237  1  0.01353000  0.78209000  0.85373000  1.0 -0.1111953909
C  C238  1  0.35065000  0.85373000  0.78209000  1.0 -0.1111953909
C  C239  1  0.35065000  0.01353000  0.85373000  1.0 -0.1111953909
C  C240  1  0.85373000  0.78209000  0.35065000  1.0 -0.1111953909
C  C241  1  0.80779000  0.30307000  0.37561000  1.0 -0.0390031345
C  C242  1  0.98647000  0.12439000  0.69221000  1.0 -0.0390031345
C  C243  1  0.30307000  0.80779000  0.51353000  1.0 -0.0390031345
C  C244  1  0.12439000  0.98647000  0.19693000  1.0 -0.0390031345
C  C245  1  0.19693000  0.98647000  0.69221000  1.0 -0.0390031345
C  C246  1  0.51353000  0.37561000  0.30307000  1.0 -0.0390031345
C  C247  1  0.12439000  0.69221000  0.98647000  1.0 -0.0390031345
C  C248  1  0.19693000  0.12439000  0.98647000  1.0 -0.0390031345
C  C249  1  0.37561000  0.51353000  0.80779000  1.0 -0.0390031345
C  C250  1  0.98647000  0.69221000  0.19693000  1.0 -0.0390031345
C  C251  1  0.37561000  0.80779000  0.30307000  1.0 -0.0390031345
C  C252  1  0.30307000  0.37561000  0.80779000  1.0 -0.0390031345
C  C253  1  0.37561000  0.30307000  0.51353000  1.0 -0.0390031345
C  C254  1  0.51353000  0.30307000  0.80779000  1.0 -0.0390031345
C  C255  1  0.80779000  0.51353000  0.30307000  1.0 -0.0390031345
C  C256  1  0.80779000  0.37561000  0.51353000  1.0 -0.0390031345
C  C257  1  0.30307000  0.51353000  0.37561000  1.0 -0.0390031345
C  C258  1  0.51353000  0.80779000  0.37561000  1.0 -0.0390031345
C  C259  1  0.69221000  0.19693000  0.98647000  1.0 -0.0390031345
C  C260  1  0.19693000  0.69221000  0.12439000  1.0 -0.0390031345
C  C261  1  0.98647000  0.19693000  0.12439000  1.0 -0.0390031345
C  C262  1  0.69221000  0.12439000  0.19693000  1.0 -0.0390031345
C  C263  1  0.69221000  0.98647000  0.12439000  1.0 -0.0390031345
C  C264  1  0.12439000  0.19693000  0.69221000  1.0 -0.0390031345
C  C265  1  0.19221000  0.69693000  0.62439000  1.0 -0.0390031345
C  C266  1  0.01353000  0.87561000  0.30779000  1.0 -0.0390031345
C  C267  1  0.69693000  0.19221000  0.48647000  1.0 -0.0390031345
C  C268  1  0.87561000  0.01353000  0.80307000  1.0 -0.0390031345
C  C269  1  0.80307000  0.01353000  0.30779000  1.0 -0.0390031345
C  C270  1  0.48647000  0.62439000  0.69693000  1.0 -0.0390031345
C  C271  1  0.87561000  0.30779000  0.01353000  1.0 -0.0390031345
C  C272  1  0.80307000  0.87561000  0.01353000  1.0 -0.0390031345
C  C273  1  0.62439000  0.48647000  0.19221000  1.0 -0.0390031345
C  C274  1  0.01353000  0.30779000  0.80307000  1.0 -0.0390031345
C  C275  1  0.62439000  0.19221000  0.69693000  1.0 -0.0390031345
C  C276  1  0.69693000  0.62439000  0.19221000  1.0 -0.0390031345
C  C277  1  0.62439000  0.69693000  0.48647000  1.0 -0.0390031345
C  C278  1  0.48647000  0.69693000  0.19221000  1.0 -0.0390031345
C  C279  1  0.19221000  0.48647000  0.69693000  1.0 -0.0390031345
C  C280  1  0.19221000  0.62439000  0.48647000  1.0 -0.0390031345
C  C281  1  0.69693000  0.48647000  0.62439000  1.0 -0.0390031345
C  C282  1  0.48647000  0.19221000  0.62439000  1.0 -0.0390031345
C  C283  1  0.30779000  0.80307000  0.01353000  1.0 -0.0390031345
C  C284  1  0.80307000  0.30779000  0.87561000  1.0 -0.0390031345
C  C285  1  0.01353000  0.80307000  0.87561000  1.0 -0.0390031345
C  C286  1  0.30779000  0.87561000  0.80307000  1.0 -0.0390031345
C  C287  1  0.30779000  0.01353000  0.87561000  1.0 -0.0390031345
C  C288  1  0.87561000  0.80307000  0.30779000  1.0 -0.0390031345
C  C289  1  0.78502000  0.34608000  0.35336000  1.0 -0.1163921461
C  C290  1  0.98446000  0.14664000  0.71498000  1.0 -0.1163921461
C  C291  1  0.34608000  0.78502000  0.51554000  1.0 -0.1163921461
C  C292  1  0.14664000  0.98446000  0.15392000  1.0 -0.1163921461
C  C293  1  0.15392000  0.98446000  0.71498000  1.0 -0.1163921461
C  C294  1  0.51554000  0.35336000  0.34608000  1.0 -0.1163921461
C  C295  1  0.14664000  0.71498000  0.98446000  1.0 -0.1163921461
C  C296  1  0.15392000  0.14664000  0.98446000  1.0 -0.1163921461
C  C297  1  0.35336000  0.51554000  0.78502000  1.0 -0.1163921461
C  C298  1  0.98446000  0.71498000  0.15392000  1.0 -0.1163921461
C  C299  1  0.35336000  0.78502000  0.34608000  1.0 -0.1163921461
C  C300  1  0.34608000  0.35336000  0.78502000  1.0 -0.1163921461
C  C301  1  0.35336000  0.34608000  0.51554000  1.0 -0.1163921461
C  C302  1  0.51554000  0.34608000  0.78502000  1.0 -0.1163921461
C  C303  1  0.78502000  0.51554000  0.34608000  1.0 -0.1163921461
C  C304  1  0.78502000  0.35336000  0.51554000  1.0 -0.1163921461
C  C305  1  0.34608000  0.51554000  0.35336000  1.0 -0.1163921461
C  C306  1  0.51554000  0.78502000  0.35336000  1.0 -0.1163921461
C  C307  1  0.71498000  0.15392000  0.98446000  1.0 -0.1163921461
C  C308  1  0.15392000  0.71498000  0.14664000  1.0 -0.1163921461
C  C309  1  0.98446000  0.15392000  0.14664000  1.0 -0.1163921461
C  C310  1  0.71498000  0.14664000  0.15392000  1.0 -0.1163921461
C  C311  1  0.71498000  0.98446000  0.14664000  1.0 -0.1111953909
C  C312  1  0.14664000  0.15392000  0.71498000  1.0 -0.1163921461
C  C313  1  0.21498000  0.65392000  0.64664000  1.0 -0.1163921461
C  C314  1  0.01554000  0.85336000  0.28502000  1.0 -0.1163921461
C  C315  1  0.65392000  0.21498000  0.48446000  1.0 -0.1163921461
C  C316  1  0.85336000  0.01554000  0.84608000  1.0 -0.1163921461
C  C317  1  0.84608000  0.01554000  0.28502000  1.0 -0.1163921461
C  C318  1  0.48446000  0.64664000  0.65392000  1.0 -0.1163921461
C  C319  1  0.85336000  0.28502000  0.01554000  1.0 -0.1163921461
C  C320  1  0.84608000  0.85336000  0.01554000  1.0 -0.1163921461
C  C321  1  0.64664000  0.48446000  0.21498000  1.0 -0.1163921461
C  C322  1  0.01554000  0.28502000  0.84608000  1.0 -0.1163921461
C  C323  1  0.64664000  0.21498000  0.65392000  1.0 -0.1163921461
C  C324  1  0.65392000  0.64664000  0.21498000  1.0 -0.1163921461
C  C325  1  0.64664000  0.65392000  0.48446000  1.0 -0.1163921461
C  C326  1  0.48446000  0.65392000  0.21498000  1.0 -0.1163921461
C  C327  1  0.21498000  0.48446000  0.65392000  1.0 -0.1163921461
C  C328  1  0.21498000  0.64664000  0.48446000  1.0 -0.1163921461
C  C329  1  0.65392000  0.48446000  0.64664000  1.0 -0.1163921461
C  C330  1  0.48446000  0.21498000  0.64664000  1.0 -0.1163921461
C  C331  1  0.28502000  0.84608000  0.01554000  1.0 -0.1163921461
C  C332  1  0.84608000  0.28502000  0.85336000  1.0 -0.1163921461
C  C333  1  0.01554000  0.84608000  0.85336000  1.0 -0.1163921461
C  C334  1  0.28502000  0.85336000  0.84608000  1.0 -0.1163921461
C  C335  1  0.28502000  0.01554000  0.85336000  1.0 -0.1163921461
C  C336  1  0.85336000  0.84608000  0.28502000  1.0 -0.1163921461
C  C337  1  0.91890000  0.28156000  0.28734000  1.0 0.5754489242
C  C338  1  0.98780000  0.21266000  0.58110000  1.0 0.5699185618
C  C339  1  0.28156000  0.91890000  0.51220000  1.0 0.5699185618
C  C340  1  0.21266000  0.98780000  0.21844000  1.0 0.5699185618
C  C341  1  0.21844000  0.98780000  0.58110000  1.0 0.5754489242
C  C342  1  0.51220000  0.28734000  0.28156000  1.0 0.5754489242
C  C343  1  0.21266000  0.58110000  0.98780000  1.0 0.5699185618
C  C344  1  0.21844000  0.21266000  0.98780000  1.0 0.5699185618
C  C345  1  0.28734000  0.51220000  0.91890000  1.0 0.5699185618
C  C346  1  0.98780000  0.58110000  0.21844000  1.0 0.5699185618
C  C347  1  0.28734000  0.91890000  0.28156000  1.0 0.5754489242
C  C348  1  0.28156000  0.28734000  0.91890000  1.0 0.5699185618
C  C349  1  0.28734000  0.28156000  0.51220000  1.0 0.5699185618
C  C350  1  0.51220000  0.28156000  0.91890000  1.0 0.5699185618
C  C351  1  0.91890000  0.51220000  0.28156000  1.0 0.5754489242
C  C352  1  0.91890000  0.28734000  0.51220000  1.0 0.5699185618
C  C353  1  0.28156000  0.51220000  0.28734000  1.0 0.5699185618
C  C354  1  0.51220000  0.91890000  0.28734000  1.0 0.5699185618
C  C355  1  0.58110000  0.21844000  0.98780000  1.0 0.5699185618
C  C356  1  0.21844000  0.58110000  0.21266000  1.0 0.5699185618
C  C357  1  0.98780000  0.21844000  0.21266000  1.0 0.5699185618
C  C358  1  0.58110000  0.21266000  0.21844000  1.0 0.5699185618
C  C359  1  0.58110000  0.98780000  0.21266000  1.0 0.5699185618
C  C360  1  0.21266000  0.21844000  0.58110000  1.0 0.5699185618
C  C361  1  0.08110000  0.71844000  0.71266000  1.0 0.5699185618
C  C362  1  0.01220000  0.78734000  0.41890000  1.0 0.5699185618
C  C363  1  0.71844000  0.08110000  0.48780000  1.0 0.5699185618
C  C364  1  0.78734000  0.01220000  0.78156000  1.0 0.5699185618
C  C365  1  0.78156000  0.01220000  0.41890000  1.0 0.5699185618
C  C366  1  0.48780000  0.71266000  0.71844000  1.0 0.5699185618
C  C367  1  0.78734000  0.41890000  0.01220000  1.0 0.5699185618
C  C368  1  0.78156000  0.78734000  0.01220000  1.0 0.5699185618
C  C369  1  0.71266000  0.48780000  0.08110000  1.0 0.5699185618
C  C370  1  0.01220000  0.41890000  0.78156000  1.0 0.5699185618
C  C371  1  0.71266000  0.08110000  0.71844000  1.0 0.5699185618
C  C372  1  0.71844000  0.71266000  0.08110000  1.0 0.5699185618
C  C373  1  0.71266000  0.71844000  0.48780000  1.0 0.5699185618
C  C374  1  0.48780000  0.71844000  0.08110000  1.0 0.5699185618
C  C375  1  0.08110000  0.48780000  0.71844000  1.0 0.5699185618
C  C376  1  0.08110000  0.71266000  0.48780000  1.0 0.5699185618
C  C377  1  0.71844000  0.48780000  0.71266000  1.0 0.5699185618
C  C378  1  0.48780000  0.08110000  0.71266000  1.0 0.5699185618
C  C379  1  0.41890000  0.78156000  0.01220000  1.0 0.5699185618
C  C380  1  0.78156000  0.41890000  0.78734000  1.0 0.5699185618
C  C381  1  0.01220000  0.78156000  0.78734000  1.0 0.5699185618
C  C382  1  0.41890000  0.78734000  0.78156000  1.0 0.5754489242
C  C383  1  0.41890000  0.01220000  0.78734000  1.0 0.5699185618
C  C384  1  0.78734000  0.78156000  0.41890000  1.0 0.5699185618
C  C385  1  0.78639000  0.28177000  0.42361000  1.0 0.5618324464
C  C386  1  0.99177000  0.07639000  0.71361000  1.0 0.5618324464
C  C387  1  0.28177000  0.78639000  0.50823000  1.0 0.5618324464
C  C388  1  0.07639000  0.99177000  0.21823000  1.0 0.5618324464
C  C389  1  0.21823000  0.99177000  0.71361000  1.0 0.5618324464
C  C390  1  0.50823000  0.42361000  0.28177000  1.0 0.5618324464
C  C391  1  0.07639000  0.71361000  0.99177000  1.0 0.5618324464
C  C392  1  0.21823000  0.07639000  0.99177000  1.0 0.5618324464
C  C393  1  0.42361000  0.50823000  0.78639000  1.0 0.5618324464
C  C394  1  0.99177000  0.71361000  0.21823000  1.0 0.5618324464
C  C395  1  0.42361000  0.78639000  0.28177000  1.0 0.5618324464
C  C396  1  0.28177000  0.42361000  0.78639000  1.0 0.5618324464
C  C397  1  0.42361000  0.28177000  0.50823000  1.0 0.5618324464
C  C398  1  0.50823000  0.28177000  0.78639000  1.0 0.5618324464
C  C399  1  0.78639000  0.50823000  0.28177000  1.0 0.5618324464
C  C400  1  0.78639000  0.42361000  0.50823000  1.0 0.5618324464
C  C401  1  0.28177000  0.50823000  0.42361000  1.0 0.5618324464
C  C402  1  0.50823000  0.78639000  0.42361000  1.0 0.5618324464
C  C403  1  0.71361000  0.21823000  0.99177000  1.0 0.5618324464
C  C404  1  0.21823000  0.71361000  0.07639000  1.0 0.5618324464
C  C405  1  0.99177000  0.21823000  0.07639000  1.0 0.5618324464
C  C406  1  0.71361000  0.07639000  0.21823000  1.0 0.5618324464
C  C407  1  0.71361000  0.99177000  0.07639000  1.0 0.5618324464
C  C408  1  0.07639000  0.21823000  0.71361000  1.0 0.5618324464
C  C409  1  0.21361000  0.71823000  0.57639000  1.0 0.5618324464
C  C410  1  0.00823000  0.92361000  0.28639000  1.0 0.5618324464
C  C411  1  0.71823000  0.21361000  0.49177000  1.0 0.5618324464
C  C412  1  0.92361000  0.00823000  0.78177000  1.0 0.5618324464
C  C413  1  0.78177000  0.00823000  0.28639000  1.0 0.5618324464
C  C414  1  0.49177000  0.57639000  0.71823000  1.0 0.5618324464
C  C415  1  0.92361000  0.28639000  0.00823000  1.0 0.5618324464
C  C416  1  0.78177000  0.92361000  0.00823000  1.0 0.5618324464
C  C417  1  0.57639000  0.49177000  0.21361000  1.0 0.5618324464
C  C418  1  0.00823000  0.28639000  0.78177000  1.0 0.5618324464
C  C419  1  0.57639000  0.21361000  0.71823000  1.0 0.5618324464
C  C420  1  0.71823000  0.57639000  0.21361000  1.0 0.5618324464
C  C421  1  0.57639000  0.71823000  0.49177000  1.0 0.5618324464
C  C422  1  0.49177000  0.71823000  0.21361000  1.0 0.5618324464
C  C423  1  0.21361000  0.49177000  0.71823000  1.0 0.5618324464
C  C424  1  0.21361000  0.57639000  0.49177000  1.0 0.5618324464
C  C425  1  0.71823000  0.49177000  0.57639000  1.0 0.5618324464
C  C426  1  0.49177000  0.21361000  0.57639000  1.0 0.5618324464
C  C427  1  0.28639000  0.78177000  0.00823000  1.0 0.5618324464
C  C428  1  0.78177000  0.28639000  0.92361000  1.0 0.5618324464
C  C429  1  0.00823000  0.78177000  0.92361000  1.0 0.5618324464
C  C430  1  0.28639000  0.92361000  0.78177000  1.0 0.5618324464
C  C431  1  0.28639000  0.00823000  0.92361000  1.0 0.5618324464
C  C432  1  0.92361000  0.78177000  0.28639000  1.0 0.5618324464
C  C433  1  0.01361000  0.28263000  0.28505000  1.0 0.5699185618
C  C434  1  0.08129000  0.21495000  0.48639000  1.0 0.5699185618
C  C435  1  0.28263000  0.01361000  0.41871000  1.0 0.5699185618
C  C436  1  0.21495000  0.08129000  0.21737000  1.0 0.5699185618
C  C437  1  0.21737000  0.08129000  0.48639000  1.0 0.5699185618
C  C438  1  0.41871000  0.28505000  0.28263000  1.0 0.5699185618
C  C439  1  0.21495000  0.48639000  0.08129000  1.0 0.5699185618
C  C440  1  0.21737000  0.21495000  0.08129000  1.0 0.5699185618
C  C441  1  0.28505000  0.41871000  0.01361000  1.0 0.5699185618
C  C442  1  0.08129000  0.48639000  0.21737000  1.0 0.5699185618
C  C443  1  0.28505000  0.01361000  0.28263000  1.0 0.5699185618
C  C444  1  0.28263000  0.28505000  0.01361000  1.0 0.5699185618
C  C445  1  0.28505000  0.28263000  0.41871000  1.0 0.5699185618
C  C446  1  0.41871000  0.28263000  0.01361000  1.0 0.5699185618
C  C447  1  0.01361000  0.41871000  0.28263000  1.0 0.5699185618
C  C448  1  0.01361000  0.28505000  0.41871000  1.0 0.5699185618
C  C449  1  0.28263000  0.41871000  0.28505000  1.0 0.5699185618
C  C450  1  0.41871000  0.01361000  0.28505000  1.0 0.5699185618
C  C451  1  0.48639000  0.21737000  0.08129000  1.0 0.5699185618
C  C452  1  0.21737000  0.48639000  0.21495000  1.0 0.5699185618
C  C453  1  0.08129000  0.21737000  0.21495000  1.0 0.5699185618
C  C454  1  0.48639000  0.21495000  0.21737000  1.0 0.5699185618
C  C455  1  0.48639000  0.08129000  0.21495000  1.0 0.5699185618
C  C456  1  0.21495000  0.21737000  0.48639000  1.0 0.5699185618
C  C457  1  0.98639000  0.71737000  0.71495000  1.0 0.5699185618
C  C458  1  0.91871000  0.78505000  0.51361000  1.0 0.5699185618
C  C459  1  0.71737000  0.98639000  0.58129000  1.0 0.5699185618
C  C460  1  0.78505000  0.91871000  0.78263000  1.0 0.5699185618
C  C461  1  0.78263000  0.91871000  0.51361000  1.0 0.5699185618
C  C462  1  0.58129000  0.71495000  0.71737000  1.0 0.5699185618
C  C463  1  0.78505000  0.51361000  0.91871000  1.0 0.5699185618
C  C464  1  0.78263000  0.78505000  0.91871000  1.0 0.5699185618
C  C465  1  0.71495000  0.58129000  0.98639000  1.0 0.5699185618
C  C466  1  0.91871000  0.51361000  0.78263000  1.0 0.5699185618
C  C467  1  0.71495000  0.98639000  0.71737000  1.0 0.5699185618
C  C468  1  0.71737000  0.71495000  0.98639000  1.0 0.5699185618
C  C469  1  0.71495000  0.71737000  0.58129000  1.0 0.5699185618
C  C470  1  0.58129000  0.71737000  0.98639000  1.0 0.5699185618
C  C471  1  0.98639000  0.58129000  0.71737000  1.0 0.5699185618
C  C472  1  0.98639000  0.71495000  0.58129000  1.0 0.5699185618
C  C473  1  0.71737000  0.58129000  0.71495000  1.0 0.5699185618
C  C474  1  0.58129000  0.98639000  0.71495000  1.0 0.5699185618
C  C475  1  0.51361000  0.78263000  0.91871000  1.0 0.5699185618
C  C476  1  0.78263000  0.51361000  0.78505000  1.0 0.5699185618
C  C477  1  0.91871000  0.78263000  0.78505000  1.0 0.5699185618
C  C478  1  0.51361000  0.78505000  0.78263000  1.0 0.5699185618
C  C479  1  0.51361000  0.91871000  0.78505000  1.0 0.5699185618
C  C480  1  0.78505000  0.78263000  0.51361000  1.0 0.5699185618
C  C481  1  0.01777000  0.30451000  0.30657000  1.0 -0.0486556196
C  C482  1  0.12885000  0.19343000  0.48223000  1.0 -0.0486556196
C  C483  1  0.30451000  0.01777000  0.37115000  1.0 -0.0486556196
C  C484  1  0.19343000  0.12885000  0.19549000  1.0 -0.0486556196
C  C485  1  0.19549000  0.12885000  0.48223000  1.0 -0.0486556196
C  C486  1  0.37115000  0.30657000  0.30451000  1.0 -0.0486556196
C  C487  1  0.19343000  0.48223000  0.12885000  1.0 -0.0486556196
C  C488  1  0.19549000  0.19343000  0.12885000  1.0 -0.0486556196
C  C489  1  0.30657000  0.37115000  0.01777000  1.0 -0.0486556196
C  C490  1  0.12885000  0.48223000  0.19549000  1.0 -0.0486556196
C  C491  1  0.30657000  0.01777000  0.30451000  1.0 -0.0486556196
C  C492  1  0.30451000  0.30657000  0.01777000  1.0 -0.0486556196
C  C493  1  0.30657000  0.30451000  0.37115000  1.0 -0.0486556196
C  C494  1  0.37115000  0.30451000  0.01777000  1.0 -0.0486556196
C  C495  1  0.01777000  0.37115000  0.30451000  1.0 -0.0486556196
C  C496  1  0.01777000  0.30657000  0.37115000  1.0 -0.0486556196
C  C497  1  0.30451000  0.37115000  0.30657000  1.0 -0.0486556196
C  C498  1  0.37115000  0.01777000  0.30657000  1.0 -0.0486556196
C  C499  1  0.48223000  0.19549000  0.12885000  1.0 -0.0486556196
C  C500  1  0.19549000  0.48223000  0.19343000  1.0 -0.0486556196
C  C501  1  0.12885000  0.19549000  0.19343000  1.0 -0.0486556196
C  C502  1  0.48223000  0.19343000  0.19549000  1.0 -0.0486556196
C  C503  1  0.48223000  0.12885000  0.19343000  1.0 -0.0486556196
C  C504  1  0.19343000  0.19549000  0.48223000  1.0 -0.0486556196
C  C505  1  0.98223000  0.69549000  0.69343000  1.0 -0.0486556196
C  C506  1  0.87115000  0.80657000  0.51777000  1.0 -0.0486556196
C  C507  1  0.69549000  0.98223000  0.62885000  1.0 -0.0486556196
C  C508  1  0.80657000  0.87115000  0.80451000  1.0 -0.0486556196
C  C509  1  0.80451000  0.87115000  0.51777000  1.0 -0.0486556196
C  C510  1  0.62885000  0.69343000  0.69549000  1.0 -0.0486556196
C  C511  1  0.80657000  0.51777000  0.87115000  1.0 -0.0486556196
C  C512  1  0.80451000  0.80657000  0.87115000  1.0 -0.0486556196
C  C513  1  0.69343000  0.62885000  0.98223000  1.0 -0.0486556196
C  C514  1  0.87115000  0.51777000  0.80451000  1.0 -0.0486556196
C  C515  1  0.69343000  0.98223000  0.69549000  1.0 -0.0486556196
C  C516  1  0.69549000  0.69343000  0.98223000  1.0 -0.0486556196
C  C517  1  0.69343000  0.69549000  0.62885000  1.0 -0.0486556196
C  C518  1  0.62885000  0.69549000  0.98223000  1.0 -0.0486556196
C  C519  1  0.98223000  0.62885000  0.69549000  1.0 -0.0486556196
C  C520  1  0.98223000  0.69343000  0.62885000  1.0 -0.0486556196
C  C521  1  0.69549000  0.62885000  0.69343000  1.0 -0.0486556196
C  C522  1  0.62885000  0.98223000  0.69343000  1.0 -0.0486556196
C  C523  1  0.51777000  0.80451000  0.87115000  1.0 -0.0486556196
C  C524  1  0.80451000  0.51777000  0.80657000  1.0 -0.0486556196
C  C525  1  0.87115000  0.80451000  0.80657000  1.0 -0.0486556196
C  C526  1  0.51777000  0.80657000  0.80451000  1.0 -0.0486556196
C  C527  1  0.51777000  0.87115000  0.80657000  1.0 -0.0486556196
C  C528  1  0.80657000  0.80451000  0.51777000  1.0 -0.0486556196
C  C529  1  0.01795000  0.34833000  0.28393000  1.0 -0.1111953909
C  C530  1  0.15021000  0.21607000  0.48205000  1.0 -0.1111953909
C  C531  1  0.34833000  0.01795000  0.34979000  1.0 -0.1111953909
C  C532  1  0.21607000  0.15021000  0.15167000  1.0 -0.1111953909
C  C533  1  0.15167000  0.15021000  0.48205000  1.0 -0.1111953909
C  C534  1  0.34979000  0.28393000  0.34833000  1.0 -0.1111953909
C  C535  1  0.21607000  0.48205000  0.15021000  1.0 -0.1111953909
C  C536  1  0.15167000  0.21607000  0.15021000  1.0 -0.1111953909
C  C537  1  0.28393000  0.34979000  0.01795000  1.0 -0.1111953909
C  C538  1  0.15021000  0.48205000  0.15167000  1.0 -0.1111953909
C  C539  1  0.28393000  0.01795000  0.34833000  1.0 -0.1111953909
C  C540  1  0.34833000  0.28393000  0.01795000  1.0 -0.1111953909
C  C541  1  0.28393000  0.34833000  0.34979000  1.0 -0.1111953909
C  C542  1  0.34979000  0.34833000  0.01795000  1.0 -0.1111953909
C  C543  1  0.01795000  0.34979000  0.34833000  1.0 -0.1111953909
C  C544  1  0.01795000  0.28393000  0.34979000  1.0 -0.1111953909
C  C545  1  0.34833000  0.34979000  0.28393000  1.0 -0.1111953909
C  C546  1  0.34979000  0.01795000  0.28393000  1.0 -0.1111953909
C  C547  1  0.48205000  0.15167000  0.15021000  1.0 -0.1111953909
C  C548  1  0.15167000  0.48205000  0.21607000  1.0 -0.1111953909
C  C549  1  0.15021000  0.15167000  0.21607000  1.0 -0.1111953909
C  C550  1  0.48205000  0.21607000  0.15167000  1.0 -0.1111953909
C  C551  1  0.48205000  0.15021000  0.21607000  1.0 -0.1111953909
C  C552  1  0.21607000  0.15167000  0.48205000  1.0 -0.1111953909
C  C553  1  0.98205000  0.65167000  0.71607000  1.0 -0.1041089892
C  C554  1  0.84979000  0.78393000  0.51795000  1.0 -0.1041089892
C  C555  1  0.65167000  0.98205000  0.65021000  1.0 -0.1111953909
C  C556  1  0.78393000  0.84979000  0.84833000  1.0 -0.1041089892
C  C557  1  0.84833000  0.84979000  0.51795000  1.0 -0.1041089892
C  C558  1  0.65021000  0.71607000  0.65167000  1.0 -0.1111953909
C  C559  1  0.78393000  0.51795000  0.84979000  1.0 -0.1111953909
C  C560  1  0.84833000  0.78393000  0.84979000  1.0 -0.1041089892
C  C561  1  0.71607000  0.65021000  0.98205000  1.0 -0.1041089892
C  C562  1  0.84979000  0.51795000  0.84833000  1.0 -0.1041089892
C  C563  1  0.71607000  0.98205000  0.65167000  1.0 -0.1111953909
C  C564  1  0.65167000  0.71607000  0.98205000  1.0 -0.1041089892
C  C565  1  0.71607000  0.65167000  0.65021000  1.0 -0.1111953909
C  C566  1  0.65021000  0.65167000  0.98205000  1.0 -0.1041089892
C  C567  1  0.98205000  0.65021000  0.65167000  1.0 -0.1111953909
C  C568  1  0.98205000  0.71607000  0.65021000  1.0 -0.1111953909
C  C569  1  0.65167000  0.65021000  0.71607000  1.0 -0.1111953909
C  C570  1  0.65021000  0.98205000  0.71607000  1.0 -0.1111953909
C  C571  1  0.51795000  0.84833000  0.84979000  1.0 -0.1041089892
C  C572  1  0.84833000  0.51795000  0.78393000  1.0 -0.1111953909
C  C573  1  0.84979000  0.84833000  0.78393000  1.0 -0.1041089892
C  C574  1  0.51795000  0.78393000  0.84833000  1.0 -0.1041089892
C  C575  1  0.51795000  0.84979000  0.78393000  1.0 -0.1041089892
C  C576  1  0.78393000  0.84833000  0.51795000  1.0 -0.1041089892
C  C577  1  0.03897000  0.08035000  0.31061000  1.0 0.0473278229
C  C578  1  0.92993000  0.18939000  0.46103000  1.0 0.0473278229
C  C579  1  0.08035000  0.03897000  0.57007000  1.0 0.0473278229
C  C580  1  0.18939000  0.92993000  0.41965000  1.0 0.0473278229
C  C581  1  0.41965000  0.92993000  0.46103000  1.0 0.0473278229
C  C582  1  0.57007000  0.31061000  0.08035000  1.0 0.0473278229
C  C583  1  0.18939000  0.46103000  0.92993000  1.0 0.0473278229
C  C584  1  0.41965000  0.18939000  0.92993000  1.0 0.0473278229
C  C585  1  0.31061000  0.57007000  0.03897000  1.0 0.0473278229
C  C586  1  0.92993000  0.46103000  0.41965000  1.0 0.0473278229
C  C587  1  0.31061000  0.03897000  0.08035000  1.0 0.0473278229
C  C588  1  0.08035000  0.31061000  0.03897000  1.0 0.0473278229
C  C589  1  0.31061000  0.08035000  0.57007000  1.0 0.0473278229
C  C590  1  0.57007000  0.08035000  0.03897000  1.0 0.0473278229
C  C591  1  0.03897000  0.57007000  0.08035000  1.0 0.0473278229
C  C592  1  0.03897000  0.31061000  0.57007000  1.0 0.0473278229
C  C593  1  0.08035000  0.57007000  0.31061000  1.0 0.0473278229
C  C594  1  0.57007000  0.03897000  0.31061000  1.0 0.0473278229
C  C595  1  0.46103000  0.41965000  0.92993000  1.0 0.0473278229
C  C596  1  0.41965000  0.46103000  0.18939000  1.0 0.0473278229
C  C597  1  0.92993000  0.41965000  0.18939000  1.0 0.0473278229
C  C598  1  0.46103000  0.18939000  0.41965000  1.0 0.0473278229
C  C599  1  0.46103000  0.92993000  0.18939000  1.0 0.0473278229
C  C600  1  0.18939000  0.41965000  0.46103000  1.0 0.0473278229
C  C601  1  0.96103000  0.91965000  0.68939000  1.0 0.0473278229
C  C602  1  0.07007000  0.81061000  0.53897000  1.0 0.0473278229
C  C603  1  0.91965000  0.96103000  0.42993000  1.0 0.0473278229
C  C604  1  0.81061000  0.07007000  0.58035000  1.0 0.0473278229
C  C605  1  0.58035000  0.07007000  0.53897000  1.0 0.0473278229
C  C606  1  0.42993000  0.68939000  0.91965000  1.0 0.0473278229
C  C607  1  0.81061000  0.53897000  0.07007000  1.0 0.0473278229
C  C608  1  0.58035000  0.81061000  0.07007000  1.0 0.0473278229
C  C609  1  0.68939000  0.42993000  0.96103000  1.0 0.0473278229
C  C610  1  0.07007000  0.53897000  0.58035000  1.0 0.0473278229
C  C611  1  0.68939000  0.96103000  0.91965000  1.0 0.0473278229
C  C612  1  0.91965000  0.68939000  0.96103000  1.0 0.0473278229
C  C613  1  0.68939000  0.91965000  0.42993000  1.0 0.0473278229
C  C614  1  0.42993000  0.91965000  0.96103000  1.0 0.0473278229
C  C615  1  0.96103000  0.42993000  0.91965000  1.0 0.0473278229
C  C616  1  0.96103000  0.68939000  0.42993000  1.0 0.0473278229
C  C617  1  0.91965000  0.42993000  0.68939000  1.0 0.0473278229
C  C618  1  0.42993000  0.96103000  0.68939000  1.0 0.0473278229
C  C619  1  0.53897000  0.58035000  0.07007000  1.0 0.0473278229
C  C620  1  0.58035000  0.53897000  0.81061000  1.0 0.0473278229
C  C621  1  0.07007000  0.58035000  0.81061000  1.0 0.0473278229
C  C622  1  0.53897000  0.81061000  0.58035000  1.0 0.0473278229
C  C623  1  0.53897000  0.07007000  0.81061000  1.0 0.0473278229
C  C624  1  0.81061000  0.58035000  0.53897000  1.0 0.0473278229
C  C625  1  0.05390000  0.08630000  0.28010000  1.0 -0.174361236
C  C626  1  0.92030000  0.21990000  0.44610000  1.0 -0.174361236
C  C627  1  0.08630000  0.05390000  0.57970000  1.0 -0.17606965
C  C628  1  0.21990000  0.92030000  0.41370000  1.0 -0.174361236
C  C629  1  0.41370000  0.92030000  0.44610000  1.0 -0.17606965
C  C630  1  0.57970000  0.28010000  0.08630000  1.0 -0.174361236
C  C631  1  0.21990000  0.44610000  0.92030000  1.0 -0.174361236
C  C632  1  0.41370000  0.21990000  0.92030000  1.0 -0.174361236
C  C633  1  0.28010000  0.57970000  0.05390000  1.0 -0.174361236
C  C634  1  0.92030000  0.44610000  0.41370000  1.0 -0.174361236
C  C635  1  0.28010000  0.05390000  0.08630000  1.0 -0.174361236
C  C636  1  0.08630000  0.28010000  0.05390000  1.0 -0.174361236
C  C637  1  0.28010000  0.08630000  0.57970000  1.0 -0.17606965
C  C638  1  0.57970000  0.08630000  0.05390000  1.0 -0.174361236
C  C639  1  0.05390000  0.57970000  0.08630000  1.0 -0.174361236
C  C640  1  0.05390000  0.28010000  0.57970000  1.0 -0.174361236
C  C641  1  0.08630000  0.57970000  0.28010000  1.0 -0.17606965
C  C642  1  0.57970000  0.05390000  0.28010000  1.0 -0.174361236
C  C643  1  0.44610000  0.41370000  0.92030000  1.0 -0.174361236
C  C644  1  0.41370000  0.44610000  0.21990000  1.0 -0.174361236
C  C645  1  0.92030000  0.41370000  0.21990000  1.0 -0.17606965
C  C646  1  0.44610000  0.21990000  0.41370000  1.0 -0.174361236
C  C647  1  0.44610000  0.92030000  0.21990000  1.0 -0.17606965
C  C648  1  0.21990000  0.41370000  0.44610000  1.0 -0.174361236
C  C649  1  0.94610000  0.91370000  0.71990000  1.0 -0.17606965
C  C650  1  0.07970000  0.78010000  0.55390000  1.0 -0.17606965
C  C651  1  0.91370000  0.94610000  0.42030000  1.0 -0.17606965
C  C652  1  0.78010000  0.07970000  0.58630000  1.0 -0.17606965
C  C653  1  0.58630000  0.07970000  0.55390000  1.0 -0.17606965
C  C654  1  0.42030000  0.71990000  0.91370000  1.0 -0.174361236
C  C655  1  0.78010000  0.55390000  0.07970000  1.0 -0.17606965
C  C656  1  0.58630000  0.78010000  0.07970000  1.0 -0.17606965
C  C657  1  0.71990000  0.42030000  0.94610000  1.0 -0.174361236
C  C658  1  0.07970000  0.55390000  0.58630000  1.0 -0.17606965
C  C659  1  0.71990000  0.94610000  0.91370000  1.0 -0.174361236
C  C660  1  0.91370000  0.71990000  0.94610000  1.0 -0.174361236
C  C661  1  0.71990000  0.91370000  0.42030000  1.0 -0.17606965
C  C662  1  0.42030000  0.91370000  0.94610000  1.0 -0.174361236
C  C663  1  0.94610000  0.42030000  0.91370000  1.0 -0.174361236
C  C664  1  0.94610000  0.71990000  0.42030000  1.0 -0.174361236
C  C665  1  0.91370000  0.42030000  0.71990000  1.0 -0.17606965
C  C666  1  0.42030000  0.94610000  0.71990000  1.0 -0.174361236
C  C667  1  0.55390000  0.58630000  0.07970000  1.0 -0.17606965
C  C668  1  0.58630000  0.55390000  0.78010000  1.0 -0.174361236
C  C669  1  0.07970000  0.58630000  0.78010000  1.0 -0.174361236
C  C670  1  0.55390000  0.78010000  0.58630000  1.0 -0.17606965
C  C671  1  0.55390000  0.07970000  0.78010000  1.0 -0.174361236
C  C672  1  0.78010000  0.58630000  0.55390000  1.0 -0.17606965
C  C673  1  0.87120000  0.55240000  0.12880000  1.0 -0.1041089892
C  C674  1  0.05240000  0.37120000  0.62880000  1.0 -0.1111953909
C  C675  1  0.55240000  0.87120000  0.44760000  1.0 -0.1041089892
C  C676  1  0.37120000  0.05240000  0.94760000  1.0 -0.1041089892
C  C677  1  0.94760000  0.05240000  0.62880000  1.0 -0.1041089892
C  C678  1  0.44760000  0.12880000  0.55240000  1.0 -0.1041089892
C  C679  1  0.37120000  0.62880000  0.05240000  1.0 -0.1041089892
C  C680  1  0.94760000  0.37120000  0.05240000  1.0 -0.1041089892
C  C681  1  0.12880000  0.44760000  0.87120000  1.0 -0.1041089892
C  C682  1  0.05240000  0.62880000  0.94760000  1.0 -0.1041089892
C  C683  1  0.12880000  0.87120000  0.55240000  1.0 -0.1041089892
C  C684  1  0.55240000  0.12880000  0.87120000  1.0 -0.1041089892
C  C685  1  0.12880000  0.55240000  0.44760000  1.0 -0.1041089892
C  C686  1  0.44760000  0.55240000  0.87120000  1.0 -0.1041089892
C  C687  1  0.87120000  0.44760000  0.55240000  1.0 -0.1041089892
C  C688  1  0.87120000  0.12880000  0.44760000  1.0 -0.1111953909
C  C689  1  0.55240000  0.44760000  0.12880000  1.0 -0.1041089892
C  C690  1  0.44760000  0.87120000  0.12880000  1.0 -0.1111953909
C  C691  1  0.62880000  0.94760000  0.05240000  1.0 -0.1041089892
C  C692  1  0.94760000  0.62880000  0.37120000  1.0 -0.1041089892
C  C693  1  0.05240000  0.94760000  0.37120000  1.0 -0.1041089892
C  C694  1  0.62880000  0.37120000  0.94760000  1.0 -0.1041089892
C  C695  1  0.62880000  0.05240000  0.37120000  1.0 -0.1041089892
C  C696  1  0.37120000  0.94760000  0.62880000  1.0 -0.1111953909
C  C697  1  0.89800000  0.57100000  0.10200000  1.0 -0.3194725475
C  C698  1  0.07100000  0.39800000  0.60200000  1.0 -0.3194725475
C  C699  1  0.57100000  0.89800000  0.42900000  1.0 -0.3194725475
C  C700  1  0.39800000  0.07100000  0.92900000  1.0 -0.3194725475
C  C701  1  0.92900000  0.07100000  0.60200000  1.0 -0.3194725475
C  C702  1  0.42900000  0.10200000  0.57100000  1.0 -0.3194725475
C  C703  1  0.39800000  0.60200000  0.07100000  1.0 -0.3194725475
C  C704  1  0.92900000  0.39800000  0.07100000  1.0 -0.3194725475
C  C705  1  0.10200000  0.42900000  0.89800000  1.0 -0.3194725475
C  C706  1  0.07100000  0.60200000  0.92900000  1.0 -0.3194725475
C  C707  1  0.10200000  0.89800000  0.57100000  1.0 -0.3194725475
C  C708  1  0.57100000  0.10200000  0.89800000  1.0 -0.3194725475
C  C709  1  0.10200000  0.57100000  0.42900000  1.0 -0.3194725475
C  C710  1  0.42900000  0.57100000  0.89800000  1.0 -0.3194725475
C  C711  1  0.89800000  0.42900000  0.57100000  1.0 -0.3194725475
C  C712  1  0.89800000  0.10200000  0.42900000  1.0 -0.3194725475
C  C713  1  0.57100000  0.42900000  0.10200000  1.0 -0.3194725475
C  C714  1  0.42900000  0.89800000  0.10200000  1.0 -0.3194725475
C  C715  1  0.60200000  0.92900000  0.07100000  1.0 -0.3194725475
C  C716  1  0.92900000  0.60200000  0.39800000  1.0 -0.3194725475
C  C717  1  0.07100000  0.92900000  0.39800000  1.0 -0.3194725475
C  C718  1  0.60200000  0.39800000  0.92900000  1.0 -0.3194725475
C  C719  1  0.60200000  0.07100000  0.39800000  1.0 -0.3194725475
C  C720  1  0.39800000  0.92900000  0.60200000  1.0 -0.3194725475
C  C721  1  0.01230000  0.04310000  0.43770000  1.0 -0.1163921461
C  C722  1  0.99310000  0.06230000  0.48770000  1.0 -0.1163921461
C  C723  1  0.04310000  0.01230000  0.50690000  1.0 -0.1163921461
C  C724  1  0.06230000  0.99310000  0.45690000  1.0 -0.1163921461
C  C725  1  0.45690000  0.99310000  0.48770000  1.0 -0.1163921461
C  C726  1  0.50690000  0.43770000  0.04310000  1.0 -0.1111953909
C  C727  1  0.06230000  0.48770000  0.99310000  1.0 -0.1163921461
C  C728  1  0.45690000  0.06230000  0.99310000  1.0 -0.1163921461
C  C729  1  0.43770000  0.50690000  0.01230000  1.0 -0.1111953909
C  C730  1  0.99310000  0.48770000  0.45690000  1.0 -0.1163921461
C  C731  1  0.43770000  0.01230000  0.04310000  1.0 -0.1111953909
C  C732  1  0.04310000  0.43770000  0.01230000  1.0 -0.1163921461
C  C733  1  0.43770000  0.04310000  0.50690000  1.0 -0.1163921461
C  C734  1  0.50690000  0.04310000  0.01230000  1.0 -0.1111953909
C  C735  1  0.01230000  0.50690000  0.04310000  1.0 -0.1163921461
C  C736  1  0.01230000  0.43770000  0.50690000  1.0 -0.1163921461
C  C737  1  0.04310000  0.50690000  0.43770000  1.0 -0.1163921461
C  C738  1  0.50690000  0.01230000  0.43770000  1.0 -0.1163921461
C  C739  1  0.48770000  0.45690000  0.99310000  1.0 -0.1163921461
C  C740  1  0.45690000  0.48770000  0.06230000  1.0 -0.1163921461
C  C741  1  0.99310000  0.45690000  0.06230000  1.0 -0.1163921461
C  C742  1  0.48770000  0.06230000  0.45690000  1.0 -0.1163921461
C  C743  1  0.48770000  0.99310000  0.06230000  1.0 -0.1163921461
C  C744  1  0.06230000  0.45690000  0.48770000  1.0 -0.1163921461
C  C745  1  0.98770000  0.95690000  0.56230000  1.0 -0.1163921461
C  C746  1  0.00690000  0.93770000  0.51230000  1.0 -0.1163921461
C  C747  1  0.95690000  0.98770000  0.49310000  1.0 -0.1163921461
C  C748  1  0.93770000  0.00690000  0.54310000  1.0 -0.1111953909
C  C749  1  0.54310000  0.00690000  0.51230000  1.0 -0.1163921461
C  C750  1  0.49310000  0.56230000  0.95690000  1.0 -0.1163921461
C  C751  1  0.93770000  0.51230000  0.00690000  1.0 -0.1111953909
C  C752  1  0.54310000  0.93770000  0.00690000  1.0 -0.1111953909
C  C753  1  0.56230000  0.49310000  0.98770000  1.0 -0.1163921461
C  C754  1  0.00690000  0.51230000  0.54310000  1.0 -0.1163921461
C  C755  1  0.56230000  0.98770000  0.95690000  1.0 -0.1163921461
C  C756  1  0.95690000  0.56230000  0.98770000  1.0 -0.1163921461
C  C757  1  0.56230000  0.95690000  0.49310000  1.0 -0.1163921461
C  C758  1  0.49310000  0.95690000  0.98770000  1.0 -0.1163921461
C  C759  1  0.98770000  0.49310000  0.95690000  1.0 -0.1163921461
C  C760  1  0.98770000  0.56230000  0.49310000  1.0 -0.1163921461
C  C761  1  0.95690000  0.49310000  0.56230000  1.0 -0.1163921461
C  C762  1  0.49310000  0.98770000  0.56230000  1.0 -0.1163921461
C  C763  1  0.51230000  0.54310000  0.00690000  1.0 -0.1111953909
C  C764  1  0.54310000  0.51230000  0.93770000  1.0 -0.1111953909
C  C765  1  0.00690000  0.54310000  0.93770000  1.0 -0.1163921461
C  C766  1  0.51230000  0.93770000  0.54310000  1.0 -0.1163921461
C  C767  1  0.51230000  0.00690000  0.93770000  1.0 -0.1111953909
C  C768  1  0.93770000  0.54310000  0.51230000  1.0 -0.1111953909
C  C769  1  0.11030000  0.08850000  0.22510000  1.0 0.2232048626
C  C770  1  0.92390000  0.27490000  0.38970000  1.0 0.2232048626
C  C771  1  0.08850000  0.11030000  0.57610000  1.0 0.2232048626
C  C772  1  0.27490000  0.92390000  0.41150000  1.0 0.2232048626
C  C773  1  0.41150000  0.92390000  0.38970000  1.0 0.2260869482
C  C774  1  0.57610000  0.22510000  0.08850000  1.0 0.2232048626
C  C775  1  0.27490000  0.38970000  0.92390000  1.0 0.2232048626
C  C776  1  0.41150000  0.27490000  0.92390000  1.0 0.2232048626
C  C777  1  0.22510000  0.57610000  0.11030000  1.0 0.2232048626
C  C778  1  0.92390000  0.38970000  0.41150000  1.0 0.2232048626
C  C779  1  0.22510000  0.11030000  0.08850000  1.0 0.2232048626
C  C780  1  0.08850000  0.22510000  0.11030000  1.0 0.2232048626
C  C781  1  0.22510000  0.08850000  0.57610000  1.0 0.2232048626
C  C782  1  0.57610000  0.08850000  0.11030000  1.0 0.2232048626
C  C783  1  0.11030000  0.57610000  0.08850000  1.0 0.2232048626
C  C784  1  0.11030000  0.22510000  0.57610000  1.0 0.2232048626
C  C785  1  0.08850000  0.57610000  0.22510000  1.0 0.2232048626
C  C786  1  0.57610000  0.11030000  0.22510000  1.0 0.2232048626
C  C787  1  0.38970000  0.41150000  0.92390000  1.0 0.2232048626
C  C788  1  0.41150000  0.38970000  0.27490000  1.0 0.2232048626
C  C789  1  0.92390000  0.41150000  0.27490000  1.0 0.2232048626
C  C790  1  0.38970000  0.27490000  0.41150000  1.0 0.2232048626
C  C791  1  0.38970000  0.92390000  0.27490000  1.0 0.2232048626
C  C792  1  0.27490000  0.41150000  0.38970000  1.0 0.2232048626
C  C793  1  0.88970000  0.91150000  0.77490000  1.0 0.2232048626
C  C794  1  0.07610000  0.72510000  0.61030000  1.0 0.2232048626
C  C795  1  0.91150000  0.88970000  0.42390000  1.0 0.2232048626
C  C796  1  0.72510000  0.07610000  0.58850000  1.0 0.2260869482
C  C797  1  0.58850000  0.07610000  0.61030000  1.0 0.2232048626
C  C798  1  0.42390000  0.77490000  0.91150000  1.0 0.2232048626
C  C799  1  0.72510000  0.61030000  0.07610000  1.0 0.2232048626
C  C800  1  0.58850000  0.72510000  0.07610000  1.0 0.2232048626
C  C801  1  0.77490000  0.42390000  0.88970000  1.0 0.2232048626
C  C802  1  0.07610000  0.61030000  0.58850000  1.0 0.2232048626
C  C803  1  0.77490000  0.88970000  0.91150000  1.0 0.2232048626
C  C804  1  0.91150000  0.77490000  0.88970000  1.0 0.2232048626
C  C805  1  0.77490000  0.91150000  0.42390000  1.0 0.2232048626
C  C806  1  0.42390000  0.91150000  0.88970000  1.0 0.2232048626
C  C807  1  0.88970000  0.42390000  0.91150000  1.0 0.2232048626
C  C808  1  0.88970000  0.77490000  0.42390000  1.0 0.2232048626
C  C809  1  0.91150000  0.42390000  0.77490000  1.0 0.2232048626
C  C810  1  0.42390000  0.88970000  0.77490000  1.0 0.2232048626
C  C811  1  0.61030000  0.58850000  0.07610000  1.0 0.2232048626
C  C812  1  0.58850000  0.61030000  0.72510000  1.0 0.2232048626
C  C813  1  0.07610000  0.58850000  0.72510000  1.0 0.2232048626
C  C814  1  0.61030000  0.72510000  0.58850000  1.0 0.2260869482
C  C815  1  0.61030000  0.07610000  0.72510000  1.0 0.2232048626
C  C816  1  0.72510000  0.58850000  0.61030000  1.0 0.2232048626
O  O1  1  0.74491000  0.43279000  0.30769000  1.0 -0.5217922908
O  O2  1  0.98539000  0.19231000  0.75509000  1.0 -0.5217922908
O  O3  1  0.43279000  0.74491000  0.51461000  1.0 -0.5217922908
O  O4  1  0.19231000  0.98539000  0.06721000  1.0 -0.5217922908
O  O5  1  0.06721000  0.98539000  0.75509000  1.0 -0.5217922908
O  O6  1  0.51461000  0.30769000  0.43279000  1.0 -0.5217922908
O  O7  1  0.19231000  0.75509000  0.98539000  1.0 -0.5217922908
O  O8  1  0.06721000  0.19231000  0.98539000  1.0 -0.5217922908
O  O9  1  0.30769000  0.51461000  0.74491000  1.0 -0.5217922908
O  O10  1  0.98539000  0.75509000  0.06721000  1.0 -0.5217922908
O  O11  1  0.30769000  0.74491000  0.43279000  1.0 -0.5217922908
O  O12  1  0.43279000  0.30769000  0.74491000  1.0 -0.5217922908
O  O13  1  0.30769000  0.43279000  0.51461000  1.0 -0.5217922908
O  O14  1  0.51461000  0.43279000  0.74491000  1.0 -0.5217922908
O  O15  1  0.74491000  0.51461000  0.43279000  1.0 -0.5217922908
O  O16  1  0.74491000  0.30769000  0.51461000  1.0 -0.5217922908
O  O17  1  0.43279000  0.51461000  0.30769000  1.0 -0.5217922908
O  O18  1  0.51461000  0.74491000  0.30769000  1.0 -0.5217922908
O  O19  1  0.75509000  0.06721000  0.98539000  1.0 -0.5217922908
O  O20  1  0.06721000  0.75509000  0.19231000  1.0 -0.5217922908
O  O21  1  0.98539000  0.06721000  0.19231000  1.0 -0.5217922908
O  O22  1  0.75509000  0.19231000  0.06721000  1.0 -0.5217922908
O  O23  1  0.75509000  0.98539000  0.19231000  1.0 -0.5217922908
O  O24  1  0.19231000  0.06721000  0.75509000  1.0 -0.5217922908
O  O25  1  0.25509000  0.56721000  0.69231000  1.0 -0.5217922908
O  O26  1  0.01461000  0.80769000  0.24491000  1.0 -0.5217922908
O  O27  1  0.56721000  0.25509000  0.48539000  1.0 -0.5217922908
O  O28  1  0.80769000  0.01461000  0.93279000  1.0 -0.5217922908
O  O29  1  0.93279000  0.01461000  0.24491000  1.0 -0.5217922908
O  O30  1  0.48539000  0.69231000  0.56721000  1.0 -0.5217922908
O  O31  1  0.80769000  0.24491000  0.01461000  1.0 -0.5217922908
O  O32  1  0.93279000  0.80769000  0.01461000  1.0 -0.5217922908
O  O33  1  0.69231000  0.48539000  0.25509000  1.0 -0.5217922908
O  O34  1  0.01461000  0.24491000  0.93279000  1.0 -0.5217922908
O  O35  1  0.69231000  0.25509000  0.56721000  1.0 -0.5217922908
O  O36  1  0.56721000  0.69231000  0.25509000  1.0 -0.5217922908
O  O37  1  0.69231000  0.56721000  0.48539000  1.0 -0.5217922908
O  O38  1  0.48539000  0.56721000  0.25509000  1.0 -0.5217922908
O  O39  1  0.25509000  0.48539000  0.56721000  1.0 -0.5217922908
O  O40  1  0.25509000  0.69231000  0.48539000  1.0 -0.5217922908
O  O41  1  0.56721000  0.48539000  0.69231000  1.0 -0.5217922908
O  O42  1  0.48539000  0.25509000  0.69231000  1.0 -0.5217922908
O  O43  1  0.24491000  0.93279000  0.01461000  1.0 -0.5217922908
O  O44  1  0.93279000  0.24491000  0.80769000  1.0 -0.5217922908
O  O45  1  0.01461000  0.93279000  0.80769000  1.0 -0.5217922908
O  O46  1  0.24491000  0.80769000  0.93279000  1.0 -0.5217922908
O  O47  1  0.24491000  0.01461000  0.80769000  1.0 -0.5217922908
O  O48  1  0.80769000  0.93279000  0.24491000  1.0 -0.5217922908
O  O49  1  0.80504000  0.43190000  0.24806000  1.0 -0.5136347545
O  O50  1  0.98500000  0.25194000  0.69496000  1.0 -0.5136347545
O  O51  1  0.43190000  0.80504000  0.51500000  1.0 -0.5136347545
O  O52  1  0.25194000  0.98500000  0.06810000  1.0 -0.5136347545
O  O53  1  0.06810000  0.98500000  0.69496000  1.0 -0.5136347545
O  O54  1  0.51500000  0.24806000  0.43190000  1.0 -0.5136347545
O  O55  1  0.25194000  0.69496000  0.98500000  1.0 -0.5136347545
O  O56  1  0.06810000  0.25194000  0.98500000  1.0 -0.5136347545
O  O57  1  0.24806000  0.51500000  0.80504000  1.0 -0.5136347545
O  O58  1  0.98500000  0.69496000  0.06810000  1.0 -0.5136347545
O  O59  1  0.24806000  0.80504000  0.43190000  1.0 -0.5136347545
O  O60  1  0.43190000  0.24806000  0.80504000  1.0 -0.5136347545
O  O61  1  0.24806000  0.43190000  0.51500000  1.0 -0.5136347545
O  O62  1  0.51500000  0.43190000  0.80504000  1.0 -0.5136347545
O  O63  1  0.80504000  0.51500000  0.43190000  1.0 -0.5136347545
O  O64  1  0.80504000  0.24806000  0.51500000  1.0 -0.5136347545
O  O65  1  0.43190000  0.51500000  0.24806000  1.0 -0.5136347545
O  O66  1  0.51500000  0.80504000  0.24806000  1.0 -0.5136347545
O  O67  1  0.69496000  0.06810000  0.98500000  1.0 -0.5136347545
O  O68  1  0.06810000  0.69496000  0.25194000  1.0 -0.5136347545
O  O69  1  0.98500000  0.06810000  0.25194000  1.0 -0.5136347545
O  O70  1  0.69496000  0.25194000  0.06810000  1.0 -0.5136347545
O  O71  1  0.69496000  0.98500000  0.25194000  1.0 -0.5136347545
O  O72  1  0.25194000  0.06810000  0.69496000  1.0 -0.5136347545
O  O73  1  0.19496000  0.56810000  0.75194000  1.0 -0.5136347545
O  O74  1  0.01500000  0.74806000  0.30504000  1.0 -0.5136347545
O  O75  1  0.56810000  0.19496000  0.48500000  1.0 -0.5136347545
O  O76  1  0.74806000  0.01500000  0.93190000  1.0 -0.5136347545
O  O77  1  0.93190000  0.01500000  0.30504000  1.0 -0.5136347545
O  O78  1  0.48500000  0.75194000  0.56810000  1.0 -0.5136347545
O  O79  1  0.74806000  0.30504000  0.01500000  1.0 -0.5136347545
O  O80  1  0.93190000  0.74806000  0.01500000  1.0 -0.5136347545
O  O81  1  0.75194000  0.48500000  0.19496000  1.0 -0.5136347545
O  O82  1  0.01500000  0.30504000  0.93190000  1.0 -0.5136347545
O  O83  1  0.75194000  0.19496000  0.56810000  1.0 -0.5136347545
O  O84  1  0.56810000  0.75194000  0.19496000  1.0 -0.5136347545
O  O85  1  0.75194000  0.56810000  0.48500000  1.0 -0.5136347545
O  O86  1  0.48500000  0.56810000  0.19496000  1.0 -0.5136347545
O  O87  1  0.19496000  0.48500000  0.56810000  1.0 -0.5136347545
O  O88  1  0.19496000  0.75194000  0.48500000  1.0 -0.5136347545
O  O89  1  0.56810000  0.48500000  0.75194000  1.0 -0.5136347545
O  O90  1  0.48500000  0.19496000  0.75194000  1.0 -0.5136347545
O  O91  1  0.30504000  0.93190000  0.01500000  1.0 -0.5136347545
O  O92  1  0.93190000  0.30504000  0.74806000  1.0 -0.5136347545
O  O93  1  0.01500000  0.93190000  0.74806000  1.0 -0.5136347545
O  O94  1  0.30504000  0.74806000  0.93190000  1.0 -0.5136347545
O  O95  1  0.30504000  0.01500000  0.74806000  1.0 -0.5136347545
O  O96  1  0.74806000  0.93190000  0.30504000  1.0 -0.5136347545
O  O97  1  0.93740000  0.30484000  0.25026000  1.0 -0.5217922908
O  O98  1  0.99250000  0.24974000  0.56260000  1.0 -0.5217922908
O  O99  1  0.30484000  0.93740000  0.50750000  1.0 -0.5217922908
O  O100  1  0.24974000  0.99250000  0.19516000  1.0 -0.5217922908
O  O101  1  0.19516000  0.99250000  0.56260000  1.0 -0.5217922908
O  O102  1  0.50750000  0.25026000  0.30484000  1.0 -0.5217922908
O  O103  1  0.24974000  0.56260000  0.99250000  1.0 -0.5217922908
O  O104  1  0.19516000  0.24974000  0.99250000  1.0 -0.5217922908
O  O105  1  0.25026000  0.50750000  0.93740000  1.0 -0.5217922908
O  O106  1  0.99250000  0.56260000  0.19516000  1.0 -0.5217922908
O  O107  1  0.25026000  0.93740000  0.30484000  1.0 -0.5217922908
O  O108  1  0.30484000  0.25026000  0.93740000  1.0 -0.5217922908
O  O109  1  0.25026000  0.30484000  0.50750000  1.0 -0.5217922908
O  O110  1  0.50750000  0.30484000  0.93740000  1.0 -0.5217922908
O  O111  1  0.93740000  0.50750000  0.30484000  1.0 -0.5217922908
O  O112  1  0.93740000  0.25026000  0.50750000  1.0 -0.5217922908
O  O113  1  0.30484000  0.50750000  0.25026000  1.0 -0.5217922908
O  O114  1  0.50750000  0.93740000  0.25026000  1.0 -0.5217922908
O  O115  1  0.56260000  0.19516000  0.99250000  1.0 -0.5217922908
O  O116  1  0.19516000  0.56260000  0.24974000  1.0 -0.5217922908
O  O117  1  0.99250000  0.19516000  0.24974000  1.0 -0.5217922908
O  O118  1  0.56260000  0.24974000  0.19516000  1.0 -0.5217922908
O  O119  1  0.56260000  0.99250000  0.24974000  1.0 -0.5217922908
O  O120  1  0.24974000  0.19516000  0.56260000  1.0 -0.5217922908
O  O121  1  0.06260000  0.69516000  0.74974000  1.0 -0.5217922908
O  O122  1  0.00750000  0.75026000  0.43740000  1.0 -0.5217922908
O  O123  1  0.69516000  0.06260000  0.49250000  1.0 -0.5217922908
O  O124  1  0.75026000  0.00750000  0.80484000  1.0 -0.5217922908
O  O125  1  0.80484000  0.00750000  0.43740000  1.0 -0.5217922908
O  O126  1  0.49250000  0.74974000  0.69516000  1.0 -0.5217922908
O  O127  1  0.75026000  0.43740000  0.00750000  1.0 -0.5217922908
O  O128  1  0.80484000  0.75026000  0.00750000  1.0 -0.5217922908
O  O129  1  0.74974000  0.49250000  0.06260000  1.0 -0.5217922908
O  O130  1  0.00750000  0.43740000  0.80484000  1.0 -0.5217922908
O  O131  1  0.74974000  0.06260000  0.69516000  1.0 -0.5217922908
O  O132  1  0.69516000  0.74974000  0.06260000  1.0 -0.5217922908
O  O133  1  0.74974000  0.69516000  0.49250000  1.0 -0.5217922908
O  O134  1  0.49250000  0.69516000  0.06260000  1.0 -0.5217922908
O  O135  1  0.06260000  0.49250000  0.69516000  1.0 -0.5217922908
O  O136  1  0.06260000  0.74974000  0.49250000  1.0 -0.5217922908
O  O137  1  0.69516000  0.49250000  0.74974000  1.0 -0.5217922908
O  O138  1  0.49250000  0.06260000  0.74974000  1.0 -0.5217922908
O  O139  1  0.43740000  0.80484000  0.00750000  1.0 -0.5217922908
O  O140  1  0.80484000  0.43740000  0.75026000  1.0 -0.5217922908
O  O141  1  0.00750000  0.80484000  0.75026000  1.0 -0.5217922908
O  O142  1  0.43740000  0.75026000  0.80484000  1.0 -0.5217922908
O  O143  1  0.43740000  0.00750000  0.75026000  1.0 -0.5217922908
O  O144  1  0.75026000  0.80484000  0.43740000  1.0 -0.5217922908
O  O145  1  0.93706000  0.24194000  0.30706000  1.0 -0.5217922908
O  O146  1  0.98606000  0.19294000  0.56294000  1.0 -0.5217922908
O  O147  1  0.24194000  0.93706000  0.51394000  1.0 -0.5217922908
O  O148  1  0.19294000  0.98606000  0.25806000  1.0 -0.5217922908
O  O149  1  0.25806000  0.98606000  0.56294000  1.0 -0.5217922908
O  O150  1  0.51394000  0.30706000  0.24194000  1.0 -0.5217922908
O  O151  1  0.19294000  0.56294000  0.98606000  1.0 -0.5217922908
O  O152  1  0.25806000  0.19294000  0.98606000  1.0 -0.5217922908
O  O153  1  0.30706000  0.51394000  0.93706000  1.0 -0.5217922908
O  O154  1  0.98606000  0.56294000  0.25806000  1.0 -0.5217922908
O  O155  1  0.30706000  0.93706000  0.24194000  1.0 -0.5217922908
O  O156  1  0.24194000  0.30706000  0.93706000  1.0 -0.5217922908
O  O157  1  0.30706000  0.24194000  0.51394000  1.0 -0.5217922908
O  O158  1  0.51394000  0.24194000  0.93706000  1.0 -0.5217922908
O  O159  1  0.93706000  0.51394000  0.24194000  1.0 -0.5217922908
O  O160  1  0.93706000  0.30706000  0.51394000  1.0 -0.5217922908
O  O161  1  0.24194000  0.51394000  0.30706000  1.0 -0.5217922908
O  O162  1  0.51394000  0.93706000  0.30706000  1.0 -0.5217922908
O  O163  1  0.56294000  0.25806000  0.98606000  1.0 -0.5217922908
O  O164  1  0.25806000  0.56294000  0.19294000  1.0 -0.5217922908
O  O165  1  0.98606000  0.25806000  0.19294000  1.0 -0.5217922908
O  O166  1  0.56294000  0.19294000  0.25806000  1.0 -0.5217922908
O  O167  1  0.56294000  0.98606000  0.19294000  1.0 -0.5217922908
O  O168  1  0.19294000  0.25806000  0.56294000  1.0 -0.5217922908
O  O169  1  0.06294000  0.75806000  0.69294000  1.0 -0.5217922908
O  O170  1  0.01394000  0.80706000  0.43706000  1.0 -0.5217922908
O  O171  1  0.75806000  0.06294000  0.48606000  1.0 -0.5217922908
O  O172  1  0.80706000  0.01394000  0.74194000  1.0 -0.5217922908
O  O173  1  0.74194000  0.01394000  0.43706000  1.0 -0.5217922908
O  O174  1  0.48606000  0.69294000  0.75806000  1.0 -0.5217922908
O  O175  1  0.80706000  0.43706000  0.01394000  1.0 -0.5217922908
O  O176  1  0.74194000  0.80706000  0.01394000  1.0 -0.5217922908
O  O177  1  0.69294000  0.48606000  0.06294000  1.0 -0.5217922908
O  O178  1  0.01394000  0.43706000  0.74194000  1.0 -0.5217922908
O  O179  1  0.69294000  0.06294000  0.75806000  1.0 -0.5217922908
O  O180  1  0.75806000  0.69294000  0.06294000  1.0 -0.5217922908
O  O181  1  0.69294000  0.75806000  0.48606000  1.0 -0.5217922908
O  O182  1  0.48606000  0.75806000  0.06294000  1.0 -0.5217922908
O  O183  1  0.06294000  0.48606000  0.75806000  1.0 -0.5217922908
O  O184  1  0.06294000  0.69294000  0.48606000  1.0 -0.5217922908
O  O185  1  0.75806000  0.48606000  0.69294000  1.0 -0.5217922908
O  O186  1  0.48606000  0.06294000  0.69294000  1.0 -0.5217922908
O  O187  1  0.43706000  0.74194000  0.01394000  1.0 -0.5217922908
O  O188  1  0.74194000  0.43706000  0.80706000  1.0 -0.5217922908
O  O189  1  0.01394000  0.74194000  0.80706000  1.0 -0.5217922908
O  O190  1  0.43706000  0.80706000  0.74194000  1.0 -0.5217922908
O  O191  1  0.43706000  0.01394000  0.80706000  1.0 -0.5217922908
O  O192  1  0.80706000  0.74194000  0.43706000  1.0 -0.5217922908
O  O193  1  0.80800000  0.24406000  0.44198000  1.0 -0.5024045089
O  O194  1  0.99404000  0.05802000  0.69200000  1.0 -0.5024045089
O  O195  1  0.24406000  0.80800000  0.50596000  1.0 -0.5024045089
O  O196  1  0.05802000  0.99404000  0.25594000  1.0 -0.5136347545
O  O197  1  0.25594000  0.99404000  0.69200000  1.0 -0.5024045089
O  O198  1  0.50596000  0.44198000  0.24406000  1.0 -0.5024045089
O  O199  1  0.05802000  0.69200000  0.99404000  1.0 -0.5024045089
O  O200  1  0.25594000  0.05802000  0.99404000  1.0 -0.5024045089
O  O201  1  0.44198000  0.50596000  0.80800000  1.0 -0.5024045089
O  O202  1  0.99404000  0.69200000  0.25594000  1.0 -0.5024045089
O  O203  1  0.44198000  0.80800000  0.24406000  1.0 -0.5024045089
O  O204  1  0.24406000  0.44198000  0.80800000  1.0 -0.5024045089
O  O205  1  0.44198000  0.24406000  0.50596000  1.0 -0.5024045089
O  O206  1  0.50596000  0.24406000  0.80800000  1.0 -0.5024045089
O  O207  1  0.80800000  0.50596000  0.24406000  1.0 -0.5024045089
O  O208  1  0.80800000  0.44198000  0.50596000  1.0 -0.5024045089
O  O209  1  0.24406000  0.50596000  0.44198000  1.0 -0.5024045089
O  O210  1  0.50596000  0.80800000  0.44198000  1.0 -0.5024045089
O  O211  1  0.69200000  0.25594000  0.99404000  1.0 -0.5024045089
O  O212  1  0.25594000  0.69200000  0.05802000  1.0 -0.5024045089
O  O213  1  0.99404000  0.25594000  0.05802000  1.0 -0.5024045089
O  O214  1  0.69200000  0.05802000  0.25594000  1.0 -0.5024045089
O  O215  1  0.69200000  0.99404000  0.05802000  1.0 -0.5024045089
O  O216  1  0.05802000  0.25594000  0.69200000  1.0 -0.5024045089
O  O217  1  0.19200000  0.75594000  0.55802000  1.0 -0.5024045089
O  O218  1  0.00596000  0.94198000  0.30800000  1.0 -0.5136347545
O  O219  1  0.75594000  0.19200000  0.49404000  1.0 -0.5024045089
O  O220  1  0.94198000  0.00596000  0.74406000  1.0 -0.5024045089
O  O221  1  0.74406000  0.00596000  0.30800000  1.0 -0.5024045089
O  O222  1  0.49404000  0.55802000  0.75594000  1.0 -0.5024045089
O  O223  1  0.94198000  0.30800000  0.00596000  1.0 -0.5024045089
O  O224  1  0.74406000  0.94198000  0.00596000  1.0 -0.5024045089
O  O225  1  0.55802000  0.49404000  0.19200000  1.0 -0.5024045089
O  O226  1  0.00596000  0.30800000  0.74406000  1.0 -0.5024045089
O  O227  1  0.55802000  0.19200000  0.75594000  1.0 -0.5024045089
O  O228  1  0.75594000  0.55802000  0.19200000  1.0 -0.5024045089
O  O229  1  0.55802000  0.75594000  0.49404000  1.0 -0.5024045089
O  O230  1  0.49404000  0.75594000  0.19200000  1.0 -0.5024045089
O  O231  1  0.19200000  0.49404000  0.75594000  1.0 -0.5024045089
O  O232  1  0.19200000  0.55802000  0.49404000  1.0 -0.5024045089
O  O233  1  0.75594000  0.49404000  0.55802000  1.0 -0.5024045089
O  O234  1  0.49404000  0.19200000  0.55802000  1.0 -0.5024045089
O  O235  1  0.30800000  0.74406000  0.00596000  1.0 -0.5024045089
O  O236  1  0.74406000  0.30800000  0.94198000  1.0 -0.5024045089
O  O237  1  0.00596000  0.74406000  0.94198000  1.0 -0.5024045089
O  O238  1  0.30800000  0.94198000  0.74406000  1.0 -0.5024045089
O  O239  1  0.30800000  0.00596000  0.94198000  1.0 -0.5024045089
O  O240  1  0.94198000  0.74406000  0.30800000  1.0 -0.5024045089
O  O241  1  0.74792000  0.30412000  0.44136000  1.0 -0.5294440996
O  O242  1  0.99340000  0.05864000  0.75208000  1.0 -0.5294440996
O  O243  1  0.30412000  0.74792000  0.50660000  1.0 -0.5294440996
O  O244  1  0.05864000  0.99340000  0.19588000  1.0 -0.5294440996
O  O245  1  0.19588000  0.99340000  0.75208000  1.0 -0.5294440996
O  O246  1  0.50660000  0.44136000  0.30412000  1.0 -0.5294440996
O  O247  1  0.05864000  0.75208000  0.99340000  1.0 -0.5294440996
O  O248  1  0.19588000  0.05864000  0.99340000  1.0 -0.5294440996
O  O249  1  0.44136000  0.50660000  0.74792000  1.0 -0.5294440996
O  O250  1  0.99340000  0.75208000  0.19588000  1.0 -0.5294440996
O  O251  1  0.44136000  0.74792000  0.30412000  1.0 -0.5294440996
O  O252  1  0.30412000  0.44136000  0.74792000  1.0 -0.5294440996
O  O253  1  0.44136000  0.30412000  0.50660000  1.0 -0.5294440996
O  O254  1  0.50660000  0.30412000  0.74792000  1.0 -0.5294440996
O  O255  1  0.74792000  0.50660000  0.30412000  1.0 -0.5294440996
O  O256  1  0.74792000  0.44136000  0.50660000  1.0 -0.5294440996
O  O257  1  0.30412000  0.50660000  0.44136000  1.0 -0.5294440996
O  O258  1  0.50660000  0.74792000  0.44136000  1.0 -0.5294440996
O  O259  1  0.75208000  0.19588000  0.99340000  1.0 -0.5294440996
O  O260  1  0.19588000  0.75208000  0.05864000  1.0 -0.5294440996
O  O261  1  0.99340000  0.19588000  0.05864000  1.0 -0.5294440996
O  O262  1  0.75208000  0.05864000  0.19588000  1.0 -0.5294440996
O  O263  1  0.75208000  0.99340000  0.05864000  1.0 -0.5294440996
O  O264  1  0.05864000  0.19588000  0.75208000  1.0 -0.5294440996
O  O265  1  0.25208000  0.69588000  0.55864000  1.0 -0.5294440996
O  O266  1  0.00660000  0.94136000  0.24792000  1.0 -0.5294440996
O  O267  1  0.69588000  0.25208000  0.49340000  1.0 -0.5294440996
O  O268  1  0.94136000  0.00660000  0.80412000  1.0 -0.5294440996
O  O269  1  0.80412000  0.00660000  0.24792000  1.0 -0.5294440996
O  O270  1  0.49340000  0.55864000  0.69588000  1.0 -0.5294440996
O  O271  1  0.94136000  0.24792000  0.00660000  1.0 -0.5294440996
O  O272  1  0.80412000  0.94136000  0.00660000  1.0 -0.5294440996
O  O273  1  0.55864000  0.49340000  0.25208000  1.0 -0.5294440996
O  O274  1  0.00660000  0.24792000  0.80412000  1.0 -0.5294440996
O  O275  1  0.55864000  0.25208000  0.69588000  1.0 -0.5294440996
O  O276  1  0.69588000  0.55864000  0.25208000  1.0 -0.5294440996
O  O277  1  0.55864000  0.69588000  0.49340000  1.0 -0.5294440996
O  O278  1  0.49340000  0.69588000  0.25208000  1.0 -0.5294440996
O  O279  1  0.25208000  0.49340000  0.69588000  1.0 -0.5294440996
O  O280  1  0.25208000  0.55864000  0.49340000  1.0 -0.5294440996
O  O281  1  0.69588000  0.49340000  0.55864000  1.0 -0.5294440996
O  O282  1  0.49340000  0.25208000  0.55864000  1.0 -0.5294440996
O  O283  1  0.24792000  0.80412000  0.00660000  1.0 -0.5294440996
O  O284  1  0.80412000  0.24792000  0.94136000  1.0 -0.5294440996
O  O285  1  0.00660000  0.80412000  0.94136000  1.0 -0.5294440996
O  O286  1  0.24792000  0.94136000  0.80412000  1.0 -0.5294440996
O  O287  1  0.24792000  0.00660000  0.94136000  1.0 -0.5294440996
O  O288  1  0.94136000  0.80412000  0.24792000  1.0 -0.5294440996
O  O289  1  0.00777000  0.24641000  0.30905000  1.0 -0.5024045089
O  O290  1  0.06323000  0.19095000  0.49223000  1.0 -0.5024045089
O  O291  1  0.24641000  0.00777000  0.43677000  1.0 -0.5024045089
O  O292  1  0.19095000  0.06323000  0.25359000  1.0 -0.5024045089
O  O293  1  0.25359000  0.06323000  0.49223000  1.0 -0.5024045089
O  O294  1  0.43677000  0.30905000  0.24641000  1.0 -0.5024045089
O  O295  1  0.19095000  0.49223000  0.06323000  1.0 -0.5024045089
O  O296  1  0.25359000  0.19095000  0.06323000  1.0 -0.5024045089
O  O297  1  0.30905000  0.43677000  0.00777000  1.0 -0.5024045089
O  O298  1  0.06323000  0.49223000  0.25359000  1.0 -0.5024045089
O  O299  1  0.30905000  0.00777000  0.24641000  1.0 -0.5024045089
O  O300  1  0.24641000  0.30905000  0.00777000  1.0 -0.5024045089
O  O301  1  0.30905000  0.24641000  0.43677000  1.0 -0.5024045089
O  O302  1  0.43677000  0.24641000  0.00777000  1.0 -0.5024045089
O  O303  1  0.00777000  0.43677000  0.24641000  1.0 -0.5024045089
O  O304  1  0.00777000  0.30905000  0.43677000  1.0 -0.5024045089
O  O305  1  0.24641000  0.43677000  0.30905000  1.0 -0.5024045089
O  O306  1  0.43677000  0.00777000  0.30905000  1.0 -0.5024045089
O  O307  1  0.49223000  0.25359000  0.06323000  1.0 -0.5024045089
O  O308  1  0.25359000  0.49223000  0.19095000  1.0 -0.5024045089
O  O309  1  0.06323000  0.25359000  0.19095000  1.0 -0.5024045089
O  O310  1  0.49223000  0.19095000  0.25359000  1.0 -0.5024045089
O  O311  1  0.49223000  0.06323000  0.19095000  1.0 -0.5024045089
O  O312  1  0.19095000  0.25359000  0.49223000  1.0 -0.5024045089
O  O313  1  0.99223000  0.75359000  0.69095000  1.0 -0.5024045089
O  O314  1  0.93677000  0.80905000  0.50777000  1.0 -0.5024045089
O  O315  1  0.75359000  0.99223000  0.56323000  1.0 -0.5024045089
O  O316  1  0.80905000  0.93677000  0.74641000  1.0 -0.5024045089
O  O317  1  0.74641000  0.93677000  0.50777000  1.0 -0.5024045089
O  O318  1  0.56323000  0.69095000  0.75359000  1.0 -0.5024045089
O  O319  1  0.80905000  0.50777000  0.93677000  1.0 -0.5024045089
O  O320  1  0.74641000  0.80905000  0.93677000  1.0 -0.5024045089
O  O321  1  0.69095000  0.56323000  0.99223000  1.0 -0.5024045089
O  O322  1  0.93677000  0.50777000  0.74641000  1.0 -0.5024045089
O  O323  1  0.69095000  0.99223000  0.75359000  1.0 -0.5024045089
O  O324  1  0.75359000  0.69095000  0.99223000  1.0 -0.5024045089
O  O325  1  0.69095000  0.75359000  0.56323000  1.0 -0.5024045089
O  O326  1  0.56323000  0.75359000  0.99223000  1.0 -0.5024045089
O  O327  1  0.99223000  0.56323000  0.75359000  1.0 -0.5024045089
O  O328  1  0.99223000  0.69095000  0.56323000  1.0 -0.5024045089
O  O329  1  0.75359000  0.56323000  0.69095000  1.0 -0.5024045089
O  O330  1  0.56323000  0.99223000  0.69095000  1.0 -0.5024045089
O  O331  1  0.50777000  0.74641000  0.93677000  1.0 -0.5024045089
O  O332  1  0.74641000  0.50777000  0.80905000  1.0 -0.5024045089
O  O333  1  0.93677000  0.74641000  0.80905000  1.0 -0.5024045089
O  O334  1  0.50777000  0.80905000  0.74641000  1.0 -0.5024045089
O  O335  1  0.50777000  0.93677000  0.80905000  1.0 -0.5024045089
O  O336  1  0.80905000  0.74641000  0.50777000  1.0 -0.5024045089
O  O337  1  0.01471000  0.30307000  0.24631000  1.0 -0.5024045089
O  O338  1  0.06409000  0.25369000  0.48529000  1.0 -0.5024045089
O  O339  1  0.30307000  0.01471000  0.43591000  1.0 -0.5024045089
O  O340  1  0.25369000  0.06409000  0.19693000  1.0 -0.5024045089
O  O341  1  0.19693000  0.06409000  0.48529000  1.0 -0.5024045089
O  O342  1  0.43591000  0.24631000  0.30307000  1.0 -0.5024045089
O  O343  1  0.25369000  0.48529000  0.06409000  1.0 -0.5024045089
O  O344  1  0.19693000  0.25369000  0.06409000  1.0 -0.5024045089
O  O345  1  0.24631000  0.43591000  0.01471000  1.0 -0.5024045089
O  O346  1  0.06409000  0.48529000  0.19693000  1.0 -0.5024045089
O  O347  1  0.24631000  0.01471000  0.30307000  1.0 -0.5024045089
O  O348  1  0.30307000  0.24631000  0.01471000  1.0 -0.5024045089
O  O349  1  0.24631000  0.30307000  0.43591000  1.0 -0.5024045089
O  O350  1  0.43591000  0.30307000  0.01471000  1.0 -0.5024045089
O  O351  1  0.01471000  0.43591000  0.30307000  1.0 -0.5024045089
O  O352  1  0.01471000  0.24631000  0.43591000  1.0 -0.5024045089
O  O353  1  0.30307000  0.43591000  0.24631000  1.0 -0.5024045089
O  O354  1  0.43591000  0.01471000  0.24631000  1.0 -0.5024045089
O  O355  1  0.48529000  0.19693000  0.06409000  1.0 -0.5024045089
O  O356  1  0.19693000  0.48529000  0.25369000  1.0 -0.5024045089
O  O357  1  0.06409000  0.19693000  0.25369000  1.0 -0.5024045089
O  O358  1  0.48529000  0.25369000  0.19693000  1.0 -0.5024045089
O  O359  1  0.48529000  0.06409000  0.25369000  1.0 -0.5024045089
O  O360  1  0.25369000  0.19693000  0.48529000  1.0 -0.5024045089
O  O361  1  0.98529000  0.69693000  0.75369000  1.0 -0.5024045089
O  O362  1  0.93591000  0.74631000  0.51471000  1.0 -0.5024045089
O  O363  1  0.69693000  0.98529000  0.56409000  1.0 -0.5024045089
O  O364  1  0.74631000  0.93591000  0.80307000  1.0 -0.5024045089
O  O365  1  0.80307000  0.93591000  0.51471000  1.0 -0.5024045089
O  O366  1  0.56409000  0.75369000  0.69693000  1.0 -0.5024045089
O  O367  1  0.74631000  0.51471000  0.93591000  1.0 -0.5024045089
O  O368  1  0.80307000  0.74631000  0.93591000  1.0 -0.5024045089
O  O369  1  0.75369000  0.56409000  0.98529000  1.0 -0.5024045089
O  O370  1  0.93591000  0.51471000  0.80307000  1.0 -0.5024045089
O  O371  1  0.75369000  0.98529000  0.69693000  1.0 -0.5024045089
O  O372  1  0.69693000  0.75369000  0.98529000  1.0 -0.5024045089
O  O373  1  0.75369000  0.69693000  0.56409000  1.0 -0.5024045089
O  O374  1  0.56409000  0.69693000  0.98529000  1.0 -0.5024045089
O  O375  1  0.98529000  0.56409000  0.69693000  1.0 -0.5024045089
O  O376  1  0.98529000  0.75369000  0.56409000  1.0 -0.5024045089
O  O377  1  0.69693000  0.56409000  0.75369000  1.0 -0.5024045089
O  O378  1  0.56409000  0.98529000  0.75369000  1.0 -0.5024045089
O  O379  1  0.51471000  0.80307000  0.93591000  1.0 -0.5024045089
O  O380  1  0.80307000  0.51471000  0.74631000  1.0 -0.5024045089
O  O381  1  0.93591000  0.80307000  0.74631000  1.0 -0.5024045089
O  O382  1  0.51471000  0.74631000  0.80307000  1.0 -0.5024045089
O  O383  1  0.51471000  0.93591000  0.74631000  1.0 -0.5024045089
O  O384  1  0.74631000  0.80307000  0.51471000  1.0 -0.5024045089
O  O385  1  0.65720000  0.49760000  0.34280000  1.0 -0.2993783131
O  O386  1  0.99760000  0.15720000  0.84280000  1.0 -0.2993783131
O  O387  1  0.49760000  0.65720000  0.50240000  1.0 -0.2993783131
O  O388  1  0.15720000  0.99760000  0.00240000  1.0 -0.2993783131
O  O389  1  0.00240000  0.99760000  0.84280000  1.0 -0.2993783131
O  O390  1  0.50240000  0.34280000  0.49760000  1.0 -0.2993783131
O  O391  1  0.15720000  0.84280000  0.99760000  1.0 -0.2993783131
O  O392  1  0.00240000  0.15720000  0.99760000  1.0 -0.2993783131
O  O393  1  0.34280000  0.50240000  0.65720000  1.0 -0.2993783131
O  O394  1  0.99760000  0.84280000  0.00240000  1.0 -0.2993783131
O  O395  1  0.34280000  0.65720000  0.49760000  1.0 -0.2993783131
O  O396  1  0.49760000  0.34280000  0.65720000  1.0 -0.2993783131
O  O397  1  0.34280000  0.49760000  0.50240000  1.0 -0.2993783131
O  O398  1  0.50240000  0.49760000  0.65720000  1.0 -0.2993783131
O  O399  1  0.65720000  0.50240000  0.49760000  1.0 -0.2993783131
O  O400  1  0.65720000  0.34280000  0.50240000  1.0 -0.2993783131
O  O401  1  0.49760000  0.50240000  0.34280000  1.0 -0.2993783131
O  O402  1  0.50240000  0.65720000  0.34280000  1.0 -0.2993783131
O  O403  1  0.84280000  0.00240000  0.99760000  1.0 -0.2993783131
O  O404  1  0.00240000  0.84280000  0.15720000  1.0 -0.2993783131
O  O405  1  0.99760000  0.00240000  0.15720000  1.0 -0.2993783131
O  O406  1  0.84280000  0.15720000  0.00240000  1.0 -0.2993783131
O  O407  1  0.84280000  0.99760000  0.15720000  1.0 -0.3130909265
O  O408  1  0.15720000  0.00240000  0.84280000  1.0 -0.2993783131
O  O409  1  0.84310000  0.48664000  0.15690000  1.0 -0.0390031345
O  O410  1  0.98664000  0.34310000  0.65690000  1.0 -0.0486556196
O  O411  1  0.48664000  0.84310000  0.51336000  1.0 -0.0486556196
O  O412  1  0.34310000  0.98664000  0.01336000  1.0 -0.0486556196
O  O413  1  0.01336000  0.98664000  0.65690000  1.0 -0.0486556196
O  O414  1  0.51336000  0.15690000  0.48664000  1.0 -0.0486556196
O  O415  1  0.34310000  0.65690000  0.98664000  1.0 -0.0486556196
O  O416  1  0.01336000  0.34310000  0.98664000  1.0 -0.0486556196
O  O417  1  0.15690000  0.51336000  0.84310000  1.0 -0.0486556196
O  O418  1  0.98664000  0.65690000  0.01336000  1.0 -0.0486556196
O  O419  1  0.15690000  0.84310000  0.48664000  1.0 -0.0486556196
O  O420  1  0.48664000  0.15690000  0.84310000  1.0 -0.0486556196
O  O421  1  0.15690000  0.48664000  0.51336000  1.0 -0.0486556196
O  O422  1  0.51336000  0.48664000  0.84310000  1.0 -0.0486556196
O  O423  1  0.84310000  0.51336000  0.48664000  1.0 -0.0486556196
O  O424  1  0.84310000  0.15690000  0.51336000  1.0 -0.0486556196
O  O425  1  0.48664000  0.51336000  0.15690000  1.0 -0.0486556196
O  O426  1  0.51336000  0.84310000  0.15690000  1.0 -0.0390031345
O  O427  1  0.65690000  0.01336000  0.98664000  1.0 -0.0486556196
O  O428  1  0.01336000  0.65690000  0.34310000  1.0 -0.0486556196
O  O429  1  0.98664000  0.01336000  0.34310000  1.0 -0.0486556196
O  O430  1  0.65690000  0.34310000  0.01336000  1.0 -0.0486556196
O  O431  1  0.65690000  0.98664000  0.34310000  1.0 -0.0486556196
O  O432  1  0.34310000  0.01336000  0.65690000  1.0 -0.0486556196
O  O433  1  0.01175000  0.15111000  0.33665000  1.0 -0.3964455776
O  O434  1  0.99951000  0.16335000  0.48825000  1.0 -0.3964455776
O  O435  1  0.15111000  0.01175000  0.50049000  1.0 -0.3964455776
O  O436  1  0.16335000  0.99951000  0.34889000  1.0 -0.3964455776
O  O437  1  0.34889000  0.99951000  0.48825000  1.0 -0.3936492266
O  O438  1  0.50049000  0.33665000  0.15111000  1.0 -0.3964455776
O  O439  1  0.16335000  0.48825000  0.99951000  1.0 -0.3964455776
O  O440  1  0.34889000  0.16335000  0.99951000  1.0 -0.3964455776
O  O441  1  0.33665000  0.50049000  0.01175000  1.0 -0.3964455776
O  O442  1  0.99951000  0.48825000  0.34889000  1.0 -0.3964455776
O  O443  1  0.33665000  0.01175000  0.15111000  1.0 -0.3964455776
O  O444  1  0.15111000  0.33665000  0.01175000  1.0 -0.3964455776
O  O445  1  0.33665000  0.15111000  0.50049000  1.0 -0.3964455776
O  O446  1  0.50049000  0.15111000  0.01175000  1.0 -0.3964455776
O  O447  1  0.01175000  0.50049000  0.15111000  1.0 -0.3964455776
O  O448  1  0.01175000  0.33665000  0.50049000  1.0 -0.3964455776
O  O449  1  0.15111000  0.50049000  0.33665000  1.0 -0.3964455776
O  O450  1  0.50049000  0.01175000  0.33665000  1.0 -0.3936492266
O  O451  1  0.48825000  0.34889000  0.99951000  1.0 -0.3964455776
O  O452  1  0.34889000  0.48825000  0.16335000  1.0 -0.3936492266
O  O453  1  0.99951000  0.34889000  0.16335000  1.0 -0.3964455776
O  O454  1  0.48825000  0.16335000  0.34889000  1.0 -0.3964455776
O  O455  1  0.48825000  0.99951000  0.16335000  1.0 -0.3936492266
O  O456  1  0.16335000  0.34889000  0.48825000  1.0 -0.3964455776
O  O457  1  0.98825000  0.84889000  0.66335000  1.0 -0.3936492266
O  O458  1  0.00049000  0.83665000  0.51175000  1.0 -0.3964455776
O  O459  1  0.84889000  0.98825000  0.49951000  1.0 -0.3936492266
O  O460  1  0.83665000  0.00049000  0.65111000  1.0 -0.3964455776
O  O461  1  0.65111000  0.00049000  0.51175000  1.0 -0.3964455776
O  O462  1  0.49951000  0.66335000  0.84889000  1.0 -0.3964455776
O  O463  1  0.83665000  0.51175000  0.00049000  1.0 -0.3936492266
O  O464  1  0.65111000  0.83665000  0.00049000  1.0 -0.3936492266
O  O465  1  0.66335000  0.49951000  0.98825000  1.0 -0.3964455776
O  O466  1  0.00049000  0.51175000  0.65111000  1.0 -0.3964455776
O  O467  1  0.66335000  0.98825000  0.84889000  1.0 -0.3964455776
O  O468  1  0.84889000  0.66335000  0.98825000  1.0 -0.3964455776
O  O469  1  0.66335000  0.84889000  0.49951000  1.0 -0.3936492266
O  O470  1  0.49951000  0.84889000  0.98825000  1.0 -0.3964455776
O  O471  1  0.98825000  0.49951000  0.84889000  1.0 -0.3936492266
O  O472  1  0.98825000  0.66335000  0.49951000  1.0 -0.3936492266
O  O473  1  0.84889000  0.49951000  0.66335000  1.0 -0.3964455776
O  O474  1  0.49951000  0.98825000  0.66335000  1.0 -0.3964455776
O  O475  1  0.51175000  0.65111000  0.00049000  1.0 -0.3936492266
O  O476  1  0.65111000  0.51175000  0.83665000  1.0 -0.3964455776
O  O477  1  0.00049000  0.65111000  0.83665000  1.0 -0.3964455776
O  O478  1  0.51175000  0.83665000  0.65111000  1.0 -0.3964455776
O  O479  1  0.51175000  0.00049000  0.83665000  1.0 -0.3964455776
O  O480  1  0.83665000  0.65111000  0.51175000  1.0 -0.3936492266
