# DDEC6 charges by PACMAN v1.1 (https://github.com/mtap-research/PACMAN-charge/)
data_BOHWUS_FSR_pacman
_symmetry_space_group_name_H-M   'P 1'
_cell_length_a   24.80280000
_cell_length_b   24.80280000
_cell_length_c   24.80280000
_cell_angle_alpha   60.00000000
_cell_angle_beta   60.00000000
_cell_angle_gamma   60.00000000
_symmetry_Int_Tables_number   1
_chemical_formula_structural   Zr3H3(C9O22)2
_chemical_formula_sum   'Zr24 H24 C144 O352'
_cell_volume   10789.14764027
_cell_formula_units_Z   8
loop_
 _symmetry_equiv_pos_site_id
 _symmetry_equiv_pos_as_xyz
  1  'x, y, z'
loop_
 _atom_site_type_symbol
 _atom_site_label
 _atom_site_symmetry_multiplicity
 _atom_site_fract_x
 _atom_site_fract_y
 _atom_site_fract_z
 _atom_site_occupancy
 _atom_site_charge
Zr  Zr1  1  0.50753000  0.64839000  0.19569000  1.0 1.9207888864
Zr  Zr2  1  0.64839000  0.50753000  0.64839000  1.0 1.9207888864
Zr  Zr3  1  0.19569000  0.64839000  0.50753000  1.0 1.9207888864
Zr  Zr4  1  0.64839000  0.19569000  0.64839000  1.0 1.9207888864
Zr  Zr5  1  0.19569000  0.50753000  0.64839000  1.0 1.9207888864
Zr  Zr6  1  0.64839000  0.64839000  0.50753000  1.0 1.9207888864
Zr  Zr7  1  0.50753000  0.19569000  0.64839000  1.0 1.9207888864
Zr  Zr8  1  0.64839000  0.64839000  0.19569000  1.0 1.9207888864
Zr  Zr9  1  0.64839000  0.19569000  0.50753000  1.0 1.9207888864
Zr  Zr10  1  0.50753000  0.64839000  0.64839000  1.0 1.9207888864
Zr  Zr11  1  0.64839000  0.50753000  0.19569000  1.0 1.9207888864
Zr  Zr12  1  0.19569000  0.64839000  0.64839000  1.0 1.9207888864
Zr  Zr13  1  0.74247000  0.60161000  0.60161000  1.0 1.9207888864
Zr  Zr14  1  0.60161000  0.74247000  0.05431000  1.0 1.9207888864
Zr  Zr15  1  0.05431000  0.60161000  0.60161000  1.0 1.9207888864
Zr  Zr16  1  0.60161000  0.05431000  0.74247000  1.0 1.9207888864
Zr  Zr17  1  0.05431000  0.74247000  0.60161000  1.0 1.9207888864
Zr  Zr18  1  0.60161000  0.60161000  0.05431000  1.0 1.9207888864
Zr  Zr19  1  0.74247000  0.05431000  0.60161000  1.0 1.9207888864
Zr  Zr20  1  0.60161000  0.60161000  0.74247000  1.0 1.9207888864
Zr  Zr21  1  0.60161000  0.05431000  0.60161000  1.0 1.9207888864
Zr  Zr22  1  0.74247000  0.60161000  0.05431000  1.0 1.9207888864
Zr  Zr23  1  0.60161000  0.74247000  0.60161000  1.0 1.9207888864
Zr  Zr24  1  0.05431000  0.60161000  0.74247000  1.0 1.9207888864
H  H1  1  0.54600000  0.38220000  0.38220000  1.0 0.1276118771
H  H2  1  0.38220000  0.54600000  0.68960000  1.0 0.1276118771
H  H3  1  0.38220000  0.68960000  0.54600000  1.0 0.1276118771
H  H4  1  0.68960000  0.38220000  0.38220000  1.0 0.1276118771
H  H5  1  0.38220000  0.54600000  0.38220000  1.0 0.1276118771
H  H6  1  0.68960000  0.38220000  0.54600000  1.0 0.1276118771
H  H7  1  0.54600000  0.38220000  0.68960000  1.0 0.1276118771
H  H8  1  0.38220000  0.68960000  0.38220000  1.0 0.1276118771
H  H9  1  0.38220000  0.38220000  0.54600000  1.0 0.1276118771
H  H10  1  0.54600000  0.68960000  0.38220000  1.0 0.1276118771
H  H11  1  0.68960000  0.54600000  0.38220000  1.0 0.1276118771
H  H12  1  0.38220000  0.38220000  0.68960000  1.0 0.1276118771
H  H13  1  0.70400000  0.86780000  0.56040000  1.0 0.1276118771
H  H14  1  0.86780000  0.70400000  0.86780000  1.0 0.1276118771
H  H15  1  0.86780000  0.56040000  0.86780000  1.0 0.1276118771
H  H16  1  0.56040000  0.86780000  0.70400000  1.0 0.1276118771
H  H17  1  0.86780000  0.70400000  0.56040000  1.0 0.1276118771
H  H18  1  0.56040000  0.86780000  0.86780000  1.0 0.1276118771
H  H19  1  0.70400000  0.86780000  0.86780000  1.0 0.1276118771
H  H20  1  0.86780000  0.56040000  0.70400000  1.0 0.1276118771
H  H21  1  0.86780000  0.86780000  0.56040000  1.0 0.1276118771
H  H22  1  0.70400000  0.56040000  0.86780000  1.0 0.1276118771
H  H23  1  0.56040000  0.70400000  0.86780000  1.0 0.1276118771
H  H24  1  0.86780000  0.86780000  0.70400000  1.0 0.1276118771
C  C1  1  0.50643000  0.50643000  0.30615000  1.0 0.574901425
C  C2  1  0.50643000  0.50643000  0.68099000  1.0 0.5756504359
C  C3  1  0.30615000  0.68099000  0.50643000  1.0 0.574901425
C  C4  1  0.68099000  0.30615000  0.50643000  1.0 0.574901425
C  C5  1  0.30615000  0.50643000  0.50643000  1.0 0.574901425
C  C6  1  0.68099000  0.50643000  0.50643000  1.0 0.574901425
C  C7  1  0.50643000  0.30615000  0.68099000  1.0 0.574901425
C  C8  1  0.50643000  0.68099000  0.30615000  1.0 0.574901425
C  C9  1  0.50643000  0.30615000  0.50643000  1.0 0.574901425
C  C10  1  0.50643000  0.68099000  0.50643000  1.0 0.574901425
C  C11  1  0.68099000  0.50643000  0.30615000  1.0 0.574901425
C  C12  1  0.30615000  0.50643000  0.68099000  1.0 0.574901425
C  C13  1  0.74357000  0.74357000  0.56901000  1.0 0.574901425
C  C14  1  0.74357000  0.74357000  0.94385000  1.0 0.574901425
C  C15  1  0.94385000  0.56901000  0.74357000  1.0 0.574901425
C  C16  1  0.56901000  0.94385000  0.74357000  1.0 0.574901425
C  C17  1  0.94385000  0.74357000  0.56901000  1.0 0.574901425
C  C18  1  0.56901000  0.74357000  0.94385000  1.0 0.574901425
C  C19  1  0.74357000  0.94385000  0.74357000  1.0 0.5756504359
C  C20  1  0.74357000  0.56901000  0.74357000  1.0 0.574901425
C  C21  1  0.74357000  0.94385000  0.56901000  1.0 0.574901425
C  C22  1  0.74357000  0.56901000  0.94385000  1.0 0.574901425
C  C23  1  0.56901000  0.74357000  0.74357000  1.0 0.574901425
C  C24  1  0.94385000  0.74357000  0.74357000  1.0 0.574901425
C  C25  1  0.50176000  0.40438000  0.40438000  1.0 -0.1202617601
C  C26  1  0.40438000  0.50176000  0.68948000  1.0 -0.1202617601
C  C27  1  0.40438000  0.68948000  0.50176000  1.0 -0.1202617601
C  C28  1  0.68948000  0.40438000  0.40438000  1.0 -0.1202617601
C  C29  1  0.40438000  0.50176000  0.40438000  1.0 -0.1202617601
C  C30  1  0.68948000  0.40438000  0.50176000  1.0 -0.1202617601
C  C31  1  0.50176000  0.40438000  0.68948000  1.0 -0.1202617601
C  C32  1  0.40438000  0.68948000  0.40438000  1.0 -0.1202617601
C  C33  1  0.40438000  0.40438000  0.50176000  1.0 -0.1202617601
C  C34  1  0.50176000  0.68948000  0.40438000  1.0 -0.1202617601
C  C35  1  0.68948000  0.50176000  0.40438000  1.0 -0.1202617601
C  C36  1  0.40438000  0.40438000  0.68948000  1.0 -0.1202617601
C  C37  1  0.74824000  0.84562000  0.56052000  1.0 -0.1202617601
C  C38  1  0.84562000  0.74824000  0.84562000  1.0 -0.1202617601
C  C39  1  0.84562000  0.56052000  0.84562000  1.0 -0.1202617601
C  C40  1  0.56052000  0.84562000  0.74824000  1.0 -0.1202617601
C  C41  1  0.84562000  0.74824000  0.56052000  1.0 -0.1202617601
C  C42  1  0.56052000  0.84562000  0.84562000  1.0 -0.1202617601
C  C43  1  0.74824000  0.84562000  0.84562000  1.0 -0.1202617601
C  C44  1  0.84562000  0.56052000  0.74824000  1.0 -0.1202617601
C  C45  1  0.84562000  0.84562000  0.56052000  1.0 -0.1202617601
C  C46  1  0.74824000  0.56052000  0.84562000  1.0 -0.1202617601
C  C47  1  0.56052000  0.74824000  0.84562000  1.0 -0.1202617601
C  C48  1  0.84562000  0.84562000  0.74824000  1.0 -0.1202617601
C  C49  1  0.46934000  0.46934000  0.37194000  1.0 -0.0335754698
C  C50  1  0.46934000  0.46934000  0.68938000  1.0 -0.0335754698
C  C51  1  0.37194000  0.68938000  0.46934000  1.0 -0.0335754698
C  C52  1  0.68938000  0.37194000  0.46934000  1.0 -0.0335754698
C  C53  1  0.37194000  0.46934000  0.46934000  1.0 -0.0335754698
C  C54  1  0.68938000  0.46934000  0.46934000  1.0 -0.0335754698
C  C55  1  0.46934000  0.37194000  0.68938000  1.0 -0.0335754698
C  C56  1  0.46934000  0.68938000  0.37194000  1.0 -0.0335754698
C  C57  1  0.46934000  0.37194000  0.46934000  1.0 -0.0335754698
C  C58  1  0.46934000  0.68938000  0.46934000  1.0 -0.0335754698
C  C59  1  0.68938000  0.46934000  0.37194000  1.0 -0.0335754698
C  C60  1  0.37194000  0.46934000  0.68938000  1.0 -0.0335754698
C  C61  1  0.78066000  0.78066000  0.56062000  1.0 -0.0335754698
C  C62  1  0.78066000  0.78066000  0.87806000  1.0 -0.0335754698
C  C63  1  0.87806000  0.56062000  0.78066000  1.0 -0.0335754698
C  C64  1  0.56062000  0.87806000  0.78066000  1.0 -0.0335754698
C  C65  1  0.87806000  0.78066000  0.56062000  1.0 -0.0335754698
C  C66  1  0.56062000  0.78066000  0.87806000  1.0 -0.0335754698
C  C67  1  0.78066000  0.87806000  0.78066000  1.0 -0.0335754698
C  C68  1  0.78066000  0.56062000  0.78066000  1.0 -0.0335754698
C  C69  1  0.78066000  0.87806000  0.56062000  1.0 -0.0335754698
C  C70  1  0.78066000  0.56062000  0.87806000  1.0 -0.0335754698
C  C71  1  0.56062000  0.78066000  0.78066000  1.0 -0.0335754698
C  C72  1  0.87806000  0.78066000  0.78066000  1.0 -0.0335754698
C  C73  1  0.44378000  0.62500000  0.12500000  1.0 0.1881994788
C  C74  1  0.62500000  0.44378000  0.80622000  1.0 0.1881994788
C  C75  1  0.12500000  0.80622000  0.44378000  1.0 0.1881994788
C  C76  1  0.80622000  0.12500000  0.62500000  1.0 0.1881994788
C  C77  1  0.12500000  0.44378000  0.62500000  1.0 0.1881994788
C  C78  1  0.80622000  0.62500000  0.44378000  1.0 0.1881994788
C  C79  1  0.44378000  0.12500000  0.80622000  1.0 0.1881994788
C  C80  1  0.62500000  0.80622000  0.12500000  1.0 0.1881994788
C  C81  1  0.62500000  0.12500000  0.44378000  1.0 0.1881994788
C  C82  1  0.44378000  0.80622000  0.62500000  1.0 0.1881994788
C  C83  1  0.80622000  0.44378000  0.12500000  1.0 0.1881994788
C  C84  1  0.12500000  0.62500000  0.80622000  1.0 0.1881994788
C  C85  1  0.80622000  0.62500000  0.12500000  1.0 0.1881994788
C  C86  1  0.62500000  0.80622000  0.44378000  1.0 0.1881994788
C  C87  1  0.12500000  0.44378000  0.80622000  1.0 0.1881994788
C  C88  1  0.44378000  0.12500000  0.62500000  1.0 0.1881994788
C  C89  1  0.12500000  0.80622000  0.62500000  1.0 0.1881994788
C  C90  1  0.44378000  0.62500000  0.80622000  1.0 0.1881994788
C  C91  1  0.80622000  0.12500000  0.44378000  1.0 0.1881994788
C  C92  1  0.62500000  0.44378000  0.12500000  1.0 0.1881994788
C  C93  1  0.62500000  0.12500000  0.80622000  1.0 0.1881994788
C  C94  1  0.80622000  0.44378000  0.62500000  1.0 0.1881994788
C  C95  1  0.44378000  0.80622000  0.12500000  1.0 0.1881994788
C  C96  1  0.12500000  0.62500000  0.44378000  1.0 0.1881994788
C  C97  1  0.40520000  0.60100000  0.20360000  1.0 0.53061581
C  C98  1  0.60100000  0.40520000  0.79020000  1.0 0.53061581
C  C99  1  0.20360000  0.79020000  0.40520000  1.0 0.53061581
C  C100  1  0.79020000  0.20360000  0.60100000  1.0 0.53061581
C  C101  1  0.20360000  0.40520000  0.60100000  1.0 0.53061581
C  C102  1  0.79020000  0.60100000  0.40520000  1.0 0.53061581
C  C103  1  0.40520000  0.20360000  0.79020000  1.0 0.53061581
C  C104  1  0.60100000  0.79020000  0.20360000  1.0 0.53061581
C  C105  1  0.60100000  0.20360000  0.40520000  1.0 0.53061581
C  C106  1  0.40520000  0.79020000  0.60100000  1.0 0.53061581
C  C107  1  0.79020000  0.40520000  0.20360000  1.0 0.53061581
C  C108  1  0.20360000  0.60100000  0.79020000  1.0 0.53061581
C  C109  1  0.84480000  0.64900000  0.45980000  1.0 0.53061581
C  C110  1  0.64900000  0.84480000  0.04640000  1.0 0.53061581
C  C111  1  0.04640000  0.45980000  0.64900000  1.0 0.53061581
C  C112  1  0.45980000  0.04640000  0.84480000  1.0 0.53061581
C  C113  1  0.04640000  0.84480000  0.45980000  1.0 0.53061581
C  C114  1  0.45980000  0.64900000  0.04640000  1.0 0.53061581
C  C115  1  0.84480000  0.04640000  0.64900000  1.0 0.53061581
C  C116  1  0.64900000  0.45980000  0.84480000  1.0 0.53061581
C  C117  1  0.64900000  0.04640000  0.45980000  1.0 0.53061581
C  C118  1  0.84480000  0.45980000  0.04640000  1.0 0.53061581
C  C119  1  0.45980000  0.84480000  0.64900000  1.0 0.53061581
C  C120  1  0.04640000  0.64900000  0.84480000  1.0 0.53061581
C  C121  1  0.84480000  0.64900000  0.04640000  1.0 0.53061581
C  C122  1  0.64900000  0.84480000  0.45980000  1.0 0.53061581
C  C123  1  0.04640000  0.45980000  0.84480000  1.0 0.53061581
C  C124  1  0.45980000  0.04640000  0.64900000  1.0 0.53061581
C  C125  1  0.04640000  0.84480000  0.64900000  1.0 0.53061581
C  C126  1  0.45980000  0.64900000  0.84480000  1.0 0.53061581
C  C127  1  0.84480000  0.04640000  0.45980000  1.0 0.53061581
C  C128  1  0.64900000  0.45980000  0.04640000  1.0 0.53061581
C  C129  1  0.64900000  0.04640000  0.84480000  1.0 0.53061581
C  C130  1  0.84480000  0.45980000  0.64900000  1.0 0.53061581
C  C131  1  0.45980000  0.84480000  0.04640000  1.0 0.53061581
C  C132  1  0.04640000  0.64900000  0.45980000  1.0 0.53061581
C  C133  1  0.40520000  0.60100000  0.79020000  1.0 0.53061581
C  C134  1  0.60100000  0.40520000  0.20360000  1.0 0.53061581
C  C135  1  0.20360000  0.79020000  0.60100000  1.0 0.53061581
C  C136  1  0.79020000  0.20360000  0.40520000  1.0 0.53061581
C  C137  1  0.20360000  0.40520000  0.79020000  1.0 0.53061581
C  C138  1  0.79020000  0.60100000  0.20360000  1.0 0.53061581
C  C139  1  0.40520000  0.20360000  0.60100000  1.0 0.53061581
C  C140  1  0.60100000  0.79020000  0.40520000  1.0 0.53061581
C  C141  1  0.60100000  0.20360000  0.79020000  1.0 0.53061581
C  C142  1  0.40520000  0.79020000  0.20360000  1.0 0.53061581
C  C143  1  0.79020000  0.40520000  0.60100000  1.0 0.53061581
C  C144  1  0.20360000  0.60100000  0.40520000  1.0 0.53061581
O  O1  1  0.59687000  0.59687000  0.20939000  1.0 -0.3627189529
O  O2  1  0.59687000  0.59687000  0.59687000  1.0 -0.3627189529
O  O3  1  0.20939000  0.59687000  0.59687000  1.0 -0.3627189529
O  O4  1  0.59687000  0.20939000  0.59687000  1.0 -0.3627189529
O  O5  1  0.65313000  0.65313000  0.65313000  1.0 -0.3627189529
O  O6  1  0.65313000  0.65313000  0.04061000  1.0 -0.3627189529
O  O7  1  0.04061000  0.65313000  0.65313000  1.0 -0.3627189529
O  O8  1  0.65313000  0.04061000  0.65313000  1.0 -0.3627189529
O  O9  1  0.47560000  0.56612000  0.28120000  1.0 -0.6282697546
O  O10  1  0.56612000  0.47560000  0.67708000  1.0 -0.6282697546
O  O11  1  0.28120000  0.67708000  0.47560000  1.0 -0.6282697546
O  O12  1  0.67708000  0.28120000  0.56612000  1.0 -0.6282697546
O  O13  1  0.28120000  0.47560000  0.56612000  1.0 -0.6282697546
O  O14  1  0.67708000  0.56612000  0.47560000  1.0 -0.6282697546
O  O15  1  0.47560000  0.28120000  0.67708000  1.0 -0.6282697546
O  O16  1  0.56612000  0.67708000  0.28120000  1.0 -0.6282697546
O  O17  1  0.56612000  0.28120000  0.47560000  1.0 -0.6282697546
O  O18  1  0.47560000  0.67708000  0.56612000  1.0 -0.6282697546
O  O19  1  0.67708000  0.47560000  0.28120000  1.0 -0.6282697546
O  O20  1  0.28120000  0.56612000  0.67708000  1.0 -0.6282697546
O  O21  1  0.77440000  0.68388000  0.57292000  1.0 -0.6282697546
O  O22  1  0.68388000  0.77440000  0.96880000  1.0 -0.6282697546
O  O23  1  0.96880000  0.57292000  0.68388000  1.0 -0.6282697546
O  O24  1  0.57292000  0.96880000  0.77440000  1.0 -0.6282697546
O  O25  1  0.96880000  0.77440000  0.57292000  1.0 -0.6282697546
O  O26  1  0.57292000  0.68388000  0.96880000  1.0 -0.6282697546
O  O27  1  0.77440000  0.96880000  0.68388000  1.0 -0.6282697546
O  O28  1  0.68388000  0.57292000  0.77440000  1.0 -0.6282697546
O  O29  1  0.68388000  0.96880000  0.57292000  1.0 -0.6282697546
O  O30  1  0.77440000  0.57292000  0.96880000  1.0 -0.6282697546
O  O31  1  0.57292000  0.77440000  0.68388000  1.0 -0.6282697546
O  O32  1  0.96880000  0.68388000  0.77440000  1.0 -0.6282697546
O  O33  1  0.77440000  0.68388000  0.96880000  1.0 -0.6282697546
O  O34  1  0.68388000  0.77440000  0.57292000  1.0 -0.6282697546
O  O35  1  0.96880000  0.57292000  0.77440000  1.0 -0.6282697546
O  O36  1  0.57292000  0.96880000  0.68388000  1.0 -0.6282697546
O  O37  1  0.96880000  0.77440000  0.68388000  1.0 -0.6282697546
O  O38  1  0.57292000  0.68388000  0.77440000  1.0 -0.6282697546
O  O39  1  0.77440000  0.96880000  0.57292000  1.0 -0.6282697546
O  O40  1  0.68388000  0.57292000  0.96880000  1.0 -0.6282697546
O  O41  1  0.68388000  0.96880000  0.77440000  1.0 -0.6282697546
O  O42  1  0.77440000  0.57292000  0.68388000  1.0 -0.6282697546
O  O43  1  0.57292000  0.77440000  0.96880000  1.0 -0.6282697546
O  O44  1  0.96880000  0.68388000  0.57292000  1.0 -0.6282697546
O  O45  1  0.47560000  0.56612000  0.67708000  1.0 -0.6282697546
O  O46  1  0.56612000  0.47560000  0.28120000  1.0 -0.6282697546
O  O47  1  0.28120000  0.67708000  0.56612000  1.0 -0.6282697546
O  O48  1  0.67708000  0.28120000  0.47560000  1.0 -0.6282697546
O  O49  1  0.28120000  0.47560000  0.67708000  1.0 -0.6282697546
O  O50  1  0.67708000  0.56612000  0.28120000  1.0 -0.6282697546
O  O51  1  0.47560000  0.28120000  0.56612000  1.0 -0.6282697546
O  O52  1  0.56612000  0.67708000  0.47560000  1.0 -0.6282697546
O  O53  1  0.56612000  0.28120000  0.67708000  1.0 -0.6282697546
O  O54  1  0.47560000  0.67708000  0.28120000  1.0 -0.6282697546
O  O55  1  0.67708000  0.47560000  0.56612000  1.0 -0.6282697546
O  O56  1  0.28120000  0.56612000  0.47560000  1.0 -0.6282697546
O  O57  1  0.52845000  0.69059000  0.09037000  1.0 -0.3659531211
O  O58  1  0.69059000  0.52845000  0.69059000  1.0 -0.3659531211
O  O59  1  0.09037000  0.69059000  0.52845000  1.0 -0.3659531211
O  O60  1  0.69059000  0.09037000  0.69059000  1.0 -0.3659531211
O  O61  1  0.09037000  0.52845000  0.69059000  1.0 -0.3659531211
O  O62  1  0.69059000  0.69059000  0.52845000  1.0 -0.3659531211
O  O63  1  0.52845000  0.09037000  0.69059000  1.0 -0.3659531211
O  O64  1  0.69059000  0.69059000  0.09037000  1.0 -0.3659531211
O  O65  1  0.69059000  0.09037000  0.52845000  1.0 -0.3627189529
O  O66  1  0.52845000  0.69059000  0.69059000  1.0 -0.3659531211
O  O67  1  0.69059000  0.52845000  0.09037000  1.0 -0.3659531211
O  O68  1  0.09037000  0.69059000  0.69059000  1.0 -0.3659531211
O  O69  1  0.72155000  0.55941000  0.55941000  1.0 -0.3627189529
O  O70  1  0.55941000  0.72155000  0.15963000  1.0 -0.3659531211
O  O71  1  0.15963000  0.55941000  0.55941000  1.0 -0.3627189529
O  O72  1  0.55941000  0.15963000  0.72155000  1.0 -0.3659531211
O  O73  1  0.15963000  0.72155000  0.55941000  1.0 -0.3627189529
O  O74  1  0.55941000  0.55941000  0.15963000  1.0 -0.3659531211
O  O75  1  0.72155000  0.15963000  0.55941000  1.0 -0.3659531211
O  O76  1  0.55941000  0.55941000  0.72155000  1.0 -0.3659531211
O  O77  1  0.55941000  0.15963000  0.55941000  1.0 -0.3659531211
O  O78  1  0.72155000  0.55941000  0.15963000  1.0 -0.3659531211
O  O79  1  0.55941000  0.72155000  0.55941000  1.0 -0.3627189529
O  O80  1  0.15963000  0.55941000  0.72155000  1.0 -0.3659531211
O  O81  1  0.42100000  0.64700000  0.19280000  1.0 -0.1804859349
O  O82  1  0.64700000  0.42100000  0.73920000  1.0 -0.1804859349
O  O83  1  0.19280000  0.73920000  0.42100000  1.0 -0.1804859349
O  O84  1  0.73920000  0.19280000  0.64700000  1.0 -0.1804859349
O  O85  1  0.19280000  0.42100000  0.64700000  1.0 -0.1804859349
O  O86  1  0.73920000  0.64700000  0.42100000  1.0 -0.1804859349
O  O87  1  0.42100000  0.19280000  0.73920000  1.0 -0.1804859349
O  O88  1  0.64700000  0.73920000  0.19280000  1.0 -0.1804859349
O  O89  1  0.64700000  0.19280000  0.42100000  1.0 -0.1804859349
O  O90  1  0.42100000  0.73920000  0.64700000  1.0 -0.1804859349
O  O91  1  0.73920000  0.42100000  0.19280000  1.0 -0.1804859349
O  O92  1  0.19280000  0.64700000  0.73920000  1.0 -0.1804859349
O  O93  1  0.82900000  0.60300000  0.51080000  1.0 -0.1804859349
O  O94  1  0.60300000  0.82900000  0.05720000  1.0 -0.1804859349
O  O95  1  0.05720000  0.51080000  0.60300000  1.0 -0.1804859349
O  O96  1  0.51080000  0.05720000  0.82900000  1.0 -0.1804859349
O  O97  1  0.05720000  0.82900000  0.51080000  1.0 -0.1804859349
O  O98  1  0.51080000  0.60300000  0.05720000  1.0 -0.1804859349
O  O99  1  0.82900000  0.05720000  0.60300000  1.0 -0.1804859349
O  O100  1  0.60300000  0.51080000  0.82900000  1.0 -0.1804859349
O  O101  1  0.60300000  0.05720000  0.51080000  1.0 -0.1804859349
O  O102  1  0.82900000  0.51080000  0.05720000  1.0 -0.1804859349
O  O103  1  0.51080000  0.82900000  0.60300000  1.0 -0.1804859349
O  O104  1  0.05720000  0.60300000  0.82900000  1.0 -0.1804859349
O  O105  1  0.82900000  0.60300000  0.05720000  1.0 -0.1804859349
O  O106  1  0.60300000  0.82900000  0.51080000  1.0 -0.1804859349
O  O107  1  0.05720000  0.51080000  0.82900000  1.0 -0.1804859349
O  O108  1  0.51080000  0.05720000  0.60300000  1.0 -0.1804859349
O  O109  1  0.05720000  0.82900000  0.60300000  1.0 -0.1804859349
O  O110  1  0.51080000  0.60300000  0.82900000  1.0 -0.1804859349
O  O111  1  0.82900000  0.05720000  0.51080000  1.0 -0.1804859349
O  O112  1  0.60300000  0.51080000  0.05720000  1.0 -0.1804859349
O  O113  1  0.60300000  0.05720000  0.82900000  1.0 -0.1804859349
O  O114  1  0.82900000  0.51080000  0.60300000  1.0 -0.1804859349
O  O115  1  0.51080000  0.82900000  0.05720000  1.0 -0.1804859349
O  O116  1  0.05720000  0.60300000  0.51080000  1.0 -0.1804859349
O  O117  1  0.42100000  0.64700000  0.73920000  1.0 -0.1804859349
O  O118  1  0.64700000  0.42100000  0.19280000  1.0 -0.1804859349
O  O119  1  0.19280000  0.73920000  0.64700000  1.0 -0.1804859349
O  O120  1  0.73920000  0.19280000  0.42100000  1.0 -0.1804859349
O  O121  1  0.19280000  0.42100000  0.73920000  1.0 -0.1804859349
O  O122  1  0.73920000  0.64700000  0.19280000  1.0 -0.1804859349
O  O123  1  0.42100000  0.19280000  0.64700000  1.0 -0.1804859349
O  O124  1  0.64700000  0.73920000  0.42100000  1.0 -0.1804859349
O  O125  1  0.64700000  0.19280000  0.73920000  1.0 -0.1804859349
O  O126  1  0.42100000  0.73920000  0.19280000  1.0 -0.1804859349
O  O127  1  0.73920000  0.42100000  0.64700000  1.0 -0.1804859349
O  O128  1  0.19280000  0.64700000  0.42100000  1.0 -0.1804859349
O  O129  1  0.44410000  0.53390000  0.21230000  1.0 -0.1641336117
O  O130  1  0.53390000  0.44410000  0.80970000  1.0 -0.1673561245
O  O131  1  0.21230000  0.80970000  0.44410000  1.0 -0.1641336117
O  O132  1  0.80970000  0.21230000  0.53390000  1.0 -0.1641336117
O  O133  1  0.21230000  0.44410000  0.53390000  1.0 -0.1641336117
O  O134  1  0.80970000  0.53390000  0.44410000  1.0 -0.1641336117
O  O135  1  0.44410000  0.21230000  0.80970000  1.0 -0.1673561245
O  O136  1  0.53390000  0.80970000  0.21230000  1.0 -0.1641336117
O  O137  1  0.53390000  0.21230000  0.44410000  1.0 -0.1673561245
O  O138  1  0.44410000  0.80970000  0.53390000  1.0 -0.1673561245
O  O139  1  0.80970000  0.44410000  0.21230000  1.0 -0.1673561245
O  O140  1  0.21230000  0.53390000  0.80970000  1.0 -0.1673561245
O  O141  1  0.80590000  0.71610000  0.44030000  1.0 -0.1641336117
O  O142  1  0.71610000  0.80590000  0.03770000  1.0 -0.1641336117
O  O143  1  0.03770000  0.44030000  0.71610000  1.0 -0.1673561245
O  O144  1  0.44030000  0.03770000  0.80590000  1.0 -0.1673561245
O  O145  1  0.03770000  0.80590000  0.44030000  1.0 -0.1641336117
O  O146  1  0.44030000  0.71610000  0.03770000  1.0 -0.1673561245
O  O147  1  0.80590000  0.03770000  0.71610000  1.0 -0.1673561245
O  O148  1  0.71610000  0.44030000  0.80590000  1.0 -0.1641336117
O  O149  1  0.71610000  0.03770000  0.44030000  1.0 -0.1673561245
O  O150  1  0.80590000  0.44030000  0.03770000  1.0 -0.1673561245
O  O151  1  0.44030000  0.80590000  0.71610000  1.0 -0.1673561245
O  O152  1  0.03770000  0.71610000  0.80590000  1.0 -0.1673561245
O  O153  1  0.80590000  0.71610000  0.03770000  1.0 -0.1673561245
O  O154  1  0.71610000  0.80590000  0.44030000  1.0 -0.1641336117
O  O155  1  0.03770000  0.44030000  0.80590000  1.0 -0.1673561245
O  O156  1  0.44030000  0.03770000  0.71610000  1.0 -0.1673561245
O  O157  1  0.03770000  0.80590000  0.71610000  1.0 -0.1673561245
O  O158  1  0.44030000  0.71610000  0.80590000  1.0 -0.1673561245
O  O159  1  0.80590000  0.03770000  0.44030000  1.0 -0.1673561245
O  O160  1  0.71610000  0.44030000  0.03770000  1.0 -0.1641336117
O  O161  1  0.71610000  0.03770000  0.80590000  1.0 -0.1673561245
O  O162  1  0.80590000  0.44030000  0.71610000  1.0 -0.1673561245
O  O163  1  0.44030000  0.80590000  0.03770000  1.0 -0.1673561245
O  O164  1  0.03770000  0.71610000  0.44030000  1.0 -0.1673561245
O  O165  1  0.44410000  0.53390000  0.80970000  1.0 -0.1673561245
O  O166  1  0.53390000  0.44410000  0.21230000  1.0 -0.1673561245
O  O167  1  0.21230000  0.80970000  0.53390000  1.0 -0.1673561245
O  O168  1  0.80970000  0.21230000  0.44410000  1.0 -0.1673561245
O  O169  1  0.21230000  0.44410000  0.80970000  1.0 -0.1673561245
O  O170  1  0.80970000  0.53390000  0.21230000  1.0 -0.1641336117
O  O171  1  0.44410000  0.21230000  0.53390000  1.0 -0.1673561245
O  O172  1  0.53390000  0.80970000  0.44410000  1.0 -0.1641336117
O  O173  1  0.53390000  0.21230000  0.80970000  1.0 -0.1673561245
O  O174  1  0.44410000  0.80970000  0.21230000  1.0 -0.1673561245
O  O175  1  0.80970000  0.44410000  0.53390000  1.0 -0.1641336117
O  O176  1  0.21230000  0.53390000  0.44410000  1.0 -0.1641336117
O  O177  1  0.35190000  0.61470000  0.19730000  1.0 -0.3627189529
O  O178  1  0.61470000  0.35190000  0.83610000  1.0 -0.3627189529
O  O179  1  0.19730000  0.83610000  0.35190000  1.0 -0.3659531211
O  O180  1  0.83610000  0.19730000  0.61470000  1.0 -0.3627189529
O  O181  1  0.19730000  0.35190000  0.61470000  1.0 -0.3627189529
O  O182  1  0.83610000  0.61470000  0.35190000  1.0 -0.3627189529
O  O183  1  0.35190000  0.19730000  0.83610000  1.0 -0.3627189529
O  O184  1  0.61470000  0.83610000  0.19730000  1.0 -0.3627189529
O  O185  1  0.61470000  0.19730000  0.35190000  1.0 -0.3627189529
O  O186  1  0.35190000  0.83610000  0.61470000  1.0 -0.3627189529
O  O187  1  0.83610000  0.35190000  0.19730000  1.0 -0.3627189529
O  O188  1  0.19730000  0.61470000  0.83610000  1.0 -0.3659531211
O  O189  1  0.89810000  0.63530000  0.41390000  1.0 -0.3627189529
O  O190  1  0.63530000  0.89810000  0.05270000  1.0 -0.3627189529
O  O191  1  0.05270000  0.41390000  0.63530000  1.0 -0.3627189529
O  O192  1  0.41390000  0.05270000  0.89810000  1.0 -0.3627189529
O  O193  1  0.05270000  0.89810000  0.41390000  1.0 -0.3627189529
O  O194  1  0.41390000  0.63530000  0.05270000  1.0 -0.3627189529
O  O195  1  0.89810000  0.05270000  0.63530000  1.0 -0.3627189529
O  O196  1  0.63530000  0.41390000  0.89810000  1.0 -0.3627189529
O  O197  1  0.63530000  0.05270000  0.41390000  1.0 -0.3627189529
O  O198  1  0.89810000  0.41390000  0.05270000  1.0 -0.3627189529
O  O199  1  0.41390000  0.89810000  0.63530000  1.0 -0.3627189529
O  O200  1  0.05270000  0.63530000  0.89810000  1.0 -0.3627189529
O  O201  1  0.89810000  0.63530000  0.05270000  1.0 -0.3627189529
O  O202  1  0.63530000  0.89810000  0.41390000  1.0 -0.3627189529
O  O203  1  0.05270000  0.41390000  0.89810000  1.0 -0.3627189529
O  O204  1  0.41390000  0.05270000  0.63530000  1.0 -0.3627189529
O  O205  1  0.05270000  0.89810000  0.63530000  1.0 -0.3627189529
O  O206  1  0.41390000  0.63530000  0.89810000  1.0 -0.3627189529
O  O207  1  0.89810000  0.05270000  0.41390000  1.0 -0.3627189529
O  O208  1  0.63530000  0.41390000  0.05270000  1.0 -0.3627189529
O  O209  1  0.63530000  0.05270000  0.89810000  1.0 -0.3627189529
O  O210  1  0.89810000  0.41390000  0.63530000  1.0 -0.3627189529
O  O211  1  0.41390000  0.89810000  0.05270000  1.0 -0.3627189529
O  O212  1  0.05270000  0.63530000  0.41390000  1.0 -0.3627189529
O  O213  1  0.35190000  0.61470000  0.83610000  1.0 -0.3627189529
O  O214  1  0.61470000  0.35190000  0.19730000  1.0 -0.3627189529
O  O215  1  0.19730000  0.83610000  0.61470000  1.0 -0.3627189529
O  O216  1  0.83610000  0.19730000  0.35190000  1.0 -0.3627189529
O  O217  1  0.19730000  0.35190000  0.83610000  1.0 -0.3627189529
O  O218  1  0.83610000  0.61470000  0.19730000  1.0 -0.3627189529
O  O219  1  0.35190000  0.19730000  0.61470000  1.0 -0.3627189529
O  O220  1  0.61470000  0.83610000  0.35190000  1.0 -0.3627189529
O  O221  1  0.61470000  0.19730000  0.83610000  1.0 -0.3627189529
O  O222  1  0.35190000  0.83610000  0.19730000  1.0 -0.3627189529
O  O223  1  0.83610000  0.35190000  0.61470000  1.0 -0.3627189529
O  O224  1  0.19730000  0.61470000  0.35190000  1.0 -0.3627189529
O  O225  1  0.39800000  0.74740000  0.10720000  1.0 -0.1641336117
O  O226  1  0.74740000  0.39800000  0.74740000  1.0 -0.1673561245
O  O227  1  0.10720000  0.74740000  0.39800000  1.0 -0.1673561245
O  O228  1  0.74740000  0.10720000  0.74740000  1.0 -0.1641336117
O  O229  1  0.10720000  0.39800000  0.74740000  1.0 -0.1673561245
O  O230  1  0.74740000  0.74740000  0.39800000  1.0 -0.1673561245
O  O231  1  0.39800000  0.10720000  0.74740000  1.0 -0.1641336117
O  O232  1  0.74740000  0.74740000  0.10720000  1.0 -0.1641336117
O  O233  1  0.74740000  0.10720000  0.39800000  1.0 -0.1641336117
O  O234  1  0.39800000  0.74740000  0.74740000  1.0 -0.1673561245
O  O235  1  0.74740000  0.39800000  0.10720000  1.0 -0.1673561245
O  O236  1  0.10720000  0.74740000  0.74740000  1.0 -0.1673561245
O  O237  1  0.85200000  0.50260000  0.50260000  1.0 -0.1641336117
O  O238  1  0.50260000  0.85200000  0.14280000  1.0 -0.1673561245
O  O239  1  0.14280000  0.50260000  0.50260000  1.0 -0.1673561245
O  O240  1  0.50260000  0.14280000  0.85200000  1.0 -0.1641336117
O  O241  1  0.14280000  0.85200000  0.50260000  1.0 -0.1673561245
O  O242  1  0.50260000  0.50260000  0.14280000  1.0 -0.1673561245
O  O243  1  0.85200000  0.14280000  0.50260000  1.0 -0.1641336117
O  O244  1  0.50260000  0.50260000  0.85200000  1.0 -0.1673561245
O  O245  1  0.50260000  0.14280000  0.50260000  1.0 -0.1641336117
O  O246  1  0.85200000  0.50260000  0.14280000  1.0 -0.1673561245
O  O247  1  0.50260000  0.85200000  0.50260000  1.0 -0.1673561245
O  O248  1  0.14280000  0.50260000  0.85200000  1.0 -0.1641336117
O  O249  1  0.43630000  0.63970000  0.17190000  1.0 -0.1280480485
O  O250  1  0.63970000  0.43630000  0.75210000  1.0 -0.1280480485
O  O251  1  0.17190000  0.75210000  0.43630000  1.0 -0.1280480485
O  O252  1  0.75210000  0.17190000  0.63970000  1.0 -0.1280480485
O  O253  1  0.17190000  0.43630000  0.63970000  1.0 -0.1280480485
O  O254  1  0.75210000  0.63970000  0.43630000  1.0 -0.1280480485
O  O255  1  0.43630000  0.17190000  0.75210000  1.0 -0.1280480485
O  O256  1  0.63970000  0.75210000  0.17190000  1.0 -0.1280480485
O  O257  1  0.63970000  0.17190000  0.43630000  1.0 -0.1280480485
O  O258  1  0.43630000  0.75210000  0.63970000  1.0 -0.1280480485
O  O259  1  0.75210000  0.43630000  0.17190000  1.0 -0.1280480485
O  O260  1  0.17190000  0.63970000  0.75210000  1.0 -0.1280480485
O  O261  1  0.81370000  0.61030000  0.49790000  1.0 -0.1280480485
O  O262  1  0.61030000  0.81370000  0.07810000  1.0 -0.1280480485
O  O263  1  0.07810000  0.49790000  0.61030000  1.0 -0.1280480485
O  O264  1  0.49790000  0.07810000  0.81370000  1.0 -0.1280480485
O  O265  1  0.07810000  0.81370000  0.49790000  1.0 -0.1280480485
O  O266  1  0.49790000  0.61030000  0.07810000  1.0 -0.1280480485
O  O267  1  0.81370000  0.07810000  0.61030000  1.0 -0.1280480485
O  O268  1  0.61030000  0.49790000  0.81370000  1.0 -0.1280480485
O  O269  1  0.61030000  0.07810000  0.49790000  1.0 -0.1280480485
O  O270  1  0.81370000  0.49790000  0.07810000  1.0 -0.1280480485
O  O271  1  0.49790000  0.81370000  0.61030000  1.0 -0.1280480485
O  O272  1  0.07810000  0.61030000  0.81370000  1.0 -0.1280480485
O  O273  1  0.81370000  0.61030000  0.07810000  1.0 -0.1280480485
O  O274  1  0.61030000  0.81370000  0.49790000  1.0 -0.1280480485
O  O275  1  0.07810000  0.49790000  0.81370000  1.0 -0.1280480485
O  O276  1  0.49790000  0.07810000  0.61030000  1.0 -0.1280480485
O  O277  1  0.07810000  0.81370000  0.61030000  1.0 -0.1280480485
O  O278  1  0.49790000  0.61030000  0.81370000  1.0 -0.1280480485
O  O279  1  0.81370000  0.07810000  0.49790000  1.0 -0.1280480485
O  O280  1  0.61030000  0.49790000  0.07810000  1.0 -0.1280480485
O  O281  1  0.61030000  0.07810000  0.81370000  1.0 -0.1280480485
O  O282  1  0.81370000  0.49790000  0.61030000  1.0 -0.1280480485
O  O283  1  0.49790000  0.81370000  0.07810000  1.0 -0.1280480485
O  O284  1  0.07810000  0.61030000  0.49790000  1.0 -0.1280480485
O  O285  1  0.43630000  0.63970000  0.75210000  1.0 -0.1280480485
O  O286  1  0.63970000  0.43630000  0.17190000  1.0 -0.1280480485
O  O287  1  0.17190000  0.75210000  0.63970000  1.0 -0.1280480485
O  O288  1  0.75210000  0.17190000  0.43630000  1.0 -0.1280480485
O  O289  1  0.17190000  0.43630000  0.75210000  1.0 -0.1280480485
O  O290  1  0.75210000  0.63970000  0.17190000  1.0 -0.1280480485
O  O291  1  0.43630000  0.17190000  0.63970000  1.0 -0.1280480485
O  O292  1  0.63970000  0.75210000  0.43630000  1.0 -0.1280480485
O  O293  1  0.63970000  0.17190000  0.75210000  1.0 -0.1280480485
O  O294  1  0.43630000  0.75210000  0.17190000  1.0 -0.1280480485
O  O295  1  0.75210000  0.43630000  0.63970000  1.0 -0.1280480485
O  O296  1  0.17190000  0.63970000  0.43630000  1.0 -0.1280480485
O  O297  1  0.58570000  0.58570000  0.24290000  1.0 -0.3803429445
O  O298  1  0.58570000  0.58570000  0.58570000  1.0 -0.3803429445
O  O299  1  0.24290000  0.58570000  0.58570000  1.0 -0.3803429445
O  O300  1  0.58570000  0.24290000  0.58570000  1.0 -0.3803429445
O  O301  1  0.66430000  0.66430000  0.66430000  1.0 -0.3803429445
O  O302  1  0.66430000  0.66430000  0.00710000  1.0 -0.3803429445
O  O303  1  0.00710000  0.66430000  0.66430000  1.0 -0.3803429445
O  O304  1  0.66430000  0.00710000  0.66430000  1.0 -0.3803429445
O  O305  1  0.55304000  0.67706000  0.09284000  1.0 -0.4653548302
O  O306  1  0.67706000  0.55304000  0.67706000  1.0 -0.4640622316
O  O307  1  0.09284000  0.67706000  0.55304000  1.0 -0.4653548302
O  O308  1  0.67706000  0.09284000  0.67706000  1.0 -0.4653548302
O  O309  1  0.09284000  0.55304000  0.67706000  1.0 -0.4653548302
O  O310  1  0.67706000  0.67706000  0.55304000  1.0 -0.4640622316
O  O311  1  0.55304000  0.09284000  0.67706000  1.0 -0.4653548302
O  O312  1  0.67706000  0.67706000  0.09284000  1.0 -0.4640622316
O  O313  1  0.67706000  0.09284000  0.55304000  1.0 -0.4653548302
O  O314  1  0.55304000  0.67706000  0.67706000  1.0 -0.4640622316
O  O315  1  0.67706000  0.55304000  0.09284000  1.0 -0.4653548302
O  O316  1  0.09284000  0.67706000  0.67706000  1.0 -0.4653548302
O  O317  1  0.69696000  0.57294000  0.57294000  1.0 -0.4653548302
O  O318  1  0.57294000  0.69696000  0.15716000  1.0 -0.4640622316
O  O319  1  0.15716000  0.57294000  0.57294000  1.0 -0.4653548302
O  O320  1  0.57294000  0.15716000  0.69696000  1.0 -0.4653548302
O  O321  1  0.15716000  0.69696000  0.57294000  1.0 -0.4653548302
O  O322  1  0.57294000  0.57294000  0.15716000  1.0 -0.4640622316
O  O323  1  0.69696000  0.15716000  0.57294000  1.0 -0.4653548302
O  O324  1  0.57294000  0.57294000  0.69696000  1.0 -0.4653548302
O  O325  1  0.57294000  0.15716000  0.57294000  1.0 -0.4653548302
O  O326  1  0.69696000  0.57294000  0.15716000  1.0 -0.4640622316
O  O327  1  0.57294000  0.69696000  0.57294000  1.0 -0.4653548302
O  O328  1  0.15716000  0.57294000  0.69696000  1.0 -0.4653548302
O  O329  1  0.48020000  0.48020000  0.20900000  1.0 0.4568781962
O  O330  1  0.48020000  0.48020000  0.83060000  1.0 0.4568781962
O  O331  1  0.20900000  0.83060000  0.48020000  1.0 0.4568781962
O  O332  1  0.83060000  0.20900000  0.48020000  1.0 0.4568781962
O  O333  1  0.20900000  0.48020000  0.48020000  1.0 0.4568781962
O  O334  1  0.83060000  0.48020000  0.48020000  1.0 0.4568781962
O  O335  1  0.48020000  0.20900000  0.83060000  1.0 0.4568781962
O  O336  1  0.48020000  0.83060000  0.20900000  1.0 0.4568781962
O  O337  1  0.48020000  0.20900000  0.48020000  1.0 0.4568781962
O  O338  1  0.48020000  0.83060000  0.48020000  1.0 0.4568781962
O  O339  1  0.83060000  0.48020000  0.20900000  1.0 0.4568781962
O  O340  1  0.20900000  0.48020000  0.83060000  1.0 0.4568781962
O  O341  1  0.76980000  0.76980000  0.41940000  1.0 0.4568781962
O  O342  1  0.76980000  0.76980000  0.04100000  1.0 0.4568781962
O  O343  1  0.04100000  0.41940000  0.76980000  1.0 0.4568781962
O  O344  1  0.41940000  0.04100000  0.76980000  1.0 0.4568781962
O  O345  1  0.04100000  0.76980000  0.41940000  1.0 0.4568781962
O  O346  1  0.41940000  0.76980000  0.04100000  1.0 0.4568781962
O  O347  1  0.76980000  0.04100000  0.76980000  1.0 0.4568781962
O  O348  1  0.76980000  0.41940000  0.76980000  1.0 0.4568781962
O  O349  1  0.76980000  0.04100000  0.41940000  1.0 0.4568781962
O  O350  1  0.76980000  0.41940000  0.04100000  1.0 0.4568781962
O  O351  1  0.41940000  0.76980000  0.76980000  1.0 0.4568781962
O  O352  1  0.04100000  0.76980000  0.76980000  1.0 0.4568781962
