# DDEC6 charges by PACMAN v1.1 (https://github.com/mtap-research/PACMAN-charge/)
data_BOHXAZ_ASR_pacman
_symmetry_space_group_name_H-M   'P 1'
_cell_length_a   18.98680000
_cell_length_b   18.98680000
_cell_length_c   18.98680000
_cell_angle_alpha   60.00000000
_cell_angle_beta   60.00000000
_cell_angle_gamma   60.00000000
_symmetry_Int_Tables_number   1
_chemical_formula_structural   Zr3H12(C3O4)14
_chemical_formula_sum   'Zr6 H24 C84 O112'
_cell_volume   4839.94391759
_cell_formula_units_Z   2
loop_
 _symmetry_equiv_pos_site_id
 _symmetry_equiv_pos_as_xyz
  1  'x, y, z'
loop_
 _atom_site_type_symbol
 _atom_site_label
 _atom_site_symmetry_multiplicity
 _atom_site_fract_x
 _atom_site_fract_y
 _atom_site_fract_z
 _atom_site_occupancy
 _atom_site_charge
Zr  Zr1  1  0.59200000  0.59200000  0.40800000  1.0 2.0739268779
Zr  Zr2  1  0.40800000  0.40800000  0.59200000  1.0 2.0739268779
Zr  Zr3  1  0.40800000  0.59200000  0.59200000  1.0 2.0739268779
Zr  Zr4  1  0.59200000  0.40800000  0.40800000  1.0 2.0739268779
Zr  Zr5  1  0.59200000  0.40800000  0.59200000  1.0 2.0739268779
Zr  Zr6  1  0.40800000  0.59200000  0.40800000  1.0 2.0739268779
H  H1  1  0.95030000  0.60270000  0.04970000  1.0 0.1068249792
H  H2  1  0.60270000  0.95030000  0.39730000  1.0 0.1068249792
H  H3  1  0.04970000  0.39730000  0.95030000  1.0 0.1068249792
H  H4  1  0.39730000  0.04970000  0.60270000  1.0 0.1068249792
H  H5  1  0.04970000  0.95030000  0.60270000  1.0 0.1068249792
H  H6  1  0.39730000  0.60270000  0.95030000  1.0 0.1068249792
H  H7  1  0.95030000  0.04970000  0.39730000  1.0 0.1068249792
H  H8  1  0.60270000  0.39730000  0.04970000  1.0 0.1068249792
H  H9  1  0.60270000  0.04970000  0.95030000  1.0 0.1068249792
H  H10  1  0.95030000  0.39730000  0.60270000  1.0 0.1068249792
H  H11  1  0.39730000  0.95030000  0.04970000  1.0 0.1068249792
H  H12  1  0.04970000  0.60270000  0.39730000  1.0 0.1068249792
H  H13  1  0.95070000  0.39730000  0.04930000  1.0 0.1068249792
H  H14  1  0.39730000  0.95070000  0.60270000  1.0 0.1068249792
H  H15  1  0.04930000  0.60270000  0.95070000  1.0 0.1068249792
H  H16  1  0.60270000  0.04930000  0.39730000  1.0 0.1068249792
H  H17  1  0.04930000  0.95070000  0.39730000  1.0 0.1068249792
H  H18  1  0.60270000  0.39730000  0.95070000  1.0 0.1068249792
H  H19  1  0.95070000  0.04930000  0.60270000  1.0 0.1068249792
H  H20  1  0.39730000  0.60270000  0.04930000  1.0 0.1068249792
H  H21  1  0.39730000  0.04930000  0.95070000  1.0 0.1068249792
H  H22  1  0.95070000  0.60270000  0.39730000  1.0 0.1068249792
H  H23  1  0.60270000  0.95070000  0.04930000  1.0 0.1068249792
H  H24  1  0.04930000  0.39730000  0.60270000  1.0 0.1068249792
C  C1  1  0.73530000  0.49970000  0.26470000  1.0 0.4797356048
C  C2  1  0.49970000  0.73530000  0.50030000  1.0 0.4797356048
C  C3  1  0.26470000  0.50030000  0.73530000  1.0 0.4797356048
C  C4  1  0.50030000  0.26470000  0.49970000  1.0 0.4797356048
C  C5  1  0.26470000  0.73530000  0.49970000  1.0 0.4797356048
C  C6  1  0.50030000  0.49970000  0.73530000  1.0 0.4797356048
C  C7  1  0.73530000  0.26470000  0.50030000  1.0 0.4797356048
C  C8  1  0.49970000  0.50030000  0.26470000  1.0 0.4797356048
C  C9  1  0.49970000  0.26470000  0.73530000  1.0 0.4797356048
C  C10  1  0.73530000  0.50030000  0.49970000  1.0 0.4797356048
C  C11  1  0.50030000  0.73530000  0.26470000  1.0 0.4797356048
C  C12  1  0.26470000  0.49970000  0.50030000  1.0 0.4797356048
C  C13  1  0.81380000  0.50000000  0.18620000  1.0 -0.331548602
C  C14  1  0.50000000  0.81380000  0.50000000  1.0 -0.331548602
C  C15  1  0.18620000  0.50000000  0.81380000  1.0 -0.331548602
C  C16  1  0.50000000  0.18620000  0.50000000  1.0 -0.331548602
C  C17  1  0.18620000  0.81380000  0.50000000  1.0 -0.331548602
C  C18  1  0.50000000  0.50000000  0.81380000  1.0 -0.331548602
C  C19  1  0.81380000  0.18620000  0.50000000  1.0 -0.331548602
C  C20  1  0.50000000  0.50000000  0.18620000  1.0 -0.331548602
C  C21  1  0.50000000  0.18620000  0.81380000  1.0 -0.331548602
C  C22  1  0.81380000  0.50000000  0.50000000  1.0 -0.331548602
C  C23  1  0.50000000  0.81380000  0.18620000  1.0 -0.331548602
C  C24  1  0.18620000  0.50000000  0.50000000  1.0 -0.331548602
C  C25  1  0.85020000  0.43620000  0.14980000  1.0 0.3319278341
C  C26  1  0.43620000  0.85020000  0.56380000  1.0 0.3319278341
C  C27  1  0.14980000  0.56380000  0.85020000  1.0 0.3319278341
C  C28  1  0.56380000  0.14980000  0.43620000  1.0 0.3319278341
C  C29  1  0.14980000  0.85020000  0.43620000  1.0 0.3319278341
C  C30  1  0.56380000  0.43620000  0.85020000  1.0 0.3319278341
C  C31  1  0.85020000  0.14980000  0.56380000  1.0 0.3319278341
C  C32  1  0.43620000  0.56380000  0.14980000  1.0 0.3319278341
C  C33  1  0.43620000  0.14980000  0.85020000  1.0 0.3319278341
C  C34  1  0.85020000  0.56380000  0.43620000  1.0 0.3319278341
C  C35  1  0.56380000  0.85020000  0.14980000  1.0 0.3319278341
C  C36  1  0.14980000  0.43620000  0.56380000  1.0 0.3319278341
C  C37  1  0.85040000  0.56340000  0.14960000  1.0 0.3319278341
C  C38  1  0.56340000  0.85040000  0.43660000  1.0 0.3319278341
C  C39  1  0.14960000  0.43660000  0.85040000  1.0 0.3319278341
C  C40  1  0.43660000  0.14960000  0.56340000  1.0 0.3319278341
C  C41  1  0.14960000  0.85040000  0.56340000  1.0 0.3319278341
C  C42  1  0.43660000  0.56340000  0.85040000  1.0 0.3319278341
C  C43  1  0.85040000  0.14960000  0.43660000  1.0 0.3319278341
C  C44  1  0.56340000  0.43660000  0.14960000  1.0 0.3319278341
C  C45  1  0.56340000  0.14960000  0.85040000  1.0 0.3319278341
C  C46  1  0.85040000  0.43660000  0.56340000  1.0 0.3319278341
C  C47  1  0.43660000  0.85040000  0.14960000  1.0 0.3319278341
C  C48  1  0.14960000  0.56340000  0.43660000  1.0 0.3319278341
C  C49  1  0.92450000  0.55990000  0.07550000  1.0 -0.3114939561
C  C50  1  0.55990000  0.92450000  0.44010000  1.0 -0.3114939561
C  C51  1  0.07550000  0.44010000  0.92450000  1.0 -0.3114939561
C  C52  1  0.44010000  0.07550000  0.55990000  1.0 -0.3114939561
C  C53  1  0.07550000  0.92450000  0.55990000  1.0 -0.3114939561
C  C54  1  0.44010000  0.55990000  0.92450000  1.0 -0.3114939561
C  C55  1  0.92450000  0.07550000  0.44010000  1.0 -0.3114939561
C  C56  1  0.55990000  0.44010000  0.07550000  1.0 -0.3114939561
C  C57  1  0.55990000  0.07550000  0.92450000  1.0 -0.3114939561
C  C58  1  0.92450000  0.44010000  0.55990000  1.0 -0.3114939561
C  C59  1  0.44010000  0.92450000  0.07550000  1.0 -0.3114939561
C  C60  1  0.07550000  0.55990000  0.44010000  1.0 -0.3114939561
C  C61  1  0.95970000  0.50010000  0.04030000  1.0 0.1758021488
C  C62  1  0.50010000  0.95970000  0.49990000  1.0 0.1758021488
C  C63  1  0.04030000  0.49990000  0.95970000  1.0 0.1758021488
C  C64  1  0.49990000  0.04030000  0.50010000  1.0 0.1758021488
C  C65  1  0.04030000  0.95970000  0.50010000  1.0 0.1758021488
C  C66  1  0.49990000  0.50010000  0.95970000  1.0 0.1758021488
C  C67  1  0.95970000  0.04030000  0.49990000  1.0 0.1758021488
C  C68  1  0.50010000  0.49990000  0.04030000  1.0 0.1745835959
C  C69  1  0.50010000  0.04030000  0.95970000  1.0 0.1758021488
C  C70  1  0.95970000  0.49990000  0.50010000  1.0 0.1758021488
C  C71  1  0.49990000  0.95970000  0.04030000  1.0 0.1758021488
C  C72  1  0.04030000  0.50010000  0.49990000  1.0 0.1745835959
C  C73  1  0.92470000  0.43990000  0.07530000  1.0 -0.3172028716
C  C74  1  0.43990000  0.92470000  0.56010000  1.0 -0.3172028716
C  C75  1  0.07530000  0.56010000  0.92470000  1.0 -0.3172028716
C  C76  1  0.56010000  0.07530000  0.43990000  1.0 -0.3172028716
C  C77  1  0.07530000  0.92470000  0.43990000  1.0 -0.3172028716
C  C78  1  0.56010000  0.43990000  0.92470000  1.0 -0.3172028716
C  C79  1  0.92470000  0.07530000  0.56010000  1.0 -0.3172028716
C  C80  1  0.43990000  0.56010000  0.07530000  1.0 -0.3172028716
C  C81  1  0.43990000  0.07530000  0.92470000  1.0 -0.3172028716
C  C82  1  0.92470000  0.56010000  0.43990000  1.0 -0.3172028716
C  C83  1  0.56010000  0.92470000  0.07530000  1.0 -0.3172028716
C  C84  1  0.07530000  0.43990000  0.56010000  1.0 -0.3172028716
O  O1  1  0.61850000  0.46050000  0.46050000  1.0 -0.4046509803
O  O2  1  0.46050000  0.61850000  0.46050000  1.0 -0.4055156887
O  O3  1  0.46050000  0.46050000  0.61850000  1.0 -0.4046509803
O  O4  1  0.46050000  0.46050000  0.46050000  1.0 -0.4055156887
O  O5  1  0.38150000  0.53950000  0.53950000  1.0 -0.4046509803
O  O6  1  0.53950000  0.38150000  0.53950000  1.0 -0.4046509803
O  O7  1  0.53950000  0.53950000  0.38150000  1.0 -0.4046509803
O  O8  1  0.53950000  0.53950000  0.53950000  1.0 -0.4055156887
O  O9  1  0.70490000  0.43770000  0.29510000  1.0 -0.6360916129
O  O10  1  0.43770000  0.70490000  0.56230000  1.0 -0.6360916129
O  O11  1  0.29510000  0.56230000  0.70490000  1.0 -0.6360916129
O  O12  1  0.56230000  0.29510000  0.43770000  1.0 -0.6360916129
O  O13  1  0.29510000  0.70490000  0.43770000  1.0 -0.6360916129
O  O14  1  0.56230000  0.43770000  0.70490000  1.0 -0.6360916129
O  O15  1  0.70490000  0.29510000  0.56230000  1.0 -0.6340329628
O  O16  1  0.43770000  0.56230000  0.29510000  1.0 -0.6360916129
O  O17  1  0.43770000  0.29510000  0.70490000  1.0 -0.6360916129
O  O18  1  0.70490000  0.56230000  0.43770000  1.0 -0.6360916129
O  O19  1  0.56230000  0.70490000  0.29510000  1.0 -0.6360916129
O  O20  1  0.29510000  0.43770000  0.56230000  1.0 -0.6360916129
O  O21  1  0.70520000  0.56200000  0.29480000  1.0 -0.6340329628
O  O22  1  0.56200000  0.70520000  0.43800000  1.0 -0.6340329628
O  O23  1  0.29480000  0.43800000  0.70520000  1.0 -0.6340329628
O  O24  1  0.43800000  0.29480000  0.56200000  1.0 -0.6340329628
O  O25  1  0.29480000  0.70520000  0.56200000  1.0 -0.6340329628
O  O26  1  0.43800000  0.56200000  0.70520000  1.0 -0.6340329628
O  O27  1  0.70520000  0.29480000  0.43800000  1.0 -0.6340329628
O  O28  1  0.56200000  0.43800000  0.29480000  1.0 -0.6340329628
O  O29  1  0.56200000  0.29480000  0.70520000  1.0 -0.6340329628
O  O30  1  0.70520000  0.43800000  0.56200000  1.0 -0.6340329628
O  O31  1  0.43800000  0.70520000  0.29480000  1.0 -0.6340329628
O  O32  1  0.29480000  0.56200000  0.43800000  1.0 -0.6360916129
O  O33  1  0.85200000  0.58800000  0.21200000  1.0 -0.0895799549
O  O34  1  0.58800000  0.85200000  0.34800000  1.0 -0.0895799549
O  O35  1  0.21200000  0.34800000  0.85200000  1.0 -0.0895799549
O  O36  1  0.34800000  0.21200000  0.58800000  1.0 -0.0837817191
O  O37  1  0.21200000  0.85200000  0.58800000  1.0 -0.0895799549
O  O38  1  0.34800000  0.58800000  0.85200000  1.0 -0.0895799549
O  O39  1  0.85200000  0.21200000  0.34800000  1.0 -0.0895799549
O  O40  1  0.58800000  0.34800000  0.21200000  1.0 -0.0837817191
O  O41  1  0.58800000  0.21200000  0.85200000  1.0 -0.0837817191
O  O42  1  0.85200000  0.34800000  0.58800000  1.0 -0.0895799549
O  O43  1  0.34800000  0.85200000  0.21200000  1.0 -0.0895799549
O  O44  1  0.21200000  0.58800000  0.34800000  1.0 -0.0895799549
O  O45  1  0.14800000  0.41200000  0.78800000  1.0 -0.0895799549
O  O46  1  0.41200000  0.14800000  0.65200000  1.0 -0.0837817191
O  O47  1  0.78800000  0.65200000  0.14800000  1.0 -0.0895799549
O  O48  1  0.65200000  0.78800000  0.41200000  1.0 -0.0837817191
O  O49  1  0.78800000  0.14800000  0.41200000  1.0 -0.0895799549
O  O50  1  0.65200000  0.41200000  0.14800000  1.0 -0.0837817191
O  O51  1  0.14800000  0.78800000  0.65200000  1.0 -0.0837817191
O  O52  1  0.41200000  0.65200000  0.78800000  1.0 -0.0895799549
O  O53  1  0.41200000  0.78800000  0.14800000  1.0 -0.0895799549
O  O54  1  0.14800000  0.65200000  0.41200000  1.0 -0.0895799549
O  O55  1  0.65200000  0.14800000  0.78800000  1.0 -0.0895799549
O  O56  1  0.78800000  0.41200000  0.65200000  1.0 -0.0895799549
O  O57  1  0.82110000  0.62970000  0.17890000  1.0 0.2485152899
O  O58  1  0.62970000  0.82110000  0.37030000  1.0 0.2405007004
O  O59  1  0.17890000  0.37030000  0.82110000  1.0 0.2405007004
O  O60  1  0.37030000  0.17890000  0.62970000  1.0 0.2405007004
O  O61  1  0.17890000  0.82110000  0.62970000  1.0 0.2405007004
O  O62  1  0.37030000  0.62970000  0.82110000  1.0 0.2405007004
O  O63  1  0.82110000  0.17890000  0.37030000  1.0 0.2405007004
O  O64  1  0.62970000  0.37030000  0.17890000  1.0 0.2485152899
O  O65  1  0.62970000  0.17890000  0.82110000  1.0 0.2405007004
O  O66  1  0.82110000  0.37030000  0.62970000  1.0 0.2405007004
O  O67  1  0.37030000  0.82110000  0.17890000  1.0 0.2405007004
O  O68  1  0.17890000  0.62970000  0.37030000  1.0 0.2485152899
O  O69  1  0.82120000  0.37100000  0.17880000  1.0 0.2331317136
O  O70  1  0.37100000  0.82120000  0.62900000  1.0 0.2331317136
O  O71  1  0.17880000  0.62900000  0.82120000  1.0 0.2405007004
O  O72  1  0.62900000  0.17880000  0.37100000  1.0 0.2331317136
O  O73  1  0.17880000  0.82120000  0.37100000  1.0 0.2405007004
O  O74  1  0.62900000  0.37100000  0.82120000  1.0 0.2405007004
O  O75  1  0.82120000  0.17880000  0.62900000  1.0 0.2331317136
O  O76  1  0.37100000  0.62900000  0.17880000  1.0 0.2331317136
O  O77  1  0.37100000  0.17880000  0.82120000  1.0 0.2405007004
O  O78  1  0.82120000  0.62900000  0.37100000  1.0 0.2405007004
O  O79  1  0.62900000  0.82120000  0.17880000  1.0 0.2331317136
O  O80  1  0.17880000  0.37100000  0.62900000  1.0 0.2405007004
O  O81  1  0.65720000  0.44760000  0.44760000  1.0 -0.2907498957
O  O82  1  0.44760000  0.65720000  0.44760000  1.0 -0.2907498957
O  O83  1  0.44760000  0.44760000  0.65720000  1.0 -0.2907498957
O  O84  1  0.44760000  0.44760000  0.44760000  1.0 -0.2907498957
O  O85  1  0.34280000  0.55240000  0.55240000  1.0 -0.2907498957
O  O86  1  0.55240000  0.34280000  0.55240000  1.0 -0.2907498957
O  O87  1  0.55240000  0.55240000  0.34280000  1.0 -0.2907498957
O  O88  1  0.55240000  0.55240000  0.55240000  1.0 -0.2907498957
O  O89  1  0.78800000  0.41200000  0.14800000  1.0 -0.0895799549
O  O90  1  0.41200000  0.78800000  0.65200000  1.0 -0.0895799549
O  O91  1  0.14800000  0.65200000  0.78800000  1.0 -0.0895799549
O  O92  1  0.65200000  0.14800000  0.41200000  1.0 -0.0895799549
O  O93  1  0.14800000  0.78800000  0.41200000  1.0 -0.0895799549
O  O94  1  0.65200000  0.41200000  0.78800000  1.0 -0.0895799549
O  O95  1  0.78800000  0.14800000  0.65200000  1.0 -0.0895799549
O  O96  1  0.41200000  0.65200000  0.14800000  1.0 -0.0895799549
O  O97  1  0.41200000  0.14800000  0.78800000  1.0 -0.0895799549
O  O98  1  0.78800000  0.65200000  0.41200000  1.0 -0.0895799549
O  O99  1  0.65200000  0.78800000  0.14800000  1.0 -0.0895799549
O  O100  1  0.14800000  0.41200000  0.65200000  1.0 -0.0895799549
O  O101  1  0.21200000  0.58800000  0.85200000  1.0 -0.0895799549
O  O102  1  0.58800000  0.21200000  0.34800000  1.0 -0.0895799549
O  O103  1  0.85200000  0.34800000  0.21200000  1.0 -0.0895799549
O  O104  1  0.34800000  0.85200000  0.58800000  1.0 -0.0895799549
O  O105  1  0.85200000  0.21200000  0.58800000  1.0 -0.0895799549
O  O106  1  0.34800000  0.58800000  0.21200000  1.0 -0.0895799549
O  O107  1  0.21200000  0.85200000  0.34800000  1.0 -0.0895799549
O  O108  1  0.58800000  0.34800000  0.85200000  1.0 -0.0895799549
O  O109  1  0.58800000  0.85200000  0.21200000  1.0 -0.0895799549
O  O110  1  0.21200000  0.34800000  0.58800000  1.0 -0.0895799549
O  O111  1  0.34800000  0.21200000  0.85200000  1.0 -0.0895799549
O  O112  1  0.85200000  0.58800000  0.34800000  1.0 -0.0895799549
