# DDEC6 charges by PACMAN v1.1 (https://github.com/mtap-research/PACMAN-charge/)
data_BOHXIH_ASR_pacman
_symmetry_space_group_name_H-M   'P 1'
_cell_length_a   17.87360000
_cell_length_b   17.87360000
_cell_length_c   17.87360000
_cell_angle_alpha   90.00000000
_cell_angle_beta   90.00000000
_cell_angle_gamma   90.00000000
_symmetry_Int_Tables_number   1
_chemical_formula_structural   Zr3H10(C3O5)4
_chemical_formula_sum   'Zr24 H80 C96 O160'
_cell_volume   5709.99993635
_cell_formula_units_Z   8
loop_
 _symmetry_equiv_pos_site_id
 _symmetry_equiv_pos_as_xyz
  1  'x, y, z'
loop_
 _atom_site_type_symbol
 _atom_site_label
 _atom_site_symmetry_multiplicity
 _atom_site_fract_x
 _atom_site_fract_y
 _atom_site_fract_z
 _atom_site_occupancy
 _atom_site_charge
Zr  Zr1  1  0.11080000  0.26120000  0.75880000  1.0 2.1329498107
Zr  Zr2  1  0.75880000  0.11080000  0.26120000  1.0 2.1329498107
Zr  Zr3  1  0.26120000  0.75880000  0.11080000  1.0 2.1329498107
Zr  Zr4  1  0.24120000  0.11080000  0.73880000  1.0 2.1329498107
Zr  Zr5  1  0.73880000  0.24120000  0.11080000  1.0 2.1329498107
Zr  Zr6  1  0.26120000  0.24120000  0.88920000  1.0 2.1329498107
Zr  Zr7  1  0.88920000  0.26120000  0.24120000  1.0 2.1329498107
Zr  Zr8  1  0.24120000  0.88920000  0.26120000  1.0 2.1329498107
Zr  Zr9  1  0.11080000  0.73880000  0.24120000  1.0 2.1329498107
Zr  Zr10  1  0.88920000  0.73880000  0.75880000  1.0 2.1329498107
Zr  Zr11  1  0.75880000  0.88920000  0.73880000  1.0 2.1329498107
Zr  Zr12  1  0.73880000  0.75880000  0.88920000  1.0 2.1329498107
Zr  Zr13  1  0.38920000  0.23880000  0.74120000  1.0 2.1329498107
Zr  Zr14  1  0.74120000  0.38920000  0.23880000  1.0 2.1329498107
Zr  Zr15  1  0.23880000  0.74120000  0.38920000  1.0 2.1329498107
Zr  Zr16  1  0.25880000  0.38920000  0.76120000  1.0 2.1329498107
Zr  Zr17  1  0.76120000  0.25880000  0.38920000  1.0 2.1329498107
Zr  Zr18  1  0.23880000  0.25880000  0.61080000  1.0 2.1329498107
Zr  Zr19  1  0.61080000  0.23880000  0.25880000  1.0 2.1329498107
Zr  Zr20  1  0.25880000  0.61080000  0.23880000  1.0 2.1329498107
Zr  Zr21  1  0.38920000  0.76120000  0.25880000  1.0 2.1329498107
Zr  Zr22  1  0.61080000  0.76120000  0.74120000  1.0 2.1329498107
Zr  Zr23  1  0.74120000  0.61080000  0.76120000  1.0 2.1329498107
Zr  Zr24  1  0.76120000  0.74120000  0.61080000  1.0 2.1329498107
H  H1  1  0.94020000  0.05430000  0.74800000  1.0 0.1405592973
H  H2  1  0.74800000  0.94020000  0.05430000  1.0 0.1405592973
H  H3  1  0.05430000  0.74800000  0.94020000  1.0 0.1405592973
H  H4  1  0.25200000  0.94020000  0.94570000  1.0 0.1405592973
H  H5  1  0.94570000  0.25200000  0.94020000  1.0 0.1405592973
H  H6  1  0.05430000  0.25200000  0.05980000  1.0 0.1405592973
H  H7  1  0.05980000  0.05430000  0.25200000  1.0 0.1405592973
H  H8  1  0.25200000  0.05980000  0.05430000  1.0 0.1405592973
H  H9  1  0.94020000  0.94570000  0.25200000  1.0 0.1405592973
H  H10  1  0.05980000  0.94570000  0.74800000  1.0 0.1405592973
H  H11  1  0.74800000  0.05980000  0.94570000  1.0 0.1405592973
H  H12  1  0.94570000  0.74800000  0.05980000  1.0 0.1405592973
H  H13  1  0.55980000  0.44570000  0.75200000  1.0 0.1405592973
H  H14  1  0.75200000  0.55980000  0.44570000  1.0 0.1405592973
H  H15  1  0.44570000  0.75200000  0.55980000  1.0 0.1405592973
H  H16  1  0.24800000  0.55980000  0.55430000  1.0 0.1405592973
H  H17  1  0.55430000  0.24800000  0.55980000  1.0 0.1405592973
H  H18  1  0.44570000  0.24800000  0.44020000  1.0 0.1405592973
H  H19  1  0.44020000  0.44570000  0.24800000  1.0 0.1405592973
H  H20  1  0.24800000  0.44020000  0.44570000  1.0 0.1405592973
H  H21  1  0.55980000  0.55430000  0.24800000  1.0 0.1405592973
H  H22  1  0.44020000  0.55430000  0.75200000  1.0 0.1405592973
H  H23  1  0.75200000  0.44020000  0.55430000  1.0 0.1405592973
H  H24  1  0.55430000  0.75200000  0.44020000  1.0 0.1405592973
H  H25  1  0.06600000  0.54480000  0.77410000  1.0 0.1497839393
H  H26  1  0.77410000  0.06600000  0.54480000  1.0 0.1497839393
H  H27  1  0.54480000  0.77410000  0.06600000  1.0 0.1497839393
H  H28  1  0.22590000  0.06600000  0.45520000  1.0 0.1497839393
H  H29  1  0.45520000  0.22590000  0.06600000  1.0 0.1497839393
H  H30  1  0.54480000  0.22590000  0.93400000  1.0 0.1497839393
H  H31  1  0.93400000  0.54480000  0.22590000  1.0 0.1497839393
H  H32  1  0.22590000  0.93400000  0.54480000  1.0 0.1497839393
H  H33  1  0.06600000  0.45520000  0.22590000  1.0 0.1497839393
H  H34  1  0.93400000  0.45520000  0.77410000  1.0 0.1497839393
H  H35  1  0.77410000  0.93400000  0.45520000  1.0 0.1497839393
H  H36  1  0.45520000  0.77410000  0.93400000  1.0 0.1497839393
H  H37  1  0.43400000  0.95520000  0.72590000  1.0 0.1497839393
H  H38  1  0.72590000  0.43400000  0.95520000  1.0 0.1497839393
H  H39  1  0.95520000  0.72590000  0.43400000  1.0 0.1497839393
H  H40  1  0.27410000  0.43400000  0.04480000  1.0 0.1497839393
H  H41  1  0.04480000  0.27410000  0.43400000  1.0 0.1497839393
H  H42  1  0.95520000  0.27410000  0.56600000  1.0 0.1497839393
H  H43  1  0.56600000  0.95520000  0.27410000  1.0 0.1497839393
H  H44  1  0.27410000  0.56600000  0.95520000  1.0 0.1497839393
H  H45  1  0.43400000  0.04480000  0.27410000  1.0 0.1497839393
H  H46  1  0.56600000  0.04480000  0.72590000  1.0 0.1497839393
H  H47  1  0.72590000  0.56600000  0.04480000  1.0 0.1497839393
H  H48  1  0.04480000  0.72590000  0.56600000  1.0 0.1497839393
H  H49  1  0.16110000  0.35840000  0.87390000  1.0 0.3331069762
H  H50  1  0.87390000  0.16110000  0.35840000  1.0 0.3331069762
H  H51  1  0.35840000  0.87390000  0.16110000  1.0 0.3331069762
H  H52  1  0.12610000  0.16110000  0.64160000  1.0 0.3331069762
H  H53  1  0.64160000  0.12610000  0.16110000  1.0 0.3331069762
H  H54  1  0.35840000  0.12610000  0.83890000  1.0 0.3331069762
H  H55  1  0.83890000  0.35840000  0.12610000  1.0 0.3331069762
H  H56  1  0.12610000  0.83890000  0.35840000  1.0 0.3331069762
H  H57  1  0.16110000  0.64160000  0.12610000  1.0 0.3331069762
H  H58  1  0.83890000  0.64160000  0.87390000  1.0 0.3331069762
H  H59  1  0.87390000  0.83890000  0.64160000  1.0 0.3331069762
H  H60  1  0.64160000  0.87390000  0.83890000  1.0 0.3331069762
H  H61  1  0.33890000  0.14160000  0.62610000  1.0 0.3331069762
H  H62  1  0.62610000  0.33890000  0.14160000  1.0 0.3331069762
H  H63  1  0.14160000  0.62610000  0.33890000  1.0 0.3331069762
H  H64  1  0.37390000  0.33890000  0.85840000  1.0 0.3331069762
H  H65  1  0.85840000  0.37390000  0.33890000  1.0 0.3331069762
H  H66  1  0.14160000  0.37390000  0.66110000  1.0 0.3331069762
H  H67  1  0.66110000  0.14160000  0.37390000  1.0 0.3331069762
H  H68  1  0.37390000  0.66110000  0.14160000  1.0 0.3331069762
H  H69  1  0.33890000  0.85840000  0.37390000  1.0 0.3331069762
H  H70  1  0.66110000  0.85840000  0.62610000  1.0 0.3331069762
H  H71  1  0.62610000  0.66110000  0.85840000  1.0 0.3331069762
H  H72  1  0.85840000  0.62610000  0.66110000  1.0 0.3331069762
H  H73  1  0.14300000  0.14300000  0.85700000  1.0 0.3776018435
H  H74  1  0.85700000  0.14300000  0.14300000  1.0 0.3776018435
H  H75  1  0.14300000  0.85700000  0.14300000  1.0 0.3776018435
H  H76  1  0.85700000  0.85700000  0.85700000  1.0 0.3776018435
H  H77  1  0.35700000  0.35700000  0.64300000  1.0 0.3776018435
H  H78  1  0.64300000  0.35700000  0.35700000  1.0 0.3776018435
H  H79  1  0.35700000  0.64300000  0.35700000  1.0 0.3776018435
H  H80  1  0.64300000  0.64300000  0.64300000  1.0 0.3776018435
C  C1  1  0.08680000  0.43420000  0.77250000  1.0 0.5454988117
C  C2  1  0.77250000  0.08680000  0.43420000  1.0 0.5444060976
C  C3  1  0.43420000  0.77250000  0.08680000  1.0 0.5454988117
C  C4  1  0.22750000  0.08680000  0.56580000  1.0 0.5454988117
C  C5  1  0.56580000  0.22750000  0.08680000  1.0 0.5454988117
C  C6  1  0.43420000  0.22750000  0.91320000  1.0 0.5454988117
C  C7  1  0.91320000  0.43420000  0.22750000  1.0 0.5444060976
C  C8  1  0.22750000  0.91320000  0.43420000  1.0 0.5454988117
C  C9  1  0.08680000  0.56580000  0.22750000  1.0 0.5454988117
C  C10  1  0.91320000  0.56580000  0.77250000  1.0 0.5444060976
C  C11  1  0.77250000  0.91320000  0.56580000  1.0 0.5454988117
C  C12  1  0.56580000  0.77250000  0.91320000  1.0 0.5454988117
C  C13  1  0.41320000  0.06580000  0.72750000  1.0 0.5454988117
C  C14  1  0.72750000  0.41320000  0.06580000  1.0 0.5454988117
C  C15  1  0.06580000  0.72750000  0.41320000  1.0 0.5454988117
C  C16  1  0.27250000  0.41320000  0.93420000  1.0 0.5454988117
C  C17  1  0.93420000  0.27250000  0.41320000  1.0 0.5444060976
C  C18  1  0.06580000  0.27250000  0.58680000  1.0 0.5454988117
C  C19  1  0.58680000  0.06580000  0.27250000  1.0 0.5454988117
C  C20  1  0.27250000  0.58680000  0.06580000  1.0 0.5454988117
C  C21  1  0.41320000  0.93420000  0.27250000  1.0 0.5454988117
C  C22  1  0.58680000  0.93420000  0.72750000  1.0 0.5454988117
C  C23  1  0.72750000  0.58680000  0.93420000  1.0 0.5454988117
C  C24  1  0.93420000  0.72750000  0.58680000  1.0 0.5454988117
C  C25  1  0.05650000  0.09230000  0.75130000  1.0 0.6385046954
C  C26  1  0.75130000  0.05650000  0.09230000  1.0 0.6385046954
C  C27  1  0.09230000  0.75130000  0.05650000  1.0 0.6385046954
C  C28  1  0.24870000  0.05650000  0.90770000  1.0 0.6385046954
C  C29  1  0.90770000  0.24870000  0.05650000  1.0 0.6385046954
C  C30  1  0.09230000  0.24870000  0.94350000  1.0 0.6385046954
C  C31  1  0.94350000  0.09230000  0.24870000  1.0 0.6385046954
C  C32  1  0.24870000  0.94350000  0.09230000  1.0 0.6385046954
C  C33  1  0.05650000  0.90770000  0.24870000  1.0 0.6385046954
C  C34  1  0.94350000  0.90770000  0.75130000  1.0 0.6385046954
C  C35  1  0.75130000  0.94350000  0.90770000  1.0 0.6385046954
C  C36  1  0.90770000  0.75130000  0.94350000  1.0 0.6385046954
C  C37  1  0.44350000  0.40770000  0.74870000  1.0 0.6385046954
C  C38  1  0.74870000  0.44350000  0.40770000  1.0 0.6385046954
C  C39  1  0.40770000  0.74870000  0.44350000  1.0 0.6385046954
C  C40  1  0.25130000  0.44350000  0.59230000  1.0 0.6385046954
C  C41  1  0.59230000  0.25130000  0.44350000  1.0 0.6385046954
C  C42  1  0.40770000  0.25130000  0.55650000  1.0 0.6385046954
C  C43  1  0.55650000  0.40770000  0.25130000  1.0 0.6385046954
C  C44  1  0.25130000  0.55650000  0.40770000  1.0 0.6385046954
C  C45  1  0.44350000  0.59230000  0.25130000  1.0 0.6385046954
C  C46  1  0.55650000  0.59230000  0.74870000  1.0 0.6385046954
C  C47  1  0.74870000  0.55650000  0.59230000  1.0 0.6385046954
C  C48  1  0.59230000  0.74870000  0.55650000  1.0 0.6385046954
C  C49  1  0.99280000  0.03690000  0.75270000  1.0 -0.1891580775
C  C50  1  0.75270000  0.99280000  0.03690000  1.0 -0.1891580775
C  C51  1  0.03690000  0.75270000  0.99280000  1.0 -0.1891580775
C  C52  1  0.24730000  0.99280000  0.96310000  1.0 -0.1891580775
C  C53  1  0.96310000  0.24730000  0.99280000  1.0 -0.1891580775
C  C54  1  0.03690000  0.24730000  0.00720000  1.0 -0.1891580775
C  C55  1  0.00720000  0.03690000  0.24730000  1.0 -0.1891580775
C  C56  1  0.24730000  0.00720000  0.03690000  1.0 -0.1891580775
C  C57  1  0.99280000  0.96310000  0.24730000  1.0 -0.1891580775
C  C58  1  0.00720000  0.96310000  0.75270000  1.0 -0.1891580775
C  C59  1  0.75270000  0.00720000  0.96310000  1.0 -0.1891580775
C  C60  1  0.96310000  0.75270000  0.00720000  1.0 -0.1891580775
C  C61  1  0.50720000  0.46310000  0.74730000  1.0 -0.1891580775
C  C62  1  0.74730000  0.50720000  0.46310000  1.0 -0.1891580775
C  C63  1  0.46310000  0.74730000  0.50720000  1.0 -0.1891580775
C  C64  1  0.25270000  0.50720000  0.53690000  1.0 -0.1891580775
C  C65  1  0.53690000  0.25270000  0.50720000  1.0 -0.1891580775
C  C66  1  0.46310000  0.25270000  0.49280000  1.0 -0.1891580775
C  C67  1  0.49280000  0.46310000  0.25270000  1.0 -0.1891580775
C  C68  1  0.25270000  0.49280000  0.46310000  1.0 -0.1891580775
C  C69  1  0.50720000  0.53690000  0.25270000  1.0 -0.1891580775
C  C70  1  0.49280000  0.53690000  0.74730000  1.0 -0.1891580775
C  C71  1  0.74730000  0.49280000  0.53690000  1.0 -0.1891580775
C  C72  1  0.53690000  0.74730000  0.49280000  1.0 -0.1891580775
C  C73  1  0.03840000  0.50410000  0.77640000  1.0 -0.1743439695
C  C74  1  0.77640000  0.03840000  0.50410000  1.0 -0.1743439695
C  C75  1  0.50410000  0.77640000  0.03840000  1.0 -0.1743439695
C  C76  1  0.22360000  0.03840000  0.49590000  1.0 -0.1743439695
C  C77  1  0.49590000  0.22360000  0.03840000  1.0 -0.1743439695
C  C78  1  0.50410000  0.22360000  0.96160000  1.0 -0.1743439695
C  C79  1  0.96160000  0.50410000  0.22360000  1.0 -0.1743439695
C  C80  1  0.22360000  0.96160000  0.50410000  1.0 -0.1743439695
C  C81  1  0.03840000  0.49590000  0.22360000  1.0 -0.1743439695
C  C82  1  0.96160000  0.49590000  0.77640000  1.0 -0.1743439695
C  C83  1  0.77640000  0.96160000  0.49590000  1.0 -0.1743439695
C  C84  1  0.49590000  0.77640000  0.96160000  1.0 -0.1743439695
C  C85  1  0.46160000  0.99590000  0.72360000  1.0 -0.1743439695
C  C86  1  0.72360000  0.46160000  0.99590000  1.0 -0.1743439695
C  C87  1  0.99590000  0.72360000  0.46160000  1.0 -0.1743439695
C  C88  1  0.27640000  0.46160000  0.00410000  1.0 -0.1743439695
C  C89  1  0.00410000  0.27640000  0.46160000  1.0 -0.1743439695
C  C90  1  0.99590000  0.27640000  0.53840000  1.0 -0.1743439695
C  C91  1  0.53840000  0.99590000  0.27640000  1.0 -0.1743439695
C  C92  1  0.27640000  0.53840000  0.99590000  1.0 -0.1743439695
C  C93  1  0.46160000  0.00410000  0.27640000  1.0 -0.1743439695
C  C94  1  0.53840000  0.00410000  0.72360000  1.0 -0.1743439695
C  C95  1  0.72360000  0.53840000  0.00410000  1.0 -0.1743439695
C  C96  1  0.00410000  0.72360000  0.53840000  1.0 -0.1743439695
O  O1  1  0.05950000  0.37440000  0.77970000  1.0 -0.5621014422
O  O2  1  0.77970000  0.05950000  0.37440000  1.0 -0.5621014422
O  O3  1  0.37440000  0.77970000  0.05950000  1.0 -0.5621014422
O  O4  1  0.22030000  0.05950000  0.62560000  1.0 -0.5621014422
O  O5  1  0.62560000  0.22030000  0.05950000  1.0 -0.5621014422
O  O6  1  0.37440000  0.22030000  0.94050000  1.0 -0.5621014422
O  O7  1  0.94050000  0.37440000  0.22030000  1.0 -0.5621014422
O  O8  1  0.22030000  0.94050000  0.37440000  1.0 -0.5621014422
O  O9  1  0.05950000  0.62560000  0.22030000  1.0 -0.5621014422
O  O10  1  0.94050000  0.62560000  0.77970000  1.0 -0.5621014422
O  O11  1  0.77970000  0.94050000  0.62560000  1.0 -0.5621014422
O  O12  1  0.62560000  0.77970000  0.94050000  1.0 -0.5621014422
O  O13  1  0.44050000  0.12560000  0.72030000  1.0 -0.5621014422
O  O14  1  0.72030000  0.44050000  0.12560000  1.0 -0.5621014422
O  O15  1  0.12560000  0.72030000  0.44050000  1.0 -0.5621014422
O  O16  1  0.27970000  0.44050000  0.87440000  1.0 -0.5621014422
O  O17  1  0.87440000  0.27970000  0.44050000  1.0 -0.5621014422
O  O18  1  0.12560000  0.27970000  0.55950000  1.0 -0.5621014422
O  O19  1  0.55950000  0.12560000  0.27970000  1.0 -0.5621014422
O  O20  1  0.27970000  0.55950000  0.12560000  1.0 -0.5621014422
O  O21  1  0.44050000  0.87440000  0.27970000  1.0 -0.5621014422
O  O22  1  0.55950000  0.87440000  0.72030000  1.0 -0.5621014422
O  O23  1  0.72030000  0.55950000  0.87440000  1.0 -0.5621014422
O  O24  1  0.87440000  0.72030000  0.55950000  1.0 -0.5621014422
O  O25  1  0.04190000  0.15610000  0.75720000  1.0 -0.547360846
O  O26  1  0.75720000  0.04190000  0.15610000  1.0 -0.547360846
O  O27  1  0.15610000  0.75720000  0.04190000  1.0 -0.547360846
O  O28  1  0.24280000  0.04190000  0.84390000  1.0 -0.547360846
O  O29  1  0.84390000  0.24280000  0.04190000  1.0 -0.547360846
O  O30  1  0.15610000  0.24280000  0.95810000  1.0 -0.547360846
O  O31  1  0.95810000  0.15610000  0.24280000  1.0 -0.547360846
O  O32  1  0.24280000  0.95810000  0.15610000  1.0 -0.547360846
O  O33  1  0.04190000  0.84390000  0.24280000  1.0 -0.547360846
O  O34  1  0.95810000  0.84390000  0.75720000  1.0 -0.547360846
O  O35  1  0.75720000  0.95810000  0.84390000  1.0 -0.547360846
O  O36  1  0.84390000  0.75720000  0.95810000  1.0 -0.547360846
O  O37  1  0.45810000  0.34390000  0.74280000  1.0 -0.547360846
O  O38  1  0.74280000  0.45810000  0.34390000  1.0 -0.547360846
O  O39  1  0.34390000  0.74280000  0.45810000  1.0 -0.547360846
O  O40  1  0.25720000  0.45810000  0.65610000  1.0 -0.547360846
O  O41  1  0.65610000  0.25720000  0.45810000  1.0 -0.547360846
O  O42  1  0.34390000  0.25720000  0.54190000  1.0 -0.547360846
O  O43  1  0.54190000  0.34390000  0.25720000  1.0 -0.547360846
O  O44  1  0.25720000  0.54190000  0.34390000  1.0 -0.547360846
O  O45  1  0.45810000  0.65610000  0.25720000  1.0 -0.547360846
O  O46  1  0.54190000  0.65610000  0.74280000  1.0 -0.547360846
O  O47  1  0.74280000  0.54190000  0.65610000  1.0 -0.547360846
O  O48  1  0.65610000  0.74280000  0.54190000  1.0 -0.547360846
O  O49  1  0.15710000  0.45560000  0.77090000  1.0 -0.6903602069
O  O50  1  0.77090000  0.15710000  0.45560000  1.0 -0.6903602069
O  O51  1  0.45560000  0.77090000  0.15710000  1.0 -0.6903602069
O  O52  1  0.22910000  0.15710000  0.54440000  1.0 -0.6903602069
O  O53  1  0.54440000  0.22910000  0.15710000  1.0 -0.6903602069
O  O54  1  0.45560000  0.22910000  0.84290000  1.0 -0.6903602069
O  O55  1  0.84290000  0.45560000  0.22910000  1.0 -0.6903602069
O  O56  1  0.22910000  0.84290000  0.45560000  1.0 -0.6903602069
O  O57  1  0.15710000  0.54440000  0.22910000  1.0 -0.6903602069
O  O58  1  0.84290000  0.54440000  0.77090000  1.0 -0.6903602069
O  O59  1  0.77090000  0.84290000  0.54440000  1.0 -0.6903602069
O  O60  1  0.54440000  0.77090000  0.84290000  1.0 -0.6903602069
O  O61  1  0.34290000  0.04440000  0.72910000  1.0 -0.6903602069
O  O62  1  0.72910000  0.34290000  0.04440000  1.0 -0.6903602069
O  O63  1  0.04440000  0.72910000  0.34290000  1.0 -0.6903602069
O  O64  1  0.27090000  0.34290000  0.95560000  1.0 -0.6903602069
O  O65  1  0.95560000  0.27090000  0.34290000  1.0 -0.6903602069
O  O66  1  0.04440000  0.27090000  0.65710000  1.0 -0.6903602069
O  O67  1  0.65710000  0.04440000  0.27090000  1.0 -0.6903602069
O  O68  1  0.27090000  0.65710000  0.04440000  1.0 -0.6903602069
O  O69  1  0.34290000  0.95560000  0.27090000  1.0 -0.6903602069
O  O70  1  0.65710000  0.95560000  0.72910000  1.0 -0.6903602069
O  O71  1  0.72910000  0.65710000  0.95560000  1.0 -0.6903602069
O  O72  1  0.95560000  0.72910000  0.65710000  1.0 -0.6903602069
O  O73  1  0.12290000  0.06400000  0.74630000  1.0 -0.6462085307
O  O74  1  0.74630000  0.12290000  0.06400000  1.0 -0.6462085307
O  O75  1  0.06400000  0.74630000  0.12290000  1.0 -0.6462085307
O  O76  1  0.25370000  0.12290000  0.93600000  1.0 -0.6462085307
O  O77  1  0.93600000  0.25370000  0.12290000  1.0 -0.6462085307
O  O78  1  0.06400000  0.25370000  0.87710000  1.0 -0.6462085307
O  O79  1  0.87710000  0.06400000  0.25370000  1.0 -0.6462085307
O  O80  1  0.25370000  0.87710000  0.06400000  1.0 -0.6462085307
O  O81  1  0.12290000  0.93600000  0.25370000  1.0 -0.6462085307
O  O82  1  0.87710000  0.93600000  0.74630000  1.0 -0.6462085307
O  O83  1  0.74630000  0.87710000  0.93600000  1.0 -0.6462085307
O  O84  1  0.93600000  0.74630000  0.87710000  1.0 -0.6462085307
O  O85  1  0.37710000  0.43600000  0.75370000  1.0 -0.6462085307
O  O86  1  0.75370000  0.37710000  0.43600000  1.0 -0.6462085307
O  O87  1  0.43600000  0.75370000  0.37710000  1.0 -0.6462085307
O  O88  1  0.24630000  0.37710000  0.56400000  1.0 -0.6462085307
O  O89  1  0.56400000  0.24630000  0.37710000  1.0 -0.6462085307
O  O90  1  0.43600000  0.24630000  0.62290000  1.0 -0.6462085307
O  O91  1  0.62290000  0.43600000  0.24630000  1.0 -0.6462085307
O  O92  1  0.24630000  0.62290000  0.43600000  1.0 -0.6462085307
O  O93  1  0.37710000  0.56400000  0.24630000  1.0 -0.6462085307
O  O94  1  0.62290000  0.56400000  0.75370000  1.0 -0.6462085307
O  O95  1  0.75370000  0.62290000  0.56400000  1.0 -0.6462085307
O  O96  1  0.56400000  0.75370000  0.62290000  1.0 -0.6462085307
O  O97  1  0.18620000  0.32710000  0.84040000  1.0 -0.3655520862
O  O98  1  0.84040000  0.18620000  0.32710000  1.0 -0.3646185269
O  O99  1  0.32710000  0.84040000  0.18620000  1.0 -0.3646185269
O  O100  1  0.15960000  0.18620000  0.67290000  1.0 -0.3655520862
O  O101  1  0.67290000  0.15960000  0.18620000  1.0 -0.3646185269
O  O102  1  0.32710000  0.15960000  0.81380000  1.0 -0.3655520862
O  O103  1  0.81380000  0.32710000  0.15960000  1.0 -0.3646185269
O  O104  1  0.15960000  0.81380000  0.32710000  1.0 -0.3646185269
O  O105  1  0.18620000  0.67290000  0.15960000  1.0 -0.3646185269
O  O106  1  0.81380000  0.67290000  0.84040000  1.0 -0.3646185269
O  O107  1  0.84040000  0.81380000  0.67290000  1.0 -0.3646185269
O  O108  1  0.67290000  0.84040000  0.81380000  1.0 -0.3646185269
O  O109  1  0.31380000  0.17290000  0.65960000  1.0 -0.3655520862
O  O110  1  0.65960000  0.31380000  0.17290000  1.0 -0.3646185269
O  O111  1  0.17290000  0.65960000  0.31380000  1.0 -0.3646185269
O  O112  1  0.34040000  0.31380000  0.82710000  1.0 -0.3646185269
O  O113  1  0.82710000  0.34040000  0.31380000  1.0 -0.3646185269
O  O114  1  0.17290000  0.34040000  0.68620000  1.0 -0.3655520862
O  O115  1  0.68620000  0.17290000  0.34040000  1.0 -0.3646185269
O  O116  1  0.34040000  0.68620000  0.17290000  1.0 -0.3646185269
O  O117  1  0.31380000  0.82710000  0.34040000  1.0 -0.3646185269
O  O118  1  0.68620000  0.82710000  0.65960000  1.0 -0.3646185269
O  O119  1  0.65960000  0.68620000  0.82710000  1.0 -0.3646185269
O  O120  1  0.82710000  0.65960000  0.68620000  1.0 -0.3646185269
O  O121  1  0.18820000  0.18820000  0.81180000  1.0 -0.7968691995
O  O122  1  0.81180000  0.18820000  0.18820000  1.0 -0.7968691995
O  O123  1  0.18820000  0.81180000  0.18820000  1.0 -0.7968691995
O  O124  1  0.81180000  0.81180000  0.81180000  1.0 -0.7968691995
O  O125  1  0.31180000  0.31180000  0.68820000  1.0 -0.7968691995
O  O126  1  0.68820000  0.31180000  0.31180000  1.0 -0.7968691995
O  O127  1  0.31180000  0.68820000  0.31180000  1.0 -0.7968691995
O  O128  1  0.68820000  0.68820000  0.68820000  1.0 -0.7968691995
O  O129  1  0.19990000  0.30610000  0.81620000  1.0 -0.3402176497
O  O130  1  0.81620000  0.19990000  0.30610000  1.0 -0.3402176497
O  O131  1  0.30610000  0.81620000  0.19990000  1.0 -0.3402176497
O  O132  1  0.18380000  0.19990000  0.69390000  1.0 -0.3402176497
O  O133  1  0.69390000  0.18380000  0.19990000  1.0 -0.3402176497
O  O134  1  0.30610000  0.18380000  0.80010000  1.0 -0.3402176497
O  O135  1  0.80010000  0.30610000  0.18380000  1.0 -0.3402176497
O  O136  1  0.18380000  0.80010000  0.30610000  1.0 -0.3402176497
O  O137  1  0.19990000  0.69390000  0.18380000  1.0 -0.3402176497
O  O138  1  0.80010000  0.69390000  0.81620000  1.0 -0.3402176497
O  O139  1  0.81620000  0.80010000  0.69390000  1.0 -0.3402176497
O  O140  1  0.69390000  0.81620000  0.80010000  1.0 -0.3402176497
O  O141  1  0.30010000  0.19390000  0.68380000  1.0 -0.3402176497
O  O142  1  0.68380000  0.30010000  0.19390000  1.0 -0.3402176497
O  O143  1  0.19390000  0.68380000  0.30010000  1.0 -0.3402176497
O  O144  1  0.31620000  0.30010000  0.80610000  1.0 -0.3402176497
O  O145  1  0.80610000  0.31620000  0.30010000  1.0 -0.3402176497
O  O146  1  0.19390000  0.31620000  0.69990000  1.0 -0.3402176497
O  O147  1  0.69990000  0.19390000  0.31620000  1.0 -0.3402176497
O  O148  1  0.31620000  0.69990000  0.19390000  1.0 -0.3402176497
O  O149  1  0.30010000  0.80610000  0.31620000  1.0 -0.3402176497
O  O150  1  0.69990000  0.80610000  0.68380000  1.0 -0.3402176497
O  O151  1  0.68380000  0.69990000  0.80610000  1.0 -0.3402176497
O  O152  1  0.80610000  0.68380000  0.69990000  1.0 -0.3402176497
O  O153  1  0.17600000  0.17600000  0.82400000  1.0 -0.8577056563
O  O154  1  0.82400000  0.17600000  0.17600000  1.0 -0.8577056563
O  O155  1  0.17600000  0.82400000  0.17600000  1.0 -0.8577056563
O  O156  1  0.82400000  0.82400000  0.82400000  1.0 -0.8577056563
O  O157  1  0.32400000  0.32400000  0.67600000  1.0 -0.8577056563
O  O158  1  0.67600000  0.32400000  0.32400000  1.0 -0.8577056563
O  O159  1  0.32400000  0.67600000  0.32400000  1.0 -0.8577056563
O  O160  1  0.67600000  0.67600000  0.67600000  1.0 -0.8577056563
