# DDEC6 charges by PACMAN v1.1 (https://github.com/mtap-research/PACMAN-charge/)
data_BOMMOH_FSR_pacman
_symmetry_space_group_name_H-M   'P 1'
_cell_length_a   24.97780000
_cell_length_b   24.97780000
_cell_length_c   24.97780000
_cell_angle_alpha   60.00000000
_cell_angle_beta   60.00000000
_cell_angle_gamma   60.00000000
_symmetry_Int_Tables_number   1
_chemical_formula_structural   Zr3H3C9(S3O19)2
_chemical_formula_sum   'Zr24 H24 C72 S48 O304'
_cell_volume   11019.13626532
_cell_formula_units_Z   8
loop_
 _symmetry_equiv_pos_site_id
 _symmetry_equiv_pos_as_xyz
  1  'x, y, z'
loop_
 _atom_site_type_symbol
 _atom_site_label
 _atom_site_symmetry_multiplicity
 _atom_site_fract_x
 _atom_site_fract_y
 _atom_site_fract_z
 _atom_site_occupancy
 _atom_site_charge
Zr  Zr1  1  0.00873000  0.14735000  0.14735000  1.0 2.0455748648
Zr  Zr2  1  0.14735000  0.00873000  0.69657000  1.0 2.0438836271
Zr  Zr3  1  0.14735000  0.69657000  0.00873000  1.0 2.0438836271
Zr  Zr4  1  0.69657000  0.14735000  0.14735000  1.0 2.0438836271
Zr  Zr5  1  0.14735000  0.00873000  0.14735000  1.0 2.0438836271
Zr  Zr6  1  0.69657000  0.14735000  0.00873000  1.0 2.0438836271
Zr  Zr7  1  0.00873000  0.14735000  0.69657000  1.0 2.0438836271
Zr  Zr8  1  0.14735000  0.69657000  0.14735000  1.0 2.0438836271
Zr  Zr9  1  0.14735000  0.14735000  0.00873000  1.0 2.0438836271
Zr  Zr10  1  0.00873000  0.69657000  0.14735000  1.0 2.0438836271
Zr  Zr11  1  0.69657000  0.00873000  0.14735000  1.0 2.0438836271
Zr  Zr12  1  0.14735000  0.14735000  0.69657000  1.0 2.0438836271
Zr  Zr13  1  0.24127000  0.10265000  0.55343000  1.0 2.0438836271
Zr  Zr14  1  0.10265000  0.24127000  0.10265000  1.0 2.0438836271
Zr  Zr15  1  0.10265000  0.55343000  0.10265000  1.0 2.0438836271
Zr  Zr16  1  0.55343000  0.10265000  0.24127000  1.0 2.0438836271
Zr  Zr17  1  0.10265000  0.24127000  0.55343000  1.0 2.0438836271
Zr  Zr18  1  0.55343000  0.10265000  0.10265000  1.0 2.0438836271
Zr  Zr19  1  0.24127000  0.10265000  0.10265000  1.0 2.0438836271
Zr  Zr20  1  0.10265000  0.55343000  0.24127000  1.0 2.0438836271
Zr  Zr21  1  0.10265000  0.10265000  0.55343000  1.0 2.0438836271
Zr  Zr22  1  0.24127000  0.55343000  0.10265000  1.0 2.0438836271
Zr  Zr23  1  0.55343000  0.24127000  0.10265000  1.0 2.0438836271
Zr  Zr24  1  0.10265000  0.10265000  0.24127000  1.0 2.0438836271
H  H1  1  0.88400000  0.04960000  0.18240000  1.0 0.1345419124
H  H2  1  0.04960000  0.88400000  0.88400000  1.0 0.1345419124
H  H3  1  0.18240000  0.88400000  0.88400000  1.0 0.1345419124
H  H4  1  0.88400000  0.18240000  0.04960000  1.0 0.1345419124
H  H5  1  0.18240000  0.88400000  0.04960000  1.0 0.1345419124
H  H6  1  0.88400000  0.04960000  0.88400000  1.0 0.1345419124
H  H7  1  0.88400000  0.18240000  0.88400000  1.0 0.1345419124
H  H8  1  0.04960000  0.88400000  0.18240000  1.0 0.1345419124
H  H9  1  0.04960000  0.18240000  0.88400000  1.0 0.1345419124
H  H10  1  0.88400000  0.88400000  0.04960000  1.0 0.1345419124
H  H11  1  0.88400000  0.88400000  0.18240000  1.0 0.1345419124
H  H12  1  0.18240000  0.04960000  0.88400000  1.0 0.1345419124
H  H13  1  0.36600000  0.20040000  0.36600000  1.0 0.1345419124
H  H14  1  0.20040000  0.36600000  0.06760000  1.0 0.1345419124
H  H15  1  0.06760000  0.36600000  0.20040000  1.0 0.1345419124
H  H16  1  0.36600000  0.06760000  0.36600000  1.0 0.1345419124
H  H17  1  0.06760000  0.36600000  0.36600000  1.0 0.1345419124
H  H18  1  0.36600000  0.20040000  0.06760000  1.0 0.1345419124
H  H19  1  0.36600000  0.06760000  0.20040000  1.0 0.1345419124
H  H20  1  0.20040000  0.36600000  0.36600000  1.0 0.1345419124
H  H21  1  0.20040000  0.06760000  0.36600000  1.0 0.1345419124
H  H22  1  0.36600000  0.36600000  0.06760000  1.0 0.1345419124
H  H23  1  0.36600000  0.36600000  0.20040000  1.0 0.1345419124
H  H24  1  0.06760000  0.20040000  0.36600000  1.0 0.1345419124
C  C1  1  0.00722000  0.00722000  0.17780000  1.0 0.6312322677
C  C2  1  0.00722000  0.00722000  0.80776000  1.0 0.6312322677
C  C3  1  0.17780000  0.80776000  0.00722000  1.0 0.6312322677
C  C4  1  0.80776000  0.17780000  0.00722000  1.0 0.6312322677
C  C5  1  0.17780000  0.00722000  0.00722000  1.0 0.6312322677
C  C6  1  0.80776000  0.00722000  0.00722000  1.0 0.6312322677
C  C7  1  0.00722000  0.17780000  0.80776000  1.0 0.6312322677
C  C8  1  0.00722000  0.80776000  0.17780000  1.0 0.6312322677
C  C9  1  0.00722000  0.17780000  0.00722000  1.0 0.6312322677
C  C10  1  0.00722000  0.80776000  0.00722000  1.0 0.6312322677
C  C11  1  0.80776000  0.00722000  0.17780000  1.0 0.6312322677
C  C12  1  0.17780000  0.00722000  0.80776000  1.0 0.6312322677
C  C13  1  0.24278000  0.24278000  0.44224000  1.0 0.6312322677
C  C14  1  0.24278000  0.24278000  0.07220000  1.0 0.6312322677
C  C15  1  0.07220000  0.44224000  0.24278000  1.0 0.6312322677
C  C16  1  0.44224000  0.07220000  0.24278000  1.0 0.6312322677
C  C17  1  0.07220000  0.24278000  0.44224000  1.0 0.6312322677
C  C18  1  0.44224000  0.24278000  0.07220000  1.0 0.6312322677
C  C19  1  0.24278000  0.07220000  0.24278000  1.0 0.6312322677
C  C20  1  0.24278000  0.44224000  0.24278000  1.0 0.6312322677
C  C21  1  0.24278000  0.07220000  0.44224000  1.0 0.6312322677
C  C22  1  0.24278000  0.44224000  0.07220000  1.0 0.6312322677
C  C23  1  0.44224000  0.24278000  0.24278000  1.0 0.6312322677
C  C24  1  0.07220000  0.24278000  0.24278000  1.0 0.6312322677
C  C25  1  0.90688000  0.00374000  0.18250000  1.0 -0.0921886707
C  C26  1  0.00374000  0.90688000  0.90688000  1.0 -0.0921886707
C  C27  1  0.18250000  0.90688000  0.90688000  1.0 -0.0921886707
C  C28  1  0.90688000  0.18250000  0.00374000  1.0 -0.0921886707
C  C29  1  0.18250000  0.90688000  0.00374000  1.0 -0.0921886707
C  C30  1  0.90688000  0.00374000  0.90688000  1.0 -0.0921886707
C  C31  1  0.90688000  0.18250000  0.90688000  1.0 -0.0921886707
C  C32  1  0.00374000  0.90688000  0.18250000  1.0 -0.0921886707
C  C33  1  0.00374000  0.18250000  0.90688000  1.0 -0.0921886707
C  C34  1  0.90688000  0.90688000  0.00374000  1.0 -0.0921886707
C  C35  1  0.90688000  0.90688000  0.18250000  1.0 -0.0921886707
C  C36  1  0.18250000  0.00374000  0.90688000  1.0 -0.0921886707
C  C37  1  0.34312000  0.24626000  0.34312000  1.0 -0.0921886707
C  C38  1  0.24626000  0.34312000  0.06750000  1.0 -0.0921886707
C  C39  1  0.06750000  0.34312000  0.24626000  1.0 -0.0921886707
C  C40  1  0.34312000  0.06750000  0.34312000  1.0 -0.0921886707
C  C41  1  0.06750000  0.34312000  0.34312000  1.0 -0.0921886707
C  C42  1  0.34312000  0.24626000  0.06750000  1.0 -0.0921886707
C  C43  1  0.34312000  0.06750000  0.24626000  1.0 -0.0921886707
C  C44  1  0.24626000  0.34312000  0.34312000  1.0 -0.0921886707
C  C45  1  0.24626000  0.06750000  0.34312000  1.0 -0.0921886707
C  C46  1  0.34312000  0.34312000  0.06750000  1.0 -0.0921886707
C  C47  1  0.34312000  0.34312000  0.24626000  1.0 -0.0921886707
C  C48  1  0.06750000  0.24626000  0.34312000  1.0 -0.0921886707
C  C49  1  0.97128000  0.97128000  0.18290000  1.0 -0.0403371841
C  C50  1  0.97128000  0.97128000  0.87454000  1.0 -0.0403371841
C  C51  1  0.18290000  0.87454000  0.97128000  1.0 -0.0403371841
C  C52  1  0.87454000  0.18290000  0.97128000  1.0 -0.0403371841
C  C53  1  0.18290000  0.97128000  0.97128000  1.0 -0.0403371841
C  C54  1  0.87454000  0.97128000  0.97128000  1.0 -0.0403371841
C  C55  1  0.97128000  0.18290000  0.87454000  1.0 -0.0403371841
C  C56  1  0.97128000  0.87454000  0.18290000  1.0 -0.0403371841
C  C57  1  0.97128000  0.18290000  0.97128000  1.0 -0.0403371841
C  C58  1  0.97128000  0.87454000  0.97128000  1.0 -0.0403371841
C  C59  1  0.87454000  0.97128000  0.18290000  1.0 -0.0403371841
C  C60  1  0.18290000  0.97128000  0.87454000  1.0 -0.0403371841
C  C61  1  0.27872000  0.27872000  0.37546000  1.0 -0.0403371841
C  C62  1  0.27872000  0.27872000  0.06710000  1.0 -0.0403371841
C  C63  1  0.06710000  0.37546000  0.27872000  1.0 -0.0403371841
C  C64  1  0.37546000  0.06710000  0.27872000  1.0 -0.0403371841
C  C65  1  0.06710000  0.27872000  0.37546000  1.0 -0.0403371841
C  C66  1  0.37546000  0.27872000  0.06710000  1.0 -0.0403371841
C  C67  1  0.27872000  0.06710000  0.27872000  1.0 -0.0403371841
C  C68  1  0.27872000  0.37546000  0.27872000  1.0 -0.0403371841
C  C69  1  0.27872000  0.06710000  0.37546000  1.0 -0.0403371841
C  C70  1  0.27872000  0.37546000  0.06710000  1.0 -0.0403371841
C  C71  1  0.37546000  0.27872000  0.27872000  1.0 -0.0403371841
C  C72  1  0.06710000  0.27872000  0.27872000  1.0 -0.0403371841
S  S1  1  0.88210000  0.22110000  0.22110000  1.0 1.0764999111
S  S2  1  0.22110000  0.88210000  0.67570000  1.0 1.0764999111
S  S3  1  0.22110000  0.67570000  0.88210000  1.0 1.0764999111
S  S4  1  0.67570000  0.22110000  0.22110000  1.0 1.0764999111
S  S5  1  0.22110000  0.88210000  0.22110000  1.0 1.0764999111
S  S6  1  0.67570000  0.22110000  0.88210000  1.0 1.0764999111
S  S7  1  0.88210000  0.22110000  0.67570000  1.0 1.0764999111
S  S8  1  0.22110000  0.67570000  0.22110000  1.0 1.0764999111
S  S9  1  0.22110000  0.22110000  0.88210000  1.0 1.0764999111
S  S10  1  0.88210000  0.67570000  0.22110000  1.0 1.0764999111
S  S11  1  0.67570000  0.88210000  0.22110000  1.0 1.0764999111
S  S12  1  0.22110000  0.22110000  0.67570000  1.0 1.0764999111
S  S13  1  0.36790000  0.02890000  0.57430000  1.0 1.0764999111
S  S14  1  0.02890000  0.36790000  0.02890000  1.0 1.0764999111
S  S15  1  0.02890000  0.57430000  0.02890000  1.0 1.0764999111
S  S16  1  0.57430000  0.02890000  0.36790000  1.0 1.0764999111
S  S17  1  0.02890000  0.36790000  0.57430000  1.0 1.0764999111
S  S18  1  0.57430000  0.02890000  0.02890000  1.0 1.0737163634
S  S19  1  0.36790000  0.02890000  0.02890000  1.0 1.0737163634
S  S20  1  0.02890000  0.57430000  0.36790000  1.0 1.0764999111
S  S21  1  0.02890000  0.02890000  0.57430000  1.0 1.0764999111
S  S22  1  0.36790000  0.57430000  0.02890000  1.0 1.0764999111
S  S23  1  0.57430000  0.36790000  0.02890000  1.0 1.0764999111
S  S24  1  0.02890000  0.02890000  0.36790000  1.0 1.0764999111
S  S25  1  0.93520000  0.31480000  0.12500000  1.0 0.8981700058
S  S26  1  0.31480000  0.93520000  0.62500000  1.0 0.8981700058
S  S27  1  0.12500000  0.62500000  0.93520000  1.0 0.8981700058
S  S28  1  0.62500000  0.12500000  0.31480000  1.0 0.8981700058
S  S29  1  0.12500000  0.93520000  0.31480000  1.0 0.8981700058
S  S30  1  0.62500000  0.31480000  0.93520000  1.0 0.8981700058
S  S31  1  0.93520000  0.12500000  0.62500000  1.0 0.9090714664
S  S32  1  0.31480000  0.62500000  0.12500000  1.0 0.8981700058
S  S33  1  0.31480000  0.12500000  0.93520000  1.0 0.8981700058
S  S34  1  0.93520000  0.62500000  0.31480000  1.0 0.8981700058
S  S35  1  0.62500000  0.93520000  0.12500000  1.0 0.8981700058
S  S36  1  0.12500000  0.31480000  0.62500000  1.0 0.8981700058
S  S37  1  0.31480000  0.93520000  0.12500000  1.0 0.8981700058
S  S38  1  0.93520000  0.31480000  0.62500000  1.0 0.9090714664
S  S39  1  0.12500000  0.62500000  0.31480000  1.0 0.8981700058
S  S40  1  0.62500000  0.12500000  0.93520000  1.0 0.8981700058
S  S41  1  0.12500000  0.31480000  0.93520000  1.0 0.8981700058
S  S42  1  0.62500000  0.93520000  0.31480000  1.0 0.8981700058
S  S43  1  0.31480000  0.12500000  0.62500000  1.0 0.9090714664
S  S44  1  0.93520000  0.62500000  0.12500000  1.0 0.8981700058
S  S45  1  0.93520000  0.12500000  0.31480000  1.0 0.8981700058
S  S46  1  0.31480000  0.62500000  0.93520000  1.0 0.9090714664
S  S47  1  0.62500000  0.31480000  0.12500000  1.0 0.8981700058
S  S48  1  0.12500000  0.93520000  0.62500000  1.0 0.9090714664
O  O1  1  0.81670000  0.23470000  0.23470000  1.0 -0.3469090451
O  O2  1  0.23470000  0.81670000  0.71390000  1.0 -0.3469090451
O  O3  1  0.23470000  0.71390000  0.81670000  1.0 -0.3469090451
O  O4  1  0.71390000  0.23470000  0.23470000  1.0 -0.3469090451
O  O5  1  0.23470000  0.81670000  0.23470000  1.0 -0.3469090451
O  O6  1  0.71390000  0.23470000  0.81670000  1.0 -0.3469090451
O  O7  1  0.81670000  0.23470000  0.71390000  1.0 -0.3469090451
O  O8  1  0.23470000  0.71390000  0.23470000  1.0 -0.3469090451
O  O9  1  0.23470000  0.23470000  0.81670000  1.0 -0.3469090451
O  O10  1  0.81670000  0.71390000  0.23470000  1.0 -0.3469090451
O  O11  1  0.71390000  0.81670000  0.23470000  1.0 -0.3469090451
O  O12  1  0.23470000  0.23470000  0.71390000  1.0 -0.3469090451
O  O13  1  0.43330000  0.01530000  0.53610000  1.0 -0.3469090451
O  O14  1  0.01530000  0.43330000  0.01530000  1.0 -0.3469090451
O  O15  1  0.01530000  0.53610000  0.01530000  1.0 -0.3469090451
O  O16  1  0.53610000  0.01530000  0.43330000  1.0 -0.3469090451
O  O17  1  0.01530000  0.43330000  0.53610000  1.0 -0.3469090451
O  O18  1  0.53610000  0.01530000  0.01530000  1.0 -0.3469090451
O  O19  1  0.43330000  0.01530000  0.01530000  1.0 -0.3469090451
O  O20  1  0.01530000  0.53610000  0.43330000  1.0 -0.3469090451
O  O21  1  0.01530000  0.01530000  0.53610000  1.0 -0.3469090451
O  O22  1  0.43330000  0.53610000  0.01530000  1.0 -0.3469090451
O  O23  1  0.53610000  0.43330000  0.01530000  1.0 -0.3469090451
O  O24  1  0.01530000  0.01530000  0.43330000  1.0 -0.3469090451
O  O25  1  0.92820000  0.24600000  0.14500000  1.0 -0.529877104
O  O26  1  0.24600000  0.92820000  0.68080000  1.0 -0.529877104
O  O27  1  0.14500000  0.68080000  0.92820000  1.0 -0.529877104
O  O28  1  0.68080000  0.14500000  0.24600000  1.0 -0.529877104
O  O29  1  0.14500000  0.92820000  0.24600000  1.0 -0.529877104
O  O30  1  0.68080000  0.24600000  0.92820000  1.0 -0.529877104
O  O31  1  0.92820000  0.14500000  0.68080000  1.0 -0.529877104
O  O32  1  0.24600000  0.68080000  0.14500000  1.0 -0.529877104
O  O33  1  0.24600000  0.14500000  0.92820000  1.0 -0.529877104
O  O34  1  0.92820000  0.68080000  0.24600000  1.0 -0.529877104
O  O35  1  0.68080000  0.92820000  0.14500000  1.0 -0.529877104
O  O36  1  0.14500000  0.24600000  0.68080000  1.0 -0.529877104
O  O37  1  0.32180000  0.00400000  0.56920000  1.0 -0.529877104
O  O38  1  0.00400000  0.32180000  0.10500000  1.0 -0.529877104
O  O39  1  0.10500000  0.56920000  0.00400000  1.0 -0.529877104
O  O40  1  0.56920000  0.10500000  0.32180000  1.0 -0.529877104
O  O41  1  0.10500000  0.32180000  0.56920000  1.0 -0.529877104
O  O42  1  0.56920000  0.00400000  0.10500000  1.0 -0.529877104
O  O43  1  0.32180000  0.10500000  0.00400000  1.0 -0.529877104
O  O44  1  0.00400000  0.56920000  0.32180000  1.0 -0.529877104
O  O45  1  0.00400000  0.10500000  0.56920000  1.0 -0.529877104
O  O46  1  0.32180000  0.56920000  0.10500000  1.0 -0.529877104
O  O47  1  0.56920000  0.32180000  0.00400000  1.0 -0.529877104
O  O48  1  0.10500000  0.00400000  0.32180000  1.0 -0.529877104
O  O49  1  0.32180000  0.00400000  0.10500000  1.0 -0.529877104
O  O50  1  0.00400000  0.32180000  0.56920000  1.0 -0.529877104
O  O51  1  0.10500000  0.56920000  0.32180000  1.0 -0.529877104
O  O52  1  0.56920000  0.10500000  0.00400000  1.0 -0.529877104
O  O53  1  0.10500000  0.32180000  0.00400000  1.0 -0.529877104
O  O54  1  0.56920000  0.00400000  0.32180000  1.0 -0.529877104
O  O55  1  0.32180000  0.10500000  0.56920000  1.0 -0.529877104
O  O56  1  0.00400000  0.56920000  0.10500000  1.0 -0.529877104
O  O57  1  0.00400000  0.10500000  0.32180000  1.0 -0.529877104
O  O58  1  0.32180000  0.56920000  0.00400000  1.0 -0.529877104
O  O59  1  0.56920000  0.32180000  0.10500000  1.0 -0.529877104
O  O60  1  0.10500000  0.00400000  0.56920000  1.0 -0.529877104
O  O61  1  0.92820000  0.24600000  0.68080000  1.0 -0.529877104
O  O62  1  0.24600000  0.92820000  0.14500000  1.0 -0.529877104
O  O63  1  0.14500000  0.68080000  0.24600000  1.0 -0.529877104
O  O64  1  0.68080000  0.14500000  0.92820000  1.0 -0.529877104
O  O65  1  0.14500000  0.92820000  0.68080000  1.0 -0.529877104
O  O66  1  0.68080000  0.24600000  0.14500000  1.0 -0.529877104
O  O67  1  0.92820000  0.14500000  0.24600000  1.0 -0.529877104
O  O68  1  0.24600000  0.68080000  0.92820000  1.0 -0.529877104
O  O69  1  0.24600000  0.14500000  0.68080000  1.0 -0.529877104
O  O70  1  0.92820000  0.68080000  0.14500000  1.0 -0.529877104
O  O71  1  0.68080000  0.92820000  0.24600000  1.0 -0.529877104
O  O72  1  0.14500000  0.24600000  0.92820000  1.0 -0.529877104
O  O73  1  0.88820000  0.25660000  0.25660000  1.0 0.1960421698
O  O74  1  0.25660000  0.88820000  0.59860000  1.0 0.1960421698
O  O75  1  0.25660000  0.59860000  0.88820000  1.0 0.1960421698
O  O76  1  0.59860000  0.25660000  0.25660000  1.0 0.1960421698
O  O77  1  0.25660000  0.88820000  0.25660000  1.0 0.1960421698
O  O78  1  0.59860000  0.25660000  0.88820000  1.0 0.1960421698
O  O79  1  0.88820000  0.25660000  0.59860000  1.0 0.1949935765
O  O80  1  0.25660000  0.59860000  0.25660000  1.0 0.1960421698
O  O81  1  0.25660000  0.25660000  0.88820000  1.0 0.1960421698
O  O82  1  0.88820000  0.59860000  0.25660000  1.0 0.1960421698
O  O83  1  0.59860000  0.88820000  0.25660000  1.0 0.1960421698
O  O84  1  0.25660000  0.25660000  0.59860000  1.0 0.1949935765
O  O85  1  0.36180000  0.99340000  0.65140000  1.0 0.1960421698
O  O86  1  0.99340000  0.36180000  0.99340000  1.0 0.1960421698
O  O87  1  0.99340000  0.65140000  0.99340000  1.0 0.1960421698
O  O88  1  0.65140000  0.99340000  0.36180000  1.0 0.1960421698
O  O89  1  0.99340000  0.36180000  0.65140000  1.0 0.1960421698
O  O90  1  0.65140000  0.99340000  0.99340000  1.0 0.1960421698
O  O91  1  0.36180000  0.99340000  0.99340000  1.0 0.1960421698
O  O92  1  0.99340000  0.65140000  0.36180000  1.0 0.1960421698
O  O93  1  0.99340000  0.99340000  0.65140000  1.0 0.1960421698
O  O94  1  0.36180000  0.65140000  0.99340000  1.0 0.1960421698
O  O95  1  0.65140000  0.36180000  0.99340000  1.0 0.1960421698
O  O96  1  0.99340000  0.99340000  0.36180000  1.0 0.1960421698
O  O97  1  0.09680000  0.09680000  0.09680000  1.0 -0.3726189746
O  O98  1  0.09680000  0.09680000  0.70960000  1.0 -0.3726189746
O  O99  1  0.09680000  0.70960000  0.09680000  1.0 -0.3726189746
O  O100  1  0.70960000  0.09680000  0.09680000  1.0 -0.3726189746
O  O101  1  0.15320000  0.15320000  0.54040000  1.0 -0.3726189746
O  O102  1  0.15320000  0.15320000  0.15320000  1.0 -0.3726189746
O  O103  1  0.15320000  0.54040000  0.15320000  1.0 -0.3726189746
O  O104  1  0.54040000  0.15320000  0.15320000  1.0 -0.3726189746
O  O105  1  0.97629000  0.06639000  0.17525000  1.0 -0.5921885448
O  O106  1  0.06639000  0.97629000  0.78207000  1.0 -0.5921885448
O  O107  1  0.17525000  0.78207000  0.97629000  1.0 -0.5921885448
O  O108  1  0.78207000  0.17525000  0.06639000  1.0 -0.5921885448
O  O109  1  0.17525000  0.97629000  0.06639000  1.0 -0.5921885448
O  O110  1  0.78207000  0.06639000  0.97629000  1.0 -0.5921885448
O  O111  1  0.97629000  0.17525000  0.78207000  1.0 -0.5921885448
O  O112  1  0.06639000  0.78207000  0.17525000  1.0 -0.5921885448
O  O113  1  0.06639000  0.17525000  0.97629000  1.0 -0.5921885448
O  O114  1  0.97629000  0.78207000  0.06639000  1.0 -0.5921885448
O  O115  1  0.78207000  0.97629000  0.17525000  1.0 -0.5921885448
O  O116  1  0.17525000  0.06639000  0.78207000  1.0 -0.5921885448
O  O117  1  0.27371000  0.18361000  0.46793000  1.0 -0.5921885448
O  O118  1  0.18361000  0.27371000  0.07475000  1.0 -0.5921885448
O  O119  1  0.07475000  0.46793000  0.18361000  1.0 -0.5921885448
O  O120  1  0.46793000  0.07475000  0.27371000  1.0 -0.5921885448
O  O121  1  0.07475000  0.27371000  0.46793000  1.0 -0.5921885448
O  O122  1  0.46793000  0.18361000  0.07475000  1.0 -0.5921885448
O  O123  1  0.27371000  0.07475000  0.18361000  1.0 -0.5921885448
O  O124  1  0.18361000  0.46793000  0.27371000  1.0 -0.5921885448
O  O125  1  0.18361000  0.07475000  0.46793000  1.0 -0.5921885448
O  O126  1  0.27371000  0.46793000  0.07475000  1.0 -0.5921885448
O  O127  1  0.46793000  0.27371000  0.18361000  1.0 -0.5921885448
O  O128  1  0.07475000  0.18361000  0.27371000  1.0 -0.5921885448
O  O129  1  0.27371000  0.18361000  0.07475000  1.0 -0.5921885448
O  O130  1  0.18361000  0.27371000  0.46793000  1.0 -0.5921885448
O  O131  1  0.07475000  0.46793000  0.27371000  1.0 -0.5921885448
O  O132  1  0.46793000  0.07475000  0.18361000  1.0 -0.5921885448
O  O133  1  0.07475000  0.27371000  0.18361000  1.0 -0.5921885448
O  O134  1  0.46793000  0.18361000  0.27371000  1.0 -0.5921885448
O  O135  1  0.27371000  0.07475000  0.46793000  1.0 -0.5921885448
O  O136  1  0.18361000  0.46793000  0.07475000  1.0 -0.5921885448
O  O137  1  0.18361000  0.07475000  0.27371000  1.0 -0.5921885448
O  O138  1  0.27371000  0.46793000  0.18361000  1.0 -0.5921885448
O  O139  1  0.46793000  0.27371000  0.07475000  1.0 -0.5921885448
O  O140  1  0.07475000  0.18361000  0.46793000  1.0 -0.5921885448
O  O141  1  0.97629000  0.06639000  0.78207000  1.0 -0.5921885448
O  O142  1  0.06639000  0.97629000  0.17525000  1.0 -0.5921885448
O  O143  1  0.17525000  0.78207000  0.06639000  1.0 -0.5921885448
O  O144  1  0.78207000  0.17525000  0.97629000  1.0 -0.5921885448
O  O145  1  0.17525000  0.97629000  0.78207000  1.0 -0.5921885448
O  O146  1  0.78207000  0.06639000  0.17525000  1.0 -0.5921885448
O  O147  1  0.97629000  0.17525000  0.06639000  1.0 -0.5921885448
O  O148  1  0.06639000  0.78207000  0.97629000  1.0 -0.5921885448
O  O149  1  0.06639000  0.17525000  0.78207000  1.0 -0.5921885448
O  O150  1  0.97629000  0.78207000  0.17525000  1.0 -0.5921885448
O  O151  1  0.78207000  0.97629000  0.06639000  1.0 -0.5921885448
O  O152  1  0.17525000  0.06639000  0.97629000  1.0 -0.5921885448
O  O153  1  0.02990000  0.19070000  0.19070000  1.0 -0.2778533624
O  O154  1  0.19070000  0.02990000  0.58870000  1.0 -0.2778533624
O  O155  1  0.19070000  0.58870000  0.02990000  1.0 -0.2778533624
O  O156  1  0.58870000  0.19070000  0.19070000  1.0 -0.2778533624
O  O157  1  0.19070000  0.02990000  0.19070000  1.0 -0.2778533624
O  O158  1  0.58870000  0.19070000  0.02990000  1.0 -0.2778533624
O  O159  1  0.02990000  0.19070000  0.58870000  1.0 -0.2778533624
O  O160  1  0.19070000  0.58870000  0.19070000  1.0 -0.2778533624
O  O161  1  0.19070000  0.19070000  0.02990000  1.0 -0.2778533624
O  O162  1  0.02990000  0.58870000  0.19070000  1.0 -0.2778533624
O  O163  1  0.58870000  0.02990000  0.19070000  1.0 -0.2778533624
O  O164  1  0.19070000  0.19070000  0.58870000  1.0 -0.2778533624
O  O165  1  0.22010000  0.05930000  0.66130000  1.0 -0.2778533624
O  O166  1  0.05930000  0.22010000  0.05930000  1.0 -0.2778533624
O  O167  1  0.05930000  0.66130000  0.05930000  1.0 -0.2778533624
O  O168  1  0.66130000  0.05930000  0.22010000  1.0 -0.2778533624
O  O169  1  0.05930000  0.22010000  0.66130000  1.0 -0.2778533624
O  O170  1  0.66130000  0.05930000  0.05930000  1.0 -0.2778533624
O  O171  1  0.22010000  0.05930000  0.05930000  1.0 -0.2778533624
O  O172  1  0.05930000  0.66130000  0.22010000  1.0 -0.2778533624
O  O173  1  0.05930000  0.05930000  0.66130000  1.0 -0.2778533624
O  O174  1  0.22010000  0.66130000  0.05930000  1.0 -0.2778533624
O  O175  1  0.66130000  0.22010000  0.05930000  1.0 -0.2778533624
O  O176  1  0.05930000  0.05930000  0.22010000  1.0 -0.2778533624
O  O177  1  0.05080000  0.17660000  0.17660000  1.0 -0.4115077942
O  O178  1  0.17660000  0.05080000  0.59600000  1.0 -0.4115077942
O  O179  1  0.17660000  0.59600000  0.05080000  1.0 -0.4115077942
O  O180  1  0.59600000  0.17660000  0.17660000  1.0 -0.4115077942
O  O181  1  0.17660000  0.05080000  0.17660000  1.0 -0.4115077942
O  O182  1  0.59600000  0.17660000  0.05080000  1.0 -0.4115077942
O  O183  1  0.05080000  0.17660000  0.59600000  1.0 -0.4115077942
O  O184  1  0.17660000  0.59600000  0.17660000  1.0 -0.4115077942
O  O185  1  0.17660000  0.17660000  0.05080000  1.0 -0.4115077942
O  O186  1  0.05080000  0.59600000  0.17660000  1.0 -0.4115077942
O  O187  1  0.59600000  0.05080000  0.17660000  1.0 -0.4115077942
O  O188  1  0.17660000  0.17660000  0.59600000  1.0 -0.4115077942
O  O189  1  0.19920000  0.07340000  0.65400000  1.0 -0.4115077942
O  O190  1  0.07340000  0.19920000  0.07340000  1.0 -0.4115077942
O  O191  1  0.07340000  0.65400000  0.07340000  1.0 -0.4115077942
O  O192  1  0.65400000  0.07340000  0.19920000  1.0 -0.4115077942
O  O193  1  0.07340000  0.19920000  0.65400000  1.0 -0.4115077942
O  O194  1  0.65400000  0.07340000  0.07340000  1.0 -0.4115077942
O  O195  1  0.19920000  0.07340000  0.07340000  1.0 -0.4115077942
O  O196  1  0.07340000  0.65400000  0.19920000  1.0 -0.4115077942
O  O197  1  0.07340000  0.07340000  0.65400000  1.0 -0.4115077942
O  O198  1  0.19920000  0.65400000  0.07340000  1.0 -0.4115077942
O  O199  1  0.65400000  0.19920000  0.07340000  1.0 -0.4115077942
O  O200  1  0.07340000  0.07340000  0.19920000  1.0 -0.4115077942
O  O201  1  0.08770000  0.08770000  0.08770000  1.0 -0.3621753245
O  O202  1  0.08770000  0.08770000  0.73690000  1.0 -0.3621753245
O  O203  1  0.08770000  0.73690000  0.08770000  1.0 -0.3621753245
O  O204  1  0.73690000  0.08770000  0.08770000  1.0 -0.3621753245
O  O205  1  0.16230000  0.16230000  0.51310000  1.0 -0.3621753245
O  O206  1  0.16230000  0.16230000  0.16230000  1.0 -0.3621753245
O  O207  1  0.16230000  0.51310000  0.16230000  1.0 -0.3621753245
O  O208  1  0.51310000  0.16230000  0.16230000  1.0 -0.3621753245
O  O209  1  0.91480000  0.30300000  0.22960000  1.0 -0.0921886707
O  O210  1  0.30300000  0.91480000  0.55260000  1.0 -0.0921886707
O  O211  1  0.22960000  0.55260000  0.91480000  1.0 -0.0921886707
O  O212  1  0.55260000  0.22960000  0.30300000  1.0 -0.0921886707
O  O213  1  0.22960000  0.91480000  0.30300000  1.0 -0.0921886707
O  O214  1  0.55260000  0.30300000  0.91480000  1.0 -0.0921886707
O  O215  1  0.91480000  0.22960000  0.55260000  1.0 -0.0921886707
O  O216  1  0.30300000  0.55260000  0.22960000  1.0 -0.0921886707
O  O217  1  0.30300000  0.22960000  0.91480000  1.0 -0.0921886707
O  O218  1  0.91480000  0.55260000  0.30300000  1.0 -0.0921886707
O  O219  1  0.55260000  0.91480000  0.22960000  1.0 -0.0921886707
O  O220  1  0.22960000  0.30300000  0.55260000  1.0 -0.0921886707
O  O221  1  0.33520000  0.94700000  0.69740000  1.0 -0.0921886707
O  O222  1  0.94700000  0.33520000  0.02040000  1.0 -0.0921886707
O  O223  1  0.02040000  0.69740000  0.94700000  1.0 -0.0921886707
O  O224  1  0.69740000  0.02040000  0.33520000  1.0 -0.0921886707
O  O225  1  0.02040000  0.33520000  0.69740000  1.0 -0.0921886707
O  O226  1  0.69740000  0.94700000  0.02040000  1.0 -0.0921886707
O  O227  1  0.33520000  0.02040000  0.94700000  1.0 -0.0921886707
O  O228  1  0.94700000  0.69740000  0.33520000  1.0 -0.0921886707
O  O229  1  0.94700000  0.02040000  0.69740000  1.0 -0.0921886707
O  O230  1  0.33520000  0.69740000  0.02040000  1.0 -0.0921886707
O  O231  1  0.69740000  0.33520000  0.94700000  1.0 -0.0921886707
O  O232  1  0.02040000  0.94700000  0.33520000  1.0 -0.0921886707
O  O233  1  0.33520000  0.94700000  0.02040000  1.0 -0.0921886707
O  O234  1  0.94700000  0.33520000  0.69740000  1.0 -0.0921886707
O  O235  1  0.02040000  0.69740000  0.33520000  1.0 -0.0921886707
O  O236  1  0.69740000  0.02040000  0.94700000  1.0 -0.0921886707
O  O237  1  0.02040000  0.33520000  0.94700000  1.0 -0.0921886707
O  O238  1  0.69740000  0.94700000  0.33520000  1.0 -0.0921886707
O  O239  1  0.33520000  0.02040000  0.69740000  1.0 -0.0921886707
O  O240  1  0.94700000  0.69740000  0.02040000  1.0 -0.0921886707
O  O241  1  0.94700000  0.02040000  0.33520000  1.0 -0.0921886707
O  O242  1  0.33520000  0.69740000  0.94700000  1.0 -0.0921886707
O  O243  1  0.69740000  0.33520000  0.02040000  1.0 -0.0921886707
O  O244  1  0.02040000  0.94700000  0.69740000  1.0 -0.0921886707
O  O245  1  0.91480000  0.30300000  0.55260000  1.0 -0.0921886707
O  O246  1  0.30300000  0.91480000  0.22960000  1.0 -0.0921886707
O  O247  1  0.22960000  0.55260000  0.30300000  1.0 -0.0921886707
O  O248  1  0.55260000  0.22960000  0.91480000  1.0 -0.0921886707
O  O249  1  0.22960000  0.91480000  0.55260000  1.0 -0.0921886707
O  O250  1  0.55260000  0.30300000  0.22960000  1.0 -0.0921886707
O  O251  1  0.91480000  0.22960000  0.30300000  1.0 -0.0921886707
O  O252  1  0.30300000  0.55260000  0.91480000  1.0 -0.0921886707
O  O253  1  0.30300000  0.22960000  0.55260000  1.0 -0.0921886707
O  O254  1  0.91480000  0.55260000  0.22960000  1.0 -0.0921886707
O  O255  1  0.55260000  0.91480000  0.30300000  1.0 -0.0921886707
O  O256  1  0.22960000  0.30300000  0.91480000  1.0 -0.0921886707
O  O257  1  0.92460000  0.24280000  0.14040000  1.0 -0.5700780131
O  O258  1  0.24280000  0.92460000  0.69220000  1.0 -0.5700780131
O  O259  1  0.14040000  0.69220000  0.92460000  1.0 -0.5700780131
O  O260  1  0.69220000  0.14040000  0.24280000  1.0 -0.5700780131
O  O261  1  0.14040000  0.92460000  0.24280000  1.0 -0.5700780131
O  O262  1  0.69220000  0.24280000  0.92460000  1.0 -0.5700780131
O  O263  1  0.92460000  0.14040000  0.69220000  1.0 -0.5700780131
O  O264  1  0.24280000  0.69220000  0.14040000  1.0 -0.5700780131
O  O265  1  0.24280000  0.14040000  0.92460000  1.0 -0.5700780131
O  O266  1  0.92460000  0.69220000  0.24280000  1.0 -0.5700780131
O  O267  1  0.69220000  0.92460000  0.14040000  1.0 -0.5700780131
O  O268  1  0.14040000  0.24280000  0.69220000  1.0 -0.5700780131
O  O269  1  0.32540000  0.00720000  0.55780000  1.0 -0.5700780131
O  O270  1  0.00720000  0.32540000  0.10960000  1.0 -0.5700780131
O  O271  1  0.10960000  0.55780000  0.00720000  1.0 -0.5700780131
O  O272  1  0.55780000  0.10960000  0.32540000  1.0 -0.5700780131
O  O273  1  0.10960000  0.32540000  0.55780000  1.0 -0.5700780131
O  O274  1  0.55780000  0.00720000  0.10960000  1.0 -0.5700780131
O  O275  1  0.32540000  0.10960000  0.00720000  1.0 -0.5700780131
O  O276  1  0.00720000  0.55780000  0.32540000  1.0 -0.5700780131
O  O277  1  0.00720000  0.10960000  0.55780000  1.0 -0.5700780131
O  O278  1  0.32540000  0.55780000  0.10960000  1.0 -0.5700780131
O  O279  1  0.55780000  0.32540000  0.00720000  1.0 -0.5700780131
O  O280  1  0.10960000  0.00720000  0.32540000  1.0 -0.5700780131
O  O281  1  0.32540000  0.00720000  0.10960000  1.0 -0.5700780131
O  O282  1  0.00720000  0.32540000  0.55780000  1.0 -0.5700780131
O  O283  1  0.10960000  0.55780000  0.32540000  1.0 -0.5700780131
O  O284  1  0.55780000  0.10960000  0.00720000  1.0 -0.5700780131
O  O285  1  0.10960000  0.32540000  0.00720000  1.0 -0.5700780131
O  O286  1  0.55780000  0.00720000  0.32540000  1.0 -0.5700780131
O  O287  1  0.32540000  0.10960000  0.55780000  1.0 -0.5700780131
O  O288  1  0.00720000  0.55780000  0.10960000  1.0 -0.5700780131
O  O289  1  0.00720000  0.10960000  0.32540000  1.0 -0.5700780131
O  O290  1  0.32540000  0.55780000  0.00720000  1.0 -0.5700780131
O  O291  1  0.55780000  0.32540000  0.10960000  1.0 -0.5700780131
O  O292  1  0.10960000  0.00720000  0.55780000  1.0 -0.5700780131
O  O293  1  0.92460000  0.24280000  0.69220000  1.0 -0.5700780131
O  O294  1  0.24280000  0.92460000  0.14040000  1.0 -0.5700780131
O  O295  1  0.14040000  0.69220000  0.24280000  1.0 -0.5700780131
O  O296  1  0.69220000  0.14040000  0.92460000  1.0 -0.5700780131
O  O297  1  0.14040000  0.92460000  0.69220000  1.0 -0.5700780131
O  O298  1  0.69220000  0.24280000  0.14040000  1.0 -0.5700780131
O  O299  1  0.92460000  0.14040000  0.24280000  1.0 -0.5700780131
O  O300  1  0.24280000  0.69220000  0.92460000  1.0 -0.5700780131
O  O301  1  0.24280000  0.14040000  0.69220000  1.0 -0.5700780131
O  O302  1  0.92460000  0.69220000  0.14040000  1.0 -0.5700780131
O  O303  1  0.69220000  0.92460000  0.24280000  1.0 -0.5700780131
O  O304  1  0.14040000  0.24280000  0.92460000  1.0 -0.5700780131
