# DDEC6 charges by PACMAN v1.1 (https://github.com/mtap-research/PACMAN-charge/)
data_BORBEQ_ASR_pacman
_symmetry_space_group_name_H-M   'P 1'
_cell_length_a   15.33000000
_cell_length_b   15.45300000
_cell_length_c   16.66000000
_cell_angle_alpha   90.00000000
_cell_angle_beta   90.00000000
_cell_angle_gamma   90.00000000
_symmetry_Int_Tables_number   1
_chemical_formula_structural   NaNiH33(C7O6)3
_chemical_formula_sum   'Na4 Ni4 H132 C84 O72'
_cell_volume   3946.66220340
_cell_formula_units_Z   4
loop_
 _symmetry_equiv_pos_site_id
 _symmetry_equiv_pos_as_xyz
  1  'x, y, z'
loop_
 _atom_site_type_symbol
 _atom_site_label
 _atom_site_symmetry_multiplicity
 _atom_site_fract_x
 _atom_site_fract_y
 _atom_site_fract_z
 _atom_site_occupancy
 _atom_site_charge
Na  Na1  1  0.19561000  0.20633000  0.21686000  1.0 0.7603410005
Na  Na2  1  0.30439000  0.79367000  0.71686000  1.0 0.7603410005
Na  Na3  1  0.80439000  0.70633000  0.28314000  1.0 0.7603410005
Na  Na4  1  0.69561000  0.29367000  0.78314000  1.0 0.7603410005
Ni  Ni1  1  0.60839000  0.90619000  0.10019000  1.0 0.8640575677
Ni  Ni2  1  0.89161000  0.09381000  0.60019000  1.0 0.8640575677
Ni  Ni3  1  0.39161000  0.40619000  0.39981000  1.0 0.8640575677
Ni  Ni4  1  0.10839000  0.59381000  0.89981000  1.0 0.8640575677
H  H1  1  0.35240000  0.94850000  0.26430000  1.0 0.1336962225
H  H2  1  0.14760000  0.05150000  0.76430000  1.0 0.1336962225
H  H3  1  0.64760000  0.44850000  0.23570000  1.0 0.1336962225
H  H4  1  0.85240000  0.55150000  0.73570000  1.0 0.1336962225
H  H5  1  0.35880000  0.92910000  0.17200000  1.0 0.1394498227
H  H6  1  0.14120000  0.07090000  0.67200000  1.0 0.1394498227
H  H7  1  0.64120000  0.42910000  0.32800000  1.0 0.1394498227
H  H8  1  0.85880000  0.57090000  0.82800000  1.0 0.1394498227
H  H9  1  0.36500000  0.07810000  0.14180000  1.0 0.1001857486
H  H10  1  0.13500000  0.92190000  0.64180000  1.0 0.1001857486
H  H11  1  0.63500000  0.57810000  0.35820000  1.0 0.1001857486
H  H12  1  0.86500000  0.42190000  0.85820000  1.0 0.1001857486
H  H13  1  0.35030000  0.11190000  0.30770000  1.0 0.1001857486
H  H14  1  0.14970000  0.88810000  0.80770000  1.0 0.1001857486
H  H15  1  0.64970000  0.61190000  0.19230000  1.0 0.1001857486
H  H16  1  0.85030000  0.38810000  0.69230000  1.0 0.1001857486
H  H17  1  0.49500000  0.15980000  0.30870000  1.0 0.1001857486
H  H18  1  0.00500000  0.84020000  0.80870000  1.0 0.1001857486
H  H19  1  0.50500000  0.65980000  0.19130000  1.0 0.1001857486
H  H20  1  0.99500000  0.34020000  0.69130000  1.0 0.1001857486
H  H21  1  0.48460000  0.01420000  0.33520000  1.0 0.1394498227
H  H22  1  0.01540000  0.98580000  0.83520000  1.0 0.1394498227
H  H23  1  0.51540000  0.51420000  0.16480000  1.0 0.1394498227
H  H24  1  0.98460000  0.48580000  0.66480000  1.0 0.1394498227
H  H25  1  0.57020000  0.02970000  0.28570000  1.0 0.1394498227
H  H26  1  0.92980000  0.97030000  0.78570000  1.0 0.1394498227
H  H27  1  0.42980000  0.52970000  0.21430000  1.0 0.1394498227
H  H28  1  0.07020000  0.47030000  0.71430000  1.0 0.1394498227
H  H29  1  0.78910000  0.14340000  0.01170000  1.0 0.1394498227
H  H30  1  0.71090000  0.85660000  0.51170000  1.0 0.1394498227
H  H31  1  0.21090000  0.64340000  0.48830000  1.0 0.1394498227
H  H32  1  0.28910000  0.35660000  0.98830000  1.0 0.1394498227
H  H33  1  0.69510000  0.14880000  0.04850000  1.0 0.1336962225
H  H34  1  0.80490000  0.85120000  0.54850000  1.0 0.1336962225
H  H35  1  0.30490000  0.64880000  0.45150000  1.0 0.1336962225
H  H36  1  0.19510000  0.35120000  0.95150000  1.0 0.1336962225
H  H37  1  0.63260000  0.13690000  0.92330000  1.0 0.1001857486
H  H38  1  0.86740000  0.86310000  0.42330000  1.0 0.1001857486
H  H39  1  0.36740000  0.63690000  0.57670000  1.0 0.1001857486
H  H40  1  0.13260000  0.36310000  0.07670000  1.0 0.1001857486
H  H41  1  0.80360000  0.12890000  0.85740000  1.0 0.1001857486
H  H42  1  0.69640000  0.87110000  0.35740000  1.0 0.1001857486
H  H43  1  0.19640000  0.62890000  0.64260000  1.0 0.1001857486
H  H44  1  0.30360000  0.37110000  0.14260000  1.0 0.1001857486
H  H45  1  0.77650000  0.98560000  0.82320000  1.0 0.1054308086
H  H46  1  0.72350000  0.01440000  0.32320000  1.0 0.1054308086
H  H47  1  0.22350000  0.48560000  0.67680000  1.0 0.1054308086
H  H48  1  0.27650000  0.51440000  0.17680000  1.0 0.1054308086
H  H49  1  0.83900000  0.99980000  0.94860000  1.0 0.1394498227
H  H50  1  0.66100000  0.00020000  0.44860000  1.0 0.1394498227
H  H51  1  0.16100000  0.49980000  0.55140000  1.0 0.1394498227
H  H52  1  0.33900000  0.50020000  0.05140000  1.0 0.1394498227
H  H53  1  0.77380000  0.92150000  0.95070000  1.0 0.1394498227
H  H54  1  0.72620000  0.07850000  0.45070000  1.0 0.1394498227
H  H55  1  0.22620000  0.42150000  0.54930000  1.0 0.1394498227
H  H56  1  0.27380000  0.57850000  0.04930000  1.0 0.1394498227
H  H57  1  0.56150000  0.73820000  0.86060000  1.0 0.1394498227
H  H58  1  0.93850000  0.26180000  0.36060000  1.0 0.1394498227
H  H59  1  0.43850000  0.23820000  0.63940000  1.0 0.1394498227
H  H60  1  0.06150000  0.76180000  0.13940000  1.0 0.1394498227
H  H61  1  0.58290000  0.83660000  0.87310000  1.0 0.1336962225
H  H62  1  0.91710000  0.16340000  0.37310000  1.0 0.1336962225
H  H63  1  0.41710000  0.33660000  0.62690000  1.0 0.1336962225
H  H64  1  0.08290000  0.66340000  0.12690000  1.0 0.1394498227
H  H65  1  0.43320000  0.87050000  0.88140000  1.0 0.0894065823
H  H66  1  0.06680000  0.12950000  0.38140000  1.0 0.0894065823
H  H67  1  0.56680000  0.37050000  0.61860000  1.0 0.0894065823
H  H68  1  0.93320000  0.62950000  0.11860000  1.0 0.0894065823
H  H69  1  0.40000000  0.69230000  0.85360000  1.0 0.1001857486
H  H70  1  0.10000000  0.30770000  0.35360000  1.0 0.1001857486
H  H71  1  0.60000000  0.19230000  0.64640000  1.0 0.1001857486
H  H72  1  0.90000000  0.80770000  0.14640000  1.0 0.1001857486
H  H73  1  0.34970000  0.67880000  0.98360000  1.0 0.1001857486
H  H74  1  0.15030000  0.32120000  0.48360000  1.0 0.1001857486
H  H75  1  0.65030000  0.17880000  0.51640000  1.0 0.1001857486
H  H76  1  0.84970000  0.82120000  0.01640000  1.0 0.1001857486
H  H77  1  0.47980000  0.69890000  0.05870000  1.0 0.1394498227
H  H78  1  0.02020000  0.30110000  0.55870000  1.0 0.1394498227
H  H79  1  0.52020000  0.19890000  0.44130000  1.0 0.1394498227
H  H80  1  0.97980000  0.80110000  0.94130000  1.0 0.1394498227
H  H81  1  0.49830000  0.65190000  0.97680000  1.0 0.1394498227
H  H82  1  0.00170000  0.34810000  0.47680000  1.0 0.1394498227
H  H83  1  0.50170000  0.15190000  0.52320000  1.0 0.1394498227
H  H84  1  0.99830000  0.84810000  0.02320000  1.0 0.1394498227
H  H85  1  0.52450000  0.04070000  0.14100000  1.0 0.2615497678
H  H86  1  0.97550000  0.95930000  0.64100000  1.0 0.2615497678
H  H87  1  0.47550000  0.54070000  0.35900000  1.0 0.2615497678
H  H88  1  0.02450000  0.45930000  0.85900000  1.0 0.2615497678
H  H89  1  0.23390000  0.11040000  0.18750000  1.0 0.3436154842
H  H90  1  0.26610000  0.88960000  0.68750000  1.0 0.3436154842
H  H91  1  0.76610000  0.61040000  0.31250000  1.0 0.3436154842
H  H92  1  0.73390000  0.38960000  0.81250000  1.0 0.3436154842
H  H93  1  0.37640000  0.24520000  0.25340000  1.0 0.3521066526
H  H94  1  0.12360000  0.75480000  0.75340000  1.0 0.3521066526
H  H95  1  0.62360000  0.74520000  0.24660000  1.0 0.3521066526
H  H96  1  0.87640000  0.25480000  0.74660000  1.0 0.3521066526
H  H97  1  0.52610000  0.10910000  0.16290000  1.0 0.2385064445
H  H98  1  0.97390000  0.89090000  0.66290000  1.0 0.2385064445
H  H99  1  0.47390000  0.60910000  0.33710000  1.0 0.2385064445
H  H100  1  0.02610000  0.39090000  0.83710000  1.0 0.2385064445
H  H101  1  0.62340000  0.98460000  0.97030000  1.0 0.253523466
H  H102  1  0.87660000  0.01540000  0.47030000  1.0 0.253523466
H  H103  1  0.37660000  0.48460000  0.52970000  1.0 0.253523466
H  H104  1  0.12340000  0.51540000  0.02970000  1.0 0.253523466
H  H105  1  0.67750000  0.26840000  0.95360000  1.0 0.3521066526
H  H106  1  0.82250000  0.73160000  0.45360000  1.0 0.3521066526
H  H107  1  0.32250000  0.76840000  0.54640000  1.0 0.3521066526
H  H108  1  0.17750000  0.23160000  0.04640000  1.0 0.3521066526
H  H109  1  0.72450000  0.10900000  0.74540000  1.0 0.3608724147
H  H110  1  0.77550000  0.89100000  0.24540000  1.0 0.3608724147
H  H111  1  0.27550000  0.60900000  0.75460000  1.0 0.3608724147
H  H112  1  0.22450000  0.39100000  0.25460000  1.0 0.3608724147
H  H113  1  0.63290000  0.97720000  0.90640000  1.0 0.2385064445
H  H114  1  0.86710000  0.02280000  0.40640000  1.0 0.2385064445
H  H115  1  0.36710000  0.47720000  0.59360000  1.0 0.2385064445
H  H116  1  0.13290000  0.52280000  0.09360000  1.0 0.2385064445
H  H117  1  0.46790000  0.85800000  0.02640000  1.0 0.2615497678
H  H118  1  0.03210000  0.14200000  0.52640000  1.0 0.2615497678
H  H119  1  0.53210000  0.35800000  0.47360000  1.0 0.2615497678
H  H120  1  0.96790000  0.64200000  0.97360000  1.0 0.2615497678
H  H121  1  0.47450000  0.86300000  0.75660000  1.0 0.3608724147
H  H122  1  0.02550000  0.13700000  0.25660000  1.0 0.3608724147
H  H123  1  0.52550000  0.36300000  0.74340000  1.0 0.3608724147
H  H124  1  0.97450000  0.63700000  0.24340000  1.0 0.3608724147
H  H125  1  0.26400000  0.75190000  0.88300000  1.0 0.3521066526
H  H126  1  0.23600000  0.24810000  0.38300000  1.0 0.3521066526
H  H127  1  0.73600000  0.25190000  0.61700000  1.0 0.3521066526
H  H128  1  0.76400000  0.74810000  0.11700000  1.0 0.3521066526
H  H129  1  0.39900000  0.83370000  0.02790000  1.0 0.2385064445
H  H130  1  0.10100000  0.16630000  0.52790000  1.0 0.2385064445
H  H131  1  0.60100000  0.33370000  0.47210000  1.0 0.2385064445
H  H132  1  0.89900000  0.66630000  0.97210000  1.0 0.2385064445
C  C1  1  0.47600000  0.96670000  0.22020000  1.0 0.2128887593
C  C2  1  0.02400000  0.03330000  0.72020000  1.0 0.2128887593
C  C3  1  0.52400000  0.46670000  0.27980000  1.0 0.2128887593
C  C4  1  0.97600000  0.53330000  0.77980000  1.0 0.2128887593
C  C5  1  0.37750000  0.96810000  0.21410000  1.0 -0.3351699889
C  C6  1  0.12250000  0.03190000  0.71410000  1.0 -0.3351699889
C  C7  1  0.62250000  0.46810000  0.28590000  1.0 -0.3347356499
C  C8  1  0.87750000  0.53190000  0.78590000  1.0 -0.3347356499
C  C9  1  0.34510000  0.06100000  0.19540000  1.0 0.1607144122
C  C10  1  0.15490000  0.93900000  0.69540000  1.0 0.1607144122
C  C11  1  0.65490000  0.56100000  0.30460000  1.0 0.1607144122
C  C12  1  0.84510000  0.43900000  0.80460000  1.0 0.1607144122
C  C13  1  0.37710000  0.12460000  0.25570000  1.0 0.0467831909
C  C14  1  0.12290000  0.87540000  0.75570000  1.0 0.0467831909
C  C15  1  0.62290000  0.62460000  0.24430000  1.0 0.0467831909
C  C16  1  0.87710000  0.37540000  0.74430000  1.0 0.0467831909
C  C17  1  0.47760000  0.12160000  0.26450000  1.0 0.1489406161
C  C18  1  0.02240000  0.87840000  0.76450000  1.0 0.1489406161
C  C19  1  0.52240000  0.62160000  0.23550000  1.0 0.1489406161
C  C20  1  0.97760000  0.37840000  0.73550000  1.0 0.1489406161
C  C21  1  0.50700000  0.03110000  0.28310000  1.0 -0.3691899657
C  C22  1  0.99300000  0.96890000  0.78310000  1.0 -0.3691899657
C  C23  1  0.49300000  0.53110000  0.21690000  1.0 -0.3691899657
C  C24  1  0.00700000  0.46890000  0.71690000  1.0 -0.3691899657
C  C25  1  0.50720000  0.87310000  0.24210000  1.0 0.5252648711
C  C26  1  0.99280000  0.12690000  0.74210000  1.0 0.5252648711
C  C27  1  0.49280000  0.37310000  0.25790000  1.0 0.5252648711
C  C28  1  0.00720000  0.62690000  0.75790000  1.0 0.5252648711
C  C29  1  0.72850000  0.02670000  0.01560000  1.0 0.2202608779
C  C30  1  0.77150000  0.97330000  0.51560000  1.0 0.2202608779
C  C31  1  0.27150000  0.52670000  0.48440000  1.0 0.2202608779
C  C32  1  0.22850000  0.47330000  0.98440000  1.0 0.2202608779
C  C33  1  0.72960000  0.12290000  0.00590000  1.0 -0.3585736185
C  C34  1  0.77040000  0.87710000  0.50590000  1.0 -0.3585736185
C  C35  1  0.27040000  0.62290000  0.49410000  1.0 -0.3585736185
C  C36  1  0.22960000  0.37710000  0.99410000  1.0 -0.3585736185
C  C37  1  0.69460000  0.15230000  0.92660000  1.0 0.1607144122
C  C38  1  0.80540000  0.84770000  0.42660000  1.0 0.1607144122
C  C39  1  0.30540000  0.65230000  0.57340000  1.0 0.1607144122
C  C40  1  0.19460000  0.34770000  0.07340000  1.0 0.1607144122
C  C41  1  0.74290000  0.10920000  0.85730000  1.0 0.0577302526
C  C42  1  0.75710000  0.89080000  0.35730000  1.0 0.0577302526
C  C43  1  0.25710000  0.60920000  0.64270000  1.0 0.0577302526
C  C44  1  0.24290000  0.39080000  0.14270000  1.0 0.0577302526
C  C45  1  0.74140000  0.01130000  0.86620000  1.0 0.1394498227
C  C46  1  0.75860000  0.98870000  0.36620000  1.0 0.1394498227
C  C47  1  0.25860000  0.51130000  0.63380000  1.0 0.1394498227
C  C48  1  0.24140000  0.48870000  0.13380000  1.0 0.1394498227
C  C49  1  0.77790000  0.98400000  0.94580000  1.0 -0.3585736185
C  C50  1  0.72210000  0.01600000  0.44580000  1.0 -0.3585736185
C  C51  1  0.22210000  0.48400000  0.55420000  1.0 -0.3585736185
C  C52  1  0.27790000  0.51600000  0.05420000  1.0 -0.3585736185
C  C53  1  0.76830000  0.99670000  0.09840000  1.0 0.5234510421
C  C54  1  0.73170000  0.00330000  0.59840000  1.0 0.5234510421
C  C55  1  0.23170000  0.49670000  0.40160000  1.0 0.5234510421
C  C56  1  0.26830000  0.50330000  0.90160000  1.0 0.5234510421
C  C57  1  0.54300000  0.77730000  0.97780000  1.0 0.2278029888
C  C58  1  0.95700000  0.22270000  0.47780000  1.0 0.2278029888
C  C59  1  0.45700000  0.27730000  0.52220000  1.0 0.2278029888
C  C60  1  0.04300000  0.72270000  0.02220000  1.0 0.2278029888
C  C61  1  0.54250000  0.79080000  0.88710000  1.0 -0.3512281657
C  C62  1  0.95750000  0.20920000  0.38710000  1.0 -0.3512281657
C  C63  1  0.45750000  0.29080000  0.61290000  1.0 -0.3512281657
C  C64  1  0.04250000  0.70920000  0.11290000  1.0 -0.3512281657
C  C65  1  0.45050000  0.81470000  0.85840000  1.0 0.1607144122
C  C66  1  0.04950000  0.18530000  0.35840000  1.0 0.1607144122
C  C67  1  0.54950000  0.31470000  0.64160000  1.0 0.1607144122
C  C68  1  0.95050000  0.68530000  0.14160000  1.0 0.1607144122
C  C69  1  0.38610000  0.74590000  0.88230000  1.0 0.0577302526
C  C70  1  0.11390000  0.25410000  0.38230000  1.0 0.0577302526
C  C71  1  0.61390000  0.24590000  0.61770000  1.0 0.0577302526
C  C72  1  0.88610000  0.75410000  0.11770000  1.0 0.0577302526
C  C73  1  0.38790000  0.72810000  0.97230000  1.0 0.1489406161
C  C74  1  0.11210000  0.27190000  0.47230000  1.0 0.1489406161
C  C75  1  0.61210000  0.22810000  0.52770000  1.0 0.1489406161
C  C76  1  0.88790000  0.77190000  0.02770000  1.0 0.1489406161
C  C77  1  0.47980000  0.70610000  0.00080000  1.0 -0.3691899657
C  C78  1  0.02020000  0.29390000  0.50080000  1.0 -0.3691899657
C  C79  1  0.52020000  0.20610000  0.49920000  1.0 -0.3691899657
C  C80  1  0.97980000  0.79390000  0.99920000  1.0 -0.3691899657
C  C81  1  0.63910000  0.75390000  0.00470000  1.0 0.5234510421
C  C82  1  0.86090000  0.24610000  0.50470000  1.0 0.5234510421
C  C83  1  0.36090000  0.25390000  0.49530000  1.0 0.5234510421
C  C84  1  0.13910000  0.74610000  0.99530000  1.0 0.5234510421
O  O1  1  0.51540000  0.98850000  0.14300000  1.0 -0.5013836677
O  O2  1  0.98460000  0.01150000  0.64300000  1.0 -0.5013836677
O  O3  1  0.48460000  0.48850000  0.35700000  1.0 -0.5013836677
O  O4  1  0.01540000  0.51150000  0.85700000  1.0 -0.5013836677
O  O5  1  0.25180000  0.06160000  0.19770000  1.0 -0.4707397104
O  O6  1  0.24820000  0.93840000  0.69770000  1.0 -0.4707397104
O  O7  1  0.74820000  0.56160000  0.30230000  1.0 -0.4707397104
O  O8  1  0.75180000  0.43840000  0.80230000  1.0 -0.4707397104
O  O9  1  0.34910000  0.20760000  0.22940000  1.0 -0.5087636938
O  O10  1  0.15090000  0.79240000  0.72940000  1.0 -0.5087636938
O  O11  1  0.65090000  0.70760000  0.27060000  1.0 -0.5087636938
O  O12  1  0.84910000  0.29240000  0.77060000  1.0 -0.5087636938
O  O13  1  0.51800000  0.15040000  0.19280000  1.0 -0.4193041951
O  O14  1  0.98200000  0.84960000  0.69280000  1.0 -0.4193041951
O  O15  1  0.48200000  0.65040000  0.30720000  1.0 -0.4193041951
O  O16  1  0.01800000  0.34960000  0.80720000  1.0 -0.4193041951
O  O17  1  0.56710000  0.84080000  0.19720000  1.0 -0.5659493238
O  O18  1  0.93290000  0.15920000  0.69720000  1.0 -0.5659493238
O  O19  1  0.43290000  0.34080000  0.30280000  1.0 -0.5659493238
O  O20  1  0.06710000  0.65920000  0.80280000  1.0 -0.5659493238
O  O21  1  0.47410000  0.83790000  0.30050000  1.0 -0.49199159
O  O22  1  0.02590000  0.16210000  0.80050000  1.0 -0.49199159
O  O23  1  0.52590000  0.33790000  0.19950000  1.0 -0.49199159
O  O24  1  0.97410000  0.66210000  0.69950000  1.0 -0.49199159
O  O25  1  0.63850000  0.99660000  0.01620000  1.0 -0.5013836677
O  O26  1  0.86150000  0.00340000  0.51620000  1.0 -0.5013836677
O  O27  1  0.36150000  0.49660000  0.48380000  1.0 -0.5013836677
O  O28  1  0.13850000  0.50340000  0.98380000  1.0 -0.5013836677
O  O29  1  0.70330000  0.24370000  0.91710000  1.0 -0.5288114727
O  O30  1  0.79670000  0.75630000  0.41710000  1.0 -0.5288114727
O  O31  1  0.29670000  0.74370000  0.58290000  1.0 -0.5288114727
O  O32  1  0.20330000  0.25630000  0.08290000  1.0 -0.5288114727
O  O33  1  0.70220000  0.13540000  0.78280000  1.0 -0.49199159
O  O34  1  0.79780000  0.86460000  0.28280000  1.0 -0.49199159
O  O35  1  0.29780000  0.63540000  0.71720000  1.0 -0.49199159
O  O36  1  0.20220000  0.36460000  0.21720000  1.0 -0.49199159
O  O37  1  0.65460000  0.97810000  0.86140000  1.0 -0.4373447478
O  O38  1  0.84540000  0.02190000  0.36140000  1.0 -0.4373447478
O  O39  1  0.34540000  0.47810000  0.63860000  1.0 -0.4373447478
O  O40  1  0.15460000  0.52190000  0.13860000  1.0 -0.4373447478
O  O41  1  0.72060000  0.95540000  0.14770000  1.0 -0.5511263192
O  O42  1  0.77940000  0.04460000  0.64770000  1.0 -0.5511263192
O  O43  1  0.27940000  0.45540000  0.35230000  1.0 -0.5511263192
O  O44  1  0.22060000  0.54460000  0.85230000  1.0 -0.5511263192
O  O45  1  0.84550000  0.01620000  0.10830000  1.0 -0.5288114727
O  O46  1  0.65450000  0.98380000  0.60830000  1.0 -0.5288114727
O  O47  1  0.15450000  0.51620000  0.39170000  1.0 -0.5288114727
O  O48  1  0.34550000  0.48380000  0.89170000  1.0 -0.5288114727
O  O49  1  0.52050000  0.85700000  0.01770000  1.0 -0.5013836677
O  O50  1  0.97950000  0.14300000  0.51770000  1.0 -0.5013836677
O  O51  1  0.47950000  0.35700000  0.48230000  1.0 -0.5013836677
O  O52  1  0.02050000  0.64300000  0.98230000  1.0 -0.5013836677
O  O53  1  0.44850000  0.81950000  0.77150000  1.0 -0.5087636938
O  O54  1  0.05150000  0.18050000  0.27150000  1.0 -0.5087636938
O  O55  1  0.55150000  0.31950000  0.72850000  1.0 -0.5087636938
O  O56  1  0.94850000  0.68050000  0.22850000  1.0 -0.5087636938
O  O57  1  0.30220000  0.77590000  0.85660000  1.0 -0.5087636938
O  O58  1  0.19780000  0.22410000  0.35660000  1.0 -0.5087636938
O  O59  1  0.69780000  0.27590000  0.64340000  1.0 -0.5087636938
O  O60  1  0.80220000  0.72410000  0.14340000  1.0 -0.5087636938
O  O61  1  0.35770000  0.80150000  0.01820000  1.0 -0.4193041951
O  O62  1  0.14230000  0.19850000  0.51820000  1.0 -0.4193041951
O  O63  1  0.64230000  0.30150000  0.48180000  1.0 -0.4193041951
O  O64  1  0.85770000  0.69850000  0.98180000  1.0 -0.4193041951
O  O65  1  0.67470000  0.80610000  0.05400000  1.0 -0.5444339693
O  O66  1  0.82530000  0.19390000  0.55400000  1.0 -0.5511263192
O  O67  1  0.32530000  0.30610000  0.44600000  1.0 -0.5511263192
O  O68  1  0.17470000  0.69390000  0.94600000  1.0 -0.5444339693
O  O69  1  0.67250000  0.68950000  0.97530000  1.0 -0.4814668477
O  O70  1  0.82750000  0.31050000  0.47530000  1.0 -0.4814668477
O  O71  1  0.32750000  0.18950000  0.52470000  1.0 -0.4814668477
O  O72  1  0.17250000  0.81050000  0.02470000  1.0 -0.4814668477
