# DDEC6 charges by PACMAN v1.1 (https://github.com/mtap-research/PACMAN-charge/)
data_BOVNAE_ASR_pacman
_symmetry_space_group_name_H-M   'P 1'
_cell_length_a   7.16510000
_cell_length_b   23.91480000
_cell_length_c   29.78290000
_cell_angle_alpha   90.00000000
_cell_angle_beta   90.00000000
_cell_angle_gamma   90.00000000
_symmetry_Int_Tables_number   1
_chemical_formula_structural   NaH51C52(NO5)2
_chemical_formula_sum   'Na4 H204 C208 N8 O40'
_cell_volume   5103.35749964
_cell_formula_units_Z   4
loop_
 _symmetry_equiv_pos_site_id
 _symmetry_equiv_pos_as_xyz
  1  'x, y, z'
loop_
 _atom_site_type_symbol
 _atom_site_label
 _atom_site_symmetry_multiplicity
 _atom_site_fract_x
 _atom_site_fract_y
 _atom_site_fract_z
 _atom_site_occupancy
 _atom_site_charge
Na  Na1  1  0.34120000  0.84459000  0.24407000  1.0 0.8246075525
Na  Na2  1  0.65880000  0.15541000  0.24407000  1.0 0.8246075525
Na  Na3  1  0.15880000  0.34459000  0.75593000  1.0 0.8246075525
Na  Na4  1  0.84120000  0.65541000  0.75593000  1.0 0.8246075525
H  H1  1  0.71395000  0.94819000  0.25135000  1.0 0.0812510414
H  H2  1  0.71866000  0.80038000  0.25765000  1.0 0.35029592
H  H3  1  0.93424000  0.73629000  0.27437000  1.0 0.35029592
H  H4  1  0.04992000  0.73287000  0.19559000  1.0 0.1203372263
H  H5  1  0.55275000  0.73570000  0.13119000  1.0 0.1117788676
H  H6  1  0.50267000  0.70351000  0.31373000  1.0 0.1287569024
H  H7  1  0.00898000  0.70789000  0.37783000  1.0 0.1203372263
H  H8  1  0.47655000  0.04498000  0.30844000  1.0 0.1117788676
H  H9  1  0.39367000  0.99264000  0.33534000  1.0 0.1117788676
H  H10  1  0.55452000  0.03012000  0.35736000  1.0 0.0982189122
H  H11  1  0.92626000  0.96419000  0.31148000  1.0 0.1117788676
H  H12  1  0.87326000  0.02332000  0.28979000  1.0 0.0982189122
H  H13  1  0.85884000  0.01452000  0.34296000  1.0 0.1117788676
H  H14  1  0.16397000  0.67037000  0.14184000  1.0 0.1287569024
H  H15  1  0.67045000  0.67446000  0.07714000  1.0 0.1203372263
H  H16  1  0.64114000  0.65857000  0.37446000  1.0 0.1287569024
H  H17  1  0.14662000  0.66865000  0.44143000  1.0 0.1203372263
H  H18  1  0.68398000  0.55104000  0.09504000  1.0 0.1388664332
H  H19  1  0.81783000  0.57347000  0.13411000  1.0 0.1287569024
H  H20  1  0.83945000  0.51077000  0.11610000  1.0 0.1287569024
H  H21  1  0.08578000  0.72710000  0.04907000  1.0 0.1287569024
H  H22  1  0.18061000  0.71508000  0.00139000  1.0 0.1388664332
H  H23  1  0.30277000  0.71163000  0.04628000  1.0 0.1388664332
H  H24  1  0.66180000  0.72095000  0.51186000  1.0 0.1388664332
H  H25  1  0.57217000  0.72678000  0.46288000  1.0 0.1388664332
H  H26  1  0.78804000  0.71096000  0.46827000  1.0 0.1388664332
H  H27  1  0.17402000  0.55935000  0.42450000  1.0 0.1388664332
H  H28  1  0.28464000  0.50120000  0.42370000  1.0 0.1287569024
H  H29  1  0.33692000  0.54940000  0.38860000  1.0 0.1388664332
H  H30  1  0.30778000  0.47472000  0.99822000  1.0 0.1388664332
H  H31  1  0.34294000  0.52243000  0.96150000  1.0 0.1388664332
H  H32  1  0.15178000  0.48782000  0.96124000  1.0 0.1287569024
H  H33  1  0.56706000  0.63091000  0.00901000  1.0 0.1203372263
H  H34  1  0.14193000  0.61862000  0.92073000  1.0 0.1287569024
H  H35  1  0.86962000  0.52429000  0.55158000  1.0 0.1287569024
H  H36  1  0.72493000  0.47578000  0.53900000  1.0 0.1388664332
H  H37  1  0.67487000  0.51980000  0.57763000  1.0 0.1388664332
H  H38  1  0.06808000  0.62176000  0.51340000  1.0 0.1203372263
H  H39  1  0.62009000  0.64876000  0.59441000  1.0 0.1287569024
H  H40  1  0.77141000  0.65310000  0.95130000  1.0 0.1203372263
H  H41  1  0.34613000  0.63817000  0.86291000  1.0 0.1117788676
H  H42  1  0.26550000  0.64349000  0.57319000  1.0 0.1117788676
H  H43  1  0.81911000  0.67122000  0.65399000  1.0 0.1117788676
H  H44  1  0.93435000  0.68567000  0.85294000  1.0 0.35029592
H  H45  1  0.71997000  0.92407000  0.22963000  1.0 0.0982189122
H  H46  1  0.47606000  0.03424000  0.17544000  1.0 0.0982189122
H  H47  1  0.47037000  0.98635000  0.13794000  1.0 0.0913290111
H  H48  1  0.61635000  0.03673000  0.13367000  1.0 0.1117788676
H  H49  1  0.92943000  0.00669000  0.20596000  1.0 0.0703813081
H  H50  1  0.96021000  0.95666000  0.17106000  1.0 0.0703813081
H  H51  1  0.91523000  0.01829000  0.15315000  1.0 0.0703813081
H  H52  1  0.28605000  0.05181000  0.25135000  1.0 0.0812510414
H  H53  1  0.28134000  0.19962000  0.25765000  1.0 0.35029592
H  H54  1  0.06576000  0.26371000  0.27437000  1.0 0.35029592
H  H55  1  0.95008000  0.26713000  0.19559000  1.0 0.1203372263
H  H56  1  0.44725000  0.26430000  0.13119000  1.0 0.1117788676
H  H57  1  0.49733000  0.29649000  0.31373000  1.0 0.1287569024
H  H58  1  0.99102000  0.29211000  0.37783000  1.0 0.1203372263
H  H59  1  0.52345000  0.95502000  0.30844000  1.0 0.1117788676
H  H60  1  0.60633000  0.00736000  0.33534000  1.0 0.1117788676
H  H61  1  0.44548000  0.96988000  0.35736000  1.0 0.0982189122
H  H62  1  0.07374000  0.03581000  0.31148000  1.0 0.1117788676
H  H63  1  0.12674000  0.97668000  0.28979000  1.0 0.0982189122
H  H64  1  0.14116000  0.98548000  0.34296000  1.0 0.1117788676
H  H65  1  0.83603000  0.32963000  0.14184000  1.0 0.1287569024
H  H66  1  0.32955000  0.32554000  0.07714000  1.0 0.1203372263
H  H67  1  0.35886000  0.34143000  0.37446000  1.0 0.1287569024
H  H68  1  0.85338000  0.33135000  0.44143000  1.0 0.1203372263
H  H69  1  0.31602000  0.44896000  0.09504000  1.0 0.1388664332
H  H70  1  0.18217000  0.42653000  0.13411000  1.0 0.1287569024
H  H71  1  0.16055000  0.48923000  0.11610000  1.0 0.1287569024
H  H72  1  0.91422000  0.27290000  0.04907000  1.0 0.1287569024
H  H73  1  0.81939000  0.28492000  0.00139000  1.0 0.1388664332
H  H74  1  0.69723000  0.28837000  0.04628000  1.0 0.1388664332
H  H75  1  0.33820000  0.27905000  0.51186000  1.0 0.1388664332
H  H76  1  0.42783000  0.27322000  0.46288000  1.0 0.1388664332
H  H77  1  0.21196000  0.28904000  0.46827000  1.0 0.1388664332
H  H78  1  0.82598000  0.44065000  0.42450000  1.0 0.1388664332
H  H79  1  0.71536000  0.49880000  0.42370000  1.0 0.1287569024
H  H80  1  0.66308000  0.45060000  0.38860000  1.0 0.1388664332
H  H81  1  0.69222000  0.52528000  0.99822000  1.0 0.1388664332
H  H82  1  0.65706000  0.47757000  0.96150000  1.0 0.1388664332
H  H83  1  0.84822000  0.51218000  0.96124000  1.0 0.1287569024
H  H84  1  0.43294000  0.36909000  0.00901000  1.0 0.1203372263
H  H85  1  0.85807000  0.38138000  0.92073000  1.0 0.1287569024
H  H86  1  0.13038000  0.47571000  0.55158000  1.0 0.1287569024
H  H87  1  0.27507000  0.52422000  0.53900000  1.0 0.1388664332
H  H88  1  0.32513000  0.48020000  0.57763000  1.0 0.1388664332
H  H89  1  0.93192000  0.37824000  0.51340000  1.0 0.1203372263
H  H90  1  0.37991000  0.35124000  0.59441000  1.0 0.1287569024
H  H91  1  0.22859000  0.34690000  0.95130000  1.0 0.1203372263
H  H92  1  0.65387000  0.36183000  0.86291000  1.0 0.1117788676
H  H93  1  0.73450000  0.35651000  0.57319000  1.0 0.1117788676
H  H94  1  0.18089000  0.32878000  0.65399000  1.0 0.1117788676
H  H95  1  0.06565000  0.31433000  0.85294000  1.0 0.35029592
H  H96  1  0.28003000  0.07593000  0.22963000  1.0 0.0913290111
H  H97  1  0.52394000  0.96576000  0.17544000  1.0 0.0982189122
H  H98  1  0.52963000  0.01365000  0.13794000  1.0 0.0913290111
H  H99  1  0.38365000  0.96327000  0.13367000  1.0 0.1117788676
H  H100  1  0.07057000  0.99331000  0.20596000  1.0 0.0703813081
H  H101  1  0.03979000  0.04334000  0.17106000  1.0 0.0703813081
H  H102  1  0.08477000  0.98171000  0.15315000  1.0 0.0703813081
H  H103  1  0.78605000  0.44819000  0.74865000  1.0 0.0812510414
H  H104  1  0.78134000  0.30038000  0.74235000  1.0 0.35029592
H  H105  1  0.56576000  0.23629000  0.72563000  1.0 0.35029592
H  H106  1  0.45008000  0.23287000  0.80441000  1.0 0.1203372263
H  H107  1  0.94725000  0.23570000  0.86881000  1.0 0.1117788676
H  H108  1  0.99733000  0.20351000  0.68627000  1.0 0.1287569024
H  H109  1  0.49102000  0.20789000  0.62217000  1.0 0.1203372263
H  H110  1  0.02345000  0.54498000  0.69156000  1.0 0.1117788676
H  H111  1  0.10633000  0.49264000  0.66466000  1.0 0.1117788676
H  H112  1  0.94548000  0.53012000  0.64264000  1.0 0.0982189122
H  H113  1  0.57374000  0.46419000  0.68852000  1.0 0.1117788676
H  H114  1  0.62674000  0.52332000  0.71021000  1.0 0.0982189122
H  H115  1  0.64116000  0.51452000  0.65704000  1.0 0.1117788676
H  H116  1  0.33603000  0.17037000  0.85816000  1.0 0.1287569024
H  H117  1  0.82955000  0.17446000  0.92286000  1.0 0.1203372263
H  H118  1  0.85886000  0.15857000  0.62554000  1.0 0.1287569024
H  H119  1  0.35338000  0.16865000  0.55857000  1.0 0.1203372263
H  H120  1  0.81602000  0.05104000  0.90496000  1.0 0.1388664332
H  H121  1  0.68217000  0.07347000  0.86589000  1.0 0.1287569024
H  H122  1  0.66055000  0.01077000  0.88390000  1.0 0.1287569024
H  H123  1  0.41422000  0.22710000  0.95093000  1.0 0.1287569024
H  H124  1  0.31939000  0.21508000  0.99861000  1.0 0.1388664332
H  H125  1  0.19723000  0.21163000  0.95372000  1.0 0.1388664332
H  H126  1  0.83820000  0.22095000  0.48814000  1.0 0.1388664332
H  H127  1  0.92783000  0.22678000  0.53712000  1.0 0.1388664332
H  H128  1  0.71196000  0.21096000  0.53173000  1.0 0.1388664332
H  H129  1  0.32598000  0.05935000  0.57550000  1.0 0.1388664332
H  H130  1  0.21536000  0.00120000  0.57630000  1.0 0.1287569024
H  H131  1  0.16308000  0.04940000  0.61140000  1.0 0.1388664332
H  H132  1  0.19222000  0.97472000  0.00178000  1.0 0.1388664332
H  H133  1  0.15706000  0.02243000  0.03850000  1.0 0.1388664332
H  H134  1  0.34822000  0.98782000  0.03876000  1.0 0.1388664332
H  H135  1  0.93294000  0.13091000  0.99099000  1.0 0.1203372263
H  H136  1  0.35807000  0.11862000  0.07927000  1.0 0.1287569024
H  H137  1  0.63038000  0.02429000  0.44842000  1.0 0.1287569024
H  H138  1  0.77507000  0.97578000  0.46100000  1.0 0.1388664332
H  H139  1  0.82513000  0.01980000  0.42237000  1.0 0.1388664332
H  H140  1  0.43192000  0.12176000  0.48660000  1.0 0.1203372263
H  H141  1  0.87991000  0.14876000  0.40559000  1.0 0.1287569024
H  H142  1  0.72859000  0.15310000  0.04870000  1.0 0.1203372263
H  H143  1  0.15387000  0.13817000  0.13709000  1.0 0.1117788676
H  H144  1  0.23450000  0.14349000  0.42681000  1.0 0.1117788676
H  H145  1  0.68089000  0.17122000  0.34601000  1.0 0.1117788676
H  H146  1  0.56565000  0.18567000  0.14706000  1.0 0.35029592
H  H147  1  0.78003000  0.42407000  0.77037000  1.0 0.0982189122
H  H148  1  0.02394000  0.53424000  0.82456000  1.0 0.0982189122
H  H149  1  0.02963000  0.48635000  0.86206000  1.0 0.0913290111
H  H150  1  0.88365000  0.53673000  0.86633000  1.0 0.1117788676
H  H151  1  0.57057000  0.50669000  0.79404000  1.0 0.0703813081
H  H152  1  0.53979000  0.45666000  0.82894000  1.0 0.0703813081
H  H153  1  0.58477000  0.51829000  0.84685000  1.0 0.0703813081
H  H154  1  0.21395000  0.55181000  0.74865000  1.0 0.0812510414
H  H155  1  0.21866000  0.69962000  0.74235000  1.0 0.35029592
H  H156  1  0.43424000  0.76371000  0.72563000  1.0 0.35029592
H  H157  1  0.54992000  0.76713000  0.80441000  1.0 0.1203372263
H  H158  1  0.05275000  0.76430000  0.86881000  1.0 0.1117788676
H  H159  1  0.00267000  0.79649000  0.68627000  1.0 0.1287569024
H  H160  1  0.50898000  0.79211000  0.62217000  1.0 0.1203372263
H  H161  1  0.97655000  0.45502000  0.69156000  1.0 0.1117788676
H  H162  1  0.89367000  0.50736000  0.66466000  1.0 0.1117788676
H  H163  1  0.05452000  0.46988000  0.64264000  1.0 0.0982189122
H  H164  1  0.42626000  0.53581000  0.68852000  1.0 0.1117788676
H  H165  1  0.37326000  0.47668000  0.71021000  1.0 0.0982189122
H  H166  1  0.35884000  0.48548000  0.65704000  1.0 0.1117788676
H  H167  1  0.66397000  0.82963000  0.85816000  1.0 0.1287569024
H  H168  1  0.17045000  0.82554000  0.92286000  1.0 0.1203372263
H  H169  1  0.14114000  0.84143000  0.62554000  1.0 0.1287569024
H  H170  1  0.64662000  0.83135000  0.55857000  1.0 0.1203372263
H  H171  1  0.18398000  0.94896000  0.90496000  1.0 0.1388664332
H  H172  1  0.31783000  0.92653000  0.86589000  1.0 0.1287569024
H  H173  1  0.33945000  0.98923000  0.88390000  1.0 0.1287569024
H  H174  1  0.58578000  0.77290000  0.95093000  1.0 0.1287569024
H  H175  1  0.68061000  0.78492000  0.99861000  1.0 0.1388664332
H  H176  1  0.80277000  0.78837000  0.95372000  1.0 0.1388664332
H  H177  1  0.16180000  0.77905000  0.48814000  1.0 0.1388664332
H  H178  1  0.07217000  0.77322000  0.53712000  1.0 0.1388664332
H  H179  1  0.28804000  0.78904000  0.53173000  1.0 0.1388664332
H  H180  1  0.67402000  0.94065000  0.57550000  1.0 0.1388664332
H  H181  1  0.78464000  0.99880000  0.57630000  1.0 0.1287569024
H  H182  1  0.83692000  0.95060000  0.61140000  1.0 0.1388664332
H  H183  1  0.80778000  0.02528000  0.00178000  1.0 0.1388664332
H  H184  1  0.84294000  0.97757000  0.03850000  1.0 0.1388664332
H  H185  1  0.65178000  0.01218000  0.03876000  1.0 0.1287569024
H  H186  1  0.06706000  0.86909000  0.99099000  1.0 0.1203372263
H  H187  1  0.64193000  0.88138000  0.07927000  1.0 0.1287569024
H  H188  1  0.36962000  0.97571000  0.44842000  1.0 0.1287569024
H  H189  1  0.22493000  0.02422000  0.46100000  1.0 0.1388664332
H  H190  1  0.17487000  0.98020000  0.42237000  1.0 0.1388664332
H  H191  1  0.56808000  0.87824000  0.48660000  1.0 0.1203372263
H  H192  1  0.12009000  0.85124000  0.40559000  1.0 0.1287569024
H  H193  1  0.27141000  0.84690000  0.04870000  1.0 0.1203372263
H  H194  1  0.84613000  0.86183000  0.13709000  1.0 0.1117788676
H  H195  1  0.76550000  0.85651000  0.42681000  1.0 0.1117788676
H  H196  1  0.31911000  0.82878000  0.34601000  1.0 0.1117788676
H  H197  1  0.43435000  0.81433000  0.14706000  1.0 0.35029592
H  H198  1  0.21997000  0.57593000  0.77037000  1.0 0.0982189122
H  H199  1  0.97606000  0.46576000  0.82456000  1.0 0.0982189122
H  H200  1  0.97037000  0.51365000  0.86206000  1.0 0.0913290111
H  H201  1  0.11635000  0.46327000  0.86633000  1.0 0.1117788676
H  H202  1  0.42943000  0.49331000  0.79404000  1.0 0.0703813081
H  H203  1  0.46021000  0.54334000  0.82894000  1.0 0.0703813081
H  H204  1  0.41523000  0.48171000  0.84685000  1.0 0.0703813081
C  C1  1  0.71410000  0.77990000  0.20270000  1.0 0.5875148191
C  C2  1  0.15690000  0.73200000  0.29830000  1.0 0.5609772517
C  C3  1  0.60500000  0.95080000  0.26950000  1.0 -0.0276034871
C  C4  1  0.78880000  0.74030000  0.16830000  1.0 -0.0526152454
C  C5  1  0.24330000  0.70810000  0.33890000  1.0 -0.0526152454
C  C6  1  0.97200000  0.72090000  0.17160000  1.0 -0.0795653822
C  C7  1  0.67780000  0.72280000  0.13340000  1.0 -0.097696701
C  C8  1  0.42890000  0.69460000  0.33930000  1.0 -0.072373469
C  C9  1  0.13740000  0.69810000  0.37740000  1.0 -0.0880930652
C  C10  1  0.50700000  0.01450000  0.32920000  1.0 -0.0795653822
C  C11  1  0.84300000  0.99660000  0.31360000  1.0 -0.4535018192
C  C12  1  0.03950000  0.68370000  0.13930000  1.0 -0.1323764013
C  C13  1  0.74820000  0.68600000  0.10130000  1.0 -0.1413489691
C  C14  1  0.51290000  0.66860000  0.37540000  1.0 -0.1413489691
C  C15  1  0.21820000  0.67390000  0.41490000  1.0 -0.1505645085
C  C16  1  0.93090000  0.66570000  0.10380000  1.0 0.0982189122
C  C17  1  0.40390000  0.65730000  0.41370000  1.0 0.1117788676
C  C18  1  0.00320000  0.62550000  0.07045000  1.0 -0.0880930652
C  C19  1  0.48180000  0.62240000  0.45090000  1.0 -0.0795653822
C  C20  1  0.94760000  0.56860000  0.07290000  1.0 0.0982189122
C  C21  1  0.13130000  0.64320000  0.03750000  1.0 0.0913290111
C  C22  1  0.61100000  0.64510000  0.48200000  1.0 0.0913290111
C  C23  1  0.43700000  0.56520000  0.45170000  1.0 0.0982189122
C  C24  1  0.02720000  0.52980000  0.04350000  1.0 -0.0433802417
C  C25  1  0.81040000  0.54940000  0.10760000  1.0 -0.4430872636
C  C26  1  0.20620000  0.60430000  0.00760000  1.0 -0.0795653822
C  C27  1  0.17940000  0.70470000  0.03320000  1.0 -0.4607244598
C  C28  1  0.69260000  0.60970000  0.51343000  1.0 -0.0795653822
C  C29  1  0.66310000  0.70630000  0.48110000  1.0 -0.4607244598
C  C30  1  0.52110000  0.53040000  0.48310000  1.0 -0.0433802417
C  C31  1  0.29560000  0.54170000  0.41940000  1.0 -0.4430872636
C  C32  1  0.15630000  0.54740000  0.01180000  1.0 0.0913290111
C  C33  1  0.33480000  0.62170000  0.97150000  1.0 0.0913290111
C  C34  1  0.64990000  0.55200000  0.51450000  1.0 0.0982189122
C  C35  1  0.82130000  0.63070000  0.54910000  1.0 0.0913290111
C  C36  1  0.24870000  0.50430000  0.98040000  1.0 -0.4674385375
C  C37  1  0.52150000  0.63230000  0.97910000  1.0 -0.1413489691
C  C38  1  0.27030000  0.62460000  0.92710000  1.0 -0.1505645085
C  C39  1  0.73710000  0.51480000  0.54860000  1.0 -0.4674385375
C  C40  1  0.01770000  0.63060000  0.54200000  1.0 -0.1505645085
C  C41  1  0.75140000  0.64670000  0.59030000  1.0 -0.1413489691
C  C42  1  0.64470000  0.64470000  0.94480000  1.0 -0.097696701
C  C43  1  0.39170000  0.63610000  0.89280000  1.0 -0.1091443566
C  C44  1  0.13420000  0.64360000  0.57750000  1.0 -0.097696701
C  C45  1  0.86930000  0.66010000  0.62590000  1.0 -0.1091443566
C  C46  1  0.58210000  0.64490000  0.90110000  1.0 -0.0433802417
C  C47  1  0.06150000  0.65680000  0.61970000  1.0 -0.0526152454
C  C48  1  0.70880000  0.65610000  0.86310000  1.0 0.5378929092
C  C49  1  0.19070000  0.66680000  0.65790000  1.0 0.5509857251
C  C50  1  0.62800000  0.94150000  0.21150000  1.0 0.1287569024
C  C51  1  0.55200000  0.01190000  0.15470000  1.0 -0.1573758633
C  C52  1  0.89000000  0.99110000  0.17700000  1.0 -0.1413489691
C  C53  1  0.28590000  0.22010000  0.20270000  1.0 0.5875148191
C  C54  1  0.84310000  0.26800000  0.29830000  1.0 0.5609772517
C  C55  1  0.39500000  0.04920000  0.26950000  1.0 -0.0276034871
C  C56  1  0.21120000  0.25970000  0.16830000  1.0 -0.0526152454
C  C57  1  0.75670000  0.29190000  0.33890000  1.0 -0.0526152454
C  C58  1  0.02800000  0.27910000  0.17160000  1.0 -0.0795653822
C  C59  1  0.32220000  0.27720000  0.13340000  1.0 -0.097696701
C  C60  1  0.57110000  0.30540000  0.33930000  1.0 -0.072373469
C  C61  1  0.86260000  0.30190000  0.37740000  1.0 -0.0880930652
C  C62  1  0.49300000  0.98550000  0.32920000  1.0 -0.0795653822
C  C63  1  0.15700000  0.00340000  0.31360000  1.0 -0.4535018192
C  C64  1  0.96050000  0.31630000  0.13930000  1.0 -0.1323764013
C  C65  1  0.25180000  0.31400000  0.10130000  1.0 -0.1413489691
C  C66  1  0.48710000  0.33140000  0.37540000  1.0 -0.1413489691
C  C67  1  0.78180000  0.32610000  0.41490000  1.0 -0.1505645085
C  C68  1  0.06910000  0.33430000  0.10380000  1.0 0.0982189122
C  C69  1  0.59610000  0.34270000  0.41370000  1.0 0.1117788676
C  C70  1  0.99680000  0.37450000  0.07045000  1.0 -0.0880930652
C  C71  1  0.51820000  0.37760000  0.45090000  1.0 -0.0795653822
C  C72  1  0.05240000  0.43140000  0.07290000  1.0 0.0982189122
C  C73  1  0.86870000  0.35680000  0.03750000  1.0 0.0913290111
C  C74  1  0.38900000  0.35490000  0.48200000  1.0 0.0913290111
C  C75  1  0.56300000  0.43480000  0.45170000  1.0 0.0982189122
C  C76  1  0.97280000  0.47020000  0.04350000  1.0 -0.0433802417
C  C77  1  0.18960000  0.45060000  0.10760000  1.0 -0.4430872636
C  C78  1  0.79380000  0.39570000  0.00760000  1.0 -0.0795653822
C  C79  1  0.82060000  0.29530000  0.03320000  1.0 -0.4607244598
C  C80  1  0.30740000  0.39030000  0.51343000  1.0 -0.0795653822
C  C81  1  0.33690000  0.29370000  0.48110000  1.0 -0.4607244598
C  C82  1  0.47890000  0.46960000  0.48310000  1.0 -0.0433802417
C  C83  1  0.70440000  0.45830000  0.41940000  1.0 -0.4430872636
C  C84  1  0.84370000  0.45260000  0.01180000  1.0 0.0913290111
C  C85  1  0.66520000  0.37830000  0.97150000  1.0 0.0913290111
C  C86  1  0.35010000  0.44800000  0.51450000  1.0 0.0982189122
C  C87  1  0.17870000  0.36930000  0.54910000  1.0 0.0913290111
C  C88  1  0.75130000  0.49570000  0.98040000  1.0 -0.4674385375
C  C89  1  0.47850000  0.36770000  0.97910000  1.0 -0.1413489691
C  C90  1  0.72970000  0.37540000  0.92710000  1.0 -0.1505645085
C  C91  1  0.26290000  0.48520000  0.54860000  1.0 -0.4674385375
C  C92  1  0.98230000  0.36940000  0.54200000  1.0 -0.1505645085
C  C93  1  0.24860000  0.35330000  0.59030000  1.0 -0.1413489691
C  C94  1  0.35530000  0.35530000  0.94480000  1.0 -0.097696701
C  C95  1  0.60830000  0.36390000  0.89280000  1.0 -0.1091443566
C  C96  1  0.86580000  0.35640000  0.57750000  1.0 -0.097696701
C  C97  1  0.13070000  0.33990000  0.62590000  1.0 -0.1091443566
C  C98  1  0.41790000  0.35510000  0.90110000  1.0 -0.0433802417
C  C99  1  0.93850000  0.34320000  0.61970000  1.0 -0.0526152454
C  C100  1  0.29120000  0.34390000  0.86310000  1.0 0.5378929092
C  C101  1  0.80930000  0.33320000  0.65790000  1.0 0.5509857251
C  C102  1  0.37200000  0.05850000  0.21150000  1.0 0.1287569024
C  C103  1  0.44800000  0.98810000  0.15470000  1.0 -0.1573758633
C  C104  1  0.11000000  0.00890000  0.17700000  1.0 -0.1413489691
C  C105  1  0.78590000  0.27990000  0.79730000  1.0 0.5875148191
C  C106  1  0.34310000  0.23200000  0.70170000  1.0 0.5609772517
C  C107  1  0.89500000  0.45080000  0.73050000  1.0 -0.0276034871
C  C108  1  0.71120000  0.24030000  0.83170000  1.0 -0.0526152454
C  C109  1  0.25670000  0.20810000  0.66110000  1.0 -0.0526152454
C  C110  1  0.52800000  0.22090000  0.82840000  1.0 -0.0795653822
C  C111  1  0.82220000  0.22280000  0.86660000  1.0 -0.097696701
C  C112  1  0.07110000  0.19460000  0.66070000  1.0 -0.072373469
C  C113  1  0.36260000  0.19810000  0.62260000  1.0 -0.0880930652
C  C114  1  0.99300000  0.51450000  0.67080000  1.0 -0.0795653822
C  C115  1  0.65700000  0.49660000  0.68640000  1.0 -0.4535018192
C  C116  1  0.46050000  0.18370000  0.86070000  1.0 -0.1323764013
C  C117  1  0.75180000  0.18600000  0.89870000  1.0 -0.1413489691
C  C118  1  0.98710000  0.16860000  0.62460000  1.0 -0.1413489691
C  C119  1  0.28180000  0.17390000  0.58510000  1.0 -0.1505645085
C  C120  1  0.56910000  0.16570000  0.89620000  1.0 0.0982189122
C  C121  1  0.09610000  0.15730000  0.58630000  1.0 0.1117788676
C  C122  1  0.49680000  0.12550000  0.92955000  1.0 -0.0880930652
C  C123  1  0.01820000  0.12240000  0.54910000  1.0 -0.0795653822
C  C124  1  0.55240000  0.06860000  0.92710000  1.0 0.0982189122
C  C125  1  0.36870000  0.14320000  0.96250000  1.0 0.0913290111
C  C126  1  0.88900000  0.14510000  0.51800000  1.0 0.0913290111
C  C127  1  0.06300000  0.06520000  0.54830000  1.0 0.0982189122
C  C128  1  0.47280000  0.02980000  0.95650000  1.0 -0.0433802417
C  C129  1  0.68960000  0.04940000  0.89240000  1.0 -0.4430872636
C  C130  1  0.29380000  0.10430000  0.99240000  1.0 -0.0795653822
C  C131  1  0.32060000  0.20470000  0.96680000  1.0 -0.4607244598
C  C132  1  0.80740000  0.10970000  0.48657000  1.0 -0.0795653822
C  C133  1  0.83690000  0.20630000  0.51890000  1.0 -0.4607244598
C  C134  1  0.97890000  0.03040000  0.51690000  1.0 -0.0433802417
C  C135  1  0.20440000  0.04170000  0.58060000  1.0 -0.4430872636
C  C136  1  0.34370000  0.04740000  0.98820000  1.0 0.0913290111
C  C137  1  0.16520000  0.12170000  0.02850000  1.0 0.0913290111
C  C138  1  0.85010000  0.05200000  0.48550000  1.0 0.0982189122
C  C139  1  0.67870000  0.13070000  0.45090000  1.0 0.0913290111
C  C140  1  0.25130000  0.00430000  0.01960000  1.0 -0.4674385375
C  C141  1  0.97850000  0.13230000  0.02090000  1.0 -0.1413489691
C  C142  1  0.22970000  0.12460000  0.07290000  1.0 -0.1505645085
C  C143  1  0.76290000  0.01480000  0.45140000  1.0 -0.4674385375
C  C144  1  0.48230000  0.13060000  0.45800000  1.0 -0.1505645085
C  C145  1  0.74860000  0.14670000  0.40970000  1.0 -0.1413489691
C  C146  1  0.85530000  0.14470000  0.05520000  1.0 -0.097696701
C  C147  1  0.10830000  0.13610000  0.10720000  1.0 -0.1091443566
C  C148  1  0.36580000  0.14360000  0.42250000  1.0 -0.097696701
C  C149  1  0.63070000  0.16010000  0.37410000  1.0 -0.1091443566
C  C150  1  0.91790000  0.14490000  0.09890000  1.0 -0.0433802417
C  C151  1  0.43850000  0.15680000  0.38030000  1.0 -0.0526152454
C  C152  1  0.79120000  0.15610000  0.13690000  1.0 0.5378929092
C  C153  1  0.30930000  0.16680000  0.34210000  1.0 0.5509857251
C  C154  1  0.87200000  0.44150000  0.78850000  1.0 0.1287569024
C  C155  1  0.94800000  0.51190000  0.84530000  1.0 -0.1573758633
C  C156  1  0.61000000  0.49110000  0.82300000  1.0 -0.1505645085
C  C157  1  0.21410000  0.72010000  0.79730000  1.0 0.5875148191
C  C158  1  0.65690000  0.76800000  0.70170000  1.0 0.5609772517
C  C159  1  0.10500000  0.54920000  0.73050000  1.0 -0.0276034871
C  C160  1  0.28880000  0.75970000  0.83170000  1.0 -0.0526152454
C  C161  1  0.74330000  0.79190000  0.66110000  1.0 -0.0526152454
C  C162  1  0.47200000  0.77910000  0.82840000  1.0 -0.0795653822
C  C163  1  0.17780000  0.77720000  0.86660000  1.0 -0.097696701
C  C164  1  0.92890000  0.80540000  0.66070000  1.0 -0.072373469
C  C165  1  0.63740000  0.80190000  0.62260000  1.0 -0.0880930652
C  C166  1  0.00700000  0.48550000  0.67080000  1.0 -0.0795653822
C  C167  1  0.34300000  0.50340000  0.68640000  1.0 -0.4535018192
C  C168  1  0.53950000  0.81630000  0.86070000  1.0 -0.1323764013
C  C169  1  0.24820000  0.81400000  0.89870000  1.0 -0.1413489691
C  C170  1  0.01290000  0.83140000  0.62460000  1.0 -0.1413489691
C  C171  1  0.71820000  0.82610000  0.58510000  1.0 -0.1505645085
C  C172  1  0.43090000  0.83430000  0.89620000  1.0 0.0982189122
C  C173  1  0.90390000  0.84270000  0.58630000  1.0 0.1117788676
C  C174  1  0.50320000  0.87450000  0.92955000  1.0 -0.0880930652
C  C175  1  0.98180000  0.87760000  0.54910000  1.0 -0.0795653822
C  C176  1  0.44760000  0.93140000  0.92710000  1.0 0.0982189122
C  C177  1  0.63130000  0.85680000  0.96250000  1.0 0.0913290111
C  C178  1  0.11100000  0.85490000  0.51800000  1.0 0.0913290111
C  C179  1  0.93700000  0.93480000  0.54830000  1.0 0.0982189122
C  C180  1  0.52720000  0.97020000  0.95650000  1.0 -0.0433802417
C  C181  1  0.31040000  0.95060000  0.89240000  1.0 -0.4430872636
C  C182  1  0.70620000  0.89570000  0.99240000  1.0 -0.0795653822
C  C183  1  0.67940000  0.79530000  0.96680000  1.0 -0.4607244598
C  C184  1  0.19260000  0.89030000  0.48657000  1.0 -0.0795653822
C  C185  1  0.16310000  0.79370000  0.51890000  1.0 -0.4607244598
C  C186  1  0.02110000  0.96960000  0.51690000  1.0 -0.0433802417
C  C187  1  0.79560000  0.95830000  0.58060000  1.0 -0.4430872636
C  C188  1  0.65630000  0.95260000  0.98820000  1.0 0.0913290111
C  C189  1  0.83480000  0.87830000  0.02850000  1.0 0.0913290111
C  C190  1  0.14990000  0.94800000  0.48550000  1.0 0.0913290111
C  C191  1  0.32130000  0.86930000  0.45090000  1.0 0.0913290111
C  C192  1  0.74870000  0.99570000  0.01960000  1.0 -0.4674385375
C  C193  1  0.02150000  0.86770000  0.02090000  1.0 -0.1413489691
C  C194  1  0.77030000  0.87540000  0.07290000  1.0 -0.1505645085
C  C195  1  0.23710000  0.98520000  0.45140000  1.0 -0.4674385375
C  C196  1  0.51770000  0.86940000  0.45800000  1.0 -0.1505645085
C  C197  1  0.25140000  0.85330000  0.40970000  1.0 -0.1413489691
C  C198  1  0.14470000  0.85530000  0.05520000  1.0 -0.097696701
C  C199  1  0.89170000  0.86390000  0.10720000  1.0 -0.1091443566
C  C200  1  0.63420000  0.85640000  0.42250000  1.0 -0.097696701
C  C201  1  0.36930000  0.83990000  0.37410000  1.0 -0.1091443566
C  C202  1  0.08210000  0.85510000  0.09890000  1.0 -0.0433802417
C  C203  1  0.56150000  0.84320000  0.38030000  1.0 -0.0526152454
C  C204  1  0.20880000  0.84390000  0.13690000  1.0 0.5378929092
C  C205  1  0.69070000  0.83320000  0.34210000  1.0 0.5509857251
C  C206  1  0.12800000  0.55850000  0.78850000  1.0 0.1287569024
C  C207  1  0.05200000  0.48810000  0.84530000  1.0 -0.1573758633
C  C208  1  0.39000000  0.50890000  0.82300000  1.0 -0.1505645085
N  N1  1  0.64900000  0.97740000  0.31040000  1.0 -0.0076883514
N  N2  1  0.69100000  0.97810000  0.17850000  1.0 -0.189573756
N  N3  1  0.35100000  0.02260000  0.31040000  1.0 -0.0076883514
N  N4  1  0.30900000  0.02190000  0.17850000  1.0 -0.189573756
N  N5  1  0.85100000  0.47740000  0.68960000  1.0 -0.0076883514
N  N6  1  0.80900000  0.47810000  0.82150000  1.0 -0.189573756
N  N7  1  0.14900000  0.52260000  0.68960000  1.0 -0.0076883514
N  N8  1  0.19100000  0.52190000  0.82150000  1.0 -0.189573756
O  O1  1  0.56640000  0.80682000  0.19499000  1.0 -0.6092479364
O  O2  1  0.24470000  0.75670000  0.26940000  1.0 -0.552175595
O  O3  1  0.47200000  0.93010000  0.24990000  1.0 -0.0795653822
O  O4  1  0.16030000  0.84807000  0.17664000  1.0 -0.5849710988
O  O5  1  0.60620000  0.82500000  0.30280000  1.0 -0.6800009297
O  O6  1  0.80570000  0.78570000  0.23899000  1.0 -0.4607244598
O  O7  1  0.97240000  0.72060000  0.29463000  1.0 -0.4607244598
O  O8  1  0.87850000  0.67190000  0.87514000  1.0 -0.5130172656
O  O9  1  0.36140000  0.66580000  0.65399000  1.0 -0.5596226887
O  O10  1  0.46700000  0.92990000  0.21920000  1.0 -0.0880930652
O  O11  1  0.43360000  0.19318000  0.19499000  1.0 -0.6092479364
O  O12  1  0.75530000  0.24330000  0.26940000  1.0 -0.552175595
O  O13  1  0.52800000  0.06990000  0.24990000  1.0 -0.0795653822
O  O14  1  0.83970000  0.15193000  0.17664000  1.0 -0.5849710988
O  O15  1  0.39380000  0.17500000  0.30280000  1.0 -0.6800009297
O  O16  1  0.19430000  0.21430000  0.23899000  1.0 -0.4607244598
O  O17  1  0.02760000  0.27940000  0.29463000  1.0 -0.4674385375
O  O18  1  0.12150000  0.32810000  0.87514000  1.0 -0.5130172656
O  O19  1  0.63860000  0.33420000  0.65399000  1.0 -0.5596226887
O  O20  1  0.53300000  0.07010000  0.21920000  1.0 -0.0880930652
O  O21  1  0.93360000  0.30682000  0.80501000  1.0 -0.6092479364
O  O22  1  0.25530000  0.25670000  0.73060000  1.0 -0.552175595
O  O23  1  0.02800000  0.43010000  0.75010000  1.0 -0.0795653822
O  O24  1  0.33970000  0.34807000  0.82336000  1.0 -0.5858881758
O  O25  1  0.89380000  0.32500000  0.69720000  1.0 -0.6800009297
O  O26  1  0.69430000  0.28570000  0.76101000  1.0 -0.4607244598
O  O27  1  0.52760000  0.22060000  0.70537000  1.0 -0.4607244598
O  O28  1  0.62150000  0.17190000  0.12486000  1.0 -0.5130172656
O  O29  1  0.13860000  0.16580000  0.34601000  1.0 -0.5596226887
O  O30  1  0.03300000  0.42990000  0.78080000  1.0 -0.0880930652
O  O31  1  0.06640000  0.69318000  0.80501000  1.0 -0.6092479364
O  O32  1  0.74470000  0.74330000  0.73060000  1.0 -0.552175595
O  O33  1  0.97200000  0.56990000  0.75010000  1.0 -0.0795653822
O  O34  1  0.66030000  0.65193000  0.82336000  1.0 -0.5858881758
O  O35  1  0.10620000  0.67500000  0.69720000  1.0 -0.6800009297
O  O36  1  0.30570000  0.71430000  0.76101000  1.0 -0.4607244598
O  O37  1  0.47240000  0.77940000  0.70537000  1.0 -0.4607244598
O  O38  1  0.37850000  0.82810000  0.12486000  1.0 -0.5130172656
O  O39  1  0.86140000  0.83420000  0.34601000  1.0 -0.5596226887
O  O40  1  0.96700000  0.57010000  0.78080000  1.0 -0.0880930652
