# DDEC6 charges by PACMAN v1.1 (https://github.com/mtap-research/PACMAN-charge/)
data_BOVXIW_ASR_pacman
_symmetry_space_group_name_H-M   'P 1'
_cell_length_a   28.57030000
_cell_length_b   28.57030000
_cell_length_c   28.57030000
_cell_angle_alpha   40.23860000
_cell_angle_beta   40.23860000
_cell_angle_gamma   40.23860000
_symmetry_Int_Tables_number   1
_chemical_formula_structural   Zn4H45C78N3O19
_chemical_formula_sum   'Zn16 H180 C312 N12 O76'
_cell_volume   8772.21836067
_cell_formula_units_Z   4
loop_
 _symmetry_equiv_pos_site_id
 _symmetry_equiv_pos_as_xyz
  1  'x, y, z'
loop_
 _atom_site_type_symbol
 _atom_site_label
 _atom_site_symmetry_multiplicity
 _atom_site_fract_x
 _atom_site_fract_y
 _atom_site_fract_z
 _atom_site_occupancy
 _atom_site_charge
Zn  Zn1  1  0.87528000  0.83467000  0.00983000  1.0 0.7961341497
Zn  Zn2  1  0.83467000  0.00983000  0.87528000  1.0 0.7961341497
Zn  Zn3  1  0.00983000  0.87528000  0.83467000  1.0 0.7961341497
Zn  Zn4  1  0.33467000  0.37528000  0.50983000  1.0 0.7961341497
Zn  Zn5  1  0.50983000  0.33467000  0.37528000  1.0 0.7961341497
Zn  Zn6  1  0.37528000  0.50983000  0.33467000  1.0 0.7961341497
Zn  Zn7  1  0.94022000  0.94022000  0.94022000  1.0 0.7066380785
Zn  Zn8  1  0.44022000  0.44022000  0.44022000  1.0 0.7066380785
Zn  Zn9  1  0.66533000  0.62472000  0.49017000  1.0 0.7961341497
Zn  Zn10  1  0.49017000  0.66533000  0.62472000  1.0 0.7961341497
Zn  Zn11  1  0.62472000  0.49017000  0.66533000  1.0 0.7961341497
Zn  Zn12  1  0.12472000  0.16533000  0.99017000  1.0 0.7961341497
Zn  Zn13  1  0.16533000  0.99017000  0.12472000  1.0 0.7961341497
Zn  Zn14  1  0.99017000  0.12472000  0.16533000  1.0 0.7961341497
Zn  Zn15  1  0.55978000  0.55978000  0.55978000  1.0 0.7066380785
Zn  Zn16  1  0.05978000  0.05978000  0.05978000  1.0 0.7066380785
H  H1  1  0.59790000  0.06450000  0.97200000  1.0 0.1111552751
H  H2  1  0.47770000  0.07930000  0.02220000  1.0 0.1111552751
H  H3  1  0.54620000  0.84520000  0.16020000  1.0 0.128260772
H  H4  1  0.66580000  0.82940000  0.11280000  1.0 0.1111552751
H  H5  1  0.36080000  0.09260000  0.08680000  1.0 0.1196505698
H  H6  1  0.24730000  0.10090000  0.12750000  1.0 0.1111552751
H  H7  1  0.24510000  0.98430000  0.19050000  1.0 0.1111552751
H  H8  1  0.30320000  0.87750000  0.17020000  1.0 0.1111552751
H  H9  1  0.31030000  0.75620000  0.22980000  1.0 0.1196505698
H  H10  1  0.41770000  0.64860000  0.34970000  1.0 0.078976299
H  H11  1  0.41050000  0.76990000  0.28990000  1.0 0.0950068862
H  H12  1  0.27890000  0.88330000  0.19890000  1.0 0.1111552751
H  H13  1  0.29280000  0.76620000  0.24060000  1.0 0.1196505698
H  H14  1  0.47530000  0.63670000  0.28630000  1.0 0.078976299
H  H15  1  0.46140000  0.75380000  0.24460000  1.0 0.092284743
H  H16  1  0.06450000  0.97200000  0.59790000  1.0 0.1111552751
H  H17  1  0.07930000  0.02220000  0.47770000  1.0 0.1111552751
H  H18  1  0.84520000  0.16020000  0.54620000  1.0 0.128260772
H  H19  1  0.82940000  0.11280000  0.66580000  1.0 0.1111552751
H  H20  1  0.09260000  0.08680000  0.36080000  1.0 0.1196505698
H  H21  1  0.10090000  0.12750000  0.24730000  1.0 0.1111552751
H  H22  1  0.98430000  0.19050000  0.24510000  1.0 0.1111552751
H  H23  1  0.87750000  0.17020000  0.30320000  1.0 0.1111552751
H  H24  1  0.75620000  0.22980000  0.31030000  1.0 0.1196505698
H  H25  1  0.64860000  0.34970000  0.41770000  1.0 0.078976299
H  H26  1  0.76990000  0.28990000  0.41050000  1.0 0.0950068862
H  H27  1  0.88330000  0.19890000  0.27890000  1.0 0.1111552751
H  H28  1  0.76620000  0.24060000  0.29280000  1.0 0.1196505698
H  H29  1  0.63670000  0.28630000  0.47530000  1.0 0.078976299
H  H30  1  0.75380000  0.24460000  0.46140000  1.0 0.092284743
H  H31  1  0.97200000  0.59790000  0.06450000  1.0 0.1111552751
H  H32  1  0.02220000  0.47770000  0.07930000  1.0 0.1111552751
H  H33  1  0.16020000  0.54620000  0.84520000  1.0 0.128260772
H  H34  1  0.11280000  0.66580000  0.82940000  1.0 0.1111552751
H  H35  1  0.08680000  0.36080000  0.09260000  1.0 0.1196505698
H  H36  1  0.12750000  0.24730000  0.10090000  1.0 0.1111552751
H  H37  1  0.19050000  0.24510000  0.98430000  1.0 0.1111552751
H  H38  1  0.17020000  0.30320000  0.87750000  1.0 0.1111552751
H  H39  1  0.22980000  0.31030000  0.75620000  1.0 0.1196505698
H  H40  1  0.34970000  0.41770000  0.64860000  1.0 0.078976299
H  H41  1  0.28990000  0.41050000  0.76990000  1.0 0.092284743
H  H42  1  0.19890000  0.27890000  0.88330000  1.0 0.1111552751
H  H43  1  0.24060000  0.29280000  0.76620000  1.0 0.1196505698
H  H44  1  0.28630000  0.47530000  0.63670000  1.0 0.078976299
H  H45  1  0.24460000  0.46140000  0.75380000  1.0 0.092284743
H  H46  1  0.56450000  0.09790000  0.47200000  1.0 0.1111552751
H  H47  1  0.57930000  0.97770000  0.52220000  1.0 0.1111552751
H  H48  1  0.34520000  0.04620000  0.66020000  1.0 0.128260772
H  H49  1  0.32940000  0.16580000  0.61280000  1.0 0.1111552751
H  H50  1  0.59260000  0.86080000  0.58680000  1.0 0.1196505698
H  H51  1  0.60090000  0.74730000  0.62750000  1.0 0.1111552751
H  H52  1  0.48430000  0.74510000  0.69050000  1.0 0.1111552751
H  H53  1  0.37750000  0.80320000  0.67020000  1.0 0.1111552751
H  H54  1  0.25620000  0.81030000  0.72980000  1.0 0.1196505698
H  H55  1  0.14860000  0.91770000  0.84970000  1.0 0.078976299
H  H56  1  0.26990000  0.91050000  0.78990000  1.0 0.092284743
H  H57  1  0.38330000  0.77890000  0.69890000  1.0 0.1111552751
H  H58  1  0.26620000  0.79280000  0.74060000  1.0 0.1196505698
H  H59  1  0.13670000  0.97530000  0.78630000  1.0 0.078976299
H  H60  1  0.25380000  0.96140000  0.74460000  1.0 0.092284743
H  H61  1  0.47200000  0.56450000  0.09790000  1.0 0.1111552751
H  H62  1  0.52220000  0.57930000  0.97770000  1.0 0.1111552751
H  H63  1  0.66020000  0.34520000  0.04620000  1.0 0.128260772
H  H64  1  0.61280000  0.32940000  0.16580000  1.0 0.1111552751
H  H65  1  0.58680000  0.59260000  0.86080000  1.0 0.1196505698
H  H66  1  0.62750000  0.60090000  0.74730000  1.0 0.1111552751
H  H67  1  0.69050000  0.48430000  0.74510000  1.0 0.1111552751
H  H68  1  0.67020000  0.37750000  0.80320000  1.0 0.1111552751
H  H69  1  0.72980000  0.25620000  0.81030000  1.0 0.1196505698
H  H70  1  0.84970000  0.14860000  0.91770000  1.0 0.078976299
H  H71  1  0.78990000  0.26990000  0.91050000  1.0 0.0950068862
H  H72  1  0.69890000  0.38330000  0.77890000  1.0 0.1111552751
H  H73  1  0.74060000  0.26620000  0.79280000  1.0 0.1196505698
H  H74  1  0.78630000  0.13670000  0.97530000  1.0 0.078976299
H  H75  1  0.74460000  0.25380000  0.96140000  1.0 0.092284743
H  H76  1  0.09790000  0.47200000  0.56450000  1.0 0.1111552751
H  H77  1  0.97770000  0.52220000  0.57930000  1.0 0.1111552751
H  H78  1  0.04620000  0.66020000  0.34520000  1.0 0.128260772
H  H79  1  0.16580000  0.61280000  0.32940000  1.0 0.1111552751
H  H80  1  0.86080000  0.58680000  0.59260000  1.0 0.1196505698
H  H81  1  0.74730000  0.62750000  0.60090000  1.0 0.1111552751
H  H82  1  0.74510000  0.69050000  0.48430000  1.0 0.1111552751
H  H83  1  0.80320000  0.67020000  0.37750000  1.0 0.1111552751
H  H84  1  0.81030000  0.72980000  0.25620000  1.0 0.1196505698
H  H85  1  0.91770000  0.84970000  0.14860000  1.0 0.078976299
H  H86  1  0.91050000  0.78990000  0.26990000  1.0 0.0950068862
H  H87  1  0.77890000  0.69890000  0.38330000  1.0 0.1111552751
H  H88  1  0.79280000  0.74060000  0.26620000  1.0 0.1196505698
H  H89  1  0.97530000  0.78630000  0.13670000  1.0 0.078976299
H  H90  1  0.96140000  0.74460000  0.25380000  1.0 0.092284743
H  H91  1  0.43550000  0.90210000  0.52800000  1.0 0.1111552751
H  H92  1  0.42070000  0.02230000  0.47780000  1.0 0.1111552751
H  H93  1  0.65480000  0.95380000  0.33980000  1.0 0.128260772
H  H94  1  0.67060000  0.83420000  0.38720000  1.0 0.1111552751
H  H95  1  0.40740000  0.13920000  0.41320000  1.0 0.1196505698
H  H96  1  0.39910000  0.25270000  0.37250000  1.0 0.1111552751
H  H97  1  0.51570000  0.25490000  0.30950000  1.0 0.1111552751
H  H98  1  0.62250000  0.19680000  0.32980000  1.0 0.1111552751
H  H99  1  0.74380000  0.18970000  0.27020000  1.0 0.1196505698
H  H100  1  0.85140000  0.08230000  0.15030000  1.0 0.078976299
H  H101  1  0.73010000  0.08950000  0.21010000  1.0 0.0950068862
H  H102  1  0.61670000  0.22110000  0.30110000  1.0 0.1111552751
H  H103  1  0.73380000  0.20720000  0.25940000  1.0 0.1196505698
H  H104  1  0.86330000  0.02470000  0.21370000  1.0 0.078976299
H  H105  1  0.74620000  0.03860000  0.25540000  1.0 0.092284743
H  H106  1  0.52800000  0.43550000  0.90210000  1.0 0.1111552751
H  H107  1  0.47780000  0.42070000  0.02230000  1.0 0.1111552751
H  H108  1  0.33980000  0.65480000  0.95380000  1.0 0.128260772
H  H109  1  0.38720000  0.67060000  0.83420000  1.0 0.1111552751
H  H110  1  0.41320000  0.40740000  0.13920000  1.0 0.1196505698
H  H111  1  0.37250000  0.39910000  0.25270000  1.0 0.1111552751
H  H112  1  0.30950000  0.51570000  0.25490000  1.0 0.1111552751
H  H113  1  0.32980000  0.62250000  0.19680000  1.0 0.1111552751
H  H114  1  0.27020000  0.74380000  0.18970000  1.0 0.1196505698
H  H115  1  0.15030000  0.85140000  0.08230000  1.0 0.078976299
H  H116  1  0.21010000  0.73010000  0.08950000  1.0 0.092284743
H  H117  1  0.30110000  0.61670000  0.22110000  1.0 0.1111552751
H  H118  1  0.25940000  0.73380000  0.20720000  1.0 0.1196505698
H  H119  1  0.21370000  0.86330000  0.02470000  1.0 0.078976299
H  H120  1  0.25540000  0.74620000  0.03860000  1.0 0.092284743
H  H121  1  0.90210000  0.52800000  0.43550000  1.0 0.1111552751
H  H122  1  0.02230000  0.47780000  0.42070000  1.0 0.1111552751
H  H123  1  0.95380000  0.33980000  0.65480000  1.0 0.128260772
H  H124  1  0.83420000  0.38720000  0.67060000  1.0 0.1111552751
H  H125  1  0.13920000  0.41320000  0.40740000  1.0 0.1196505698
H  H126  1  0.25270000  0.37250000  0.39910000  1.0 0.1111552751
H  H127  1  0.25490000  0.30950000  0.51570000  1.0 0.1111552751
H  H128  1  0.19680000  0.32980000  0.62250000  1.0 0.1111552751
H  H129  1  0.18970000  0.27020000  0.74380000  1.0 0.1196505698
H  H130  1  0.08230000  0.15030000  0.85140000  1.0 0.078976299
H  H131  1  0.08950000  0.21010000  0.73010000  1.0 0.092284743
H  H132  1  0.22110000  0.30110000  0.61670000  1.0 0.1111552751
H  H133  1  0.20720000  0.25940000  0.73380000  1.0 0.1196505698
H  H134  1  0.02470000  0.21370000  0.86330000  1.0 0.078976299
H  H135  1  0.03860000  0.25540000  0.74620000  1.0 0.092284743
H  H136  1  0.40210000  0.93550000  0.02800000  1.0 0.1111552751
H  H137  1  0.52230000  0.92070000  0.97780000  1.0 0.1111552751
H  H138  1  0.45380000  0.15480000  0.83980000  1.0 0.128260772
H  H139  1  0.33420000  0.17060000  0.88720000  1.0 0.1111552751
H  H140  1  0.63920000  0.90740000  0.91320000  1.0 0.1196505698
H  H141  1  0.75270000  0.89910000  0.87250000  1.0 0.1111552751
H  H142  1  0.75490000  0.01570000  0.80950000  1.0 0.1111552751
H  H143  1  0.69680000  0.12250000  0.82980000  1.0 0.1111552751
H  H144  1  0.68970000  0.24380000  0.77020000  1.0 0.1196505698
H  H145  1  0.58230000  0.35140000  0.65030000  1.0 0.078976299
H  H146  1  0.58950000  0.23010000  0.71010000  1.0 0.0950068862
H  H147  1  0.72110000  0.11670000  0.80110000  1.0 0.1111552751
H  H148  1  0.70720000  0.23380000  0.75940000  1.0 0.1196505698
H  H149  1  0.52470000  0.36330000  0.71370000  1.0 0.078976299
H  H150  1  0.53860000  0.24620000  0.75540000  1.0 0.092284743
H  H151  1  0.93550000  0.02800000  0.40210000  1.0 0.1111552751
H  H152  1  0.92070000  0.97780000  0.52230000  1.0 0.1111552751
H  H153  1  0.15480000  0.83980000  0.45380000  1.0 0.128260772
H  H154  1  0.17060000  0.88720000  0.33420000  1.0 0.1111552751
H  H155  1  0.90740000  0.91320000  0.63920000  1.0 0.1196505698
H  H156  1  0.89910000  0.87250000  0.75270000  1.0 0.1111552751
H  H157  1  0.01570000  0.80950000  0.75490000  1.0 0.1111552751
H  H158  1  0.12250000  0.82980000  0.69680000  1.0 0.1111552751
H  H159  1  0.24380000  0.77020000  0.68970000  1.0 0.1196505698
H  H160  1  0.35140000  0.65030000  0.58230000  1.0 0.078976299
H  H161  1  0.23010000  0.71010000  0.58950000  1.0 0.0950068862
H  H162  1  0.11670000  0.80110000  0.72110000  1.0 0.1111552751
H  H163  1  0.23380000  0.75940000  0.70720000  1.0 0.1196505698
H  H164  1  0.36330000  0.71370000  0.52470000  1.0 0.078976299
H  H165  1  0.24620000  0.75540000  0.53860000  1.0 0.092284743
H  H166  1  0.02800000  0.40210000  0.93550000  1.0 0.1111552751
H  H167  1  0.97780000  0.52230000  0.92070000  1.0 0.1111552751
H  H168  1  0.83980000  0.45380000  0.15480000  1.0 0.128260772
H  H169  1  0.88720000  0.33420000  0.17060000  1.0 0.1111552751
H  H170  1  0.91320000  0.63920000  0.90740000  1.0 0.1196505698
H  H171  1  0.87250000  0.75270000  0.89910000  1.0 0.1111552751
H  H172  1  0.80950000  0.75490000  0.01570000  1.0 0.1111552751
H  H173  1  0.82980000  0.69680000  0.12250000  1.0 0.1111552751
H  H174  1  0.77020000  0.68970000  0.24380000  1.0 0.1196505698
H  H175  1  0.65030000  0.58230000  0.35140000  1.0 0.078976299
H  H176  1  0.71010000  0.58950000  0.23010000  1.0 0.092284743
H  H177  1  0.80110000  0.72110000  0.11670000  1.0 0.1111552751
H  H178  1  0.75940000  0.70720000  0.23380000  1.0 0.1196505698
H  H179  1  0.71370000  0.52470000  0.36330000  1.0 0.078976299
H  H180  1  0.75540000  0.53860000  0.24620000  1.0 0.092284743
C  C1  1  0.72462000  0.93542000  0.00142000  1.0 0.5577005402
C  C2  1  0.64499000  0.94559000  0.03629000  1.0 -0.0205897815
C  C3  1  0.58787000  0.01967000  0.01027000  1.0 -0.0925037395
C  C4  1  0.51604000  0.02834000  0.04004000  1.0 -0.1475319856
C  C5  1  0.49973000  0.96323000  0.09563000  1.0 0.0410001362
C  C6  1  0.55644000  0.88984000  0.12194000  1.0 -0.1367310739
C  C7  1  0.62828000  0.88018000  0.09348000  1.0 -0.1214431417
C  C8  1  0.42280000  0.97270000  0.12460000  1.0 0.201330414
C  C9  1  0.35878000  0.04658000  0.11168000  1.0 -0.1915735379
C  C10  1  0.29115000  0.05145000  0.13625000  1.0 -0.0579110086
C  C11  1  0.28998000  0.98258000  0.17338000  1.0 -0.2209433398
C  C12  1  0.35632000  0.91012000  0.18532000  1.0 0.1477891983
C  C13  1  0.35609000  0.83569000  0.22419000  1.0 0.0501069973
C  C14  1  0.32612000  0.83162000  0.20612000  1.0 -0.1284242036
C  C15  1  0.33046000  0.75896000  0.24186000  1.0 -0.1214431417
C  C16  1  0.36467000  0.69037000  0.29577000  1.0 0.0501069973
C  C17  1  0.39474000  0.69454000  0.31364000  1.0 -0.0579110086
C  C18  1  0.39040000  0.76710000  0.27800000  1.0 -0.0205897815
C  C19  1  0.37311000  0.61351000  0.32951000  1.0 0.2643075244
C  C20  1  0.36880000  0.83020000  0.21760000  1.0 0.0410001362
C  C21  1  0.31830000  0.83390000  0.21640000  1.0 -0.1284242036
C  C22  1  0.32660000  0.76370000  0.24140000  1.0 -0.1214431417
C  C23  1  0.38540000  0.68980000  0.26760000  1.0 0.0555164277
C  C24  1  0.43591000  0.68611000  0.26881000  1.0 -0.076576516
C  C25  1  0.42759000  0.75629000  0.24379000  1.0 0.0126188053
C  C26  1  0.39630000  0.61160000  0.29590000  1.0 0.2803676283
C  C27  1  0.93542000  0.00142000  0.72462000  1.0 0.5577005402
C  C28  1  0.94559000  0.03629000  0.64499000  1.0 -0.0205897815
C  C29  1  0.01967000  0.01027000  0.58787000  1.0 -0.0925037395
C  C30  1  0.02834000  0.04004000  0.51604000  1.0 -0.1475319856
C  C31  1  0.96323000  0.09563000  0.49973000  1.0 0.0410001362
C  C32  1  0.88984000  0.12194000  0.55644000  1.0 -0.1367310739
C  C33  1  0.88018000  0.09348000  0.62828000  1.0 -0.1214431417
C  C34  1  0.97270000  0.12460000  0.42280000  1.0 0.201330414
C  C35  1  0.04658000  0.11168000  0.35878000  1.0 -0.1915735379
C  C36  1  0.05145000  0.13625000  0.29115000  1.0 -0.0579110086
C  C37  1  0.98258000  0.17338000  0.28998000  1.0 -0.2209433398
C  C38  1  0.91012000  0.18532000  0.35632000  1.0 0.1477891983
C  C39  1  0.83569000  0.22419000  0.35609000  1.0 0.0501069973
C  C40  1  0.83162000  0.20612000  0.32612000  1.0 -0.1284242036
C  C41  1  0.75896000  0.24186000  0.33046000  1.0 -0.1214431417
C  C42  1  0.69037000  0.29577000  0.36467000  1.0 0.0501069973
C  C43  1  0.69454000  0.31364000  0.39474000  1.0 -0.0579110086
C  C44  1  0.76710000  0.27800000  0.39040000  1.0 -0.0205897815
C  C45  1  0.61351000  0.32951000  0.37311000  1.0 0.2643075244
C  C46  1  0.83020000  0.21760000  0.36880000  1.0 0.0410001362
C  C47  1  0.83390000  0.21640000  0.31830000  1.0 -0.1284242036
C  C48  1  0.76370000  0.24140000  0.32660000  1.0 -0.1214431417
C  C49  1  0.68980000  0.26760000  0.38540000  1.0 0.0555164277
C  C50  1  0.68611000  0.26881000  0.43591000  1.0 -0.076576516
C  C51  1  0.75629000  0.24379000  0.42759000  1.0 0.0126188053
C  C52  1  0.61160000  0.29590000  0.39630000  1.0 0.2803676283
C  C53  1  0.00142000  0.72462000  0.93542000  1.0 0.5577005402
C  C54  1  0.03629000  0.64499000  0.94559000  1.0 -0.0205897815
C  C55  1  0.01027000  0.58787000  0.01967000  1.0 -0.0925037395
C  C56  1  0.04004000  0.51604000  0.02834000  1.0 -0.1475319856
C  C57  1  0.09563000  0.49973000  0.96323000  1.0 0.0410001362
C  C58  1  0.12194000  0.55644000  0.88984000  1.0 -0.1367310739
C  C59  1  0.09348000  0.62828000  0.88018000  1.0 -0.1214431417
C  C60  1  0.12460000  0.42280000  0.97270000  1.0 0.201330414
C  C61  1  0.11168000  0.35878000  0.04658000  1.0 -0.1915735379
C  C62  1  0.13625000  0.29115000  0.05145000  1.0 -0.0579110086
C  C63  1  0.17338000  0.28998000  0.98258000  1.0 -0.2209433398
C  C64  1  0.18532000  0.35632000  0.91012000  1.0 0.1477891983
C  C65  1  0.22419000  0.35609000  0.83569000  1.0 0.0501069973
C  C66  1  0.20612000  0.32612000  0.83162000  1.0 -0.1284242036
C  C67  1  0.24186000  0.33046000  0.75896000  1.0 -0.1214431417
C  C68  1  0.29577000  0.36467000  0.69037000  1.0 0.0501069973
C  C69  1  0.31364000  0.39474000  0.69454000  1.0 -0.0579110086
C  C70  1  0.27800000  0.39040000  0.76710000  1.0 -0.0205897815
C  C71  1  0.32951000  0.37311000  0.61351000  1.0 0.2643075244
C  C72  1  0.21760000  0.36880000  0.83020000  1.0 0.0410001362
C  C73  1  0.21640000  0.31830000  0.83390000  1.0 -0.1284242036
C  C74  1  0.24140000  0.32660000  0.76370000  1.0 -0.1214431417
C  C75  1  0.26760000  0.38540000  0.68980000  1.0 0.0555164277
C  C76  1  0.26881000  0.43591000  0.68611000  1.0 -0.076576516
C  C77  1  0.24379000  0.42759000  0.75629000  1.0 0.0126188053
C  C78  1  0.29590000  0.39630000  0.61160000  1.0 0.2803676283
C  C79  1  0.43542000  0.22462000  0.50142000  1.0 0.5577005402
C  C80  1  0.44559000  0.14499000  0.53629000  1.0 -0.0205897815
C  C81  1  0.51967000  0.08787000  0.51027000  1.0 -0.0925037395
C  C82  1  0.52834000  0.01604000  0.54004000  1.0 -0.1475319856
C  C83  1  0.46323000  0.99973000  0.59563000  1.0 0.0410001362
C  C84  1  0.38984000  0.05644000  0.62194000  1.0 -0.1367310739
C  C85  1  0.38018000  0.12828000  0.59348000  1.0 -0.1214431417
C  C86  1  0.47270000  0.92280000  0.62460000  1.0 0.201330414
C  C87  1  0.54658000  0.85878000  0.61168000  1.0 -0.1915735379
C  C88  1  0.55145000  0.79115000  0.63625000  1.0 -0.0579110086
C  C89  1  0.48258000  0.78998000  0.67338000  1.0 -0.2209433398
C  C90  1  0.41012000  0.85632000  0.68532000  1.0 0.1477891983
C  C91  1  0.33569000  0.85609000  0.72419000  1.0 0.0501069973
C  C92  1  0.33162000  0.82612000  0.70612000  1.0 -0.1284242036
C  C93  1  0.25896000  0.83046000  0.74186000  1.0 -0.1214431417
C  C94  1  0.19037000  0.86467000  0.79577000  1.0 0.0501069973
C  C95  1  0.19454000  0.89474000  0.81364000  1.0 -0.0579110086
C  C96  1  0.26710000  0.89040000  0.77800000  1.0 -0.0205897815
C  C97  1  0.11351000  0.87311000  0.82951000  1.0 0.2643075244
C  C98  1  0.33020000  0.86880000  0.71760000  1.0 0.0410001362
C  C99  1  0.33390000  0.81830000  0.71640000  1.0 -0.1284242036
C  C100  1  0.26370000  0.82660000  0.74140000  1.0 -0.1214431417
C  C101  1  0.18980000  0.88540000  0.76760000  1.0 0.0555164277
C  C102  1  0.18611000  0.93591000  0.76881000  1.0 -0.076576516
C  C103  1  0.25629000  0.92759000  0.74379000  1.0 0.0126188053
C  C104  1  0.11160000  0.89630000  0.79590000  1.0 0.2803676283
C  C105  1  0.50142000  0.43542000  0.22462000  1.0 0.5577005402
C  C106  1  0.53629000  0.44559000  0.14499000  1.0 -0.0205897815
C  C107  1  0.51027000  0.51967000  0.08787000  1.0 -0.0925037395
C  C108  1  0.54004000  0.52834000  0.01604000  1.0 -0.1475319856
C  C109  1  0.59563000  0.46323000  0.99973000  1.0 0.0410001362
C  C110  1  0.62194000  0.38984000  0.05644000  1.0 -0.1367310739
C  C111  1  0.59348000  0.38018000  0.12828000  1.0 -0.1214431417
C  C112  1  0.62460000  0.47270000  0.92280000  1.0 0.201330414
C  C113  1  0.61168000  0.54658000  0.85878000  1.0 -0.1915735379
C  C114  1  0.63625000  0.55145000  0.79115000  1.0 -0.0579110086
C  C115  1  0.67338000  0.48258000  0.78998000  1.0 -0.2209433398
C  C116  1  0.68532000  0.41012000  0.85632000  1.0 0.1477891983
C  C117  1  0.72419000  0.33569000  0.85609000  1.0 0.0501069973
C  C118  1  0.70612000  0.33162000  0.82612000  1.0 -0.1284242036
C  C119  1  0.74186000  0.25896000  0.83046000  1.0 -0.1214431417
C  C120  1  0.79577000  0.19037000  0.86467000  1.0 0.0501069973
C  C121  1  0.81364000  0.19454000  0.89474000  1.0 -0.0579110086
C  C122  1  0.77800000  0.26710000  0.89040000  1.0 -0.0205897815
C  C123  1  0.82951000  0.11351000  0.87311000  1.0 0.2643075244
C  C124  1  0.71760000  0.33020000  0.86880000  1.0 0.0410001362
C  C125  1  0.71640000  0.33390000  0.81830000  1.0 -0.1284242036
C  C126  1  0.74140000  0.26370000  0.82660000  1.0 -0.1214431417
C  C127  1  0.76760000  0.18980000  0.88540000  1.0 0.0555164277
C  C128  1  0.76881000  0.18611000  0.93591000  1.0 -0.076576516
C  C129  1  0.74379000  0.25629000  0.92759000  1.0 0.0126188053
C  C130  1  0.79590000  0.11160000  0.89630000  1.0 0.2803676283
C  C131  1  0.22462000  0.50142000  0.43542000  1.0 0.5577005402
C  C132  1  0.14499000  0.53629000  0.44559000  1.0 -0.0205897815
C  C133  1  0.08787000  0.51027000  0.51967000  1.0 -0.0925037395
C  C134  1  0.01604000  0.54004000  0.52834000  1.0 -0.1475319856
C  C135  1  0.99973000  0.59563000  0.46323000  1.0 0.0410001362
C  C136  1  0.05644000  0.62194000  0.38984000  1.0 -0.1367310739
C  C137  1  0.12828000  0.59348000  0.38018000  1.0 -0.1214431417
C  C138  1  0.92280000  0.62460000  0.47270000  1.0 0.201330414
C  C139  1  0.85878000  0.61168000  0.54658000  1.0 -0.1915735379
C  C140  1  0.79115000  0.63625000  0.55145000  1.0 -0.0579110086
C  C141  1  0.78998000  0.67338000  0.48258000  1.0 -0.2209433398
C  C142  1  0.85632000  0.68532000  0.41012000  1.0 0.1477891983
C  C143  1  0.85609000  0.72419000  0.33569000  1.0 0.0501069973
C  C144  1  0.82612000  0.70612000  0.33162000  1.0 -0.1284242036
C  C145  1  0.83046000  0.74186000  0.25896000  1.0 -0.1214431417
C  C146  1  0.86467000  0.79577000  0.19037000  1.0 0.0501069973
C  C147  1  0.89474000  0.81364000  0.19454000  1.0 -0.0579110086
C  C148  1  0.89040000  0.77800000  0.26710000  1.0 -0.0205897815
C  C149  1  0.87311000  0.82951000  0.11351000  1.0 0.2643075244
C  C150  1  0.86880000  0.71760000  0.33020000  1.0 0.0410001362
C  C151  1  0.81830000  0.71640000  0.33390000  1.0 -0.1284242036
C  C152  1  0.82660000  0.74140000  0.26370000  1.0 -0.1214431417
C  C153  1  0.88540000  0.76760000  0.18980000  1.0 0.0555164277
C  C154  1  0.93591000  0.76881000  0.18611000  1.0 -0.076576516
C  C155  1  0.92759000  0.74379000  0.25629000  1.0 0.0126188053
C  C156  1  0.89630000  0.79590000  0.11160000  1.0 0.2803676283
C  C157  1  0.56458000  0.77538000  0.49858000  1.0 0.5577005402
C  C158  1  0.55441000  0.85501000  0.46371000  1.0 -0.0205897815
C  C159  1  0.48033000  0.91213000  0.48973000  1.0 -0.0925037395
C  C160  1  0.47166000  0.98396000  0.45996000  1.0 -0.1475319856
C  C161  1  0.53677000  0.00027000  0.40437000  1.0 0.0410001362
C  C162  1  0.61016000  0.94356000  0.37806000  1.0 -0.1367310739
C  C163  1  0.61982000  0.87172000  0.40652000  1.0 -0.1214431417
C  C164  1  0.52730000  0.07720000  0.37540000  1.0 0.201330414
C  C165  1  0.45342000  0.14122000  0.38832000  1.0 -0.1915735379
C  C166  1  0.44855000  0.20885000  0.36375000  1.0 -0.0579110086
C  C167  1  0.51742000  0.21002000  0.32662000  1.0 -0.2209433398
C  C168  1  0.58988000  0.14368000  0.31468000  1.0 0.1477891983
C  C169  1  0.66431000  0.14391000  0.27581000  1.0 0.0501069973
C  C170  1  0.66838000  0.17388000  0.29388000  1.0 -0.1284242036
C  C171  1  0.74104000  0.16954000  0.25814000  1.0 -0.1214431417
C  C172  1  0.80963000  0.13533000  0.20423000  1.0 0.0501069973
C  C173  1  0.80546000  0.10526000  0.18636000  1.0 -0.0579110086
C  C174  1  0.73290000  0.10960000  0.22200000  1.0 -0.0205897815
C  C175  1  0.88649000  0.12689000  0.17049000  1.0 0.2643075244
C  C176  1  0.66980000  0.13120000  0.28240000  1.0 0.0410001362
C  C177  1  0.66610000  0.18170000  0.28360000  1.0 -0.1284242036
C  C178  1  0.73630000  0.17340000  0.25860000  1.0 -0.1214431417
C  C179  1  0.81020000  0.11460000  0.23240000  1.0 0.0555164277
C  C180  1  0.81389000  0.06409000  0.23119000  1.0 -0.076576516
C  C181  1  0.74371000  0.07241000  0.25621000  1.0 0.0126188053
C  C182  1  0.88840000  0.10370000  0.20410000  1.0 0.2803676283
C  C183  1  0.49858000  0.56458000  0.77538000  1.0 0.5577005402
C  C184  1  0.46371000  0.55441000  0.85501000  1.0 -0.0205897815
C  C185  1  0.48973000  0.48033000  0.91213000  1.0 -0.0925037395
C  C186  1  0.45996000  0.47166000  0.98396000  1.0 -0.1475319856
C  C187  1  0.40437000  0.53677000  0.00027000  1.0 0.0410001362
C  C188  1  0.37806000  0.61016000  0.94356000  1.0 -0.1367310739
C  C189  1  0.40652000  0.61982000  0.87172000  1.0 -0.1214431417
C  C190  1  0.37540000  0.52730000  0.07720000  1.0 0.201330414
C  C191  1  0.38832000  0.45342000  0.14122000  1.0 -0.1915735379
C  C192  1  0.36375000  0.44855000  0.20885000  1.0 -0.0579110086
C  C193  1  0.32662000  0.51742000  0.21002000  1.0 -0.2209433398
C  C194  1  0.31468000  0.58988000  0.14368000  1.0 0.1477891983
C  C195  1  0.27581000  0.66431000  0.14391000  1.0 0.0501069973
C  C196  1  0.29388000  0.66838000  0.17388000  1.0 -0.1284242036
C  C197  1  0.25814000  0.74104000  0.16954000  1.0 -0.1214431417
C  C198  1  0.20423000  0.80963000  0.13533000  1.0 0.0501069973
C  C199  1  0.18636000  0.80546000  0.10526000  1.0 -0.0579110086
C  C200  1  0.22200000  0.73290000  0.10960000  1.0 -0.0205897815
C  C201  1  0.17049000  0.88649000  0.12689000  1.0 0.2643075244
C  C202  1  0.28240000  0.66980000  0.13120000  1.0 0.0410001362
C  C203  1  0.28360000  0.66610000  0.18170000  1.0 -0.1284242036
C  C204  1  0.25860000  0.73630000  0.17340000  1.0 -0.1214431417
C  C205  1  0.23240000  0.81020000  0.11460000  1.0 0.0555164277
C  C206  1  0.23119000  0.81389000  0.06409000  1.0 -0.076576516
C  C207  1  0.25621000  0.74371000  0.07241000  1.0 0.0126188053
C  C208  1  0.20410000  0.88840000  0.10370000  1.0 0.2803676283
C  C209  1  0.77538000  0.49858000  0.56458000  1.0 0.5577005402
C  C210  1  0.85501000  0.46371000  0.55441000  1.0 -0.0205897815
C  C211  1  0.91213000  0.48973000  0.48033000  1.0 -0.0925037395
C  C212  1  0.98396000  0.45996000  0.47166000  1.0 -0.1475319856
C  C213  1  0.00027000  0.40437000  0.53677000  1.0 0.0410001362
C  C214  1  0.94356000  0.37806000  0.61016000  1.0 -0.1367310739
C  C215  1  0.87172000  0.40652000  0.61982000  1.0 -0.1214431417
C  C216  1  0.07720000  0.37540000  0.52730000  1.0 0.201330414
C  C217  1  0.14122000  0.38832000  0.45342000  1.0 -0.1915735379
C  C218  1  0.20885000  0.36375000  0.44855000  1.0 -0.0579110086
C  C219  1  0.21002000  0.32662000  0.51742000  1.0 -0.2209433398
C  C220  1  0.14368000  0.31468000  0.58988000  1.0 0.1477891983
C  C221  1  0.14391000  0.27581000  0.66431000  1.0 0.0501069973
C  C222  1  0.17388000  0.29388000  0.66838000  1.0 -0.1284242036
C  C223  1  0.16954000  0.25814000  0.74104000  1.0 -0.1214431417
C  C224  1  0.13533000  0.20423000  0.80963000  1.0 0.0501069973
C  C225  1  0.10526000  0.18636000  0.80546000  1.0 -0.0579110086
C  C226  1  0.10960000  0.22200000  0.73290000  1.0 -0.0251720852
C  C227  1  0.12689000  0.17049000  0.88649000  1.0 0.2643075244
C  C228  1  0.13120000  0.28240000  0.66980000  1.0 0.0410001362
C  C229  1  0.18170000  0.28360000  0.66610000  1.0 -0.1284242036
C  C230  1  0.17340000  0.25860000  0.73630000  1.0 -0.1214431417
C  C231  1  0.11460000  0.23240000  0.81020000  1.0 0.0555164277
C  C232  1  0.06409000  0.23119000  0.81389000  1.0 -0.076576516
C  C233  1  0.07241000  0.25621000  0.74371000  1.0 0.0126188053
C  C234  1  0.10370000  0.20410000  0.88840000  1.0 0.2803676283
C  C235  1  0.27538000  0.06458000  0.99858000  1.0 0.5577005402
C  C236  1  0.35501000  0.05441000  0.96371000  1.0 -0.0205897815
C  C237  1  0.41213000  0.98033000  0.98973000  1.0 -0.0925037395
C  C238  1  0.48396000  0.97166000  0.95996000  1.0 -0.1475319856
C  C239  1  0.50027000  0.03677000  0.90437000  1.0 0.0410001362
C  C240  1  0.44356000  0.11016000  0.87806000  1.0 -0.1367310739
C  C241  1  0.37172000  0.11982000  0.90652000  1.0 -0.1214431417
C  C242  1  0.57720000  0.02730000  0.87540000  1.0 0.201330414
C  C243  1  0.64122000  0.95342000  0.88832000  1.0 -0.1915735379
C  C244  1  0.70885000  0.94855000  0.86375000  1.0 -0.0579110086
C  C245  1  0.71002000  0.01742000  0.82662000  1.0 -0.2209433398
C  C246  1  0.64368000  0.08988000  0.81468000  1.0 0.1477891983
C  C247  1  0.64391000  0.16431000  0.77581000  1.0 0.0501069973
C  C248  1  0.67388000  0.16838000  0.79388000  1.0 -0.1284242036
C  C249  1  0.66954000  0.24104000  0.75814000  1.0 -0.1214431417
C  C250  1  0.63533000  0.30963000  0.70423000  1.0 0.0501069973
C  C251  1  0.60526000  0.30546000  0.68636000  1.0 -0.0579110086
C  C252  1  0.60960000  0.23290000  0.72200000  1.0 -0.0205897815
C  C253  1  0.62689000  0.38649000  0.67049000  1.0 0.2643075244
C  C254  1  0.63120000  0.16980000  0.78240000  1.0 0.0410001362
C  C255  1  0.68170000  0.16610000  0.78360000  1.0 -0.1284242036
C  C256  1  0.67340000  0.23630000  0.75860000  1.0 -0.1214431417
C  C257  1  0.61460000  0.31020000  0.73240000  1.0 0.0555164277
C  C258  1  0.56409000  0.31389000  0.73119000  1.0 -0.076576516
C  C259  1  0.57241000  0.24371000  0.75621000  1.0 0.0126188053
C  C260  1  0.60370000  0.38840000  0.70410000  1.0 0.2803676283
C  C261  1  0.06458000  0.99858000  0.27538000  1.0 0.5577005402
C  C262  1  0.05441000  0.96371000  0.35501000  1.0 -0.0205897815
C  C263  1  0.98033000  0.98973000  0.41213000  1.0 -0.0925037395
C  C264  1  0.97166000  0.95996000  0.48396000  1.0 -0.1475319856
C  C265  1  0.03677000  0.90437000  0.50027000  1.0 0.0410001362
C  C266  1  0.11016000  0.87806000  0.44356000  1.0 -0.1367310739
C  C267  1  0.11982000  0.90652000  0.37172000  1.0 -0.1214431417
C  C268  1  0.02730000  0.87540000  0.57720000  1.0 0.201330414
C  C269  1  0.95342000  0.88832000  0.64122000  1.0 -0.1915735379
C  C270  1  0.94855000  0.86375000  0.70885000  1.0 -0.0579110086
C  C271  1  0.01742000  0.82662000  0.71002000  1.0 -0.2209433398
C  C272  1  0.08988000  0.81468000  0.64368000  1.0 0.1477891983
C  C273  1  0.16431000  0.77581000  0.64391000  1.0 0.0501069973
C  C274  1  0.16838000  0.79388000  0.67388000  1.0 -0.1284242036
C  C275  1  0.24104000  0.75814000  0.66954000  1.0 -0.1214431417
C  C276  1  0.30963000  0.70423000  0.63533000  1.0 0.0501069973
C  C277  1  0.30546000  0.68636000  0.60526000  1.0 -0.0579110086
C  C278  1  0.23290000  0.72200000  0.60960000  1.0 -0.0205897815
C  C279  1  0.38649000  0.67049000  0.62689000  1.0 0.2643075244
C  C280  1  0.16980000  0.78240000  0.63120000  1.0 0.0410001362
C  C281  1  0.16610000  0.78360000  0.68170000  1.0 -0.1284242036
C  C282  1  0.23630000  0.75860000  0.67340000  1.0 -0.1214431417
C  C283  1  0.31020000  0.73240000  0.61460000  1.0 0.0555164277
C  C284  1  0.31389000  0.73119000  0.56409000  1.0 -0.076576516
C  C285  1  0.24371000  0.75621000  0.57241000  1.0 0.0126188053
C  C286  1  0.38840000  0.70410000  0.60370000  1.0 0.2803676283
C  C287  1  0.99858000  0.27538000  0.06458000  1.0 0.5577005402
C  C288  1  0.96371000  0.35501000  0.05441000  1.0 -0.0205897815
C  C289  1  0.98973000  0.41213000  0.98033000  1.0 -0.0925037395
C  C290  1  0.95996000  0.48396000  0.97166000  1.0 -0.1475319856
C  C291  1  0.90437000  0.50027000  0.03677000  1.0 0.0410001362
C  C292  1  0.87806000  0.44356000  0.11016000  1.0 -0.1367310739
C  C293  1  0.90652000  0.37172000  0.11982000  1.0 -0.1214431417
C  C294  1  0.87540000  0.57720000  0.02730000  1.0 0.201330414
C  C295  1  0.88832000  0.64122000  0.95342000  1.0 -0.1915735379
C  C296  1  0.86375000  0.70885000  0.94855000  1.0 -0.0579110086
C  C297  1  0.82662000  0.71002000  0.01742000  1.0 -0.2209433398
C  C298  1  0.81468000  0.64368000  0.08988000  1.0 0.1477891983
C  C299  1  0.77581000  0.64391000  0.16431000  1.0 0.0501069973
C  C300  1  0.79388000  0.67388000  0.16838000  1.0 -0.1284242036
C  C301  1  0.75814000  0.66954000  0.24104000  1.0 -0.1214431417
C  C302  1  0.70423000  0.63533000  0.30963000  1.0 0.0501069973
C  C303  1  0.68636000  0.60526000  0.30546000  1.0 -0.0579110086
C  C304  1  0.72200000  0.60960000  0.23290000  1.0 -0.0205897815
C  C305  1  0.67049000  0.62689000  0.38649000  1.0 0.2643075244
C  C306  1  0.78240000  0.63120000  0.16980000  1.0 0.0410001362
C  C307  1  0.78360000  0.68170000  0.16610000  1.0 -0.1284242036
C  C308  1  0.75860000  0.67340000  0.23630000  1.0 -0.1214431417
C  C309  1  0.73240000  0.61460000  0.31020000  1.0 0.0555164277
C  C310  1  0.73119000  0.56409000  0.31389000  1.0 -0.076576516
C  C311  1  0.75621000  0.57241000  0.24371000  1.0 0.0126188053
C  C312  1  0.70410000  0.60370000  0.38840000  1.0 0.2803676283
N  N1  1  0.42220000  0.90521000  0.16098000  1.0 -0.3589866304
N  N2  1  0.90521000  0.16098000  0.42220000  1.0 -0.3589866304
N  N3  1  0.16098000  0.42220000  0.90521000  1.0 -0.3589866304
N  N4  1  0.40521000  0.92220000  0.66098000  1.0 -0.3589866304
N  N5  1  0.66098000  0.40521000  0.92220000  1.0 -0.3589866304
N  N6  1  0.92220000  0.66098000  0.40521000  1.0 -0.3589866304
N  N7  1  0.59479000  0.07780000  0.33902000  1.0 -0.3589866304
N  N8  1  0.33902000  0.59479000  0.07780000  1.0 -0.3589866304
N  N9  1  0.07780000  0.33902000  0.59479000  1.0 -0.3589866304
N  N10  1  0.57780000  0.09479000  0.83902000  1.0 -0.3589866304
N  N11  1  0.09479000  0.83902000  0.57780000  1.0 -0.3589866304
N  N12  1  0.83902000  0.57780000  0.09479000  1.0 -0.3589866304
O  O1  1  0.77408000  0.86704000  0.02781000  1.0 -0.4967084347
O  O2  1  0.73663000  0.99749000  0.94660000  1.0 -0.5058683573
O  O3  1  0.39727000  0.55437000  0.38357000  1.0 -0.1915735379
O  O4  1  0.35584000  0.61184000  0.30204000  1.0 -0.315077637
O  O5  1  0.44839000  0.54649000  0.32359000  1.0 -0.1644205942
O  O6  1  0.35530000  0.61230000  0.29030000  1.0 -0.4237612927
O  O7  1  0.86704000  0.02781000  0.77408000  1.0 -0.4967084347
O  O8  1  0.99749000  0.94660000  0.73663000  1.0 -0.5058683573
O  O9  1  0.55437000  0.38357000  0.39727000  1.0 -0.1915735379
O  O10  1  0.61184000  0.30204000  0.35584000  1.0 -0.315077637
O  O11  1  0.54649000  0.32359000  0.44839000  1.0 -0.1660891219
O  O12  1  0.61230000  0.29030000  0.35530000  1.0 -0.4237612927
O  O13  1  0.02781000  0.77408000  0.86704000  1.0 -0.4967084347
O  O14  1  0.94660000  0.73663000  0.99749000  1.0 -0.5058683573
O  O15  1  0.38357000  0.39727000  0.55437000  1.0 -0.1915735379
O  O16  1  0.30204000  0.35584000  0.61184000  1.0 -0.315077637
O  O17  1  0.32359000  0.44839000  0.54649000  1.0 -0.1660891219
O  O18  1  0.29030000  0.35530000  0.61230000  1.0 -0.4237612927
O  O19  1  0.36704000  0.27408000  0.52781000  1.0 -0.4967084347
O  O20  1  0.49749000  0.23663000  0.44660000  1.0 -0.5058683573
O  O21  1  0.05437000  0.89727000  0.88357000  1.0 -0.1915735379
O  O22  1  0.11184000  0.85584000  0.80204000  1.0 -0.3135677918
O  O23  1  0.04649000  0.94839000  0.82359000  1.0 -0.1660891219
O  O24  1  0.11230000  0.85530000  0.79030000  1.0 -0.4237612927
O  O25  1  0.52781000  0.36704000  0.27408000  1.0 -0.4967084347
O  O26  1  0.44660000  0.49749000  0.23663000  1.0 -0.5058683573
O  O27  1  0.88357000  0.05437000  0.89727000  1.0 -0.1915735379
O  O28  1  0.80204000  0.11184000  0.85584000  1.0 -0.315077637
O  O29  1  0.82359000  0.04649000  0.94839000  1.0 -0.1660891219
O  O30  1  0.79030000  0.11230000  0.85530000  1.0 -0.4237612927
O  O31  1  0.27408000  0.52781000  0.36704000  1.0 -0.4967084347
O  O32  1  0.23663000  0.44660000  0.49749000  1.0 -0.5058683573
O  O33  1  0.89727000  0.88357000  0.05437000  1.0 -0.1915735379
O  O34  1  0.85584000  0.80204000  0.11184000  1.0 -0.315077637
O  O35  1  0.94839000  0.82359000  0.04649000  1.0 -0.1660891219
O  O36  1  0.85530000  0.79030000  0.11230000  1.0 -0.4237612927
O  O37  1  0.91482000  0.91482000  0.91482000  1.0 -0.7232707186
O  O38  1  0.41482000  0.41482000  0.41482000  1.0 -0.7232707186
O  O39  1  0.63296000  0.72592000  0.47219000  1.0 -0.4967084347
O  O40  1  0.50251000  0.76337000  0.55340000  1.0 -0.5058683573
O  O41  1  0.94563000  0.10273000  0.11643000  1.0 -0.1915735379
O  O42  1  0.88816000  0.14416000  0.19796000  1.0 -0.3135677918
O  O43  1  0.95351000  0.05161000  0.17641000  1.0 -0.1660891219
O  O44  1  0.88770000  0.14470000  0.20970000  1.0 -0.4237612927
O  O45  1  0.47219000  0.63296000  0.72592000  1.0 -0.4967084347
O  O46  1  0.55340000  0.50251000  0.76337000  1.0 -0.5058683573
O  O47  1  0.11643000  0.94563000  0.10273000  1.0 -0.1915735379
O  O48  1  0.19796000  0.88816000  0.14416000  1.0 -0.315077637
O  O49  1  0.17641000  0.95351000  0.05161000  1.0 -0.1660891219
O  O50  1  0.20970000  0.88770000  0.14470000  1.0 -0.4237612927
O  O51  1  0.72592000  0.47219000  0.63296000  1.0 -0.4967084347
O  O52  1  0.76337000  0.55340000  0.50251000  1.0 -0.5058683573
O  O53  1  0.10273000  0.11643000  0.94563000  1.0 -0.1915735379
O  O54  1  0.14416000  0.19796000  0.88816000  1.0 -0.3135677918
O  O55  1  0.05161000  0.17641000  0.95351000  1.0 -0.1660891219
O  O56  1  0.14470000  0.20970000  0.88770000  1.0 -0.4237612927
O  O57  1  0.22592000  0.13296000  0.97219000  1.0 -0.4967084347
O  O58  1  0.26337000  0.00251000  0.05340000  1.0 -0.5058683573
O  O59  1  0.60273000  0.44563000  0.61643000  1.0 -0.1915735379
O  O60  1  0.64416000  0.38816000  0.69796000  1.0 -0.315077637
O  O61  1  0.55161000  0.45351000  0.67641000  1.0 -0.1660891219
O  O62  1  0.64470000  0.38770000  0.70970000  1.0 -0.4237612927
O  O63  1  0.13296000  0.97219000  0.22592000  1.0 -0.4967084347
O  O64  1  0.00251000  0.05340000  0.26337000  1.0 -0.5058683573
O  O65  1  0.44563000  0.61643000  0.60273000  1.0 -0.1915735379
O  O66  1  0.38816000  0.69796000  0.64416000  1.0 -0.3135677918
O  O67  1  0.45351000  0.67641000  0.55161000  1.0 -0.1660891219
O  O68  1  0.38770000  0.70970000  0.64470000  1.0 -0.4237612927
O  O69  1  0.97219000  0.22592000  0.13296000  1.0 -0.4967084347
O  O70  1  0.05340000  0.26337000  0.00251000  1.0 -0.5058683573
O  O71  1  0.61643000  0.60273000  0.44563000  1.0 -0.1915735379
O  O72  1  0.69796000  0.64416000  0.38816000  1.0 -0.315077637
O  O73  1  0.67641000  0.55161000  0.45351000  1.0 -0.1660891219
O  O74  1  0.70970000  0.64470000  0.38770000  1.0 -0.4237612927
O  O75  1  0.58518000  0.58518000  0.58518000  1.0 -0.7232707186
O  O76  1  0.08518000  0.08518000  0.08518000  1.0 -0.7232707186
