# DDEC6 charges by PACMAN v1.1 (https://github.com/mtap-research/PACMAN-charge/)
data_BOWDIC_FSR_pacman
_symmetry_space_group_name_H-M   'P 1'
_cell_length_a   12.65300000
_cell_length_b   25.49700000
_cell_length_c   31.03770000
_cell_angle_alpha   90.00000000
_cell_angle_beta   113.11000000
_cell_angle_gamma   90.00000000
_symmetry_Int_Tables_number   1
_chemical_formula_structural   Co3H24C36(N3O7)2
_chemical_formula_sum   'Co18 H144 C216 N36 O84'
_cell_volume   9209.65453713
_cell_formula_units_Z   6
loop_
 _symmetry_equiv_pos_site_id
 _symmetry_equiv_pos_as_xyz
  1  'x, y, z'
loop_
 _atom_site_type_symbol
 _atom_site_label
 _atom_site_symmetry_multiplicity
 _atom_site_fract_x
 _atom_site_fract_y
 _atom_site_fract_z
 _atom_site_occupancy
 _atom_site_charge
Co  Co1  1  0.06825000  0.99815000  0.81303000  1.0 0.8909137001
Co  Co2  1  0.93175000  0.99815000  0.68697000  1.0 0.8909137001
Co  Co3  1  0.93175000  0.00185000  0.18697000  1.0 0.8909137001
Co  Co4  1  0.06825000  0.00185000  0.31303000  1.0 0.8909137001
Co  Co5  1  0.94134000  0.49964000  0.18707000  1.0 0.8909137001
Co  Co6  1  0.05866000  0.49964000  0.31293000  1.0 0.8909137001
Co  Co7  1  0.05866000  0.50036000  0.81293000  1.0 0.8909137001
Co  Co8  1  0.94134000  0.50036000  0.68707000  1.0 0.8909137001
Co  Co9  1  0.14551000  0.75065000  0.03238000  1.0 1.0188083922
Co  Co10  1  0.85449000  0.75065000  0.46762000  1.0 1.0188083922
Co  Co11  1  0.85449000  0.24935000  0.96762000  1.0 1.0188083922
Co  Co12  1  0.14551000  0.24935000  0.53238000  1.0 1.0188083922
Co  Co13  1  0.41970000  0.74899000  0.02427000  1.0 0.8981957709
Co  Co14  1  0.58030000  0.74899000  0.47573000  1.0 0.8981957709
Co  Co15  1  0.58030000  0.25101000  0.97573000  1.0 0.8981957709
Co  Co16  1  0.41970000  0.25101000  0.52427000  1.0 0.8981957709
Co  Co17  1  0.50000000  0.74901000  0.75000000  1.0 0.7260207807
Co  Co18  1  0.50000000  0.25099000  0.25000000  1.0 0.7260207807
H  H1  1  0.97830000  0.94980000  0.88200000  1.0 0.1181275087
H  H2  1  0.02170000  0.94980000  0.61800000  1.0 0.1181275087
H  H3  1  0.02170000  0.05020000  0.11800000  1.0 0.1181275087
H  H4  1  0.97830000  0.05020000  0.38200000  1.0 0.1181275087
H  H5  1  0.02140000  0.88270000  0.93670000  1.0 0.1406327064
H  H6  1  0.97860000  0.88270000  0.56330000  1.0 0.1406327064
H  H7  1  0.97860000  0.11730000  0.06330000  1.0 0.1406327064
H  H8  1  0.02140000  0.11730000  0.43670000  1.0 0.1406327064
H  H9  1  0.33530000  0.87290000  0.93180000  1.0 0.1406327064
H  H10  1  0.66470000  0.87290000  0.56820000  1.0 0.1406327064
H  H11  1  0.66470000  0.12710000  0.06820000  1.0 0.1406327064
H  H12  1  0.33530000  0.12710000  0.43180000  1.0 0.1406327064
H  H13  1  0.28540000  0.94080000  0.87820000  1.0 0.1094869246
H  H14  1  0.71460000  0.94080000  0.62180000  1.0 0.1094869246
H  H15  1  0.71460000  0.05920000  0.12180000  1.0 0.1094869246
H  H16  1  0.28540000  0.05920000  0.37820000  1.0 0.1094869246
H  H17  1  0.27870000  0.04440000  0.79670000  1.0 0.1094869246
H  H18  1  0.72130000  0.04440000  0.70330000  1.0 0.1094869246
H  H19  1  0.72130000  0.95560000  0.20330000  1.0 0.1094869246
H  H20  1  0.27870000  0.95560000  0.29670000  1.0 0.1094869246
H  H21  1  0.42850000  0.10400000  0.82920000  1.0 0.1314036177
H  H22  1  0.57150000  0.10400000  0.67080000  1.0 0.1314036177
H  H23  1  0.57150000  0.89600000  0.17080000  1.0 0.1314036177
H  H24  1  0.42850000  0.89600000  0.32920000  1.0 0.1314036177
H  H25  1  0.32950000  0.12430000  0.93680000  1.0 0.1314036177
H  H26  1  0.67050000  0.12430000  0.56320000  1.0 0.1314036177
H  H27  1  0.67050000  0.87570000  0.06320000  1.0 0.1314036177
H  H28  1  0.32950000  0.87570000  0.43680000  1.0 0.1314036177
H  H29  1  0.18650000  0.06260000  0.90270000  1.0 0.1009032295
H  H30  1  0.81350000  0.06260000  0.59730000  1.0 0.1009032295
H  H31  1  0.81350000  0.93740000  0.09730000  1.0 0.1009032295
H  H32  1  0.18650000  0.93740000  0.40270000  1.0 0.1009032295
H  H33  1  0.28200000  0.55020000  0.88140000  1.0 0.1181275087
H  H34  1  0.71800000  0.55020000  0.61860000  1.0 0.1181275087
H  H35  1  0.71800000  0.44980000  0.11860000  1.0 0.1181275087
H  H36  1  0.28200000  0.44980000  0.38140000  1.0 0.1181275087
H  H37  1  0.34170000  0.61620000  0.93610000  1.0 0.1314036177
H  H38  1  0.65830000  0.61620000  0.56390000  1.0 0.1314036177
H  H39  1  0.65830000  0.38380000  0.06390000  1.0 0.1314036177
H  H40  1  0.34170000  0.38380000  0.43610000  1.0 0.1314036177
H  H41  1  0.02180000  0.62310000  0.93450000  1.0 0.1466097211
H  H42  1  0.97820000  0.62310000  0.56550000  1.0 0.1466097211
H  H43  1  0.97820000  0.37690000  0.06550000  1.0 0.1466097211
H  H44  1  0.02180000  0.37690000  0.43450000  1.0 0.1466097211
H  H45  1  0.96940000  0.55710000  0.87950000  1.0 0.1094869246
H  H46  1  0.03060000  0.55710000  0.62050000  1.0 0.1094869246
H  H47  1  0.03060000  0.44290000  0.12050000  1.0 0.1094869246
H  H48  1  0.96940000  0.44290000  0.37950000  1.0 0.1094869246
H  H49  1  0.91840000  0.55270000  0.09620000  1.0 0.1009032295
H  H50  1  0.08160000  0.55270000  0.40380000  1.0 0.1009032295
H  H51  1  0.08160000  0.44730000  0.90380000  1.0 0.1009032295
H  H52  1  0.91840000  0.44730000  0.59620000  1.0 0.1009032295
H  H53  1  0.00350000  0.61460000  0.06520000  1.0 0.1314036177
H  H54  1  0.99650000  0.61460000  0.43480000  1.0 0.1314036177
H  H55  1  0.99650000  0.38540000  0.93480000  1.0 0.1314036177
H  H56  1  0.00350000  0.38540000  0.56520000  1.0 0.1314036177
H  H57  1  0.28620000  0.60620000  0.18390000  1.0 0.1314036177
H  H58  1  0.71380000  0.60620000  0.31610000  1.0 0.1314036177
H  H59  1  0.71380000  0.39380000  0.81610000  1.0 0.1314036177
H  H60  1  0.28620000  0.39380000  0.68390000  1.0 0.1314036177
H  H61  1  0.19240000  0.54670000  0.21360000  1.0 0.1094869246
H  H62  1  0.80760000  0.54670000  0.28640000  1.0 0.1094869246
H  H63  1  0.80760000  0.45330000  0.78640000  1.0 0.1094869246
H  H64  1  0.19240000  0.45330000  0.71360000  1.0 0.1094869246
H  H65  1  0.96370000  0.14380000  0.96650000  1.0 0.1009032295
H  H66  1  0.03630000  0.14380000  0.53350000  1.0 0.1009032295
H  H67  1  0.03630000  0.85620000  0.03350000  1.0 0.1009032295
H  H68  1  0.96370000  0.85620000  0.46650000  1.0 0.1009032295
H  H69  1  0.99030000  0.08140000  0.91750000  1.0 0.1181275087
H  H70  1  0.00970000  0.08140000  0.58250000  1.0 0.1181275087
H  H71  1  0.00970000  0.91860000  0.08250000  1.0 0.1181275087
H  H72  1  0.99030000  0.91860000  0.41750000  1.0 0.1181275087
H  H73  1  0.79280000  0.17300000  0.80760000  1.0 0.1314036177
H  H74  1  0.20720000  0.17300000  0.69240000  1.0 0.1314036177
H  H75  1  0.20720000  0.82700000  0.19240000  1.0 0.1314036177
H  H76  1  0.79280000  0.82700000  0.30760000  1.0 0.1314036177
H  H77  1  0.77140000  0.23060000  0.86170000  1.0 0.1094869246
H  H78  1  0.22860000  0.23060000  0.63830000  1.0 0.1094869246
H  H79  1  0.22860000  0.76940000  0.13830000  1.0 0.1094869246
H  H80  1  0.77140000  0.76940000  0.36170000  1.0 0.1094869246
H  H81  1  0.54580000  0.64450000  0.02650000  1.0 0.1009032295
H  H82  1  0.45420000  0.64450000  0.47350000  1.0 0.1009032295
H  H83  1  0.45420000  0.35550000  0.97350000  1.0 0.1009032295
H  H84  1  0.54580000  0.35550000  0.52650000  1.0 0.1009032295
H  H85  1  0.67880000  0.58690000  0.07760000  1.0 0.1314036177
H  H86  1  0.32120000  0.58690000  0.42240000  1.0 0.1314036177
H  H87  1  0.32120000  0.41310000  0.92240000  1.0 0.1314036177
H  H88  1  0.67880000  0.41310000  0.57760000  1.0 0.1314036177
H  H89  1  0.69490000  0.68320000  0.18400000  1.0 0.1314036177
H  H90  1  0.30510000  0.68320000  0.31600000  1.0 0.1314036177
H  H91  1  0.30510000  0.31680000  0.81600000  1.0 0.1314036177
H  H92  1  0.69490000  0.31680000  0.68400000  1.0 0.1314036177
H  H93  1  0.56740000  0.73880000  0.12890000  1.0 0.1094869246
H  H94  1  0.43260000  0.73880000  0.37110000  1.0 0.1094869246
H  H95  1  0.43260000  0.26120000  0.87110000  1.0 0.1094869246
H  H96  1  0.56740000  0.26120000  0.62890000  1.0 0.1094869246
H  H97  1  0.65720000  0.75720000  0.01560000  1.0 0.1009032295
H  H98  1  0.34280000  0.75720000  0.48440000  1.0 0.1009032295
H  H99  1  0.34280000  0.24280000  0.98440000  1.0 0.1009032295
H  H100  1  0.65720000  0.24280000  0.51560000  1.0 0.1009032295
H  H101  1  0.73230000  0.75930000  0.95800000  1.0 0.1406327064
H  H102  1  0.26770000  0.75930000  0.54200000  1.0 0.1406327064
H  H103  1  0.26770000  0.24070000  0.04200000  1.0 0.1406327064
H  H104  1  0.73230000  0.24070000  0.45800000  1.0 0.1406327064
H  H105  1  0.40900000  0.73990000  0.85970000  1.0 0.1314036177
H  H106  1  0.59100000  0.73990000  0.64030000  1.0 0.1314036177
H  H107  1  0.59100000  0.26010000  0.14030000  1.0 0.1314036177
H  H108  1  0.40900000  0.26010000  0.35970000  1.0 0.1314036177
H  H109  1  0.34280000  0.74000000  0.91970000  1.0 0.1094869246
H  H110  1  0.65720000  0.74000000  0.58030000  1.0 0.1094869246
H  H111  1  0.65720000  0.26000000  0.08030000  1.0 0.1094869246
H  H112  1  0.34280000  0.26000000  0.41970000  1.0 0.1094869246
H  H113  1  0.48160000  0.65730000  0.81160000  1.0 0.1094869246
H  H114  1  0.51840000  0.65730000  0.68840000  1.0 0.1094869246
H  H115  1  0.51840000  0.34270000  0.18840000  1.0 0.1094869246
H  H116  1  0.48160000  0.34270000  0.31160000  1.0 0.1094869246
H  H117  1  0.36080000  0.59150000  0.81490000  1.0 0.1314036177
H  H118  1  0.63920000  0.59150000  0.68510000  1.0 0.1314036177
H  H119  1  0.63920000  0.40850000  0.18510000  1.0 0.1314036177
H  H120  1  0.36080000  0.40850000  0.31490000  1.0 0.1314036177
H  H121  1  0.13490000  0.63530000  0.68620000  1.0 0.1314036177
H  H122  1  0.86510000  0.63530000  0.81380000  1.0 0.1314036177
H  H123  1  0.86510000  0.36470000  0.31380000  1.0 0.1314036177
H  H124  1  0.13490000  0.36470000  0.18620000  1.0 0.1314036177
H  H125  1  0.25940000  0.70200000  0.68720000  1.0 0.1094869246
H  H126  1  0.74060000  0.70200000  0.81280000  1.0 0.1094869246
H  H127  1  0.74060000  0.29800000  0.31280000  1.0 0.1094869246
H  H128  1  0.25940000  0.29800000  0.18720000  1.0 0.1094869246
H  H129  1  0.26190000  0.79840000  0.68460000  1.0 0.1094869246
H  H130  1  0.73810000  0.79840000  0.81540000  1.0 0.1094869246
H  H131  1  0.73810000  0.20160000  0.31540000  1.0 0.1094869246
H  H132  1  0.26190000  0.20160000  0.18460000  1.0 0.1094869246
H  H133  1  0.13820000  0.86510000  0.68290000  1.0 0.1314036177
H  H134  1  0.86180000  0.86510000  0.81710000  1.0 0.1314036177
H  H135  1  0.86180000  0.13490000  0.31710000  1.0 0.1314036177
H  H136  1  0.13820000  0.13490000  0.18290000  1.0 0.1314036177
H  H137  1  0.35490000  0.90460000  0.81380000  1.0 0.1314036177
H  H138  1  0.64510000  0.90460000  0.68620000  1.0 0.1314036177
H  H139  1  0.64510000  0.09540000  0.18620000  1.0 0.1314036177
H  H140  1  0.35490000  0.09540000  0.31380000  1.0 0.1314036177
H  H141  1  0.47570000  0.83940000  0.81120000  1.0 0.1094869246
H  H142  1  0.52430000  0.83940000  0.68880000  1.0 0.1094869246
H  H143  1  0.52430000  0.16060000  0.18880000  1.0 0.1094869246
H  H144  1  0.47570000  0.16060000  0.31120000  1.0 0.1094869246
C  C1  1  0.05186000  0.93372000  0.89236000  1.0 0.0805515296
C  C2  1  0.94814000  0.93372000  0.60764000  1.0 0.0805515296
C  C3  1  0.94814000  0.06628000  0.10764000  1.0 0.0805515296
C  C4  1  0.05186000  0.06628000  0.39236000  1.0 0.0805515296
C  C5  1  0.07646000  0.89366000  0.92476000  1.0 -0.1609673007
C  C6  1  0.92354000  0.89366000  0.57524000  1.0 -0.1609673007
C  C7  1  0.92354000  0.10634000  0.07524000  1.0 -0.1510209734
C  C8  1  0.07646000  0.10634000  0.42476000  1.0 -0.1609673007
C  C9  1  0.18479000  0.86956000  0.93969000  1.0 0.0363987557
C  C10  1  0.81521000  0.86956000  0.56031000  1.0 0.0363987557
C  C11  1  0.81521000  0.13044000  0.06031000  1.0 0.0363987557
C  C12  1  0.18479000  0.13044000  0.43969000  1.0 0.0363987557
C  C13  1  0.26095000  0.88810000  0.92195000  1.0 -0.1510209734
C  C14  1  0.73905000  0.88810000  0.57805000  1.0 -0.1510209734
C  C15  1  0.73905000  0.11190000  0.07805000  1.0 -0.1510209734
C  C16  1  0.26095000  0.11190000  0.42195000  1.0 -0.1510209734
C  C17  1  0.23078000  0.92859000  0.88988000  1.0 0.0805515296
C  C18  1  0.76922000  0.92859000  0.61012000  1.0 0.0805515296
C  C19  1  0.76922000  0.07141000  0.11012000  1.0 0.0805515296
C  C20  1  0.23078000  0.07141000  0.38988000  1.0 0.0805515296
C  C21  1  0.21357000  0.82365000  0.97287000  1.0 0.5760854458
C  C22  1  0.78643000  0.82365000  0.52713000  1.0 0.5760854458
C  C23  1  0.78643000  0.17635000  0.02713000  1.0 0.5760854458
C  C24  1  0.21357000  0.17635000  0.47287000  1.0 0.5760854458
C  C25  1  0.28777000  0.06141000  0.82517000  1.0 0.0868495306
C  C26  1  0.71223000  0.06141000  0.67483000  1.0 0.0868495306
C  C27  1  0.71223000  0.93859000  0.17483000  1.0 0.0868495306
C  C28  1  0.28777000  0.93859000  0.32517000  1.0 0.0868495306
C  C29  1  0.37834000  0.09680000  0.84454000  1.0 -0.1396651274
C  C30  1  0.62166000  0.09680000  0.65546000  1.0 -0.1396651274
C  C31  1  0.62166000  0.90320000  0.15546000  1.0 -0.1396651274
C  C32  1  0.37834000  0.90320000  0.34454000  1.0 -0.1396651274
C  C33  1  0.39403000  0.12117000  0.88643000  1.0 0.0199465872
C  C34  1  0.60597000  0.12117000  0.61357000  1.0 0.0199465872
C  C35  1  0.60597000  0.87883000  0.11357000  1.0 0.0199465872
C  C36  1  0.39403000  0.87883000  0.38643000  1.0 0.0199465872
C  C37  1  0.32074000  0.10850000  0.90784000  1.0 -0.1510209734
C  C38  1  0.67926000  0.10850000  0.59216000  1.0 -0.1510209734
C  C39  1  0.67926000  0.89150000  0.09216000  1.0 -0.1510209734
C  C40  1  0.32074000  0.89150000  0.40784000  1.0 -0.1510209734
C  C41  1  0.23370000  0.07230000  0.88660000  1.0 0.0805515296
C  C42  1  0.76630000  0.07230000  0.61340000  1.0 0.0805515296
C  C43  1  0.76630000  0.92770000  0.11340000  1.0 0.0805515296
C  C44  1  0.23370000  0.92770000  0.38660000  1.0 0.0805515296
C  C45  1  0.48571000  0.16188000  0.90691000  1.0 0.5509329513
C  C46  1  0.51429000  0.16188000  0.59309000  1.0 0.5509329513
C  C47  1  0.51429000  0.83812000  0.09309000  1.0 0.5509329513
C  C48  1  0.48571000  0.83812000  0.40691000  1.0 0.5509329513
C  C49  1  0.22796000  0.56558000  0.89196000  1.0 0.0868495306
C  C50  1  0.77204000  0.56558000  0.60804000  1.0 0.0868495306
C  C51  1  0.77204000  0.43442000  0.10804000  1.0 0.0868495306
C  C52  1  0.22796000  0.43442000  0.39196000  1.0 0.0868495306
C  C53  1  0.26407000  0.60478000  0.92457000  1.0 -0.1609673007
C  C54  1  0.73593000  0.60478000  0.57543000  1.0 -0.1609673007
C  C55  1  0.73593000  0.39522000  0.07543000  1.0 -0.1609673007
C  C56  1  0.26407000  0.39522000  0.42457000  1.0 -0.1609673007
C  C57  1  0.18789000  0.62777000  0.94069000  1.0 0.0363987557
C  C58  1  0.81211000  0.62777000  0.55931000  1.0 0.0363987557
C  C59  1  0.81211000  0.37223000  0.05931000  1.0 0.0363987557
C  C60  1  0.18789000  0.37223000  0.44069000  1.0 0.0363987557
C  C61  1  0.07647000  0.60899000  0.92367000  1.0 -0.1510209734
C  C62  1  0.92353000  0.60899000  0.57633000  1.0 -0.1510209734
C  C63  1  0.92353000  0.39101000  0.07633000  1.0 -0.1510209734
C  C64  1  0.07647000  0.39101000  0.42367000  1.0 -0.1510209734
C  C65  1  0.04613000  0.56975000  0.89103000  1.0 0.0645530712
C  C66  1  0.95387000  0.56975000  0.60897000  1.0 0.0645530712
C  C67  1  0.95387000  0.43025000  0.10897000  1.0 0.0645530712
C  C68  1  0.04613000  0.43025000  0.39103000  1.0 0.0645530712
C  C69  1  0.22399000  0.67332000  0.97489000  1.0 0.5686812376
C  C70  1  0.77601000  0.67332000  0.52511000  1.0 0.5686812376
C  C71  1  0.77601000  0.32668000  0.02511000  1.0 0.5686812376
C  C72  1  0.22399000  0.32668000  0.47489000  1.0 0.5686812376
C  C73  1  0.99310000  0.56490000  0.11540000  1.0 0.071571858
C  C74  1  0.00690000  0.56490000  0.38460000  1.0 0.071571858
C  C75  1  0.00690000  0.43510000  0.88460000  1.0 0.071571858
C  C76  1  0.99310000  0.43510000  0.61540000  1.0 0.071571858
C  C77  1  0.04380000  0.60160000  0.09610000  1.0 -0.1510209734
C  C78  1  0.95620000  0.60160000  0.40390000  1.0 -0.1510209734
C  C79  1  0.95620000  0.39840000  0.90390000  1.0 -0.1510209734
C  C80  1  0.04380000  0.39840000  0.59610000  1.0 -0.1510209734
C  C81  1  0.15214000  0.61850000  0.12244000  1.0 0.0199465872
C  C82  1  0.84786000  0.61850000  0.37756000  1.0 0.0199465872
C  C83  1  0.84786000  0.38150000  0.87756000  1.0 0.0199465872
C  C84  1  0.15214000  0.38150000  0.62244000  1.0 0.0199465872
C  C85  1  0.20870000  0.59690000  0.16580000  1.0 -0.1396651274
C  C86  1  0.79130000  0.59690000  0.33420000  1.0 -0.1396651274
C  C87  1  0.79130000  0.40310000  0.83420000  1.0 -0.1396651274
C  C88  1  0.20870000  0.40310000  0.66580000  1.0 -0.1396651274
C  C89  1  0.15200000  0.56100000  0.18330000  1.0 0.0868495306
C  C90  1  0.84800000  0.56100000  0.31670000  1.0 0.0868495306
C  C91  1  0.84800000  0.43900000  0.81670000  1.0 0.0868495306
C  C92  1  0.15200000  0.43900000  0.68330000  1.0 0.0868495306
C  C93  1  0.20350000  0.66180000  0.10400000  1.0 0.5573833858
C  C94  1  0.79650000  0.66180000  0.39600000  1.0 0.5573833858
C  C95  1  0.79650000  0.33820000  0.89600000  1.0 0.5573833858
C  C96  1  0.20350000  0.33820000  0.60400000  1.0 0.5573833858
C  C97  1  0.92890000  0.14960000  0.93370000  1.0 0.0805515296
C  C98  1  0.07110000  0.14960000  0.56630000  1.0 0.0805515296
C  C99  1  0.07110000  0.85040000  0.06630000  1.0 0.0805515296
C  C100  1  0.92890000  0.85040000  0.43370000  1.0 0.0805515296
C  C101  1  0.94630000  0.11200000  0.90500000  1.0 -0.1609673007
C  C102  1  0.05370000  0.11200000  0.59500000  1.0 -0.1609673007
C  C103  1  0.05370000  0.88800000  0.09500000  1.0 -0.1609673007
C  C104  1  0.94630000  0.88800000  0.40500000  1.0 -0.1609673007
C  C105  1  0.89620000  0.12120000  0.85670000  1.0 0.0199465872
C  C106  1  0.10380000  0.12120000  0.64330000  1.0 0.0199465872
C  C107  1  0.10380000  0.87880000  0.14330000  1.0 0.0199465872
C  C108  1  0.89620000  0.87880000  0.35670000  1.0 0.0199465872
C  C109  1  0.82920000  0.16610000  0.84020000  1.0 -0.1396651274
C  C110  1  0.17080000  0.16610000  0.65980000  1.0 -0.1396651274
C  C111  1  0.17080000  0.83390000  0.15980000  1.0 -0.1396651274
C  C112  1  0.82920000  0.83390000  0.34020000  1.0 -0.1396651274
C  C113  1  0.81770000  0.20020000  0.87290000  1.0 0.0868495306
C  C114  1  0.18230000  0.20020000  0.62710000  1.0 0.0868495306
C  C115  1  0.18230000  0.79980000  0.12710000  1.0 0.0868495306
C  C116  1  0.81770000  0.79980000  0.37290000  1.0 0.0868495306
C  C117  1  0.91840000  0.08450000  0.82360000  1.0 0.5509329513
C  C118  1  0.08160000  0.08450000  0.67640000  1.0 0.5509329513
C  C119  1  0.08160000  0.91550000  0.17640000  1.0 0.5509329513
C  C120  1  0.91840000  0.91550000  0.32360000  1.0 0.5509329513
C  C121  1  0.57700000  0.65290000  0.05890000  1.0 0.0805515296
C  C122  1  0.42300000  0.65290000  0.44110000  1.0 0.0805515296
C  C123  1  0.42300000  0.34710000  0.94110000  1.0 0.0805515296
C  C124  1  0.57700000  0.34710000  0.55890000  1.0 0.0805515296
C  C125  1  0.65537000  0.61730000  0.08917000  1.0 -0.1609673007
C  C126  1  0.34463000  0.61730000  0.41083000  1.0 -0.1609673007
C  C127  1  0.34463000  0.38270000  0.91083000  1.0 -0.1609673007
C  C128  1  0.65537000  0.38270000  0.58917000  1.0 -0.1609673007
C  C129  1  0.69720000  0.62800000  0.13610000  1.0 0.0199465872
C  C130  1  0.30280000  0.62800000  0.36390000  1.0 0.0199465872
C  C131  1  0.30280000  0.37200000  0.86390000  1.0 0.0199465872
C  C132  1  0.69720000  0.37200000  0.63610000  1.0 0.0199465872
C  C133  1  0.66520000  0.67440000  0.15160000  1.0 -0.1396651274
C  C134  1  0.33480000  0.67440000  0.34840000  1.0 -0.1396651274
C  C135  1  0.33480000  0.32560000  0.84840000  1.0 -0.1396651274
C  C136  1  0.66520000  0.32560000  0.65160000  1.0 -0.1396651274
C  C137  1  0.58900000  0.70720000  0.11840000  1.0 0.0805515296
C  C138  1  0.41100000  0.70720000  0.38160000  1.0 0.0805515296
C  C139  1  0.41100000  0.29280000  0.88160000  1.0 0.0805515296
C  C140  1  0.58900000  0.29280000  0.61840000  1.0 0.0805515296
C  C141  1  0.78136000  0.59190000  0.17096000  1.0 0.5509329513
C  C142  1  0.21864000  0.59190000  0.32904000  1.0 0.5509329513
C  C143  1  0.21864000  0.40810000  0.82904000  1.0 0.5509329513
C  C144  1  0.78136000  0.40810000  0.67096000  1.0 0.5509329513
C  C145  1  0.60660000  0.75378000  0.98360000  1.0 0.1009032295
C  C146  1  0.39340000  0.75378000  0.51640000  1.0 0.1009032295
C  C147  1  0.39340000  0.24622000  0.01640000  1.0 0.1009032295
C  C148  1  0.60660000  0.24622000  0.48360000  1.0 0.1009032295
C  C149  1  0.65200000  0.75480000  0.94930000  1.0 -0.1609673007
C  C150  1  0.34800000  0.75480000  0.55070000  1.0 -0.1609673007
C  C151  1  0.34800000  0.24520000  0.05070000  1.0 -0.1609673007
C  C152  1  0.65200000  0.24520000  0.44930000  1.0 -0.1609673007
C  C153  1  0.57990000  0.74930000  0.90250000  1.0 0.0199465872
C  C154  1  0.42010000  0.74930000  0.59750000  1.0 0.0199465872
C  C155  1  0.42010000  0.25070000  0.09750000  1.0 0.0199465872
C  C156  1  0.57990000  0.25070000  0.40250000  1.0 0.0199465872
C  C157  1  0.46140000  0.74361000  0.89140000  1.0 -0.1707358564
C  C158  1  0.53860000  0.74361000  0.60860000  1.0 -0.1707358564
C  C159  1  0.53860000  0.25639000  0.10860000  1.0 -0.1707358564
C  C160  1  0.46140000  0.25639000  0.39140000  1.0 -0.1707358564
C  C161  1  0.42282000  0.74347000  0.92712000  1.0 0.0526279335
C  C162  1  0.57718000  0.74347000  0.57288000  1.0 0.0526279335
C  C163  1  0.57718000  0.25653000  0.07288000  1.0 0.0526279335
C  C164  1  0.42282000  0.25653000  0.42712000  1.0 0.0526279335
C  C165  1  0.62730000  0.74903000  0.86440000  1.0 0.5403374111
C  C166  1  0.37270000  0.74903000  0.63560000  1.0 0.5403374111
C  C167  1  0.37270000  0.25097000  0.13560000  1.0 0.5403374111
C  C168  1  0.62730000  0.25097000  0.36440000  1.0 0.5403374111
C  C169  1  0.40955000  0.65312000  0.78605000  1.0 0.071571858
C  C170  1  0.59045000  0.65312000  0.71395000  1.0 0.071571858
C  C171  1  0.59045000  0.34688000  0.21395000  1.0 0.071571858
C  C172  1  0.40955000  0.34688000  0.28605000  1.0 0.071571858
C  C173  1  0.33841000  0.61369000  0.78821000  1.0 -0.1707358564
C  C174  1  0.66159000  0.61369000  0.71179000  1.0 -0.1707358564
C  C175  1  0.66159000  0.38631000  0.21179000  1.0 -0.1707358564
C  C176  1  0.33841000  0.38631000  0.28821000  1.0 -0.1707358564
C  C177  1  0.23168000  0.60625000  0.75058000  1.0 0.0292359175
C  C178  1  0.76832000  0.60625000  0.74942000  1.0 0.0292359175
C  C179  1  0.76832000  0.39375000  0.24942000  1.0 0.0292359175
C  C180  1  0.23168000  0.39375000  0.25058000  1.0 0.0292359175
C  C181  1  0.20510000  0.63956000  0.71270000  1.0 -0.1510209734
C  C182  1  0.79490000  0.63956000  0.78730000  1.0 -0.1510209734
C  C183  1  0.79490000  0.36044000  0.28730000  1.0 -0.1510209734
C  C184  1  0.20510000  0.36044000  0.21270000  1.0 -0.1510209734
C  C185  1  0.28046000  0.67898000  0.71336000  1.0 0.071571858
C  C186  1  0.71954000  0.67898000  0.78664000  1.0 0.071571858
C  C187  1  0.71954000  0.32102000  0.28664000  1.0 0.071571858
C  C188  1  0.28046000  0.32102000  0.21336000  1.0 0.071571858
C  C189  1  0.15129000  0.56312000  0.75189000  1.0 0.5686812376
C  C190  1  0.84871000  0.56312000  0.74811000  1.0 0.5686812376
C  C191  1  0.84871000  0.43688000  0.24811000  1.0 0.5686812376
C  C192  1  0.15129000  0.43688000  0.25189000  1.0 0.5686812376
C  C193  1  0.28106000  0.82041000  0.71126000  1.0 0.0645530712
C  C194  1  0.71894000  0.82041000  0.78874000  1.0 0.0645530712
C  C195  1  0.71894000  0.17959000  0.28874000  1.0 0.0645530712
C  C196  1  0.28106000  0.17959000  0.21126000  1.0 0.0645530712
C  C197  1  0.20635000  0.85988000  0.71015000  1.0 -0.1510209734
C  C198  1  0.79365000  0.85988000  0.78985000  1.0 -0.1510209734
C  C199  1  0.79365000  0.14012000  0.28985000  1.0 -0.1510209734
C  C200  1  0.20635000  0.14012000  0.21015000  1.0 -0.1510209734
C  C201  1  0.23065000  0.89223000  0.74895000  1.0 0.0292359175
C  C202  1  0.76935000  0.89223000  0.75105000  1.0 0.0292359175
C  C203  1  0.76935000  0.10777000  0.25105000  1.0 0.0292359175
C  C204  1  0.23065000  0.10777000  0.24895000  1.0 0.0292359175
C  C205  1  0.33382000  0.88320000  0.78662000  1.0 -0.1609673007
C  C206  1  0.66618000  0.88320000  0.71338000  1.0 -0.1609673007
C  C207  1  0.66618000  0.11680000  0.21338000  1.0 -0.1609673007
C  C208  1  0.33382000  0.11680000  0.28662000  1.0 -0.1609673007
C  C209  1  0.40496000  0.84400000  0.78506000  1.0 0.071571858
C  C210  1  0.59504000  0.84400000  0.71494000  1.0 0.071571858
C  C211  1  0.59504000  0.15600000  0.21494000  1.0 0.071571858
C  C212  1  0.40496000  0.15600000  0.28506000  1.0 0.071571858
C  C213  1  0.14945000  0.93465000  0.74935000  1.0 0.5760854458
C  C214  1  0.85055000  0.93465000  0.75065000  1.0 0.5760854458
C  C215  1  0.85055000  0.06535000  0.25065000  1.0 0.5760854458
C  C216  1  0.14945000  0.06535000  0.24935000  1.0 0.5760854458
N  N1  1  0.12733000  0.95113000  0.87473000  1.0 -0.2386782896
N  N2  1  0.87267000  0.95113000  0.62527000  1.0 -0.2386782896
N  N3  1  0.87267000  0.04887000  0.12527000  1.0 -0.2386782896
N  N4  1  0.12733000  0.04887000  0.37473000  1.0 -0.2386782896
N  N5  1  0.21195000  0.05003000  0.84505000  1.0 -0.2512119866
N  N6  1  0.78805000  0.05003000  0.65495000  1.0 -0.2512119866
N  N7  1  0.78805000  0.94997000  0.15495000  1.0 -0.2512119866
N  N8  1  0.21195000  0.94997000  0.34505000  1.0 -0.2512119866
N  N9  1  0.11997000  0.54808000  0.87437000  1.0 -0.2288323069
N  N10  1  0.88003000  0.54808000  0.62563000  1.0 -0.2288323069
N  N11  1  0.88003000  0.45192000  0.12563000  1.0 -0.2288323069
N  N12  1  0.11997000  0.45192000  0.37437000  1.0 -0.2288323069
N  N13  1  0.04164000  0.54572000  0.15884000  1.0 -0.2553094948
N  N14  1  0.95836000  0.54572000  0.34116000  1.0 -0.2553094948
N  N15  1  0.95836000  0.45428000  0.84116000  1.0 -0.2553094948
N  N16  1  0.04164000  0.45428000  0.65884000  1.0 -0.2553094948
N  N17  1  0.86833000  0.19271000  0.91933000  1.0 -0.2512119866
N  N18  1  0.13167000  0.19271000  0.58067000  1.0 -0.2512119866
N  N19  1  0.13167000  0.80729000  0.08067000  1.0 -0.2512119866
N  N20  1  0.86833000  0.80729000  0.41933000  1.0 -0.2512119866
N  N21  1  0.54261000  0.69699000  0.07131000  1.0 -0.2386782896
N  N22  1  0.45739000  0.69699000  0.42869000  1.0 -0.2386782896
N  N23  1  0.45739000  0.30301000  0.92869000  1.0 -0.2386782896
N  N24  1  0.54261000  0.30301000  0.57131000  1.0 -0.2386782896
N  N25  1  0.49652000  0.74824000  0.97302000  1.0 -0.2386782896
N  N26  1  0.50348000  0.74824000  0.52698000  1.0 -0.2386782896
N  N27  1  0.50348000  0.25176000  0.02698000  1.0 -0.2386782896
N  N28  1  0.49652000  0.25176000  0.47302000  1.0 -0.2386782896
N  N29  1  0.38262000  0.68642000  0.74942000  1.0 -0.2288323069
N  N30  1  0.61738000  0.68642000  0.75058000  1.0 -0.2288323069
N  N31  1  0.61738000  0.31358000  0.25058000  1.0 -0.2288323069
N  N32  1  0.38262000  0.31358000  0.24942000  1.0 -0.2288323069
N  N33  1  0.38046000  0.81130000  0.74846000  1.0 -0.22087612
N  N34  1  0.61954000  0.81130000  0.75154000  1.0 -0.22087612
N  N35  1  0.61954000  0.18870000  0.25154000  1.0 -0.22087612
N  N36  1  0.38046000  0.18870000  0.24846000  1.0 -0.22087612
O  O1  1  0.00000000  0.04243000  0.75000000  1.0 -0.22087612
O  O2  1  0.00000000  0.95757000  0.25000000  1.0 -0.22087612
O  O3  1  0.00000000  0.54577000  0.25000000  1.0 -0.1707358564
O  O4  1  0.00000000  0.45423000  0.75000000  1.0 -0.1707358564
O  O5  1  0.32893000  0.74959000  0.07063000  1.0 -0.2288323069
O  O6  1  0.67107000  0.74959000  0.42937000  1.0 -0.2288323069
O  O7  1  0.67107000  0.25041000  0.92937000  1.0 -0.2386782896
O  O8  1  0.32893000  0.25041000  0.57063000  1.0 -0.2386782896
O  O9  1  0.96230000  0.74898000  0.99960000  1.0 -0.1983842241
O  O10  1  0.03770000  0.74898000  0.50040000  1.0 -0.1983842241
O  O11  1  0.03770000  0.25102000  0.00040000  1.0 -0.1983842241
O  O12  1  0.96230000  0.25102000  0.49960000  1.0 -0.1983842241
O  O13  1  0.14407000  0.81250000  0.99027000  1.0 -0.5188598807
O  O14  1  0.85593000  0.81250000  0.50973000  1.0 -0.5188598807
O  O15  1  0.85593000  0.18750000  0.00973000  1.0 -0.5188598807
O  O16  1  0.14407000  0.18750000  0.49027000  1.0 -0.5188598807
O  O17  1  0.30639000  0.80072000  0.97909000  1.0 -0.5366958106
O  O18  1  0.69361000  0.80072000  0.52091000  1.0 -0.5366958106
O  O19  1  0.69361000  0.19928000  0.02091000  1.0 -0.5366958106
O  O20  1  0.30639000  0.19928000  0.47909000  1.0 -0.5366958106
O  O21  1  0.48021000  0.18868000  0.94041000  1.0 -0.5615576182
O  O22  1  0.51979000  0.18868000  0.55959000  1.0 -0.5615576182
O  O23  1  0.51979000  0.81132000  0.05959000  1.0 -0.5615576182
O  O24  1  0.48021000  0.81132000  0.44041000  1.0 -0.5615576182
O  O25  1  0.55492000  0.16943000  0.88802000  1.0 -0.4799567287
O  O26  1  0.44508000  0.16943000  0.61198000  1.0 -0.4799567287
O  O27  1  0.44508000  0.83057000  0.11198000  1.0 -0.4799567287
O  O28  1  0.55492000  0.83057000  0.38802000  1.0 -0.4799567287
O  O29  1  0.33035000  0.68362000  0.99125000  1.0 -0.5493185446
O  O30  1  0.66965000  0.68362000  0.50875000  1.0 -0.5493185446
O  O31  1  0.66965000  0.31638000  0.00875000  1.0 -0.5493185446
O  O32  1  0.33035000  0.31638000  0.49125000  1.0 -0.5493185446
O  O33  1  0.14889000  0.69559000  0.98369000  1.0 -0.5049125875
O  O34  1  0.85111000  0.69559000  0.51631000  1.0 -0.5049125875
O  O35  1  0.85111000  0.30441000  0.01631000  1.0 -0.5049125875
O  O36  1  0.14889000  0.30441000  0.48369000  1.0 -0.5049125875
O  O37  1  0.13152000  0.68954000  0.07332000  1.0 -0.5302443032
O  O38  1  0.86848000  0.68954000  0.42668000  1.0 -0.5302443032
O  O39  1  0.86848000  0.31046000  0.92668000  1.0 -0.5302443032
O  O40  1  0.13152000  0.31046000  0.57332000  1.0 -0.5302443032
O  O41  1  0.31090000  0.66861000  0.12090000  1.0 -0.4866860906
O  O42  1  0.68910000  0.66861000  0.37910000  1.0 -0.4866860906
O  O43  1  0.68910000  0.33139000  0.87910000  1.0 -0.4866860906
O  O44  1  0.31090000  0.33139000  0.62090000  1.0 -0.4866860906
O  O45  1  0.97608000  0.04423000  0.84118000  1.0 -0.5615576182
O  O46  1  0.02392000  0.04423000  0.65882000  1.0 -0.5615576182
O  O47  1  0.02392000  0.95577000  0.15882000  1.0 -0.5615576182
O  O48  1  0.97608000  0.95577000  0.34118000  1.0 -0.5615576182
O  O49  1  0.87883000  0.09680000  0.78113000  1.0 -0.4799567287
O  O50  1  0.12117000  0.09680000  0.71887000  1.0 -0.4799567287
O  O51  1  0.12117000  0.90320000  0.21887000  1.0 -0.4799567287
O  O52  1  0.87883000  0.90320000  0.28113000  1.0 -0.4799567287
O  O53  1  0.80767000  0.55094000  0.15417000  1.0 -0.5615576182
O  O54  1  0.19233000  0.55094000  0.34583000  1.0 -0.5615576182
O  O55  1  0.19233000  0.44906000  0.84583000  1.0 -0.5615576182
O  O56  1  0.80767000  0.44906000  0.65417000  1.0 -0.5615576182
O  O57  1  0.82224000  0.60433000  0.21334000  1.0 -0.4799567287
O  O58  1  0.17776000  0.60433000  0.28666000  1.0 -0.4799567287
O  O59  1  0.17776000  0.39567000  0.78666000  1.0 -0.4799567287
O  O60  1  0.82224000  0.39567000  0.71334000  1.0 -0.4799567287
O  O61  1  0.55219000  0.74911000  0.82239000  1.0 -0.5934633041
O  O62  1  0.44781000  0.74911000  0.67761000  1.0 -0.5934633041
O  O63  1  0.44781000  0.25089000  0.17761000  1.0 -0.5934633041
O  O64  1  0.55219000  0.25089000  0.32239000  1.0 -0.5934633041
O  O65  1  0.73167000  0.74799000  0.87687000  1.0 -0.5302443032
O  O66  1  0.26833000  0.74799000  0.62313000  1.0 -0.5302443032
O  O67  1  0.26833000  0.25201000  0.12313000  1.0 -0.5302443032
O  O68  1  0.73167000  0.25201000  0.37687000  1.0 -0.5302443032
O  O69  1  0.07169000  0.55370000  0.71309000  1.0 -0.5493185446
O  O70  1  0.92831000  0.55370000  0.78691000  1.0 -0.5493185446
O  O71  1  0.92831000  0.44630000  0.28691000  1.0 -0.5493185446
O  O72  1  0.07169000  0.44630000  0.21309000  1.0 -0.5493185446
O  O73  1  0.16921000  0.54213000  0.79001000  1.0 -0.5188598807
O  O74  1  0.83079000  0.54213000  0.70999000  1.0 -0.5188598807
O  O75  1  0.83079000  0.45787000  0.20999000  1.0 -0.5188598807
O  O76  1  0.16921000  0.45787000  0.29001000  1.0 -0.5188598807
O  O77  1  0.17197000  0.95650000  0.78837000  1.0 -0.5493185446
O  O78  1  0.82803000  0.95650000  0.71163000  1.0 -0.5493185446
O  O79  1  0.82803000  0.04350000  0.21163000  1.0 -0.5493185446
O  O80  1  0.17197000  0.04350000  0.28837000  1.0 -0.5493185446
O  O81  1  0.06556000  0.94367000  0.71216000  1.0 -0.5302443032
O  O82  1  0.93444000  0.94367000  0.78784000  1.0 -0.5302443032
O  O83  1  0.93444000  0.05633000  0.28784000  1.0 -0.5302443032
O  O84  1  0.06556000  0.05633000  0.21216000  1.0 -0.5302443032
