# DDEC6 charges by PACMAN v1.1 (https://github.com/mtap-research/PACMAN-charge/)
data_BOWDOI_FSR_pacman
_symmetry_space_group_name_H-M   'P 1'
_cell_length_a   20.13500000
_cell_length_b   20.13500000
_cell_length_c   26.21700000
_cell_angle_alpha   69.90990000
_cell_angle_beta   110.09000000
_cell_angle_gamma   101.85200000
_symmetry_Int_Tables_number   1
_chemical_formula_structural   Co3H24C36(N3O7)2
_chemical_formula_sum   'Co18 H144 C216 N36 O84'
_cell_volume   9328.61859903
_cell_formula_units_Z   6
loop_
 _symmetry_equiv_pos_site_id
 _symmetry_equiv_pos_as_xyz
  1  'x, y, z'
loop_
 _atom_site_type_symbol
 _atom_site_label
 _atom_site_symmetry_multiplicity
 _atom_site_fract_x
 _atom_site_fract_y
 _atom_site_fract_z
 _atom_site_occupancy
 _atom_site_charge
Co  Co1  1  0.69293000  0.82771000  0.97230000  1.0 0.8705586492
Co  Co2  1  0.82771000  0.69293000  0.52770000  1.0 0.8705586492
Co  Co3  1  0.30707000  0.17229000  0.02770000  1.0 0.8705586492
Co  Co4  1  0.17229000  0.30707000  0.47230000  1.0 0.8705586492
Co  Co5  1  0.81901000  0.69701000  0.03584000  1.0 0.8803047536
Co  Co6  1  0.69701000  0.81901000  0.46416000  1.0 0.8803047536
Co  Co7  1  0.18099000  0.30299000  0.96416000  1.0 0.8803047536
Co  Co8  1  0.30299000  0.18099000  0.53584000  1.0 0.8803047536
Co  Co9  1  0.27454000  0.71268000  0.06338000  1.0 1.0024824141
Co  Co10  1  0.71268000  0.27454000  0.43662000  1.0 1.0024824141
Co  Co11  1  0.72546000  0.28732000  0.93662000  1.0 1.0024824141
Co  Co12  1  0.28732000  0.72546000  0.56338000  1.0 1.0024824141
Co  Co13  1  0.30250000  0.70356000  0.70810000  1.0 0.9087095259
Co  Co14  1  0.70356000  0.30250000  0.79190000  1.0 0.9087095259
Co  Co15  1  0.69750000  0.29644000  0.29190000  1.0 0.9087095259
Co  Co16  1  0.29644000  0.69750000  0.20810000  1.0 0.9087095259
Co  Co17  1  0.99366000  0.99366000  0.75000000  1.0 0.713978052
Co  Co18  1  0.00634000  0.00634000  0.25000000  1.0 0.713978052
H  H1  1  0.96100000  0.84340000  0.82410000  1.0 0.1086442816
H  H2  1  0.84340000  0.96100000  0.67590000  1.0 0.1086442816
H  H3  1  0.03900000  0.15660000  0.17590000  1.0 0.1086442816
H  H4  1  0.15660000  0.03900000  0.32410000  1.0 0.1086442816
H  H5  1  0.90420000  0.78000000  0.89140000  1.0 0.1310448142
H  H6  1  0.78000000  0.90420000  0.60860000  1.0 0.1310448142
H  H7  1  0.09580000  0.22000000  0.10860000  1.0 0.1310448142
H  H8  1  0.22000000  0.09580000  0.39140000  1.0 0.1310448142
H  H9  1  0.82200000  0.95900000  0.86470000  1.0 0.1391587582
H  H10  1  0.95900000  0.82200000  0.63530000  1.0 0.1391587582
H  H11  1  0.17800000  0.04100000  0.13530000  1.0 0.1391587582
H  H12  1  0.04100000  0.17800000  0.36470000  1.0 0.1391587582
H  H13  1  0.88270000  0.01650000  0.79920000  1.0 0.1086442816
H  H14  1  0.01650000  0.88270000  0.70080000  1.0 0.1086442816
H  H15  1  0.11730000  0.98350000  0.20080000  1.0 0.1086442816
H  H16  1  0.98350000  0.11730000  0.29920000  1.0 0.1086442816
H  H17  1  0.02210000  0.89190000  0.20000000  1.0 0.1086442816
H  H18  1  0.89190000  0.02210000  0.30000000  1.0 0.1086442816
H  H19  1  0.97790000  0.10810000  0.80000000  1.0 0.1086442816
H  H20  1  0.10810000  0.97790000  0.70000000  1.0 0.1086442816
H  H21  1  0.95690000  0.82570000  0.13950000  1.0 0.1391587582
H  H22  1  0.82570000  0.95690000  0.36050000  1.0 0.1391587582
H  H23  1  0.04310000  0.17430000  0.86050000  1.0 0.1391587582
H  H24  1  0.17430000  0.04310000  0.63950000  1.0 0.1391587582
H  H25  1  0.78560000  0.91860000  0.11310000  1.0 0.1310448142
H  H26  1  0.91860000  0.78560000  0.38690000  1.0 0.1310448142
H  H27  1  0.21440000  0.08140000  0.88690000  1.0 0.1310448142
H  H28  1  0.08140000  0.21440000  0.61310000  1.0 0.1310448142
H  H29  1  0.85440000  0.97840000  0.17720000  1.0 0.1086442816
H  H30  1  0.97840000  0.85440000  0.32280000  1.0 0.1086442816
H  H31  1  0.14560000  0.02160000  0.82280000  1.0 0.1086442816
H  H32  1  0.02160000  0.14560000  0.67720000  1.0 0.1086442816
H  H33  1  0.62950000  0.44590000  0.23990000  1.0 0.1086442816
H  H34  1  0.44590000  0.62950000  0.26010000  1.0 0.1086442816
H  H35  1  0.37050000  0.55410000  0.76010000  1.0 0.1086442816
H  H36  1  0.55410000  0.37050000  0.73990000  1.0 0.1086442816
H  H37  1  0.64180000  0.55320000  0.17480000  1.0 0.1310448142
H  H38  1  0.55320000  0.64180000  0.32520000  1.0 0.1310448142
H  H39  1  0.35820000  0.44680000  0.82520000  1.0 0.1310448142
H  H40  1  0.44680000  0.35820000  0.67480000  1.0 0.1310448142
H  H41  1  0.82560000  0.50340000  0.17790000  1.0 0.119763337
H  H42  1  0.50340000  0.82560000  0.32210000  1.0 0.119763337
H  H43  1  0.17440000  0.49660000  0.82210000  1.0 0.119763337
H  H44  1  0.49660000  0.17440000  0.67790000  1.0 0.119763337
H  H45  1  0.80530000  0.39430000  0.23970000  1.0 0.1086442816
H  H46  1  0.39430000  0.80530000  0.26030000  1.0 0.1086442816
H  H47  1  0.19470000  0.60570000  0.76030000  1.0 0.1086442816
H  H48  1  0.60570000  0.19470000  0.73970000  1.0 0.1086442816
H  H49  1  0.39130000  0.81290000  0.76460000  1.0 0.1086442816
H  H50  1  0.81290000  0.39130000  0.73540000  1.0 0.1086442816
H  H51  1  0.60870000  0.18710000  0.23540000  1.0 0.1086442816
H  H52  1  0.18710000  0.60870000  0.26460000  1.0 0.1086442816
H  H53  1  0.49710000  0.83470000  0.82840000  1.0 0.119763337
H  H54  1  0.83470000  0.49710000  0.67160000  1.0 0.119763337
H  H55  1  0.50290000  0.16530000  0.17160000  1.0 0.119763337
H  H56  1  0.16530000  0.50290000  0.32840000  1.0 0.119763337
H  H57  1  0.56320000  0.66460000  0.82140000  1.0 0.1391587582
H  H58  1  0.66460000  0.56320000  0.67860000  1.0 0.1391587582
H  H59  1  0.43680000  0.33540000  0.17860000  1.0 0.1391587582
H  H60  1  0.33540000  0.43680000  0.32140000  1.0 0.1391587582
H  H61  1  0.45700000  0.64820000  0.75730000  1.0 0.1086442816
H  H62  1  0.64820000  0.45700000  0.74270000  1.0 0.1086442816
H  H63  1  0.54300000  0.35180000  0.24270000  1.0 0.1086442816
H  H64  1  0.35180000  0.54300000  0.25730000  1.0 0.1086442816
H  H65  1  0.94430000  0.67590000  0.14640000  1.0 0.119763337
H  H66  1  0.67590000  0.94430000  0.35360000  1.0 0.119763337
H  H67  1  0.05570000  0.32410000  0.85360000  1.0 0.119763337
H  H68  1  0.32410000  0.05570000  0.64640000  1.0 0.119763337
H  H69  1  0.06590000  0.67930000  0.17520000  1.0 0.1391587582
H  H70  1  0.67930000  0.06590000  0.32480000  1.0 0.1391587582
H  H71  1  0.93410000  0.32070000  0.82480000  1.0 0.1391587582
H  H72  1  0.32070000  0.93410000  0.67520000  1.0 0.1391587582
H  H73  1  0.05480000  0.67780000  0.02000000  1.0 0.1391587582
H  H74  1  0.67780000  0.05480000  0.48000000  1.0 0.1391587582
H  H75  1  0.94520000  0.32220000  0.98000000  1.0 0.1391587582
H  H76  1  0.32220000  0.94520000  0.52000000  1.0 0.1391587582
H  H77  1  0.93370000  0.67410000  0.99560000  1.0 0.1086442816
H  H78  1  0.67410000  0.93370000  0.50440000  1.0 0.1086442816
H  H79  1  0.06630000  0.32590000  0.00440000  1.0 0.1086442816
H  H80  1  0.32590000  0.06630000  0.49560000  1.0 0.1086442816
H  H81  1  0.76790000  0.67270000  0.91760000  1.0 0.1086442816
H  H82  1  0.67270000  0.76790000  0.58240000  1.0 0.1086442816
H  H83  1  0.23210000  0.32730000  0.08240000  1.0 0.1086442816
H  H84  1  0.32730000  0.23210000  0.41760000  1.0 0.1086442816
H  H85  1  0.73410000  0.58390000  0.87550000  1.0 0.1310448142
H  H86  1  0.58390000  0.73410000  0.62450000  1.0 0.1310448142
H  H87  1  0.26590000  0.41610000  0.12450000  1.0 0.1310448142
H  H88  1  0.41610000  0.26590000  0.37550000  1.0 0.1310448142
H  H89  1  0.77920000  0.44120000  0.02950000  1.0 0.1310448142
H  H90  1  0.44120000  0.77920000  0.47050000  1.0 0.1310448142
H  H91  1  0.22080000  0.55880000  0.97050000  1.0 0.1310448142
H  H92  1  0.55880000  0.22080000  0.52950000  1.0 0.1310448142
H  H93  1  0.81150000  0.53470000  0.06790000  1.0 0.102437357
H  H94  1  0.53470000  0.81150000  0.43210000  1.0 0.102437357
H  H95  1  0.18850000  0.46530000  0.93210000  1.0 0.102437357
H  H96  1  0.46530000  0.18850000  0.56790000  1.0 0.102437357
H  H97  1  0.66350000  0.76890000  0.08850000  1.0 0.1086442816
H  H98  1  0.76890000  0.66350000  0.41150000  1.0 0.1086442816
H  H99  1  0.33650000  0.23110000  0.91150000  1.0 0.1086442816
H  H100  1  0.23110000  0.33650000  0.58850000  1.0 0.1086442816
H  H101  1  0.57200000  0.72920000  0.12820000  1.0 0.1310448142
H  H102  1  0.72920000  0.57200000  0.37180000  1.0 0.1310448142
H  H103  1  0.42800000  0.27080000  0.87180000  1.0 0.1310448142
H  H104  1  0.27080000  0.42800000  0.62820000  1.0 0.1310448142
H  H105  1  0.43640000  0.79500000  0.97270000  1.0 0.1310448142
H  H106  1  0.79500000  0.43640000  0.52730000  1.0 0.1310448142
H  H107  1  0.56360000  0.20500000  0.02730000  1.0 0.1310448142
H  H108  1  0.20500000  0.56360000  0.47270000  1.0 0.1310448142
H  H109  1  0.53140000  0.83160000  0.93720000  1.0 0.102437357
H  H110  1  0.83160000  0.53140000  0.56280000  1.0 0.102437357
H  H111  1  0.46860000  0.16840000  0.06280000  1.0 0.102437357
H  H112  1  0.16840000  0.46860000  0.43720000  1.0 0.102437357
H  H113  1  0.81800000  0.16560000  0.50320000  1.0 0.1086442816
H  H114  1  0.16560000  0.81800000  0.99680000  1.0 0.1086442816
H  H115  1  0.18200000  0.83440000  0.49680000  1.0 0.1086442816
H  H116  1  0.83440000  0.18200000  0.00320000  1.0 0.1086442816
H  H117  1  0.87970000  0.10590000  0.59410000  1.0 0.1310448142
H  H118  1  0.10590000  0.87970000  0.90590000  1.0 0.1310448142
H  H119  1  0.12030000  0.89410000  0.40590000  1.0 0.1310448142
H  H120  1  0.89410000  0.12030000  0.09410000  1.0 0.1310448142
H  H121  1  0.77780000  0.19980000  0.65300000  1.0 0.1391587582
H  H122  1  0.19980000  0.77780000  0.84700000  1.0 0.1391587582
H  H123  1  0.22220000  0.80020000  0.34700000  1.0 0.1391587582
H  H124  1  0.80020000  0.22220000  0.15300000  1.0 0.1391587582
H  H125  1  0.71810000  0.25690000  0.55990000  1.0 0.1086442816
H  H126  1  0.25690000  0.71810000  0.94010000  1.0 0.1086442816
H  H127  1  0.28190000  0.74310000  0.44010000  1.0 0.1086442816
H  H128  1  0.74310000  0.28190000  0.05990000  1.0 0.1086442816
H  H129  1  0.68270000  0.94830000  0.01320000  1.0 0.1086442816
H  H130  1  0.94830000  0.68270000  0.48680000  1.0 0.1086442816
H  H131  1  0.31730000  0.05170000  0.98680000  1.0 0.1086442816
H  H132  1  0.05170000  0.31730000  0.51320000  1.0 0.1086442816
H  H133  1  0.69280000  0.07000000  0.98590000  1.0 0.1391587582
H  H134  1  0.07000000  0.69280000  0.51410000  1.0 0.1391587582
H  H135  1  0.30720000  0.93000000  0.01410000  1.0 0.1391587582
H  H136  1  0.93000000  0.30720000  0.48590000  1.0 0.1391587582
H  H137  1  0.67380000  0.06880000  0.82860000  1.0 0.1391587582
H  H138  1  0.06880000  0.67380000  0.67140000  1.0 0.1391587582
H  H139  1  0.32620000  0.93120000  0.17140000  1.0 0.1391587582
H  H140  1  0.93120000  0.32620000  0.32860000  1.0 0.1391587582
H  H141  1  0.66750000  0.94850000  0.86090000  1.0 0.119763337
H  H142  1  0.94850000  0.66750000  0.63910000  1.0 0.119763337
H  H143  1  0.33250000  0.05150000  0.13910000  1.0 0.119763337
H  H144  1  0.05150000  0.33250000  0.36090000  1.0 0.119763337
C  C1  1  0.93341000  0.86705000  0.83296000  1.0 0.0900740635
C  C2  1  0.86705000  0.93341000  0.66704000  1.0 0.0900740635
C  C3  1  0.06659000  0.13295000  0.16704000  1.0 0.0900740635
C  C4  1  0.13295000  0.06659000  0.33296000  1.0 0.0900740635
C  C5  1  0.89921000  0.82811000  0.87350000  1.0 -0.1692510696
C  C6  1  0.82811000  0.89921000  0.62650000  1.0 -0.1692510696
C  C7  1  0.10079000  0.17189000  0.12650000  1.0 -0.1692510696
C  C8  1  0.17189000  0.10079000  0.37350000  1.0 -0.1692510696
C  C9  1  0.85700000  0.86326000  0.88662000  1.0 0.0373532119
C  C10  1  0.86326000  0.85700000  0.61338000  1.0 0.0373532119
C  C11  1  0.14300000  0.13674000  0.11338000  1.0 0.0373532119
C  C12  1  0.13674000  0.14300000  0.38662000  1.0 0.0373532119
C  C13  1  0.85069000  0.93429000  0.85772000  1.0 -0.1504255535
C  C14  1  0.93429000  0.85069000  0.64228000  1.0 -0.1504255535
C  C15  1  0.14931000  0.06571000  0.14228000  1.0 -0.1504255535
C  C16  1  0.06571000  0.14931000  0.35772000  1.0 -0.1504255535
C  C17  1  0.88730000  0.96858000  0.81824000  1.0 0.0724968127
C  C18  1  0.96858000  0.88730000  0.68176000  1.0 0.0724968127
C  C19  1  0.11270000  0.03142000  0.18176000  1.0 0.0724968127
C  C20  1  0.03142000  0.11270000  0.31824000  1.0 0.0724968127
C  C21  1  0.81956000  0.82456000  0.93122000  1.0 0.5785147845
C  C22  1  0.82456000  0.81956000  0.56878000  1.0 0.5785147845
C  C23  1  0.18044000  0.17544000  0.06878000  1.0 0.5785147845
C  C24  1  0.17544000  0.18044000  0.43122000  1.0 0.5785147845
C  C25  1  0.97394000  0.89704000  0.18260000  1.0 0.0793040224
C  C26  1  0.89704000  0.97394000  0.31740000  1.0 0.0793040224
C  C27  1  0.02606000  0.10296000  0.81740000  1.0 0.0793040224
C  C28  1  0.10296000  0.02606000  0.68260000  1.0 0.0793040224
C  C29  1  0.93500000  0.85736000  0.14573000  1.0 -0.1504255535
C  C30  1  0.85736000  0.93500000  0.35427000  1.0 -0.1504255535
C  C31  1  0.06500000  0.14264000  0.85427000  1.0 -0.1504255535
C  C32  1  0.14264000  0.06500000  0.64573000  1.0 -0.1504255535
C  C33  1  0.86414000  0.86528000  0.11864000  1.0 0.034030131
C  C34  1  0.86528000  0.86414000  0.38136000  1.0 0.034030131
C  C35  1  0.13586000  0.13472000  0.88136000  1.0 0.034030131
C  C36  1  0.13472000  0.13586000  0.61864000  1.0 0.034030131
C  C37  1  0.83342000  0.91190000  0.13047000  1.0 -0.1692510696
C  C38  1  0.91190000  0.83342000  0.36953000  1.0 -0.1692510696
C  C39  1  0.16658000  0.08810000  0.86953000  1.0 -0.1692510696
C  C40  1  0.08810000  0.16658000  0.63047000  1.0 -0.1692510696
C  C41  1  0.87559000  0.94823000  0.16873000  1.0 0.0793040224
C  C42  1  0.94823000  0.87559000  0.33127000  1.0 0.0793040224
C  C43  1  0.12441000  0.05177000  0.83127000  1.0 0.0793040224
C  C44  1  0.05177000  0.12441000  0.66873000  1.0 0.0793040224
C  C45  1  0.82088000  0.82492000  0.07634000  1.0 0.5785147845
C  C46  1  0.82492000  0.82088000  0.42366000  1.0 0.5785147845
C  C47  1  0.17912000  0.17508000  0.92366000  1.0 0.5785147845
C  C48  1  0.17508000  0.17912000  0.57634000  1.0 0.5785147845
C  C49  1  0.66776000  0.45624000  0.22520000  1.0 0.0793040224
C  C50  1  0.45624000  0.66776000  0.27480000  1.0 0.0793040224
C  C51  1  0.33224000  0.54376000  0.77480000  1.0 0.0793040224
C  C52  1  0.54376000  0.33224000  0.72520000  1.0 0.0793040224
C  C53  1  0.67552000  0.52128000  0.18690000  1.0 -0.1504255535
C  C54  1  0.52128000  0.67552000  0.31310000  1.0 -0.1504255535
C  C55  1  0.32448000  0.47872000  0.81310000  1.0 -0.1504255535
C  C56  1  0.47872000  0.32448000  0.68690000  1.0 -0.1504255535
C  C57  1  0.73302000  0.53996000  0.16614000  1.0 0.022553827
C  C58  1  0.53996000  0.73302000  0.33386000  1.0 0.022553827
C  C59  1  0.26698000  0.46004000  0.83386000  1.0 0.022553827
C  C60  1  0.46004000  0.26698000  0.66614000  1.0 0.022553827
C  C61  1  0.78389000  0.49169000  0.18821000  1.0 -0.1594459555
C  C62  1  0.49169000  0.78389000  0.31179000  1.0 -0.1594459555
C  C63  1  0.21611000  0.50831000  0.81179000  1.0 -0.1594459555
C  C64  1  0.50831000  0.21611000  0.68821000  1.0 -0.1594459555
C  C65  1  0.77130000  0.42634000  0.22559000  1.0 0.0793040224
C  C66  1  0.42634000  0.77130000  0.27441000  1.0 0.0793040224
C  C67  1  0.22870000  0.57366000  0.77441000  1.0 0.0793040224
C  C68  1  0.57366000  0.22870000  0.72559000  1.0 0.0793040224
C  C69  1  0.73966000  0.60694000  0.11910000  1.0 0.5499982088
C  C70  1  0.60694000  0.73966000  0.38090000  1.0 0.5499982088
C  C71  1  0.26034000  0.39306000  0.88090000  1.0 0.5499982088
C  C72  1  0.39306000  0.26034000  0.61910000  1.0 0.5499982088
C  C73  1  0.42578000  0.78156000  0.77740000  1.0 0.0724968127
C  C74  1  0.78156000  0.42578000  0.72260000  1.0 0.0724968127
C  C75  1  0.57422000  0.21844000  0.22260000  1.0 0.0724968127
C  C76  1  0.21844000  0.57422000  0.27740000  1.0 0.0724968127
C  C77  1  0.48893000  0.79497000  0.81580000  1.0 -0.1594459555
C  C78  1  0.79497000  0.48893000  0.68420000  1.0 -0.1594459555
C  C79  1  0.51107000  0.20503000  0.18420000  1.0 -0.1594459555
C  C80  1  0.20503000  0.51107000  0.31580000  1.0 -0.1594459555
C  C81  1  0.54072000  0.74848000  0.83570000  1.0 0.034030131
C  C82  1  0.74848000  0.54072000  0.66430000  1.0 0.034030131
C  C83  1  0.45928000  0.25152000  0.16430000  1.0 0.034030131
C  C84  1  0.25152000  0.45928000  0.33570000  1.0 0.034030131
C  C85  1  0.52824000  0.69436000  0.81160000  1.0 -0.1504255535
C  C86  1  0.69436000  0.52824000  0.68840000  1.0 -0.1504255535
C  C87  1  0.47176000  0.30564000  0.18840000  1.0 -0.1504255535
C  C88  1  0.30564000  0.47176000  0.31160000  1.0 -0.1504255535
C  C89  1  0.46420000  0.68482000  0.77320000  1.0 0.0793040224
C  C90  1  0.68482000  0.46420000  0.72680000  1.0 0.0793040224
C  C91  1  0.53580000  0.31518000  0.22680000  1.0 0.0793040224
C  C92  1  0.31518000  0.53580000  0.27320000  1.0 0.0793040224
C  C93  1  0.60778000  0.75602000  0.88410000  1.0 0.5415440499
C  C94  1  0.75602000  0.60778000  0.61590000  1.0 0.5415440499
C  C95  1  0.39222000  0.24398000  0.11590000  1.0 0.5415440499
C  C96  1  0.24398000  0.39222000  0.38410000  1.0 0.5415440499
C  C97  1  0.96701000  0.67715000  0.12060000  1.0 0.0900740635
C  C98  1  0.67715000  0.96701000  0.37940000  1.0 0.0900740635
C  C99  1  0.03299000  0.32285000  0.87940000  1.0 0.0900740635
C  C100  1  0.32285000  0.03299000  0.62060000  1.0 0.0900740635
C  C101  1  0.04003000  0.67893000  0.13834000  1.0 -0.1504255535
C  C102  1  0.67893000  0.04003000  0.36166000  1.0 -0.1504255535
C  C103  1  0.95997000  0.32107000  0.86166000  1.0 -0.1504255535
C  C104  1  0.32107000  0.95997000  0.63834000  1.0 -0.1504255535
C  C105  1  0.07420000  0.68004000  0.10035000  1.0 0.034030131
C  C106  1  0.68004000  0.07420000  0.39965000  1.0 0.034030131
C  C107  1  0.92580000  0.31996000  0.89965000  1.0 0.034030131
C  C108  1  0.31996000  0.92580000  0.60035000  1.0 0.034030131
C  C109  1  0.03333000  0.67795000  0.04628000  1.0 -0.1594459555
C  C110  1  0.67795000  0.03333000  0.45372000  1.0 -0.1594459555
C  C111  1  0.96667000  0.32205000  0.95372000  1.0 -0.1594459555
C  C112  1  0.32205000  0.96667000  0.54628000  1.0 -0.1594459555
C  C113  1  0.96086000  0.67612000  0.03185000  1.0 0.0724968127
C  C114  1  0.67612000  0.96086000  0.46815000  1.0 0.0724968127
C  C115  1  0.03914000  0.32388000  0.96815000  1.0 0.0724968127
C  C116  1  0.32388000  0.03914000  0.53185000  1.0 0.0724968127
C  C117  1  0.15474000  0.68582000  0.11589000  1.0 0.5727629064
C  C118  1  0.68582000  0.15474000  0.38411000  1.0 0.5727629064
C  C119  1  0.84526000  0.31418000  0.88411000  1.0 0.5727629064
C  C120  1  0.31418000  0.84526000  0.61589000  1.0 0.5727629064
C  C121  1  0.76976000  0.62570000  0.94042000  1.0 0.0793040224
C  C122  1  0.62570000  0.76976000  0.55958000  1.0 0.0793040224
C  C123  1  0.23024000  0.37430000  0.05958000  1.0 0.0793040224
C  C124  1  0.37430000  0.23024000  0.44042000  1.0 0.0793040224
C  C125  1  0.74952000  0.57258000  0.91493000  1.0 -0.1435319423
C  C126  1  0.57258000  0.74952000  0.58507000  1.0 -0.1435319423
C  C127  1  0.25048000  0.42742000  0.08507000  1.0 -0.1435319423
C  C128  1  0.42742000  0.25048000  0.41493000  1.0 -0.1435319423
C  C129  1  0.75194000  0.50256000  0.94772000  1.0 0.0373532119
C  C130  1  0.50256000  0.75194000  0.55228000  1.0 0.0373532119
C  C131  1  0.24806000  0.49744000  0.05228000  1.0 0.0373532119
C  C132  1  0.49744000  0.24806000  0.44772000  1.0 0.0373532119
C  C133  1  0.77600000  0.48780000  0.00594000  1.0 -0.1504255535
C  C134  1  0.48780000  0.77600000  0.49406000  1.0 -0.1504255535
C  C135  1  0.22400000  0.51220000  0.99406000  1.0 -0.1504255535
C  C136  1  0.51220000  0.22400000  0.50594000  1.0 -0.1504255535
C  C137  1  0.79537000  0.54465000  0.02858000  1.0 0.0793040224
C  C138  1  0.54465000  0.79537000  0.47142000  1.0 0.0793040224
C  C139  1  0.20463000  0.45535000  0.97142000  1.0 0.0793040224
C  C140  1  0.45535000  0.20463000  0.52858000  1.0 0.0793040224
C  C141  1  0.72977000  0.44261000  0.92054000  1.0 0.5597499012
C  C142  1  0.44261000  0.72977000  0.57946000  1.0 0.5597499012
C  C143  1  0.27023000  0.55739000  0.07946000  1.0 0.5597499012
C  C144  1  0.55739000  0.27023000  0.42054000  1.0 0.5597499012
C  C145  1  0.61715000  0.77347000  0.06486000  1.0 0.0900740635
C  C146  1  0.77347000  0.61715000  0.43514000  1.0 0.0900740635
C  C147  1  0.38285000  0.22653000  0.93514000  1.0 0.0900740635
C  C148  1  0.22653000  0.38285000  0.56486000  1.0 0.0900740635
C  C149  1  0.56240000  0.74966000  0.08908000  1.0 -0.1435319423
C  C150  1  0.74966000  0.56240000  0.41092000  1.0 -0.1435319423
C  C151  1  0.43760000  0.25034000  0.91092000  1.0 -0.1435319423
C  C152  1  0.25034000  0.43760000  0.58908000  1.0 -0.1435319423
C  C153  1  0.49350000  0.75656000  0.05482000  1.0 0.0373532119
C  C154  1  0.75656000  0.49350000  0.44518000  1.0 0.0373532119
C  C155  1  0.50650000  0.24344000  0.94518000  1.0 0.0373532119
C  C156  1  0.24344000  0.50650000  0.55482000  1.0 0.0373532119
C  C157  1  0.48222000  0.78844000  0.99711000  1.0 -0.1504255535
C  C158  1  0.78844000  0.48222000  0.50289000  1.0 -0.1504255535
C  C159  1  0.51778000  0.21156000  0.00289000  1.0 -0.1504255535
C  C160  1  0.21156000  0.51778000  0.49711000  1.0 -0.1504255535
C  C161  1  0.53971000  0.81043000  0.97614000  1.0 0.0724968127
C  C162  1  0.81043000  0.53971000  0.52386000  1.0 0.0724968127
C  C163  1  0.46029000  0.18957000  0.02386000  1.0 0.0724968127
C  C164  1  0.18957000  0.46029000  0.47614000  1.0 0.0724968127
C  C165  1  0.43150000  0.72976000  0.07951000  1.0 0.5597499012
C  C166  1  0.72976000  0.43150000  0.42049000  1.0 0.5597499012
C  C167  1  0.56850000  0.27024000  0.92049000  1.0 0.5597499012
C  C168  1  0.27024000  0.56850000  0.57951000  1.0 0.5597499012
C  C169  1  0.81021000  0.17299000  0.53371000  1.0 0.0631415992
C  C170  1  0.17299000  0.81021000  0.96629000  1.0 0.0631415992
C  C171  1  0.18979000  0.82701000  0.46629000  1.0 0.0631415992
C  C172  1  0.82701000  0.18979000  0.03371000  1.0 0.0631415992
C  C173  1  0.84736000  0.13678000  0.58824000  1.0 -0.1692510696
C  C174  1  0.13678000  0.84736000  0.91176000  1.0 -0.1692510696
C  C175  1  0.15264000  0.86322000  0.41176000  1.0 -0.1692510696
C  C176  1  0.86322000  0.15264000  0.08824000  1.0 -0.1692510696
C  C177  1  0.83612000  0.14690000  0.63371000  1.0 0.022553827
C  C178  1  0.14690000  0.83612000  0.86629000  1.0 0.022553827
C  C179  1  0.16388000  0.85310000  0.36629000  1.0 0.022553827
C  C180  1  0.85310000  0.16388000  0.13371000  1.0 0.022553827
C  C181  1  0.78709000  0.19225000  0.62316000  1.0 -0.1435319423
C  C182  1  0.19225000  0.78709000  0.87684000  1.0 -0.1435319423
C  C183  1  0.21291000  0.80775000  0.37684000  1.0 -0.1435319423
C  C184  1  0.80775000  0.21291000  0.12316000  1.0 -0.1435319423
C  C185  1  0.75157000  0.22671000  0.56682000  1.0 0.102437357
C  C186  1  0.22671000  0.75157000  0.93318000  1.0 0.102437357
C  C187  1  0.24843000  0.77329000  0.43318000  1.0 0.102437357
C  C188  1  0.77329000  0.24843000  0.06682000  1.0 0.102437357
C  C189  1  0.87832000  0.11064000  0.69479000  1.0 0.5499982088
C  C190  1  0.11064000  0.87832000  0.80521000  1.0 0.5499982088
C  C191  1  0.12168000  0.88936000  0.30521000  1.0 0.5499982088
C  C192  1  0.88936000  0.12168000  0.19479000  1.0 0.5499982088
C  C193  1  0.68262000  0.97330000  0.97599000  1.0 0.0793040224
C  C194  1  0.97330000  0.68262000  0.52401000  1.0 0.0793040224
C  C195  1  0.31738000  0.02670000  0.02401000  1.0 0.0793040224
C  C196  1  0.02670000  0.31738000  0.47599000  1.0 0.0793040224
C  C197  1  0.68815000  0.04631000  0.95984000  1.0 -0.1594459555
C  C198  1  0.04631000  0.68815000  0.54016000  1.0 -0.1594459555
C  C199  1  0.31185000  0.95369000  0.04016000  1.0 -0.1594459555
C  C200  1  0.95369000  0.31185000  0.45984000  1.0 -0.1594459555
C  C201  1  0.68678000  0.08426000  0.90413000  1.0 0.0373532119
C  C202  1  0.08426000  0.68678000  0.59587000  1.0 0.0373532119
C  C203  1  0.31322000  0.91574000  0.09587000  1.0 0.0373532119
C  C204  1  0.91574000  0.31322000  0.40413000  1.0 0.0373532119
C  C205  1  0.67729000  0.04551000  0.86665000  1.0 -0.1504255535
C  C206  1  0.04551000  0.67729000  0.63335000  1.0 -0.1504255535
C  C207  1  0.32271000  0.95449000  0.13335000  1.0 -0.1504255535
C  C208  1  0.95449000  0.32271000  0.36665000  1.0 -0.1504255535
C  C209  1  0.67326000  0.97358000  0.88628000  1.0 0.0793040224
C  C210  1  0.97358000  0.67326000  0.61372000  1.0 0.0793040224
C  C211  1  0.32674000  0.02642000  0.11372000  1.0 0.0793040224
C  C212  1  0.02642000  0.32674000  0.38628000  1.0 0.0793040224
C  C213  1  0.69647000  0.16425000  0.88606000  1.0 0.5727629064
C  C214  1  0.16425000  0.69647000  0.61394000  1.0 0.5727629064
C  C215  1  0.30353000  0.83575000  0.11394000  1.0 0.5727629064
C  C216  1  0.83575000  0.30353000  0.38606000  1.0 0.5727629064
N  N1  1  0.92916000  0.93560000  0.80625000  1.0 -0.2294653279
N  N2  1  0.93560000  0.92916000  0.69375000  1.0 -0.2294653279
N  N3  1  0.07084000  0.06440000  0.19375000  1.0 -0.2294653279
N  N4  1  0.06440000  0.07084000  0.30625000  1.0 -0.2294653279
N  N5  1  0.94470000  0.94220000  0.19393000  1.0 -0.2242809327
N  N6  1  0.94220000  0.94470000  0.30607000  1.0 -0.2242809327
N  N7  1  0.05530000  0.05780000  0.80607000  1.0 -0.2242809327
N  N8  1  0.05780000  0.05530000  0.69393000  1.0 -0.2242809327
N  N9  1  0.71266000  0.40660000  0.24268000  1.0 -0.2294653279
N  N10  1  0.40660000  0.71266000  0.25732000  1.0 -0.2294653279
N  N11  1  0.28734000  0.59340000  0.75732000  1.0 -0.2294653279
N  N12  1  0.59340000  0.28734000  0.74268000  1.0 -0.2294653279
N  N13  1  0.41070000  0.72520000  0.75693000  1.0 -0.2294653279
N  N14  1  0.72520000  0.41070000  0.74307000  1.0 -0.2294653279
N  N15  1  0.58930000  0.27480000  0.24307000  1.0 -0.2294653279
N  N16  1  0.27480000  0.58930000  0.25693000  1.0 -0.2294653279
N  N17  1  0.92756000  0.67714000  0.06795000  1.0 -0.2397685738
N  N18  1  0.67714000  0.92756000  0.43205000  1.0 -0.2397685738
N  N19  1  0.07244000  0.32286000  0.93205000  1.0 -0.2397685738
N  N20  1  0.32286000  0.07244000  0.56795000  1.0 -0.2397685738
N  N21  1  0.79211000  0.61205000  0.99729000  1.0 -0.2397685738
N  N22  1  0.61205000  0.79211000  0.50271000  1.0 -0.2397685738
N  N23  1  0.20789000  0.38795000  0.00271000  1.0 -0.2397685738
N  N24  1  0.38795000  0.20789000  0.49729000  1.0 -0.2397685738
N  N25  1  0.60640000  0.80292000  0.00867000  1.0 -0.2501289622
N  N26  1  0.80292000  0.60640000  0.49133000  1.0 -0.2397685738
N  N27  1  0.39360000  0.19708000  0.99133000  1.0 -0.2397685738
N  N28  1  0.19708000  0.39360000  0.50867000  1.0 -0.2397685738
N  N29  1  0.76330000  0.21850000  0.52297000  1.0 -0.2294653279
N  N30  1  0.21850000  0.76330000  0.97703000  1.0 -0.2294653279
N  N31  1  0.23670000  0.78150000  0.47703000  1.0 -0.2294653279
N  N32  1  0.78150000  0.23670000  0.02297000  1.0 -0.2294653279
N  N33  1  0.67715000  0.93661000  0.94053000  1.0 -0.2397685738
N  N34  1  0.93661000  0.67715000  0.55947000  1.0 -0.2397685738
N  N35  1  0.32285000  0.06339000  0.05947000  1.0 -0.2397685738
N  N36  1  0.06339000  0.32285000  0.44053000  1.0 -0.2397685738
O  O1  1  0.71124000  0.71922000  0.00289000  1.0 -0.2242809327
O  O2  1  0.71922000  0.71124000  0.49711000  1.0 -0.2294653279
O  O3  1  0.28876000  0.28078000  0.99711000  1.0 -0.2294653279
O  O4  1  0.28078000  0.28876000  0.50289000  1.0 -0.2294653279
O  O5  1  0.83807000  0.76391000  0.96139000  1.0 -0.5481810571
O  O6  1  0.76391000  0.83807000  0.53861000  1.0 -0.5481810571
O  O7  1  0.16193000  0.23609000  0.03861000  1.0 -0.5481810571
O  O8  1  0.23609000  0.16193000  0.46139000  1.0 -0.5481810571
O  O9  1  0.77464000  0.85670000  0.93441000  1.0 -0.5295956633
O  O10  1  0.85670000  0.77464000  0.56559000  1.0 -0.5295956633
O  O11  1  0.22536000  0.14330000  0.06559000  1.0 -0.5295956633
O  O12  1  0.14330000  0.22536000  0.43441000  1.0 -0.5295956633
O  O13  1  0.85088000  0.77840000  0.07373000  1.0 -0.5295956633
O  O14  1  0.77840000  0.85088000  0.42627000  1.0 -0.5295956633
O  O15  1  0.14912000  0.22160000  0.92627000  1.0 -0.5295956633
O  O16  1  0.22160000  0.14912000  0.57373000  1.0 -0.5295956633
O  O17  1  0.76001000  0.84289000  0.04840000  1.0 -0.5412549288
O  O18  1  0.84289000  0.76001000  0.45160000  1.0 -0.5412549288
O  O19  1  0.23999000  0.15711000  0.95160000  1.0 -0.5412549288
O  O20  1  0.15711000  0.23999000  0.54840000  1.0 -0.5412549288
O  O21  1  0.79862000  0.62538000  0.10930000  1.0 -0.5613367559
O  O22  1  0.62538000  0.79862000  0.39070000  1.0 -0.5613367559
O  O23  1  0.20138000  0.37462000  0.89070000  1.0 -0.5613367559
O  O24  1  0.37462000  0.20138000  0.60930000  1.0 -0.5613367559
O  O25  1  0.68450000  0.63790000  0.09170000  1.0 -0.4813613334
O  O26  1  0.63790000  0.68450000  0.40830000  1.0 -0.4813613334
O  O27  1  0.31550000  0.36210000  0.90830000  1.0 -0.4813613334
O  O28  1  0.36210000  0.31550000  0.59170000  1.0 -0.4813613334
O  O29  1  0.62089000  0.81101000  0.89743000  1.0 -0.5412549288
O  O30  1  0.81101000  0.62089000  0.60257000  1.0 -0.5412549288
O  O31  1  0.37911000  0.18899000  0.10257000  1.0 -0.5412549288
O  O32  1  0.18899000  0.37911000  0.39743000  1.0 -0.5412549288
O  O33  1  0.64285000  0.70515000  0.90550000  1.0 -0.4644971342
O  O34  1  0.70515000  0.64285000  0.59450000  1.0 -0.4644971342
O  O35  1  0.35715000  0.29485000  0.09450000  1.0 -0.4644971342
O  O36  1  0.29485000  0.35715000  0.40550000  1.0 -0.4644971342
O  O37  1  0.17814000  0.68386000  0.07855000  1.0 -0.5201536418
O  O38  1  0.68386000  0.17814000  0.42145000  1.0 -0.5201536418
O  O39  1  0.82186000  0.31614000  0.92145000  1.0 -0.5201536418
O  O40  1  0.31614000  0.82186000  0.57855000  1.0 -0.5201536418
O  O41  1  0.18914000  0.69116000  0.16431000  1.0 -0.5113199354
O  O42  1  0.69116000  0.18914000  0.33569000  1.0 -0.5113199354
O  O43  1  0.81086000  0.30884000  0.83569000  1.0 -0.5113199354
O  O44  1  0.30884000  0.81086000  0.66431000  1.0 -0.5113199354
O  O45  1  0.73732000  0.38142000  0.95468000  1.0 -0.5412549288
O  O46  1  0.38142000  0.73732000  0.54532000  1.0 -0.5412549288
O  O47  1  0.26268000  0.61858000  0.04532000  1.0 -0.5412549288
O  O48  1  0.61858000  0.26268000  0.45468000  1.0 -0.5412549288
O  O49  1  0.70642000  0.45850000  0.86763000  1.0 -0.4813613334
O  O50  1  0.45850000  0.70642000  0.63237000  1.0 -0.4813613334
O  O51  1  0.29358000  0.54150000  0.13237000  1.0 -0.4813613334
O  O52  1  0.54150000  0.29358000  0.36763000  1.0 -0.4813613334
O  O53  1  0.44679000  0.70043000  0.13269000  1.0 -0.4892759026
O  O54  1  0.70043000  0.44679000  0.36731000  1.0 -0.4892759026
O  O55  1  0.55321000  0.29957000  0.86731000  1.0 -0.4892759026
O  O56  1  0.29957000  0.55321000  0.63269000  1.0 -0.4892759026
O  O57  1  0.37075000  0.73759000  0.04535000  1.0 -0.5412549288
O  O58  1  0.73759000  0.37075000  0.45465000  1.0 -0.5412549288
O  O59  1  0.62925000  0.26241000  0.95465000  1.0 -0.5412549288
O  O60  1  0.26241000  0.62925000  0.54535000  1.0 -0.5412549288
O  O61  1  0.91853000  0.06651000  0.70072000  1.0 -0.5810936691
O  O62  1  0.06651000  0.91853000  0.79928000  1.0 -0.5810936691
O  O63  1  0.08147000  0.93349000  0.29928000  1.0 -0.5810936691
O  O64  1  0.93349000  0.08147000  0.20072000  1.0 -0.5810936691
O  O65  1  0.87040000  0.12814000  0.73288000  1.0 -0.5412549288
O  O66  1  0.12814000  0.87040000  0.76712000  1.0 -0.5412549288
O  O67  1  0.12960000  0.87186000  0.26712000  1.0 -0.5412549288
O  O68  1  0.87186000  0.12960000  0.23288000  1.0 -0.5412549288
O  O69  1  0.71261000  0.19149000  0.92486000  1.0 -0.5295956633
O  O70  1  0.19149000  0.71261000  0.57514000  1.0 -0.5295956633
O  O71  1  0.28739000  0.80851000  0.07514000  1.0 -0.5295956633
O  O72  1  0.80851000  0.28739000  0.42486000  1.0 -0.5295956633
O  O73  1  0.33823000  0.67225000  0.65404000  1.0 -0.2567284506
O  O74  1  0.67225000  0.33823000  0.84596000  1.0 -0.2567284506
O  O75  1  0.66177000  0.32775000  0.34596000  1.0 -0.2567284506
O  O76  1  0.32775000  0.66177000  0.15404000  1.0 -0.2501289622
O  O77  1  0.26905000  0.73549000  0.76329000  1.0 -0.3861101793
O  O78  1  0.73549000  0.26905000  0.73671000  1.0 -0.3861101793
O  O79  1  0.73095000  0.26451000  0.23671000  1.0 -0.3861101793
O  O80  1  0.26451000  0.73095000  0.26329000  1.0 -0.3861101793
O  O81  1  0.68905000  0.19549000  0.83518000  1.0 -0.4990077914
O  O82  1  0.19549000  0.68905000  0.66482000  1.0 -0.4990077914
O  O83  1  0.31095000  0.80451000  0.16482000  1.0 -0.4990077914
O  O84  1  0.80451000  0.31095000  0.33518000  1.0 -0.4990077914
