# DDEC6 charges by PACMAN v1.1 (https://github.com/mtap-research/PACMAN-charge/)
data_BOXFOK_ASR_pacman
_symmetry_space_group_name_H-M   'P 1'
_cell_length_a   34.83700000
_cell_length_b   34.83700000
_cell_length_c   34.83700000
_cell_angle_alpha   60.00000000
_cell_angle_beta   60.00000000
_cell_angle_gamma   60.00000000
_symmetry_Int_Tables_number   1
_chemical_formula_structural   Dy8H104(C24O5)5
_chemical_formula_sum   'Dy48 H624 C720 O150'
_cell_volume   29895.59818908
_cell_formula_units_Z   6
loop_
 _symmetry_equiv_pos_site_id
 _symmetry_equiv_pos_as_xyz
  1  'x, y, z'
loop_
 _atom_site_type_symbol
 _atom_site_label
 _atom_site_symmetry_multiplicity
 _atom_site_fract_x
 _atom_site_fract_y
 _atom_site_fract_z
 _atom_site_occupancy
 _atom_site_charge
Dy  Dy1  1  0.47724000  0.94142000  0.05858000  1.0 0.9238048087
Dy  Dy2  1  0.05858000  0.47724000  0.94142000  1.0 0.9238048087
Dy  Dy3  1  0.94142000  0.05858000  0.47724000  1.0 0.9250476875
Dy  Dy4  1  0.02276000  0.55858000  0.97724000  1.0 0.9238048087
Dy  Dy5  1  0.44142000  0.97724000  0.55858000  1.0 0.9238048087
Dy  Dy6  1  0.97724000  0.44142000  0.02276000  1.0 0.9238048087
Dy  Dy7  1  0.44142000  0.02276000  0.97724000  1.0 0.9238048087
Dy  Dy8  1  0.97724000  0.55858000  0.44142000  1.0 0.9250476875
Dy  Dy9  1  0.55858000  0.97724000  0.02276000  1.0 0.9238048087
Dy  Dy10  1  0.55858000  0.44142000  0.97724000  1.0 0.9238048087
Dy  Dy11  1  0.02276000  0.97724000  0.44142000  1.0 0.9238048087
Dy  Dy12  1  0.97724000  0.02276000  0.55858000  1.0 0.9238048087
Dy  Dy13  1  0.94142000  0.47724000  0.52276000  1.0 0.9238048087
Dy  Dy14  1  0.05858000  0.52276000  0.47724000  1.0 0.9238048087
Dy  Dy15  1  0.52276000  0.05858000  0.94142000  1.0 0.9238048087
Dy  Dy16  1  0.52276000  0.94142000  0.47724000  1.0 0.9238048087
Dy  Dy17  1  0.47724000  0.05858000  0.52276000  1.0 0.9238048087
Dy  Dy18  1  0.94142000  0.52276000  0.05858000  1.0 0.9238048087
Dy  Dy19  1  0.47724000  0.52276000  0.94142000  1.0 0.9238048087
Dy  Dy20  1  0.52276000  0.47724000  0.05858000  1.0 0.9238048087
Dy  Dy21  1  0.05858000  0.94142000  0.52276000  1.0 0.9238048087
Dy  Dy22  1  0.55858000  0.02276000  0.44142000  1.0 0.9238048087
Dy  Dy23  1  0.02276000  0.44142000  0.55858000  1.0 0.9238048087
Dy  Dy24  1  0.44142000  0.55858000  0.02276000  1.0 0.9238048087
Dy  Dy25  1  0.47193000  0.92159000  0.07841000  1.0 0.8536659845
Dy  Dy26  1  0.07841000  0.47193000  0.92159000  1.0 0.85612861
Dy  Dy27  1  0.92159000  0.07841000  0.47193000  1.0 0.85612861
Dy  Dy28  1  0.02807000  0.57841000  0.97193000  1.0 0.85612861
Dy  Dy29  1  0.42159000  0.97193000  0.57841000  1.0 0.8536659845
Dy  Dy30  1  0.97193000  0.42159000  0.02807000  1.0 0.8536659845
Dy  Dy31  1  0.42159000  0.02807000  0.97193000  1.0 0.85612861
Dy  Dy32  1  0.97193000  0.57841000  0.42159000  1.0 0.85612861
Dy  Dy33  1  0.57841000  0.97193000  0.02807000  1.0 0.85612861
Dy  Dy34  1  0.57841000  0.42159000  0.97193000  1.0 0.85612861
Dy  Dy35  1  0.02807000  0.97193000  0.42159000  1.0 0.8536659845
Dy  Dy36  1  0.97193000  0.02807000  0.57841000  1.0 0.85612861
Dy  Dy37  1  0.92159000  0.47193000  0.52807000  1.0 0.85612861
Dy  Dy38  1  0.07841000  0.52807000  0.47193000  1.0 0.8536659845
Dy  Dy39  1  0.52807000  0.07841000  0.92159000  1.0 0.85612861
Dy  Dy40  1  0.52807000  0.92159000  0.47193000  1.0 0.85612861
Dy  Dy41  1  0.47193000  0.07841000  0.52807000  1.0 0.8536659845
Dy  Dy42  1  0.92159000  0.52807000  0.07841000  1.0 0.8536659845
Dy  Dy43  1  0.47193000  0.52807000  0.92159000  1.0 0.85612861
Dy  Dy44  1  0.52807000  0.47193000  0.07841000  1.0 0.8536659845
Dy  Dy45  1  0.07841000  0.92159000  0.52807000  1.0 0.8536659845
Dy  Dy46  1  0.57841000  0.02807000  0.42159000  1.0 0.8536659845
Dy  Dy47  1  0.02807000  0.42159000  0.57841000  1.0 0.8536659845
Dy  Dy48  1  0.42159000  0.57841000  0.02807000  1.0 0.8536659845
H  H1  1  0.33130000  0.07470000  0.05230000  1.0 0.1210218476
H  H2  1  0.05230000  0.33130000  0.07470000  1.0 0.1210218476
H  H3  1  0.07470000  0.05230000  0.33130000  1.0 0.1210218476
H  H4  1  0.16870000  0.42530000  0.95830000  1.0 0.1210218476
H  H5  1  0.44770000  0.95830000  0.42530000  1.0 0.1210218476
H  H6  1  0.95830000  0.44770000  0.16870000  1.0 0.1210218476
H  H7  1  0.44770000  0.16870000  0.95830000  1.0 0.1210218476
H  H8  1  0.95830000  0.42530000  0.44770000  1.0 0.1210218476
H  H9  1  0.42530000  0.95830000  0.16870000  1.0 0.1210218476
H  H10  1  0.42530000  0.44770000  0.95830000  1.0 0.1210218476
H  H11  1  0.16870000  0.95830000  0.44770000  1.0 0.1210218476
H  H12  1  0.95830000  0.16870000  0.42530000  1.0 0.1210218476
H  H13  1  0.07470000  0.33130000  0.54170000  1.0 0.1210218476
H  H14  1  0.05230000  0.54170000  0.33130000  1.0 0.1210218476
H  H15  1  0.54170000  0.05230000  0.07470000  1.0 0.1210218476
H  H16  1  0.54170000  0.07470000  0.33130000  1.0 0.1210218476
H  H17  1  0.33130000  0.05230000  0.54170000  1.0 0.1210218476
H  H18  1  0.07470000  0.54170000  0.05230000  1.0 0.1210218476
H  H19  1  0.33130000  0.54170000  0.07470000  1.0 0.1210218476
H  H20  1  0.54170000  0.33130000  0.05230000  1.0 0.1210218476
H  H21  1  0.05230000  0.07470000  0.54170000  1.0 0.1210218476
H  H22  1  0.42530000  0.16870000  0.44770000  1.0 0.1210218476
H  H23  1  0.16870000  0.44770000  0.42530000  1.0 0.1210218476
H  H24  1  0.44770000  0.42530000  0.16870000  1.0 0.1210218476
H  H25  1  0.66870000  0.92530000  0.94770000  1.0 0.1210218476
H  H26  1  0.94770000  0.66870000  0.92530000  1.0 0.1210218476
H  H27  1  0.92530000  0.94770000  0.66870000  1.0 0.1210218476
H  H28  1  0.83130000  0.57470000  0.04170000  1.0 0.1210218476
H  H29  1  0.55230000  0.04170000  0.57470000  1.0 0.1210218476
H  H30  1  0.04170000  0.55230000  0.83130000  1.0 0.1210218476
H  H31  1  0.55230000  0.83130000  0.04170000  1.0 0.1210218476
H  H32  1  0.04170000  0.57470000  0.55230000  1.0 0.1210218476
H  H33  1  0.57470000  0.04170000  0.83130000  1.0 0.1210218476
H  H34  1  0.57470000  0.55230000  0.04170000  1.0 0.1210218476
H  H35  1  0.83130000  0.04170000  0.55230000  1.0 0.1210218476
H  H36  1  0.04170000  0.83130000  0.57470000  1.0 0.1210218476
H  H37  1  0.92530000  0.66870000  0.45830000  1.0 0.1210218476
H  H38  1  0.94770000  0.45830000  0.66870000  1.0 0.1210218476
H  H39  1  0.45830000  0.94770000  0.92530000  1.0 0.1210218476
H  H40  1  0.45830000  0.92530000  0.66870000  1.0 0.1210218476
H  H41  1  0.66870000  0.94770000  0.45830000  1.0 0.1210218476
H  H42  1  0.92530000  0.45830000  0.94770000  1.0 0.1210218476
H  H43  1  0.66870000  0.45830000  0.92530000  1.0 0.1210218476
H  H44  1  0.45830000  0.66870000  0.94770000  1.0 0.1210218476
H  H45  1  0.94770000  0.92530000  0.45830000  1.0 0.1210218476
H  H46  1  0.57470000  0.83130000  0.55230000  1.0 0.1210218476
H  H47  1  0.83130000  0.55230000  0.57470000  1.0 0.1210218476
H  H48  1  0.55230000  0.57470000  0.83130000  1.0 0.1210218476
H  H49  1  0.23330000  0.00990000  0.20190000  1.0 0.1096616143
H  H50  1  0.20190000  0.23330000  0.00990000  1.0 0.1096616143
H  H51  1  0.00990000  0.20190000  0.23330000  1.0 0.1096616143
H  H52  1  0.26670000  0.49010000  0.94510000  1.0 0.1096616143
H  H53  1  0.29810000  0.94510000  0.49010000  1.0 0.1096616143
H  H54  1  0.94510000  0.29810000  0.26670000  1.0 0.1096616143
H  H55  1  0.29810000  0.26670000  0.94510000  1.0 0.1096616143
H  H56  1  0.94510000  0.49010000  0.29810000  1.0 0.1096616143
H  H57  1  0.49010000  0.94510000  0.26670000  1.0 0.1096616143
H  H58  1  0.49010000  0.29810000  0.94510000  1.0 0.1096616143
H  H59  1  0.26670000  0.94510000  0.29810000  1.0 0.1096616143
H  H60  1  0.94510000  0.26670000  0.49010000  1.0 0.1096616143
H  H61  1  0.00990000  0.23330000  0.55490000  1.0 0.1096616143
H  H62  1  0.20190000  0.55490000  0.23330000  1.0 0.1096616143
H  H63  1  0.55490000  0.20190000  0.00990000  1.0 0.1096616143
H  H64  1  0.55490000  0.00990000  0.23330000  1.0 0.1096616143
H  H65  1  0.23330000  0.20190000  0.55490000  1.0 0.1096616143
H  H66  1  0.00990000  0.55490000  0.20190000  1.0 0.1096616143
H  H67  1  0.23330000  0.55490000  0.00990000  1.0 0.1096616143
H  H68  1  0.55490000  0.23330000  0.20190000  1.0 0.1096616143
H  H69  1  0.20190000  0.00990000  0.55490000  1.0 0.1096616143
H  H70  1  0.49010000  0.26670000  0.29810000  1.0 0.1096616143
H  H71  1  0.26670000  0.29810000  0.49010000  1.0 0.1096616143
H  H72  1  0.29810000  0.49010000  0.26670000  1.0 0.1096616143
H  H73  1  0.76670000  0.99010000  0.79810000  1.0 0.1096616143
H  H74  1  0.79810000  0.76670000  0.99010000  1.0 0.1096616143
H  H75  1  0.99010000  0.79810000  0.76670000  1.0 0.1096616143
H  H76  1  0.73330000  0.50990000  0.05490000  1.0 0.1096616143
H  H77  1  0.70190000  0.05490000  0.50990000  1.0 0.1096616143
H  H78  1  0.05490000  0.70190000  0.73330000  1.0 0.1096616143
H  H79  1  0.70190000  0.73330000  0.05490000  1.0 0.1096616143
H  H80  1  0.05490000  0.50990000  0.70190000  1.0 0.1096616143
H  H81  1  0.50990000  0.05490000  0.73330000  1.0 0.1096616143
H  H82  1  0.50990000  0.70190000  0.05490000  1.0 0.1096616143
H  H83  1  0.73330000  0.05490000  0.70190000  1.0 0.1096616143
H  H84  1  0.05490000  0.73330000  0.50990000  1.0 0.1096616143
H  H85  1  0.99010000  0.76670000  0.44510000  1.0 0.1096616143
H  H86  1  0.79810000  0.44510000  0.76670000  1.0 0.1096616143
H  H87  1  0.44510000  0.79810000  0.99010000  1.0 0.1096616143
H  H88  1  0.44510000  0.99010000  0.76670000  1.0 0.1096616143
H  H89  1  0.76670000  0.79810000  0.44510000  1.0 0.1096616143
H  H90  1  0.99010000  0.44510000  0.79810000  1.0 0.1096616143
H  H91  1  0.76670000  0.44510000  0.99010000  1.0 0.1096616143
H  H92  1  0.44510000  0.76670000  0.79810000  1.0 0.1096616143
H  H93  1  0.79810000  0.99010000  0.44510000  1.0 0.1096616143
H  H94  1  0.50990000  0.73330000  0.70190000  1.0 0.1096616143
H  H95  1  0.73330000  0.70190000  0.50990000  1.0 0.1096616143
H  H96  1  0.70190000  0.50990000  0.73330000  1.0 0.1096616143
H  H97  1  0.31090000  0.96570000  0.17310000  1.0 0.1210218476
H  H98  1  0.17310000  0.31090000  0.96570000  1.0 0.1210218476
H  H99  1  0.96570000  0.17310000  0.31090000  1.0 0.1210218476
H  H100  1  0.18910000  0.53430000  0.94970000  1.0 0.1210218476
H  H101  1  0.32690000  0.94970000  0.53430000  1.0 0.1210218476
H  H102  1  0.94970000  0.32690000  0.18910000  1.0 0.1210218476
H  H103  1  0.32690000  0.18910000  0.94970000  1.0 0.1210218476
H  H104  1  0.94970000  0.53430000  0.32690000  1.0 0.1210218476
H  H105  1  0.53430000  0.94970000  0.18910000  1.0 0.1210218476
H  H106  1  0.53430000  0.32690000  0.94970000  1.0 0.1210218476
H  H107  1  0.18910000  0.94970000  0.32690000  1.0 0.1210218476
H  H108  1  0.94970000  0.18910000  0.53430000  1.0 0.1210218476
H  H109  1  0.96570000  0.31090000  0.55030000  1.0 0.1210218476
H  H110  1  0.17310000  0.55030000  0.31090000  1.0 0.1210218476
H  H111  1  0.55030000  0.17310000  0.96570000  1.0 0.1210218476
H  H112  1  0.55030000  0.96570000  0.31090000  1.0 0.1210218476
H  H113  1  0.31090000  0.17310000  0.55030000  1.0 0.1210218476
H  H114  1  0.96570000  0.55030000  0.17310000  1.0 0.1210218476
H  H115  1  0.31090000  0.55030000  0.96570000  1.0 0.1210218476
H  H116  1  0.55030000  0.31090000  0.17310000  1.0 0.1210218476
H  H117  1  0.17310000  0.96570000  0.55030000  1.0 0.1210218476
H  H118  1  0.53430000  0.18910000  0.32690000  1.0 0.1210218476
H  H119  1  0.18910000  0.32690000  0.53430000  1.0 0.1210218476
H  H120  1  0.32690000  0.53430000  0.18910000  1.0 0.1210218476
H  H121  1  0.68910000  0.03430000  0.82690000  1.0 0.1210218476
H  H122  1  0.82690000  0.68910000  0.03430000  1.0 0.1210218476
H  H123  1  0.03430000  0.82690000  0.68910000  1.0 0.1210218476
H  H124  1  0.81090000  0.46570000  0.05030000  1.0 0.1210218476
H  H125  1  0.67310000  0.05030000  0.46570000  1.0 0.1210218476
H  H126  1  0.05030000  0.67310000  0.81090000  1.0 0.1210218476
H  H127  1  0.67310000  0.81090000  0.05030000  1.0 0.1210218476
H  H128  1  0.05030000  0.46570000  0.67310000  1.0 0.1210218476
H  H129  1  0.46570000  0.05030000  0.81090000  1.0 0.1210218476
H  H130  1  0.46570000  0.67310000  0.05030000  1.0 0.1210218476
H  H131  1  0.81090000  0.05030000  0.67310000  1.0 0.1210218476
H  H132  1  0.05030000  0.81090000  0.46570000  1.0 0.1210218476
H  H133  1  0.03430000  0.68910000  0.44970000  1.0 0.1210218476
H  H134  1  0.82690000  0.44970000  0.68910000  1.0 0.1210218476
H  H135  1  0.44970000  0.82690000  0.03430000  1.0 0.1210218476
H  H136  1  0.44970000  0.03430000  0.68910000  1.0 0.1210218476
H  H137  1  0.68910000  0.82690000  0.44970000  1.0 0.1210218476
H  H138  1  0.03430000  0.44970000  0.82690000  1.0 0.1210218476
H  H139  1  0.68910000  0.44970000  0.03430000  1.0 0.1210218476
H  H140  1  0.44970000  0.68910000  0.82690000  1.0 0.1210218476
H  H141  1  0.82690000  0.03430000  0.44970000  1.0 0.1210218476
H  H142  1  0.46570000  0.81090000  0.67310000  1.0 0.1210218476
H  H143  1  0.81090000  0.67310000  0.46570000  1.0 0.1210218476
H  H144  1  0.67310000  0.46570000  0.81090000  1.0 0.1210218476
H  H145  1  0.22650000  0.17010000  0.01010000  1.0 0.0892770078
H  H146  1  0.01010000  0.22650000  0.17010000  1.0 0.0892770078
H  H147  1  0.17010000  0.01010000  0.22650000  1.0 0.0892770078
H  H148  1  0.27350000  0.32990000  0.90670000  1.0 0.0892770078
H  H149  1  0.48990000  0.90670000  0.32990000  1.0 0.0892770078
H  H150  1  0.90670000  0.48990000  0.27350000  1.0 0.0892770078
H  H151  1  0.48990000  0.27350000  0.90670000  1.0 0.0892770078
H  H152  1  0.90670000  0.32990000  0.48990000  1.0 0.0892770078
H  H153  1  0.32990000  0.90670000  0.27350000  1.0 0.0892770078
H  H154  1  0.32990000  0.48990000  0.90670000  1.0 0.0892770078
H  H155  1  0.27350000  0.90670000  0.48990000  1.0 0.0892770078
H  H156  1  0.90670000  0.27350000  0.32990000  1.0 0.0892770078
H  H157  1  0.17010000  0.22650000  0.59330000  1.0 0.0892770078
H  H158  1  0.01010000  0.59330000  0.22650000  1.0 0.0892770078
H  H159  1  0.59330000  0.01010000  0.17010000  1.0 0.0892770078
H  H160  1  0.59330000  0.17010000  0.22650000  1.0 0.0892770078
H  H161  1  0.22650000  0.01010000  0.59330000  1.0 0.0892770078
H  H162  1  0.17010000  0.59330000  0.01010000  1.0 0.0892770078
H  H163  1  0.22650000  0.59330000  0.17010000  1.0 0.0892770078
H  H164  1  0.59330000  0.22650000  0.01010000  1.0 0.0892770078
H  H165  1  0.01010000  0.17010000  0.59330000  1.0 0.0892770078
H  H166  1  0.32990000  0.27350000  0.48990000  1.0 0.0892770078
H  H167  1  0.27350000  0.48990000  0.32990000  1.0 0.0892770078
H  H168  1  0.48990000  0.32990000  0.27350000  1.0 0.0892770078
H  H169  1  0.77350000  0.82990000  0.98990000  1.0 0.0892770078
H  H170  1  0.98990000  0.77350000  0.82990000  1.0 0.0892770078
H  H171  1  0.82990000  0.98990000  0.77350000  1.0 0.0892770078
H  H172  1  0.72650000  0.67010000  0.09330000  1.0 0.0892770078
H  H173  1  0.51010000  0.09330000  0.67010000  1.0 0.0892770078
H  H174  1  0.09330000  0.51010000  0.72650000  1.0 0.0892770078
H  H175  1  0.51010000  0.72650000  0.09330000  1.0 0.0892770078
H  H176  1  0.09330000  0.67010000  0.51010000  1.0 0.0892770078
H  H177  1  0.67010000  0.09330000  0.72650000  1.0 0.0892770078
H  H178  1  0.67010000  0.51010000  0.09330000  1.0 0.0892770078
H  H179  1  0.72650000  0.09330000  0.51010000  1.0 0.0892770078
H  H180  1  0.09330000  0.72650000  0.67010000  1.0 0.0892770078
H  H181  1  0.82990000  0.77350000  0.40670000  1.0 0.0892770078
H  H182  1  0.98990000  0.40670000  0.77350000  1.0 0.0892770078
H  H183  1  0.40670000  0.98990000  0.82990000  1.0 0.0892770078
H  H184  1  0.40670000  0.82990000  0.77350000  1.0 0.0892770078
H  H185  1  0.77350000  0.98990000  0.40670000  1.0 0.0892770078
H  H186  1  0.82990000  0.40670000  0.98990000  1.0 0.0892770078
H  H187  1  0.77350000  0.40670000  0.82990000  1.0 0.0892770078
H  H188  1  0.40670000  0.77350000  0.98990000  1.0 0.0892770078
H  H189  1  0.98990000  0.82990000  0.40670000  1.0 0.0892770078
H  H190  1  0.67010000  0.72650000  0.51010000  1.0 0.0892770078
H  H191  1  0.72650000  0.51010000  0.67010000  1.0 0.0892770078
H  H192  1  0.51010000  0.67010000  0.72650000  1.0 0.0892770078
H  H193  1  0.27520000  0.12740000  0.00840000  1.0 0.1011301635
H  H194  1  0.00840000  0.27520000  0.12740000  1.0 0.1011301635
H  H195  1  0.12740000  0.00840000  0.27520000  1.0 0.1011301635
H  H196  1  0.22480000  0.37260000  0.91100000  1.0 0.1011301635
H  H197  1  0.49160000  0.91100000  0.37260000  1.0 0.1011301635
H  H198  1  0.91100000  0.49160000  0.22480000  1.0 0.1011301635
H  H199  1  0.49160000  0.22480000  0.91100000  1.0 0.1011301635
H  H200  1  0.91100000  0.37260000  0.49160000  1.0 0.1011301635
H  H201  1  0.37260000  0.91100000  0.22480000  1.0 0.1011301635
H  H202  1  0.37260000  0.49160000  0.91100000  1.0 0.1011301635
H  H203  1  0.22480000  0.91100000  0.49160000  1.0 0.1011301635
H  H204  1  0.91100000  0.22480000  0.37260000  1.0 0.1011301635
H  H205  1  0.12740000  0.27520000  0.58900000  1.0 0.1011301635
H  H206  1  0.00840000  0.58900000  0.27520000  1.0 0.1011301635
H  H207  1  0.58900000  0.00840000  0.12740000  1.0 0.1011301635
H  H208  1  0.58900000  0.12740000  0.27520000  1.0 0.1011301635
H  H209  1  0.27520000  0.00840000  0.58900000  1.0 0.1011301635
H  H210  1  0.12740000  0.58900000  0.00840000  1.0 0.1011301635
H  H211  1  0.27520000  0.58900000  0.12740000  1.0 0.1011301635
H  H212  1  0.58900000  0.27520000  0.00840000  1.0 0.1011301635
H  H213  1  0.00840000  0.12740000  0.58900000  1.0 0.1011301635
H  H214  1  0.37260000  0.22480000  0.49160000  1.0 0.1011301635
H  H215  1  0.22480000  0.49160000  0.37260000  1.0 0.1011301635
H  H216  1  0.49160000  0.37260000  0.22480000  1.0 0.1011301635
H  H217  1  0.72480000  0.87260000  0.99160000  1.0 0.1011301635
H  H218  1  0.99160000  0.72480000  0.87260000  1.0 0.1011301635
H  H219  1  0.87260000  0.99160000  0.72480000  1.0 0.1011301635
H  H220  1  0.77520000  0.62740000  0.08900000  1.0 0.1011301635
H  H221  1  0.50840000  0.08900000  0.62740000  1.0 0.1011301635
H  H222  1  0.08900000  0.50840000  0.77520000  1.0 0.1011301635
H  H223  1  0.50840000  0.77520000  0.08900000  1.0 0.1011301635
H  H224  1  0.08900000  0.62740000  0.50840000  1.0 0.1011301635
H  H225  1  0.62740000  0.08900000  0.77520000  1.0 0.1011301635
H  H226  1  0.62740000  0.50840000  0.08900000  1.0 0.1011301635
H  H227  1  0.77520000  0.08900000  0.50840000  1.0 0.1011301635
H  H228  1  0.08900000  0.77520000  0.62740000  1.0 0.1011301635
H  H229  1  0.87260000  0.72480000  0.41100000  1.0 0.1011301635
H  H230  1  0.99160000  0.41100000  0.72480000  1.0 0.1011301635
H  H231  1  0.41100000  0.99160000  0.87260000  1.0 0.1011301635
H  H232  1  0.41100000  0.87260000  0.72480000  1.0 0.1011301635
H  H233  1  0.72480000  0.99160000  0.41100000  1.0 0.1011301635
H  H234  1  0.87260000  0.41100000  0.99160000  1.0 0.1011301635
H  H235  1  0.72480000  0.41100000  0.87260000  1.0 0.1011301635
H  H236  1  0.41100000  0.72480000  0.99160000  1.0 0.1011301635
H  H237  1  0.99160000  0.87260000  0.41100000  1.0 0.1011301635
H  H238  1  0.62740000  0.77520000  0.50840000  1.0 0.1011301635
H  H239  1  0.77520000  0.50840000  0.62740000  1.0 0.1011301635
H  H240  1  0.50840000  0.62740000  0.77520000  1.0 0.1011301635
H  H241  1  0.23200000  0.07320000  0.05640000  1.0 0.1210218476
H  H242  1  0.05640000  0.23200000  0.07320000  1.0 0.1210218476
H  H243  1  0.07320000  0.05640000  0.23200000  1.0 0.1210218476
H  H244  1  0.26800000  0.42680000  0.86160000  1.0 0.1210218476
H  H245  1  0.44360000  0.86160000  0.42680000  1.0 0.1210218476
H  H246  1  0.86160000  0.44360000  0.26800000  1.0 0.1210218476
H  H247  1  0.44360000  0.26800000  0.86160000  1.0 0.1210218476
H  H248  1  0.86160000  0.42680000  0.44360000  1.0 0.1210218476
H  H249  1  0.42680000  0.86160000  0.26800000  1.0 0.1210218476
H  H250  1  0.42680000  0.44360000  0.86160000  1.0 0.1210218476
H  H251  1  0.26800000  0.86160000  0.44360000  1.0 0.1210218476
H  H252  1  0.86160000  0.26800000  0.42680000  1.0 0.1210218476
H  H253  1  0.07320000  0.23200000  0.63840000  1.0 0.1210218476
H  H254  1  0.05640000  0.63840000  0.23200000  1.0 0.1210218476
H  H255  1  0.63840000  0.05640000  0.07320000  1.0 0.1210218476
H  H256  1  0.63840000  0.07320000  0.23200000  1.0 0.1210218476
H  H257  1  0.23200000  0.05640000  0.63840000  1.0 0.1210218476
H  H258  1  0.07320000  0.63840000  0.05640000  1.0 0.1210218476
H  H259  1  0.23200000  0.63840000  0.07320000  1.0 0.1210218476
H  H260  1  0.63840000  0.23200000  0.05640000  1.0 0.1210218476
H  H261  1  0.05640000  0.07320000  0.63840000  1.0 0.1210218476
H  H262  1  0.42680000  0.26800000  0.44360000  1.0 0.1210218476
H  H263  1  0.26800000  0.44360000  0.42680000  1.0 0.1210218476
H  H264  1  0.44360000  0.42680000  0.26800000  1.0 0.1210218476
H  H265  1  0.76800000  0.92680000  0.94360000  1.0 0.1210218476
H  H266  1  0.94360000  0.76800000  0.92680000  1.0 0.1210218476
H  H267  1  0.92680000  0.94360000  0.76800000  1.0 0.1210218476
H  H268  1  0.73200000  0.57320000  0.13840000  1.0 0.1210218476
H  H269  1  0.55640000  0.13840000  0.57320000  1.0 0.1210218476
H  H270  1  0.13840000  0.55640000  0.73200000  1.0 0.1210218476
H  H271  1  0.55640000  0.73200000  0.13840000  1.0 0.1210218476
H  H272  1  0.13840000  0.57320000  0.55640000  1.0 0.1210218476
H  H273  1  0.57320000  0.13840000  0.73200000  1.0 0.1210218476
H  H274  1  0.57320000  0.55640000  0.13840000  1.0 0.1210218476
H  H275  1  0.73200000  0.13840000  0.55640000  1.0 0.1210218476
H  H276  1  0.13840000  0.73200000  0.57320000  1.0 0.1210218476
H  H277  1  0.92680000  0.76800000  0.36160000  1.0 0.1210218476
H  H278  1  0.94360000  0.36160000  0.76800000  1.0 0.1210218476
H  H279  1  0.36160000  0.94360000  0.92680000  1.0 0.1210218476
H  H280  1  0.36160000  0.92680000  0.76800000  1.0 0.1210218476
H  H281  1  0.76800000  0.94360000  0.36160000  1.0 0.1210218476
H  H282  1  0.92680000  0.36160000  0.94360000  1.0 0.1210218476
H  H283  1  0.76800000  0.36160000  0.92680000  1.0 0.1210218476
H  H284  1  0.36160000  0.76800000  0.94360000  1.0 0.1210218476
H  H285  1  0.94360000  0.92680000  0.36160000  1.0 0.1210218476
H  H286  1  0.57320000  0.73200000  0.55640000  1.0 0.1210218476
H  H287  1  0.73200000  0.55640000  0.57320000  1.0 0.1210218476
H  H288  1  0.55640000  0.57320000  0.73200000  1.0 0.1210218476
H  H289  1  0.22240000  0.10500000  0.00740000  1.0 0.1265466039
H  H290  1  0.00740000  0.22240000  0.10500000  1.0 0.1265466039
H  H291  1  0.10500000  0.00740000  0.22240000  1.0 0.1265466039
H  H292  1  0.27760000  0.39500000  0.83480000  1.0 0.1265466039
H  H293  1  0.49260000  0.83480000  0.39500000  1.0 0.1265466039
H  H294  1  0.83480000  0.49260000  0.27760000  1.0 0.1265466039
H  H295  1  0.49260000  0.27760000  0.83480000  1.0 0.1265466039
H  H296  1  0.83480000  0.39500000  0.49260000  1.0 0.1265466039
H  H297  1  0.39500000  0.83480000  0.27760000  1.0 0.1265466039
H  H298  1  0.39500000  0.49260000  0.83480000  1.0 0.1265466039
H  H299  1  0.27760000  0.83480000  0.49260000  1.0 0.1265466039
H  H300  1  0.83480000  0.27760000  0.39500000  1.0 0.1265466039
H  H301  1  0.10500000  0.22240000  0.66520000  1.0 0.1265466039
H  H302  1  0.00740000  0.66520000  0.22240000  1.0 0.1265466039
H  H303  1  0.66520000  0.00740000  0.10500000  1.0 0.1265466039
H  H304  1  0.66520000  0.10500000  0.22240000  1.0 0.1265466039
H  H305  1  0.22240000  0.00740000  0.66520000  1.0 0.1265466039
H  H306  1  0.10500000  0.66520000  0.00740000  1.0 0.1265466039
H  H307  1  0.22240000  0.66520000  0.10500000  1.0 0.1265466039
H  H308  1  0.66520000  0.22240000  0.00740000  1.0 0.1265466039
H  H309  1  0.00740000  0.10500000  0.66520000  1.0 0.1265466039
H  H310  1  0.39500000  0.27760000  0.49260000  1.0 0.1265466039
H  H311  1  0.27760000  0.49260000  0.39500000  1.0 0.1265466039
H  H312  1  0.49260000  0.39500000  0.27760000  1.0 0.1265466039
H  H313  1  0.77760000  0.89500000  0.99260000  1.0 0.1265466039
H  H314  1  0.99260000  0.77760000  0.89500000  1.0 0.1265466039
H  H315  1  0.89500000  0.99260000  0.77760000  1.0 0.1265466039
H  H316  1  0.72240000  0.60500000  0.16520000  1.0 0.1265466039
H  H317  1  0.50740000  0.16520000  0.60500000  1.0 0.1265466039
H  H318  1  0.16520000  0.50740000  0.72240000  1.0 0.1265466039
H  H319  1  0.50740000  0.72240000  0.16520000  1.0 0.1265466039
H  H320  1  0.16520000  0.60500000  0.50740000  1.0 0.1265466039
H  H321  1  0.60500000  0.16520000  0.72240000  1.0 0.1265466039
H  H322  1  0.60500000  0.50740000  0.16520000  1.0 0.1265466039
H  H323  1  0.72240000  0.16520000  0.50740000  1.0 0.1265466039
H  H324  1  0.16520000  0.72240000  0.60500000  1.0 0.1265466039
H  H325  1  0.89500000  0.77760000  0.33480000  1.0 0.1265466039
H  H326  1  0.99260000  0.33480000  0.77760000  1.0 0.1265466039
H  H327  1  0.33480000  0.99260000  0.89500000  1.0 0.1265466039
H  H328  1  0.33480000  0.89500000  0.77760000  1.0 0.1265466039
H  H329  1  0.77760000  0.99260000  0.33480000  1.0 0.1265466039
H  H330  1  0.89500000  0.33480000  0.99260000  1.0 0.1265466039
H  H331  1  0.77760000  0.33480000  0.89500000  1.0 0.1265466039
H  H332  1  0.33480000  0.77760000  0.99260000  1.0 0.1265466039
H  H333  1  0.99260000  0.89500000  0.33480000  1.0 0.1265466039
H  H334  1  0.60500000  0.72240000  0.50740000  1.0 0.1265466039
H  H335  1  0.72240000  0.50740000  0.60500000  1.0 0.1265466039
H  H336  1  0.50740000  0.60500000  0.72240000  1.0 0.1265466039
H  H337  1  0.18420000  0.11680000  0.05440000  1.0 0.1210218476
H  H338  1  0.05440000  0.18420000  0.11680000  1.0 0.1210218476
H  H339  1  0.11680000  0.05440000  0.18420000  1.0 0.1210218476
H  H340  1  0.31580000  0.38320000  0.85540000  1.0 0.1210218476
H  H341  1  0.44560000  0.85540000  0.38320000  1.0 0.1210218476
H  H342  1  0.85540000  0.44560000  0.31580000  1.0 0.1210218476
H  H343  1  0.44560000  0.31580000  0.85540000  1.0 0.1210218476
H  H344  1  0.85540000  0.38320000  0.44560000  1.0 0.1210218476
H  H345  1  0.38320000  0.85540000  0.31580000  1.0 0.1210218476
H  H346  1  0.38320000  0.44560000  0.85540000  1.0 0.1210218476
H  H347  1  0.31580000  0.85540000  0.44560000  1.0 0.1210218476
H  H348  1  0.85540000  0.31580000  0.38320000  1.0 0.1210218476
H  H349  1  0.11680000  0.18420000  0.64460000  1.0 0.1210218476
H  H350  1  0.05440000  0.64460000  0.18420000  1.0 0.1210218476
H  H351  1  0.64460000  0.05440000  0.11680000  1.0 0.1210218476
H  H352  1  0.64460000  0.11680000  0.18420000  1.0 0.1210218476
H  H353  1  0.18420000  0.05440000  0.64460000  1.0 0.1210218476
H  H354  1  0.11680000  0.64460000  0.05440000  1.0 0.1210218476
H  H355  1  0.18420000  0.64460000  0.11680000  1.0 0.1210218476
H  H356  1  0.64460000  0.18420000  0.05440000  1.0 0.1210218476
H  H357  1  0.05440000  0.11680000  0.64460000  1.0 0.1210218476
H  H358  1  0.38320000  0.31580000  0.44560000  1.0 0.1210218476
H  H359  1  0.31580000  0.44560000  0.38320000  1.0 0.1210218476
H  H360  1  0.44560000  0.38320000  0.31580000  1.0 0.1210218476
H  H361  1  0.81580000  0.88320000  0.94560000  1.0 0.1210218476
H  H362  1  0.94560000  0.81580000  0.88320000  1.0 0.1210218476
H  H363  1  0.88320000  0.94560000  0.81580000  1.0 0.1210218476
H  H364  1  0.68420000  0.61680000  0.14460000  1.0 0.1210218476
H  H365  1  0.55440000  0.14460000  0.61680000  1.0 0.1210218476
H  H366  1  0.14460000  0.55440000  0.68420000  1.0 0.1210218476
H  H367  1  0.55440000  0.68420000  0.14460000  1.0 0.1210218476
H  H368  1  0.14460000  0.61680000  0.55440000  1.0 0.1210218476
H  H369  1  0.61680000  0.14460000  0.68420000  1.0 0.1210218476
H  H370  1  0.61680000  0.55440000  0.14460000  1.0 0.1210218476
H  H371  1  0.68420000  0.14460000  0.55440000  1.0 0.1210218476
H  H372  1  0.14460000  0.68420000  0.61680000  1.0 0.1210218476
H  H373  1  0.88320000  0.81580000  0.35540000  1.0 0.1210218476
H  H374  1  0.94560000  0.35540000  0.81580000  1.0 0.1210218476
H  H375  1  0.35540000  0.94560000  0.88320000  1.0 0.1210218476
H  H376  1  0.35540000  0.88320000  0.81580000  1.0 0.1210218476
H  H377  1  0.81580000  0.94560000  0.35540000  1.0 0.1210218476
H  H378  1  0.88320000  0.35540000  0.94560000  1.0 0.1210218476
H  H379  1  0.81580000  0.35540000  0.88320000  1.0 0.1210218476
H  H380  1  0.35540000  0.81580000  0.94560000  1.0 0.1210218476
H  H381  1  0.94560000  0.88320000  0.35540000  1.0 0.1210218476
H  H382  1  0.61680000  0.68420000  0.55440000  1.0 0.1210218476
H  H383  1  0.68420000  0.55440000  0.61680000  1.0 0.1210218476
H  H384  1  0.55440000  0.61680000  0.68420000  1.0 0.1210218476
H  H385  1  0.29810000  0.15910000  0.04330000  1.0 0.0892770078
H  H386  1  0.04330000  0.29810000  0.15910000  1.0 0.0892770078
H  H387  1  0.15910000  0.04330000  0.29810000  1.0 0.0892770078
H  H388  1  0.20190000  0.34090000  0.00050000  1.0 0.0892770078
H  H389  1  0.45670000  0.00050000  0.34090000  1.0 0.0892770078
H  H390  1  0.00050000  0.45670000  0.20190000  1.0 0.0892770078
H  H391  1  0.45670000  0.20190000  0.00050000  1.0 0.0892770078
H  H392  1  0.00050000  0.34090000  0.45670000  1.0 0.0892770078
H  H393  1  0.34090000  0.00050000  0.20190000  1.0 0.0892770078
H  H394  1  0.34090000  0.45670000  0.00050000  1.0 0.0892770078
H  H395  1  0.20190000  0.00050000  0.45670000  1.0 0.0892770078
H  H396  1  0.00050000  0.20190000  0.34090000  1.0 0.0892770078
H  H397  1  0.15910000  0.29810000  0.49950000  1.0 0.0892770078
H  H398  1  0.04330000  0.49950000  0.29810000  1.0 0.0892770078
H  H399  1  0.49950000  0.04330000  0.15910000  1.0 0.0892770078
H  H400  1  0.49950000  0.15910000  0.29810000  1.0 0.0892770078
H  H401  1  0.29810000  0.04330000  0.49950000  1.0 0.0892770078
H  H402  1  0.15910000  0.49950000  0.04330000  1.0 0.0892770078
H  H403  1  0.29810000  0.49950000  0.15910000  1.0 0.0892770078
H  H404  1  0.49950000  0.29810000  0.04330000  1.0 0.0892770078
H  H405  1  0.04330000  0.15910000  0.49950000  1.0 0.0892770078
H  H406  1  0.34090000  0.20190000  0.45670000  1.0 0.0892770078
H  H407  1  0.20190000  0.45670000  0.34090000  1.0 0.0892770078
H  H408  1  0.45670000  0.34090000  0.20190000  1.0 0.0892770078
H  H409  1  0.70190000  0.84090000  0.95670000  1.0 0.0892770078
H  H410  1  0.95670000  0.70190000  0.84090000  1.0 0.0892770078
H  H411  1  0.84090000  0.95670000  0.70190000  1.0 0.0892770078
H  H412  1  0.79810000  0.65910000  0.99950000  1.0 0.0892770078
H  H413  1  0.54330000  0.99950000  0.65910000  1.0 0.0892770078
H  H414  1  0.99950000  0.54330000  0.79810000  1.0 0.0892770078
H  H415  1  0.54330000  0.79810000  0.99950000  1.0 0.0892770078
H  H416  1  0.99950000  0.65910000  0.54330000  1.0 0.0892770078
H  H417  1  0.65910000  0.99950000  0.79810000  1.0 0.0892770078
H  H418  1  0.65910000  0.54330000  0.99950000  1.0 0.0892770078
H  H419  1  0.79810000  0.99950000  0.54330000  1.0 0.0892770078
H  H420  1  0.99950000  0.79810000  0.65910000  1.0 0.0892770078
H  H421  1  0.84090000  0.70190000  0.50050000  1.0 0.0892770078
H  H422  1  0.95670000  0.50050000  0.70190000  1.0 0.0892770078
H  H423  1  0.50050000  0.95670000  0.84090000  1.0 0.0892770078
H  H424  1  0.50050000  0.84090000  0.70190000  1.0 0.0892770078
H  H425  1  0.70190000  0.95670000  0.50050000  1.0 0.0892770078
H  H426  1  0.84090000  0.50050000  0.95670000  1.0 0.0892770078
H  H427  1  0.70190000  0.50050000  0.84090000  1.0 0.0892770078
H  H428  1  0.50050000  0.70190000  0.95670000  1.0 0.0892770078
H  H429  1  0.95670000  0.84090000  0.50050000  1.0 0.0892770078
H  H430  1  0.65910000  0.79810000  0.54330000  1.0 0.0892770078
H  H431  1  0.79810000  0.54330000  0.65910000  1.0 0.0892770078
H  H432  1  0.54330000  0.65910000  0.79810000  1.0 0.0892770078
H  H433  1  0.24980000  0.20240000  0.04460000  1.0 0.0892770078
H  H434  1  0.04460000  0.24980000  0.20240000  1.0 0.0892770078
H  H435  1  0.20240000  0.04460000  0.24980000  1.0 0.0892770078
H  H436  1  0.25020000  0.29760000  0.99680000  1.0 0.0892770078
H  H437  1  0.45540000  0.99680000  0.29760000  1.0 0.0892770078
H  H438  1  0.99680000  0.45540000  0.25020000  1.0 0.0892770078
H  H439  1  0.45540000  0.25020000  0.99680000  1.0 0.0892770078
H  H440  1  0.99680000  0.29760000  0.45540000  1.0 0.0892770078
H  H441  1  0.29760000  0.99680000  0.25020000  1.0 0.0892770078
H  H442  1  0.29760000  0.45540000  0.99680000  1.0 0.0892770078
H  H443  1  0.25020000  0.99680000  0.45540000  1.0 0.0892770078
H  H444  1  0.99680000  0.25020000  0.29760000  1.0 0.0892770078
H  H445  1  0.20240000  0.24980000  0.50320000  1.0 0.0892770078
H  H446  1  0.04460000  0.50320000  0.24980000  1.0 0.0892770078
H  H447  1  0.50320000  0.04460000  0.20240000  1.0 0.0892770078
H  H448  1  0.50320000  0.20240000  0.24980000  1.0 0.0892770078
H  H449  1  0.24980000  0.04460000  0.50320000  1.0 0.0892770078
H  H450  1  0.20240000  0.50320000  0.04460000  1.0 0.0892770078
H  H451  1  0.24980000  0.50320000  0.20240000  1.0 0.0892770078
H  H452  1  0.50320000  0.24980000  0.04460000  1.0 0.0892770078
H  H453  1  0.04460000  0.20240000  0.50320000  1.0 0.0892770078
H  H454  1  0.29760000  0.25020000  0.45540000  1.0 0.0892770078
H  H455  1  0.25020000  0.45540000  0.29760000  1.0 0.0892770078
H  H456  1  0.45540000  0.29760000  0.25020000  1.0 0.0892770078
H  H457  1  0.75020000  0.79760000  0.95540000  1.0 0.0892770078
H  H458  1  0.95540000  0.75020000  0.79760000  1.0 0.0892770078
H  H459  1  0.79760000  0.95540000  0.75020000  1.0 0.0892770078
H  H460  1  0.74980000  0.70240000  0.00320000  1.0 0.0892770078
H  H461  1  0.54460000  0.00320000  0.70240000  1.0 0.0892770078
H  H462  1  0.00320000  0.54460000  0.74980000  1.0 0.0892770078
H  H463  1  0.54460000  0.74980000  0.00320000  1.0 0.0892770078
H  H464  1  0.00320000  0.70240000  0.54460000  1.0 0.0892770078
H  H465  1  0.70240000  0.00320000  0.74980000  1.0 0.0892770078
H  H466  1  0.70240000  0.54460000  0.00320000  1.0 0.0892770078
H  H467  1  0.74980000  0.00320000  0.54460000  1.0 0.0892770078
H  H468  1  0.00320000  0.74980000  0.70240000  1.0 0.0892770078
H  H469  1  0.79760000  0.75020000  0.49680000  1.0 0.0892770078
H  H470  1  0.95540000  0.49680000  0.75020000  1.0 0.0892770078
H  H471  1  0.49680000  0.95540000  0.79760000  1.0 0.0892770078
H  H472  1  0.49680000  0.79760000  0.75020000  1.0 0.0892770078
H  H473  1  0.75020000  0.95540000  0.49680000  1.0 0.0892770078
H  H474  1  0.79760000  0.49680000  0.95540000  1.0 0.0892770078
H  H475  1  0.75020000  0.49680000  0.79760000  1.0 0.0892770078
H  H476  1  0.49680000  0.75020000  0.95540000  1.0 0.0892770078
H  H477  1  0.95540000  0.79760000  0.49680000  1.0 0.0892770078
H  H478  1  0.70240000  0.74980000  0.54460000  1.0 0.0892770078
H  H479  1  0.74980000  0.54460000  0.70240000  1.0 0.0892770078
H  H480  1  0.54460000  0.70240000  0.74980000  1.0 0.0892770078
H  H481  1  0.23200000  0.18740000  0.12300000  1.0 0.1210218476
H  H482  1  0.12300000  0.23200000  0.18740000  1.0 0.1210218476
H  H483  1  0.18740000  0.12300000  0.23200000  1.0 0.1210218476
H  H484  1  0.26800000  0.31260000  0.04240000  1.0 0.1210218476
H  H485  1  0.37700000  0.04240000  0.31260000  1.0 0.1210218476
H  H486  1  0.04240000  0.37700000  0.26800000  1.0 0.1210218476
H  H487  1  0.37700000  0.26800000  0.04240000  1.0 0.1210218476
H  H488  1  0.04240000  0.31260000  0.37700000  1.0 0.1210218476
H  H489  1  0.31260000  0.04240000  0.26800000  1.0 0.1210218476
H  H490  1  0.31260000  0.37700000  0.04240000  1.0 0.1210218476
H  H491  1  0.26800000  0.04240000  0.37700000  1.0 0.1210218476
H  H492  1  0.04240000  0.26800000  0.31260000  1.0 0.1210218476
H  H493  1  0.18740000  0.23200000  0.45760000  1.0 0.1210218476
H  H494  1  0.12300000  0.45760000  0.23200000  1.0 0.1210218476
H  H495  1  0.45760000  0.12300000  0.18740000  1.0 0.1210218476
H  H496  1  0.45760000  0.18740000  0.23200000  1.0 0.1210218476
H  H497  1  0.23200000  0.12300000  0.45760000  1.0 0.1210218476
H  H498  1  0.18740000  0.45760000  0.12300000  1.0 0.1210218476
H  H499  1  0.23200000  0.45760000  0.18740000  1.0 0.1210218476
H  H500  1  0.45760000  0.23200000  0.12300000  1.0 0.1210218476
H  H501  1  0.12300000  0.18740000  0.45760000  1.0 0.1210218476
H  H502  1  0.31260000  0.26800000  0.37700000  1.0 0.1210218476
H  H503  1  0.26800000  0.37700000  0.31260000  1.0 0.1210218476
H  H504  1  0.37700000  0.31260000  0.26800000  1.0 0.1210218476
H  H505  1  0.76800000  0.81260000  0.87700000  1.0 0.1210218476
H  H506  1  0.87700000  0.76800000  0.81260000  1.0 0.1210218476
H  H507  1  0.81260000  0.87700000  0.76800000  1.0 0.1210218476
H  H508  1  0.73200000  0.68740000  0.95760000  1.0 0.1210218476
H  H509  1  0.62300000  0.95760000  0.68740000  1.0 0.1210218476
H  H510  1  0.95760000  0.62300000  0.73200000  1.0 0.1210218476
H  H511  1  0.62300000  0.73200000  0.95760000  1.0 0.1210218476
H  H512  1  0.95760000  0.68740000  0.62300000  1.0 0.1210218476
H  H513  1  0.68740000  0.95760000  0.73200000  1.0 0.1210218476
H  H514  1  0.68740000  0.62300000  0.95760000  1.0 0.1210218476
H  H515  1  0.73200000  0.95760000  0.62300000  1.0 0.1210218476
H  H516  1  0.95760000  0.73200000  0.68740000  1.0 0.1210218476
H  H517  1  0.81260000  0.76800000  0.54240000  1.0 0.1210218476
H  H518  1  0.87700000  0.54240000  0.76800000  1.0 0.1210218476
H  H519  1  0.54240000  0.87700000  0.81260000  1.0 0.1210218476
H  H520  1  0.54240000  0.81260000  0.76800000  1.0 0.1210218476
H  H521  1  0.76800000  0.87700000  0.54240000  1.0 0.1210218476
H  H522  1  0.81260000  0.54240000  0.87700000  1.0 0.1210218476
H  H523  1  0.76800000  0.54240000  0.81260000  1.0 0.1210218476
H  H524  1  0.54240000  0.76800000  0.87700000  1.0 0.1210218476
H  H525  1  0.87700000  0.81260000  0.54240000  1.0 0.1210218476
H  H526  1  0.68740000  0.73200000  0.62300000  1.0 0.1210218476
H  H527  1  0.73200000  0.62300000  0.68740000  1.0 0.1210218476
H  H528  1  0.62300000  0.68740000  0.73200000  1.0 0.1210218476
H  H529  1  0.28450000  0.18870000  0.09630000  1.0 0.1265466039
H  H530  1  0.09630000  0.28450000  0.18870000  1.0 0.1265466039
H  H531  1  0.18870000  0.09630000  0.28450000  1.0 0.1265466039
H  H532  1  0.21550000  0.31130000  0.06950000  1.0 0.1265466039
H  H533  1  0.40370000  0.06950000  0.31130000  1.0 0.1265466039
H  H534  1  0.06950000  0.40370000  0.21550000  1.0 0.1265466039
H  H535  1  0.40370000  0.21550000  0.06950000  1.0 0.1265466039
H  H536  1  0.06950000  0.31130000  0.40370000  1.0 0.1265466039
H  H537  1  0.31130000  0.06950000  0.21550000  1.0 0.1265466039
H  H538  1  0.31130000  0.40370000  0.06950000  1.0 0.1265466039
H  H539  1  0.21550000  0.06950000  0.40370000  1.0 0.1265466039
H  H540  1  0.06950000  0.21550000  0.31130000  1.0 0.1265466039
H  H541  1  0.18870000  0.28450000  0.43050000  1.0 0.1265466039
H  H542  1  0.09630000  0.43050000  0.28450000  1.0 0.1265466039
H  H543  1  0.43050000  0.09630000  0.18870000  1.0 0.1265466039
H  H544  1  0.43050000  0.18870000  0.28450000  1.0 0.1265466039
H  H545  1  0.28450000  0.09630000  0.43050000  1.0 0.1265466039
H  H546  1  0.18870000  0.43050000  0.09630000  1.0 0.1265466039
H  H547  1  0.28450000  0.43050000  0.18870000  1.0 0.1265466039
H  H548  1  0.43050000  0.28450000  0.09630000  1.0 0.1265466039
H  H549  1  0.09630000  0.18870000  0.43050000  1.0 0.1265466039
H  H550  1  0.31130000  0.21550000  0.40370000  1.0 0.1265466039
H  H551  1  0.21550000  0.40370000  0.31130000  1.0 0.1265466039
H  H552  1  0.40370000  0.31130000  0.21550000  1.0 0.1265466039
H  H553  1  0.71550000  0.81130000  0.90370000  1.0 0.1265466039
H  H554  1  0.90370000  0.71550000  0.81130000  1.0 0.1265466039
H  H555  1  0.81130000  0.90370000  0.71550000  1.0 0.1265466039
H  H556  1  0.78450000  0.68870000  0.93050000  1.0 0.1265466039
H  H557  1  0.59630000  0.93050000  0.68870000  1.0 0.1265466039
H  H558  1  0.93050000  0.59630000  0.78450000  1.0 0.1265466039
H  H559  1  0.59630000  0.78450000  0.93050000  1.0 0.1265466039
H  H560  1  0.93050000  0.68870000  0.59630000  1.0 0.1265466039
H  H561  1  0.68870000  0.93050000  0.78450000  1.0 0.1265466039
H  H562  1  0.68870000  0.59630000  0.93050000  1.0 0.1265466039
H  H563  1  0.78450000  0.93050000  0.59630000  1.0 0.1265466039
H  H564  1  0.93050000  0.78450000  0.68870000  1.0 0.1265466039
H  H565  1  0.81130000  0.71550000  0.56950000  1.0 0.1265466039
H  H566  1  0.90370000  0.56950000  0.71550000  1.0 0.1265466039
H  H567  1  0.56950000  0.90370000  0.81130000  1.0 0.1265466039
H  H568  1  0.56950000  0.81130000  0.71550000  1.0 0.1265466039
H  H569  1  0.71550000  0.90370000  0.56950000  1.0 0.1265466039
H  H570  1  0.81130000  0.56950000  0.90370000  1.0 0.1265466039
H  H571  1  0.71550000  0.56950000  0.81130000  1.0 0.1265466039
H  H572  1  0.56950000  0.71550000  0.90370000  1.0 0.1265466039
H  H573  1  0.90370000  0.81130000  0.56950000  1.0 0.1265466039
H  H574  1  0.68870000  0.78450000  0.59630000  1.0 0.1265466039
H  H575  1  0.78450000  0.59630000  0.68870000  1.0 0.1265466039
H  H576  1  0.59630000  0.68870000  0.78450000  1.0 0.1265466039
H  H577  1  0.27560000  0.13940000  0.12640000  1.0 0.1210218476
H  H578  1  0.12640000  0.27560000  0.13940000  1.0 0.1210218476
H  H579  1  0.13940000  0.12640000  0.27560000  1.0 0.1210218476
H  H580  1  0.22440000  0.36060000  0.04140000  1.0 0.1210218476
H  H581  1  0.37360000  0.04140000  0.36060000  1.0 0.1210218476
H  H582  1  0.04140000  0.37360000  0.22440000  1.0 0.1210218476
H  H583  1  0.37360000  0.22440000  0.04140000  1.0 0.1210218476
H  H584  1  0.04140000  0.36060000  0.37360000  1.0 0.1210218476
H  H585  1  0.36060000  0.04140000  0.22440000  1.0 0.1210218476
H  H586  1  0.36060000  0.37360000  0.04140000  1.0 0.1210218476
H  H587  1  0.22440000  0.04140000  0.37360000  1.0 0.1210218476
H  H588  1  0.04140000  0.22440000  0.36060000  1.0 0.1210218476
H  H589  1  0.13940000  0.27560000  0.45860000  1.0 0.1210218476
H  H590  1  0.12640000  0.45860000  0.27560000  1.0 0.1210218476
H  H591  1  0.45860000  0.12640000  0.13940000  1.0 0.1210218476
H  H592  1  0.45860000  0.13940000  0.27560000  1.0 0.1210218476
H  H593  1  0.27560000  0.12640000  0.45860000  1.0 0.1210218476
H  H594  1  0.13940000  0.45860000  0.12640000  1.0 0.1210218476
H  H595  1  0.27560000  0.45860000  0.13940000  1.0 0.1210218476
H  H596  1  0.45860000  0.27560000  0.12640000  1.0 0.1210218476
H  H597  1  0.12640000  0.13940000  0.45860000  1.0 0.1210218476
H  H598  1  0.36060000  0.22440000  0.37360000  1.0 0.1210218476
H  H599  1  0.22440000  0.37360000  0.36060000  1.0 0.1210218476
H  H600  1  0.37360000  0.36060000  0.22440000  1.0 0.1210218476
H  H601  1  0.72440000  0.86060000  0.87360000  1.0 0.1210218476
H  H602  1  0.87360000  0.72440000  0.86060000  1.0 0.1210218476
H  H603  1  0.86060000  0.87360000  0.72440000  1.0 0.1210218476
H  H604  1  0.77560000  0.63940000  0.95860000  1.0 0.1210218476
H  H605  1  0.62640000  0.95860000  0.63940000  1.0 0.1210218476
H  H606  1  0.95860000  0.62640000  0.77560000  1.0 0.1210218476
H  H607  1  0.62640000  0.77560000  0.95860000  1.0 0.1210218476
H  H608  1  0.95860000  0.63940000  0.62640000  1.0 0.1210218476
H  H609  1  0.63940000  0.95860000  0.77560000  1.0 0.1210218476
H  H610  1  0.63940000  0.62640000  0.95860000  1.0 0.1210218476
H  H611  1  0.77560000  0.95860000  0.62640000  1.0 0.1210218476
H  H612  1  0.95860000  0.77560000  0.63940000  1.0 0.1210218476
H  H613  1  0.86060000  0.72440000  0.54140000  1.0 0.1210218476
H  H614  1  0.87360000  0.54140000  0.72440000  1.0 0.1210218476
H  H615  1  0.54140000  0.87360000  0.86060000  1.0 0.1210218476
H  H616  1  0.54140000  0.86060000  0.72440000  1.0 0.1210218476
H  H617  1  0.72440000  0.87360000  0.54140000  1.0 0.1210218476
H  H618  1  0.86060000  0.54140000  0.87360000  1.0 0.1210218476
H  H619  1  0.72440000  0.54140000  0.86060000  1.0 0.1210218476
H  H620  1  0.54140000  0.72440000  0.87360000  1.0 0.1210218476
H  H621  1  0.87360000  0.86060000  0.54140000  1.0 0.1210218476
H  H622  1  0.63940000  0.77560000  0.62640000  1.0 0.1210218476
H  H623  1  0.77560000  0.62640000  0.63940000  1.0 0.1210218476
H  H624  1  0.62640000  0.63940000  0.77560000  1.0 0.1210218476
C  C1  1  0.37895000  0.98723000  0.09419000  1.0 0.5610439348
C  C2  1  0.09419000  0.37895000  0.98723000  1.0 0.5610439348
C  C3  1  0.98723000  0.09419000  0.37895000  1.0 0.5610439348
C  C4  1  0.12105000  0.51277000  0.96037000  1.0 0.5610439348
C  C5  1  0.40581000  0.96037000  0.51277000  1.0 0.5610439348
C  C6  1  0.96037000  0.40581000  0.12105000  1.0 0.5610439348
C  C7  1  0.40581000  0.12105000  0.96037000  1.0 0.5610439348
C  C8  1  0.96037000  0.51277000  0.40581000  1.0 0.5610439348
C  C9  1  0.51277000  0.96037000  0.12105000  1.0 0.5610439348
C  C10  1  0.51277000  0.40581000  0.96037000  1.0 0.5610439348
C  C11  1  0.12105000  0.96037000  0.40581000  1.0 0.5610439348
C  C12  1  0.96037000  0.12105000  0.51277000  1.0 0.5610439348
C  C13  1  0.98723000  0.37895000  0.53963000  1.0 0.5610439348
C  C14  1  0.09419000  0.53963000  0.37895000  1.0 0.5610439348
C  C15  1  0.53963000  0.09419000  0.98723000  1.0 0.5610439348
C  C16  1  0.53963000  0.98723000  0.37895000  1.0 0.5610439348
C  C17  1  0.37895000  0.09419000  0.53963000  1.0 0.5610439348
C  C18  1  0.98723000  0.53963000  0.09419000  1.0 0.5610439348
C  C19  1  0.37895000  0.53963000  0.98723000  1.0 0.5610439348
C  C20  1  0.53963000  0.37895000  0.09419000  1.0 0.5610439348
C  C21  1  0.09419000  0.98723000  0.53963000  1.0 0.5610439348
C  C22  1  0.51277000  0.12105000  0.40581000  1.0 0.5610439348
C  C23  1  0.12105000  0.40581000  0.51277000  1.0 0.5610439348
C  C24  1  0.40581000  0.51277000  0.12105000  1.0 0.5610439348
C  C25  1  0.62105000  0.01277000  0.90581000  1.0 0.5610439348
C  C26  1  0.90581000  0.62105000  0.01277000  1.0 0.5610439348
C  C27  1  0.01277000  0.90581000  0.62105000  1.0 0.5610439348
C  C28  1  0.87895000  0.48723000  0.03963000  1.0 0.5610439348
C  C29  1  0.59419000  0.03963000  0.48723000  1.0 0.5610439348
C  C30  1  0.03963000  0.59419000  0.87895000  1.0 0.5610439348
C  C31  1  0.59419000  0.87895000  0.03963000  1.0 0.5610439348
C  C32  1  0.03963000  0.48723000  0.59419000  1.0 0.5610439348
C  C33  1  0.48723000  0.03963000  0.87895000  1.0 0.5610439348
C  C34  1  0.48723000  0.59419000  0.03963000  1.0 0.5610439348
C  C35  1  0.87895000  0.03963000  0.59419000  1.0 0.5610439348
C  C36  1  0.03963000  0.87895000  0.48723000  1.0 0.5610439348
C  C37  1  0.01277000  0.62105000  0.46037000  1.0 0.5610439348
C  C38  1  0.90581000  0.46037000  0.62105000  1.0 0.5610439348
C  C39  1  0.46037000  0.90581000  0.01277000  1.0 0.5610439348
C  C40  1  0.46037000  0.01277000  0.62105000  1.0 0.5610439348
C  C41  1  0.62105000  0.90581000  0.46037000  1.0 0.5610439348
C  C42  1  0.01277000  0.46037000  0.90581000  1.0 0.5610439348
C  C43  1  0.62105000  0.46037000  0.01277000  1.0 0.5610439348
C  C44  1  0.46037000  0.62105000  0.90581000  1.0 0.5610439348
C  C45  1  0.90581000  0.01277000  0.46037000  1.0 0.5610439348
C  C46  1  0.48723000  0.87895000  0.59419000  1.0 0.5610439348
C  C47  1  0.87895000  0.59419000  0.48723000  1.0 0.5610439348
C  C48  1  0.59419000  0.48723000  0.87895000  1.0 0.5610439348
C  C49  1  0.32878000  0.01554000  0.11060000  1.0 -0.0119221401
C  C50  1  0.11060000  0.32878000  0.01554000  1.0 -0.0198049368
C  C51  1  0.01554000  0.11060000  0.32878000  1.0 -0.0198049368
C  C52  1  0.17122000  0.48446000  0.95492000  1.0 -0.0198049368
C  C53  1  0.38940000  0.95492000  0.48446000  1.0 -0.0198049368
C  C54  1  0.95492000  0.38940000  0.17122000  1.0 -0.0198049368
C  C55  1  0.38940000  0.17122000  0.95492000  1.0 -0.0198049368
C  C56  1  0.95492000  0.48446000  0.38940000  1.0 -0.0198049368
C  C57  1  0.48446000  0.95492000  0.17122000  1.0 -0.0198049368
C  C58  1  0.48446000  0.38940000  0.95492000  1.0 -0.0198049368
C  C59  1  0.17122000  0.95492000  0.38940000  1.0 -0.0198049368
C  C60  1  0.95492000  0.17122000  0.48446000  1.0 -0.0198049368
C  C61  1  0.01554000  0.32878000  0.54508000  1.0 -0.0198049368
C  C62  1  0.11060000  0.54508000  0.32878000  1.0 -0.0198049368
C  C63  1  0.54508000  0.11060000  0.01554000  1.0 -0.0198049368
C  C64  1  0.54508000  0.01554000  0.32878000  1.0 -0.0198049368
C  C65  1  0.32878000  0.11060000  0.54508000  1.0 -0.0198049368
C  C66  1  0.01554000  0.54508000  0.11060000  1.0 -0.0198049368
C  C67  1  0.32878000  0.54508000  0.01554000  1.0 -0.0198049368
C  C68  1  0.54508000  0.32878000  0.11060000  1.0 -0.0198049368
C  C69  1  0.11060000  0.01554000  0.54508000  1.0 -0.0198049368
C  C70  1  0.48446000  0.17122000  0.38940000  1.0 -0.0198049368
C  C71  1  0.17122000  0.38940000  0.48446000  1.0 -0.0198049368
C  C72  1  0.38940000  0.48446000  0.17122000  1.0 -0.0198049368
C  C73  1  0.67122000  0.98446000  0.88940000  1.0 -0.0198049368
C  C74  1  0.88940000  0.67122000  0.98446000  1.0 -0.0198049368
C  C75  1  0.98446000  0.88940000  0.67122000  1.0 -0.0198049368
C  C76  1  0.82878000  0.51554000  0.04508000  1.0 -0.0198049368
C  C77  1  0.61060000  0.04508000  0.51554000  1.0 -0.0198049368
C  C78  1  0.04508000  0.61060000  0.82878000  1.0 -0.0198049368
C  C79  1  0.61060000  0.82878000  0.04508000  1.0 -0.0198049368
C  C80  1  0.04508000  0.51554000  0.61060000  1.0 -0.0198049368
C  C81  1  0.51554000  0.04508000  0.82878000  1.0 -0.0198049368
C  C82  1  0.51554000  0.61060000  0.04508000  1.0 -0.0198049368
C  C83  1  0.82878000  0.04508000  0.61060000  1.0 -0.0198049368
C  C84  1  0.04508000  0.82878000  0.51554000  1.0 -0.0198049368
C  C85  1  0.98446000  0.67122000  0.45492000  1.0 -0.0198049368
C  C86  1  0.88940000  0.45492000  0.67122000  1.0 -0.0198049368
C  C87  1  0.45492000  0.88940000  0.98446000  1.0 -0.0198049368
C  C88  1  0.45492000  0.98446000  0.67122000  1.0 -0.0198049368
C  C89  1  0.67122000  0.88940000  0.45492000  1.0 -0.0198049368
C  C90  1  0.98446000  0.45492000  0.88940000  1.0 -0.0198049368
C  C91  1  0.67122000  0.45492000  0.98446000  1.0 -0.0198049368
C  C92  1  0.45492000  0.67122000  0.88940000  1.0 -0.0198049368
C  C93  1  0.88940000  0.98446000  0.45492000  1.0 -0.0198049368
C  C94  1  0.51554000  0.82878000  0.61060000  1.0 -0.0198049368
C  C95  1  0.82878000  0.61060000  0.51554000  1.0 -0.0198049368
C  C96  1  0.61060000  0.51554000  0.82878000  1.0 -0.0198049368
C  C97  1  0.31145000  0.06161000  0.08245000  1.0 -0.1497850664
C  C98  1  0.08245000  0.31145000  0.06161000  1.0 -0.1497850664
C  C99  1  0.06161000  0.08245000  0.31145000  1.0 -0.1497850664
C  C100  1  0.18855000  0.43839000  0.95551000  1.0 -0.1497850664
C  C101  1  0.41755000  0.95551000  0.43839000  1.0 -0.1497850664
C  C102  1  0.95551000  0.41755000  0.18855000  1.0 -0.1497850664
C  C103  1  0.41755000  0.18855000  0.95551000  1.0 -0.1497850664
C  C104  1  0.95551000  0.43839000  0.41755000  1.0 -0.1497850664
C  C105  1  0.43839000  0.95551000  0.18855000  1.0 -0.1497850664
C  C106  1  0.43839000  0.41755000  0.95551000  1.0 -0.1497850664
C  C107  1  0.18855000  0.95551000  0.41755000  1.0 -0.1497850664
C  C108  1  0.95551000  0.18855000  0.43839000  1.0 -0.1497850664
C  C109  1  0.06161000  0.31145000  0.54449000  1.0 -0.1497850664
C  C110  1  0.08245000  0.54449000  0.31145000  1.0 -0.1497850664
C  C111  1  0.54449000  0.08245000  0.06161000  1.0 -0.1497850664
C  C112  1  0.54449000  0.06161000  0.31145000  1.0 -0.1497850664
C  C113  1  0.31145000  0.08245000  0.54449000  1.0 -0.1497850664
C  C114  1  0.06161000  0.54449000  0.08245000  1.0 -0.1497850664
C  C115  1  0.31145000  0.54449000  0.06161000  1.0 -0.1497850664
C  C116  1  0.54449000  0.31145000  0.08245000  1.0 -0.1497850664
C  C117  1  0.08245000  0.06161000  0.54449000  1.0 -0.1497850664
C  C118  1  0.43839000  0.18855000  0.41755000  1.0 -0.1497850664
C  C119  1  0.18855000  0.41755000  0.43839000  1.0 -0.1497850664
C  C120  1  0.41755000  0.43839000  0.18855000  1.0 -0.1497850664
C  C121  1  0.68855000  0.93839000  0.91755000  1.0 -0.1497850664
C  C122  1  0.91755000  0.68855000  0.93839000  1.0 -0.1497850664
C  C123  1  0.93839000  0.91755000  0.68855000  1.0 -0.1497850664
C  C124  1  0.81145000  0.56161000  0.04449000  1.0 -0.1497850664
C  C125  1  0.58245000  0.04449000  0.56161000  1.0 -0.1497850664
C  C126  1  0.04449000  0.58245000  0.81145000  1.0 -0.1497850664
C  C127  1  0.58245000  0.81145000  0.04449000  1.0 -0.1497850664
C  C128  1  0.04449000  0.56161000  0.58245000  1.0 -0.1497850664
C  C129  1  0.56161000  0.04449000  0.81145000  1.0 -0.1497850664
C  C130  1  0.56161000  0.58245000  0.04449000  1.0 -0.1497850664
C  C131  1  0.81145000  0.04449000  0.58245000  1.0 -0.1497850664
C  C132  1  0.04449000  0.81145000  0.56161000  1.0 -0.1497850664
C  C133  1  0.93839000  0.68855000  0.45551000  1.0 -0.1497850664
C  C134  1  0.91755000  0.45551000  0.68855000  1.0 -0.1497850664
C  C135  1  0.45551000  0.91755000  0.93839000  1.0 -0.1497850664
C  C136  1  0.45551000  0.93839000  0.68855000  1.0 -0.1497850664
C  C137  1  0.68855000  0.91755000  0.45551000  1.0 -0.1497850664
C  C138  1  0.93839000  0.45551000  0.91755000  1.0 -0.1497850664
C  C139  1  0.68855000  0.45551000  0.93839000  1.0 -0.1497850664
C  C140  1  0.45551000  0.68855000  0.91755000  1.0 -0.1497850664
C  C141  1  0.91755000  0.93839000  0.45551000  1.0 -0.1497850664
C  C142  1  0.56161000  0.81145000  0.58245000  1.0 -0.1497850664
C  C143  1  0.81145000  0.58245000  0.56161000  1.0 -0.1497850664
C  C144  1  0.58245000  0.56161000  0.81145000  1.0 -0.1497850664
C  C145  1  0.26414000  0.08814000  0.09956000  1.0 0.0274283011
C  C146  1  0.09956000  0.26414000  0.08814000  1.0 0.0274283011
C  C147  1  0.08814000  0.09956000  0.26414000  1.0 0.0274283011
C  C148  1  0.23586000  0.41186000  0.95184000  1.0 0.0274283011
C  C149  1  0.40044000  0.95184000  0.41186000  1.0 0.0274283011
C  C150  1  0.95184000  0.40044000  0.23586000  1.0 0.0274283011
C  C151  1  0.40044000  0.23586000  0.95184000  1.0 0.0274283011
C  C152  1  0.95184000  0.41186000  0.40044000  1.0 0.0274283011
C  C153  1  0.41186000  0.95184000  0.23586000  1.0 0.0274283011
C  C154  1  0.41186000  0.40044000  0.95184000  1.0 0.0274283011
C  C155  1  0.23586000  0.95184000  0.40044000  1.0 0.0274283011
C  C156  1  0.95184000  0.23586000  0.41186000  1.0 0.0274283011
C  C157  1  0.08814000  0.26414000  0.54816000  1.0 0.0274283011
C  C158  1  0.09956000  0.54816000  0.26414000  1.0 0.0274283011
C  C159  1  0.54816000  0.09956000  0.08814000  1.0 0.0274283011
C  C160  1  0.54816000  0.08814000  0.26414000  1.0 0.0274283011
C  C161  1  0.26414000  0.09956000  0.54816000  1.0 0.0274283011
C  C162  1  0.08814000  0.54816000  0.09956000  1.0 0.0274283011
C  C163  1  0.26414000  0.54816000  0.08814000  1.0 0.0274283011
C  C164  1  0.54816000  0.26414000  0.09956000  1.0 0.0274283011
C  C165  1  0.09956000  0.08814000  0.54816000  1.0 0.0274283011
C  C166  1  0.41186000  0.23586000  0.40044000  1.0 0.0274283011
C  C167  1  0.23586000  0.40044000  0.41186000  1.0 0.0274283011
C  C168  1  0.40044000  0.41186000  0.23586000  1.0 0.0274283011
C  C169  1  0.73586000  0.91186000  0.90044000  1.0 0.0274283011
C  C170  1  0.90044000  0.73586000  0.91186000  1.0 0.0274283011
C  C171  1  0.91186000  0.90044000  0.73586000  1.0 0.0274283011
C  C172  1  0.76414000  0.58814000  0.04816000  1.0 0.0274283011
C  C173  1  0.59956000  0.04816000  0.58814000  1.0 0.0274283011
C  C174  1  0.04816000  0.59956000  0.76414000  1.0 0.0274283011
C  C175  1  0.59956000  0.76414000  0.04816000  1.0 0.0274283011
C  C176  1  0.04816000  0.58814000  0.59956000  1.0 0.0274283011
C  C177  1  0.58814000  0.04816000  0.76414000  1.0 0.0274283011
C  C178  1  0.58814000  0.59956000  0.04816000  1.0 0.0274283011
C  C179  1  0.76414000  0.04816000  0.59956000  1.0 0.0274283011
C  C180  1  0.04816000  0.76414000  0.58814000  1.0 0.0274283011
C  C181  1  0.91186000  0.73586000  0.45184000  1.0 0.0274283011
C  C182  1  0.90044000  0.45184000  0.73586000  1.0 0.0274283011
C  C183  1  0.45184000  0.90044000  0.91186000  1.0 0.0274283011
C  C184  1  0.45184000  0.91186000  0.73586000  1.0 0.0274283011
C  C185  1  0.73586000  0.90044000  0.45184000  1.0 0.0274283011
C  C186  1  0.91186000  0.45184000  0.90044000  1.0 0.0274283011
C  C187  1  0.73586000  0.45184000  0.91186000  1.0 0.0274283011
C  C188  1  0.45184000  0.73586000  0.90044000  1.0 0.0274283011
C  C189  1  0.90044000  0.91186000  0.45184000  1.0 0.0274283011
C  C190  1  0.58814000  0.76414000  0.59956000  1.0 0.0274283011
C  C191  1  0.76414000  0.59956000  0.58814000  1.0 0.0274283011
C  C192  1  0.59956000  0.58814000  0.76414000  1.0 0.0274283011
C  C193  1  0.23430000  0.06964000  0.14448000  1.0 0.037028194
C  C194  1  0.14448000  0.23430000  0.06964000  1.0 0.037028194
C  C195  1  0.06964000  0.14448000  0.23430000  1.0 0.037028194
C  C196  1  0.26570000  0.43036000  0.94842000  1.0 0.037028194
C  C197  1  0.35552000  0.94842000  0.43036000  1.0 0.037028194
C  C198  1  0.94842000  0.35552000  0.26570000  1.0 0.037028194
C  C199  1  0.35552000  0.26570000  0.94842000  1.0 0.037028194
C  C200  1  0.94842000  0.43036000  0.35552000  1.0 0.037028194
C  C201  1  0.43036000  0.94842000  0.26570000  1.0 0.037028194
C  C202  1  0.43036000  0.35552000  0.94842000  1.0 0.037028194
C  C203  1  0.26570000  0.94842000  0.35552000  1.0 0.037028194
C  C204  1  0.94842000  0.26570000  0.43036000  1.0 0.037028194
C  C205  1  0.06964000  0.23430000  0.55158000  1.0 0.037028194
C  C206  1  0.14448000  0.55158000  0.23430000  1.0 0.037028194
C  C207  1  0.55158000  0.14448000  0.06964000  1.0 0.037028194
C  C208  1  0.55158000  0.06964000  0.23430000  1.0 0.037028194
C  C209  1  0.23430000  0.14448000  0.55158000  1.0 0.037028194
C  C210  1  0.06964000  0.55158000  0.14448000  1.0 0.037028194
C  C211  1  0.23430000  0.55158000  0.06964000  1.0 0.037028194
C  C212  1  0.55158000  0.23430000  0.14448000  1.0 0.037028194
C  C213  1  0.14448000  0.06964000  0.55158000  1.0 0.037028194
C  C214  1  0.43036000  0.26570000  0.35552000  1.0 0.037028194
C  C215  1  0.26570000  0.35552000  0.43036000  1.0 0.037028194
C  C216  1  0.35552000  0.43036000  0.26570000  1.0 0.037028194
C  C217  1  0.76570000  0.93036000  0.85552000  1.0 0.037028194
C  C218  1  0.85552000  0.76570000  0.93036000  1.0 0.037028194
C  C219  1  0.93036000  0.85552000  0.76570000  1.0 0.037028194
C  C220  1  0.73430000  0.56964000  0.05158000  1.0 0.037028194
C  C221  1  0.64448000  0.05158000  0.56964000  1.0 0.037028194
C  C222  1  0.05158000  0.64448000  0.73430000  1.0 0.037028194
C  C223  1  0.64448000  0.73430000  0.05158000  1.0 0.037028194
C  C224  1  0.05158000  0.56964000  0.64448000  1.0 0.037028194
C  C225  1  0.56964000  0.05158000  0.73430000  1.0 0.037028194
C  C226  1  0.56964000  0.64448000  0.05158000  1.0 0.037028194
C  C227  1  0.73430000  0.05158000  0.64448000  1.0 0.037028194
C  C228  1  0.05158000  0.73430000  0.56964000  1.0 0.037028194
C  C229  1  0.93036000  0.76570000  0.44842000  1.0 0.037028194
C  C230  1  0.85552000  0.44842000  0.76570000  1.0 0.037028194
C  C231  1  0.44842000  0.85552000  0.93036000  1.0 0.037028194
C  C232  1  0.44842000  0.93036000  0.76570000  1.0 0.037028194
C  C233  1  0.76570000  0.85552000  0.44842000  1.0 0.037028194
C  C234  1  0.93036000  0.44842000  0.85552000  1.0 0.037028194
C  C235  1  0.76570000  0.44842000  0.93036000  1.0 0.037028194
C  C236  1  0.44842000  0.76570000  0.85552000  1.0 0.037028194
C  C237  1  0.85552000  0.93036000  0.44842000  1.0 0.037028194
C  C238  1  0.56964000  0.73430000  0.64448000  1.0 0.037028194
C  C239  1  0.73430000  0.64448000  0.56964000  1.0 0.037028194
C  C240  1  0.64448000  0.56964000  0.73430000  1.0 0.037028194
C  C241  1  0.25268000  0.02338000  0.17160000  1.0 -0.1497850664
C  C242  1  0.17160000  0.25268000  0.02338000  1.0 -0.1497850664
C  C243  1  0.02338000  0.17160000  0.25268000  1.0 -0.1497850664
C  C244  1  0.24732000  0.47662000  0.94766000  1.0 -0.1497850664
C  C245  1  0.32840000  0.94766000  0.47662000  1.0 -0.1497850664
C  C246  1  0.94766000  0.32840000  0.24732000  1.0 -0.1497850664
C  C247  1  0.32840000  0.24732000  0.94766000  1.0 -0.1497850664
C  C248  1  0.94766000  0.47662000  0.32840000  1.0 -0.1497850664
C  C249  1  0.47662000  0.94766000  0.24732000  1.0 -0.1497850664
C  C250  1  0.47662000  0.32840000  0.94766000  1.0 -0.1497850664
C  C251  1  0.24732000  0.94766000  0.32840000  1.0 -0.1497850664
C  C252  1  0.94766000  0.24732000  0.47662000  1.0 -0.1497850664
C  C253  1  0.02338000  0.25268000  0.55234000  1.0 -0.1497850664
C  C254  1  0.17160000  0.55234000  0.25268000  1.0 -0.1497850664
C  C255  1  0.55234000  0.17160000  0.02338000  1.0 -0.1497850664
C  C256  1  0.55234000  0.02338000  0.25268000  1.0 -0.1497850664
C  C257  1  0.25268000  0.17160000  0.55234000  1.0 -0.1497850664
C  C258  1  0.02338000  0.55234000  0.17160000  1.0 -0.1497850664
C  C259  1  0.25268000  0.55234000  0.02338000  1.0 -0.1497850664
C  C260  1  0.55234000  0.25268000  0.17160000  1.0 -0.1497850664
C  C261  1  0.17160000  0.02338000  0.55234000  1.0 -0.1497850664
C  C262  1  0.47662000  0.24732000  0.32840000  1.0 -0.1497850664
C  C263  1  0.24732000  0.32840000  0.47662000  1.0 -0.1497850664
C  C264  1  0.32840000  0.47662000  0.24732000  1.0 -0.1497850664
C  C265  1  0.74732000  0.97662000  0.82840000  1.0 -0.1497850664
C  C266  1  0.82840000  0.74732000  0.97662000  1.0 -0.1497850664
C  C267  1  0.97662000  0.82840000  0.74732000  1.0 -0.1497850664
C  C268  1  0.75268000  0.52338000  0.05234000  1.0 -0.1497850664
C  C269  1  0.67160000  0.05234000  0.52338000  1.0 -0.1497850664
C  C270  1  0.05234000  0.67160000  0.75268000  1.0 -0.1497850664
C  C271  1  0.67160000  0.75268000  0.05234000  1.0 -0.1497850664
C  C272  1  0.05234000  0.52338000  0.67160000  1.0 -0.1497850664
C  C273  1  0.52338000  0.05234000  0.75268000  1.0 -0.1497850664
C  C274  1  0.52338000  0.67160000  0.05234000  1.0 -0.1497850664
C  C275  1  0.75268000  0.05234000  0.67160000  1.0 -0.1497850664
C  C276  1  0.05234000  0.75268000  0.52338000  1.0 -0.1497850664
C  C277  1  0.97662000  0.74732000  0.44766000  1.0 -0.1497850664
C  C278  1  0.82840000  0.44766000  0.74732000  1.0 -0.1497850664
C  C279  1  0.44766000  0.82840000  0.97662000  1.0 -0.1497850664
C  C280  1  0.44766000  0.97662000  0.74732000  1.0 -0.1497850664
C  C281  1  0.74732000  0.82840000  0.44766000  1.0 -0.1497850664
C  C282  1  0.97662000  0.44766000  0.82840000  1.0 -0.1497850664
C  C283  1  0.74732000  0.44766000  0.97662000  1.0 -0.1497850664
C  C284  1  0.44766000  0.74732000  0.82840000  1.0 -0.1497850664
C  C285  1  0.82840000  0.97662000  0.44766000  1.0 -0.1497850664
C  C286  1  0.52338000  0.75268000  0.67160000  1.0 -0.1497850664
C  C287  1  0.75268000  0.67160000  0.52338000  1.0 -0.1497850664
C  C288  1  0.67160000  0.52338000  0.75268000  1.0 -0.1497850664
C  C289  1  0.29909000  0.99721000  0.15431000  1.0 -0.1074578809
C  C290  1  0.15431000  0.29909000  0.99721000  1.0 -0.1041053278
C  C291  1  0.99721000  0.15431000  0.29909000  1.0 -0.1041053278
C  C292  1  0.20091000  0.50279000  0.95061000  1.0 -0.1074578809
C  C293  1  0.34569000  0.95061000  0.50279000  1.0 -0.1041053278
C  C294  1  0.95061000  0.34569000  0.20091000  1.0 -0.1074578809
C  C295  1  0.34569000  0.20091000  0.95061000  1.0 -0.1074578809
C  C296  1  0.95061000  0.50279000  0.34569000  1.0 -0.1041053278
C  C297  1  0.50279000  0.95061000  0.20091000  1.0 -0.1074578809
C  C298  1  0.50279000  0.34569000  0.95061000  1.0 -0.1074578809
C  C299  1  0.20091000  0.95061000  0.34569000  1.0 -0.1074578809
C  C300  1  0.95061000  0.20091000  0.50279000  1.0 -0.1041053278
C  C301  1  0.99721000  0.29909000  0.54939000  1.0 -0.1041053278
C  C302  1  0.15431000  0.54939000  0.29909000  1.0 -0.1074578809
C  C303  1  0.54939000  0.15431000  0.99721000  1.0 -0.1074578809
C  C304  1  0.54939000  0.99721000  0.29909000  1.0 -0.1074578809
C  C305  1  0.29909000  0.15431000  0.54939000  1.0 -0.1074578809
C  C306  1  0.99721000  0.54939000  0.15431000  1.0 -0.1041053278
C  C307  1  0.29909000  0.54939000  0.99721000  1.0 -0.1074578809
C  C308  1  0.54939000  0.29909000  0.15431000  1.0 -0.1074578809
C  C309  1  0.15431000  0.99721000  0.54939000  1.0 -0.1074578809
C  C310  1  0.50279000  0.20091000  0.34569000  1.0 -0.1074578809
C  C311  1  0.20091000  0.34569000  0.50279000  1.0 -0.1074578809
C  C312  1  0.34569000  0.50279000  0.20091000  1.0 -0.1074578809
C  C313  1  0.70091000  0.00279000  0.84569000  1.0 -0.1041053278
C  C314  1  0.84569000  0.70091000  0.00279000  1.0 -0.1074578809
C  C315  1  0.00279000  0.84569000  0.70091000  1.0 -0.1074578809
C  C316  1  0.79909000  0.49721000  0.04939000  1.0 -0.1074578809
C  C317  1  0.65431000  0.04939000  0.49721000  1.0 -0.1074578809
C  C318  1  0.04939000  0.65431000  0.79909000  1.0 -0.1074578809
C  C319  1  0.65431000  0.79909000  0.04939000  1.0 -0.1074578809
C  C320  1  0.04939000  0.49721000  0.65431000  1.0 -0.1074578809
C  C321  1  0.49721000  0.04939000  0.79909000  1.0 -0.1074578809
C  C322  1  0.49721000  0.65431000  0.04939000  1.0 -0.1074578809
C  C323  1  0.79909000  0.04939000  0.65431000  1.0 -0.1074578809
C  C324  1  0.04939000  0.79909000  0.49721000  1.0 -0.1074578809
C  C325  1  0.00279000  0.70091000  0.45061000  1.0 -0.1074578809
C  C326  1  0.84569000  0.45061000  0.70091000  1.0 -0.1074578809
C  C327  1  0.45061000  0.84569000  0.00279000  1.0 -0.1074578809
C  C328  1  0.45061000  0.00279000  0.70091000  1.0 -0.1041053278
C  C329  1  0.70091000  0.84569000  0.45061000  1.0 -0.1074578809
C  C330  1  0.00279000  0.45061000  0.84569000  1.0 -0.1074578809
C  C331  1  0.70091000  0.45061000  0.00279000  1.0 -0.1074578809
C  C332  1  0.45061000  0.70091000  0.84569000  1.0 -0.1074578809
C  C333  1  0.84569000  0.00279000  0.45061000  1.0 -0.1041053278
C  C334  1  0.49721000  0.79909000  0.65431000  1.0 -0.1074578809
C  C335  1  0.79909000  0.65431000  0.49721000  1.0 -0.1074578809
C  C336  1  0.65431000  0.49721000  0.79909000  1.0 -0.1074578809
C  C337  1  0.23980000  0.13768000  0.07348000  1.0 0.0892770078
C  C338  1  0.07348000  0.23980000  0.13768000  1.0 0.0892770078
C  C339  1  0.13768000  0.07348000  0.23980000  1.0 0.0892770078
C  C340  1  0.26020000  0.36232000  0.95096000  1.0 0.0892770078
C  C341  1  0.42652000  0.95096000  0.36232000  1.0 0.0892770078
C  C342  1  0.95096000  0.42652000  0.26020000  1.0 0.0892770078
C  C343  1  0.42652000  0.26020000  0.95096000  1.0 0.0892770078
C  C344  1  0.95096000  0.36232000  0.42652000  1.0 0.0892770078
C  C345  1  0.36232000  0.95096000  0.26020000  1.0 0.0892770078
C  C346  1  0.36232000  0.42652000  0.95096000  1.0 0.0892770078
C  C347  1  0.26020000  0.95096000  0.42652000  1.0 0.0892770078
C  C348  1  0.95096000  0.26020000  0.36232000  1.0 0.0892770078
C  C349  1  0.13768000  0.23980000  0.54904000  1.0 0.0892770078
C  C350  1  0.07348000  0.54904000  0.23980000  1.0 0.0892770078
C  C351  1  0.54904000  0.07348000  0.13768000  1.0 0.0892770078
C  C352  1  0.54904000  0.13768000  0.23980000  1.0 0.0892770078
C  C353  1  0.23980000  0.07348000  0.54904000  1.0 0.0892770078
C  C354  1  0.13768000  0.54904000  0.07348000  1.0 0.0892770078
C  C355  1  0.23980000  0.54904000  0.13768000  1.0 0.0892770078
C  C356  1  0.54904000  0.23980000  0.07348000  1.0 0.0892770078
C  C357  1  0.07348000  0.13768000  0.54904000  1.0 0.0892770078
C  C358  1  0.36232000  0.26020000  0.42652000  1.0 0.0892770078
C  C359  1  0.26020000  0.42652000  0.36232000  1.0 0.0892770078
C  C360  1  0.42652000  0.36232000  0.26020000  1.0 0.0892770078
C  C361  1  0.76020000  0.86232000  0.92652000  1.0 0.0892770078
C  C362  1  0.92652000  0.76020000  0.86232000  1.0 0.0892770078
C  C363  1  0.86232000  0.92652000  0.76020000  1.0 0.0892770078
C  C364  1  0.73980000  0.63768000  0.04904000  1.0 0.0892770078
C  C365  1  0.57348000  0.04904000  0.63768000  1.0 0.0892770078
C  C366  1  0.04904000  0.57348000  0.73980000  1.0 0.0892770078
C  C367  1  0.57348000  0.73980000  0.04904000  1.0 0.0892770078
C  C368  1  0.04904000  0.63768000  0.57348000  1.0 0.0892770078
C  C369  1  0.63768000  0.04904000  0.73980000  1.0 0.0892770078
C  C370  1  0.63768000  0.57348000  0.04904000  1.0 0.0892770078
C  C371  1  0.73980000  0.04904000  0.57348000  1.0 0.0892770078
C  C372  1  0.04904000  0.73980000  0.63768000  1.0 0.0892770078
C  C373  1  0.86232000  0.76020000  0.45096000  1.0 0.0892770078
C  C374  1  0.92652000  0.45096000  0.76020000  1.0 0.0892770078
C  C375  1  0.45096000  0.92652000  0.86232000  1.0 0.0892770078
C  C376  1  0.45096000  0.86232000  0.76020000  1.0 0.0892770078
C  C377  1  0.76020000  0.92652000  0.45096000  1.0 0.0892770078
C  C378  1  0.86232000  0.45096000  0.92652000  1.0 0.0892770078
C  C379  1  0.76020000  0.45096000  0.86232000  1.0 0.0892770078
C  C380  1  0.45096000  0.76020000  0.92652000  1.0 0.0892770078
C  C381  1  0.92652000  0.86232000  0.45096000  1.0 0.0892770078
C  C382  1  0.63768000  0.73980000  0.57348000  1.0 0.0892770078
C  C383  1  0.73980000  0.57348000  0.63768000  1.0 0.0892770078
C  C384  1  0.57348000  0.63768000  0.73980000  1.0 0.0892770078
C  C385  1  0.19082000  0.14714000  0.10962000  1.0 -0.0119221401
C  C386  1  0.10962000  0.19082000  0.14714000  1.0 -0.0119221401
C  C387  1  0.14714000  0.10962000  0.19082000  1.0 -0.0119221401
C  C388  1  0.30918000  0.35286000  0.94758000  1.0 -0.0119221401
C  C389  1  0.39038000  0.94758000  0.35286000  1.0 -0.0119221401
C  C390  1  0.94758000  0.39038000  0.30918000  1.0 -0.0119221401
C  C391  1  0.39038000  0.30918000  0.94758000  1.0 -0.0119221401
C  C392  1  0.94758000  0.35286000  0.39038000  1.0 -0.0119221401
C  C393  1  0.35286000  0.94758000  0.30918000  1.0 -0.0119221401
C  C394  1  0.35286000  0.39038000  0.94758000  1.0 -0.0119221401
C  C395  1  0.30918000  0.94758000  0.39038000  1.0 -0.0119221401
C  C396  1  0.94758000  0.30918000  0.35286000  1.0 -0.0119221401
C  C397  1  0.14714000  0.19082000  0.55242000  1.0 -0.0119221401
C  C398  1  0.10962000  0.55242000  0.19082000  1.0 -0.0119221401
C  C399  1  0.55242000  0.10962000  0.14714000  1.0 -0.0119221401
C  C400  1  0.55242000  0.14714000  0.19082000  1.0 -0.0119221401
C  C401  1  0.19082000  0.10962000  0.55242000  1.0 -0.0119221401
C  C402  1  0.14714000  0.55242000  0.10962000  1.0 -0.0119221401
C  C403  1  0.19082000  0.55242000  0.14714000  1.0 -0.0119221401
C  C404  1  0.55242000  0.19082000  0.10962000  1.0 -0.0119221401
C  C405  1  0.10962000  0.14714000  0.55242000  1.0 -0.0119221401
C  C406  1  0.35286000  0.30918000  0.39038000  1.0 -0.0119221401
C  C407  1  0.30918000  0.39038000  0.35286000  1.0 -0.0119221401
C  C408  1  0.39038000  0.35286000  0.30918000  1.0 -0.0119221401
C  C409  1  0.80918000  0.85286000  0.89038000  1.0 -0.0119221401
C  C410  1  0.89038000  0.80918000  0.85286000  1.0 -0.0119221401
C  C411  1  0.85286000  0.89038000  0.80918000  1.0 -0.0119221401
C  C412  1  0.69082000  0.64714000  0.05242000  1.0 -0.0119221401
C  C413  1  0.60962000  0.05242000  0.64714000  1.0 -0.0119221401
C  C414  1  0.05242000  0.60962000  0.69082000  1.0 -0.0119221401
C  C415  1  0.60962000  0.69082000  0.05242000  1.0 -0.0119221401
C  C416  1  0.05242000  0.64714000  0.60962000  1.0 -0.0119221401
C  C417  1  0.64714000  0.05242000  0.69082000  1.0 -0.0119221401
C  C418  1  0.64714000  0.60962000  0.05242000  1.0 -0.0119221401
C  C419  1  0.69082000  0.05242000  0.60962000  1.0 -0.0119221401
C  C420  1  0.05242000  0.69082000  0.64714000  1.0 -0.0119221401
C  C421  1  0.85286000  0.80918000  0.44758000  1.0 -0.0119221401
C  C422  1  0.89038000  0.44758000  0.80918000  1.0 -0.0119221401
C  C423  1  0.44758000  0.89038000  0.85286000  1.0 -0.0119221401
C  C424  1  0.44758000  0.85286000  0.80918000  1.0 -0.0119221401
C  C425  1  0.80918000  0.89038000  0.44758000  1.0 -0.0119221401
C  C426  1  0.85286000  0.44758000  0.89038000  1.0 -0.0119221401
C  C427  1  0.80918000  0.44758000  0.85286000  1.0 -0.0119221401
C  C428  1  0.44758000  0.80918000  0.89038000  1.0 -0.0119221401
C  C429  1  0.89038000  0.85286000  0.44758000  1.0 -0.0119221401
C  C430  1  0.64714000  0.69082000  0.60962000  1.0 -0.0119221401
C  C431  1  0.69082000  0.60962000  0.64714000  1.0 -0.0119221401
C  C432  1  0.60962000  0.64714000  0.69082000  1.0 -0.0119221401
C  C433  1  0.18779000  0.10743000  0.15155000  1.0 -0.0198049368
C  C434  1  0.15155000  0.18779000  0.10743000  1.0 -0.0198049368
C  C435  1  0.10743000  0.15155000  0.18779000  1.0 -0.0198049368
C  C436  1  0.31221000  0.39257000  0.94677000  1.0 -0.0198049368
C  C437  1  0.34845000  0.94677000  0.39257000  1.0 -0.0252912908
C  C438  1  0.94677000  0.34845000  0.31221000  1.0 -0.0198049368
C  C439  1  0.34845000  0.31221000  0.94677000  1.0 -0.0198049368
C  C440  1  0.94677000  0.39257000  0.34845000  1.0 -0.0198049368
C  C441  1  0.39257000  0.94677000  0.31221000  1.0 -0.0198049368
C  C442  1  0.39257000  0.34845000  0.94677000  1.0 -0.0198049368
C  C443  1  0.31221000  0.94677000  0.34845000  1.0 -0.0198049368
C  C444  1  0.94677000  0.31221000  0.39257000  1.0 -0.0198049368
C  C445  1  0.10743000  0.18779000  0.55323000  1.0 -0.0198049368
C  C446  1  0.15155000  0.55323000  0.18779000  1.0 -0.0252912908
C  C447  1  0.55323000  0.15155000  0.10743000  1.0 -0.0198049368
C  C448  1  0.55323000  0.10743000  0.18779000  1.0 -0.0198049368
C  C449  1  0.18779000  0.15155000  0.55323000  1.0 -0.0198049368
C  C450  1  0.10743000  0.55323000  0.15155000  1.0 -0.0198049368
C  C451  1  0.18779000  0.55323000  0.10743000  1.0 -0.0252912908
C  C452  1  0.55323000  0.18779000  0.15155000  1.0 -0.0198049368
C  C453  1  0.15155000  0.10743000  0.55323000  1.0 -0.0198049368
C  C454  1  0.39257000  0.31221000  0.34845000  1.0 -0.0198049368
C  C455  1  0.31221000  0.34845000  0.39257000  1.0 -0.0198049368
C  C456  1  0.34845000  0.39257000  0.31221000  1.0 -0.0198049368
C  C457  1  0.81221000  0.89257000  0.84845000  1.0 -0.0252912908
C  C458  1  0.84845000  0.81221000  0.89257000  1.0 -0.0198049368
C  C459  1  0.89257000  0.84845000  0.81221000  1.0 -0.0252912908
C  C460  1  0.68779000  0.60743000  0.05323000  1.0 -0.0198049368
C  C461  1  0.65155000  0.05323000  0.60743000  1.0 -0.0198049368
C  C462  1  0.05323000  0.65155000  0.68779000  1.0 -0.0252912908
C  C463  1  0.65155000  0.68779000  0.05323000  1.0 -0.0198049368
C  C464  1  0.05323000  0.60743000  0.65155000  1.0 -0.0198049368
C  C465  1  0.60743000  0.05323000  0.68779000  1.0 -0.0252912908
C  C466  1  0.60743000  0.65155000  0.05323000  1.0 -0.0198049368
C  C467  1  0.68779000  0.05323000  0.65155000  1.0 -0.0198049368
C  C468  1  0.05323000  0.68779000  0.60743000  1.0 -0.0198049368
C  C469  1  0.89257000  0.81221000  0.44677000  1.0 -0.0198049368
C  C470  1  0.84845000  0.44677000  0.81221000  1.0 -0.0198049368
C  C471  1  0.44677000  0.84845000  0.89257000  1.0 -0.0198049368
C  C472  1  0.44677000  0.89257000  0.81221000  1.0 -0.0198049368
C  C473  1  0.81221000  0.84845000  0.44677000  1.0 -0.0198049368
C  C474  1  0.89257000  0.44677000  0.84845000  1.0 -0.0198049368
C  C475  1  0.81221000  0.44677000  0.89257000  1.0 -0.0198049368
C  C476  1  0.44677000  0.81221000  0.84845000  1.0 -0.0252912908
C  C477  1  0.84845000  0.89257000  0.44677000  1.0 -0.0198049368
C  C478  1  0.60743000  0.68779000  0.65155000  1.0 -0.0198049368
C  C479  1  0.68779000  0.65155000  0.60743000  1.0 -0.0198049368
C  C480  1  0.65155000  0.60743000  0.68779000  1.0 -0.0252912908
C  C481  1  0.24190000  0.13762000  0.02810000  1.0 -0.1937514606
C  C482  1  0.02810000  0.24190000  0.13762000  1.0 -0.1937514606
C  C483  1  0.13762000  0.02810000  0.24190000  1.0 -0.1937514606
C  C484  1  0.25810000  0.36238000  0.90762000  1.0 -0.1937514606
C  C485  1  0.47190000  0.90762000  0.36238000  1.0 -0.1937514606
C  C486  1  0.90762000  0.47190000  0.25810000  1.0 -0.1937514606
C  C487  1  0.47190000  0.25810000  0.90762000  1.0 -0.1937514606
C  C488  1  0.90762000  0.36238000  0.47190000  1.0 -0.1937514606
C  C489  1  0.36238000  0.90762000  0.25810000  1.0 -0.1937514606
C  C490  1  0.36238000  0.47190000  0.90762000  1.0 -0.1937514606
C  C491  1  0.25810000  0.90762000  0.47190000  1.0 -0.1937514606
C  C492  1  0.90762000  0.25810000  0.36238000  1.0 -0.1937514606
C  C493  1  0.13762000  0.24190000  0.59238000  1.0 -0.1937514606
C  C494  1  0.02810000  0.59238000  0.24190000  1.0 -0.1937514606
C  C495  1  0.59238000  0.02810000  0.13762000  1.0 -0.1937514606
C  C496  1  0.59238000  0.13762000  0.24190000  1.0 -0.1937514606
C  C497  1  0.24190000  0.02810000  0.59238000  1.0 -0.1937514606
C  C498  1  0.13762000  0.59238000  0.02810000  1.0 -0.1937514606
C  C499  1  0.24190000  0.59238000  0.13762000  1.0 -0.1937514606
C  C500  1  0.59238000  0.24190000  0.02810000  1.0 -0.1937514606
C  C501  1  0.02810000  0.13762000  0.59238000  1.0 -0.1937514606
C  C502  1  0.36238000  0.25810000  0.47190000  1.0 -0.1937514606
C  C503  1  0.25810000  0.47190000  0.36238000  1.0 -0.1937514606
C  C504  1  0.47190000  0.36238000  0.25810000  1.0 -0.1937514606
C  C505  1  0.75810000  0.86238000  0.97190000  1.0 -0.1937514606
C  C506  1  0.97190000  0.75810000  0.86238000  1.0 -0.1937514606
C  C507  1  0.86238000  0.97190000  0.75810000  1.0 -0.1937514606
C  C508  1  0.74190000  0.63762000  0.09238000  1.0 -0.1937514606
C  C509  1  0.52810000  0.09238000  0.63762000  1.0 -0.1937514606
C  C510  1  0.09238000  0.52810000  0.74190000  1.0 -0.1937514606
C  C511  1  0.52810000  0.74190000  0.09238000  1.0 -0.1937514606
C  C512  1  0.09238000  0.63762000  0.52810000  1.0 -0.1937514606
C  C513  1  0.63762000  0.09238000  0.74190000  1.0 -0.1937514606
C  C514  1  0.63762000  0.52810000  0.09238000  1.0 -0.1937514606
C  C515  1  0.74190000  0.09238000  0.52810000  1.0 -0.1937514606
C  C516  1  0.09238000  0.74190000  0.63762000  1.0 -0.1937514606
C  C517  1  0.86238000  0.75810000  0.40762000  1.0 -0.1937514606
C  C518  1  0.97190000  0.40762000  0.75810000  1.0 -0.1937514606
C  C519  1  0.40762000  0.97190000  0.86238000  1.0 -0.1937514606
C  C520  1  0.40762000  0.86238000  0.75810000  1.0 -0.1937514606
C  C521  1  0.75810000  0.97190000  0.40762000  1.0 -0.1937514606
C  C522  1  0.86238000  0.40762000  0.97190000  1.0 -0.1937514606
C  C523  1  0.75810000  0.40762000  0.86238000  1.0 -0.1937514606
C  C524  1  0.40762000  0.75810000  0.97190000  1.0 -0.1937514606
C  C525  1  0.97190000  0.86238000  0.40762000  1.0 -0.1937514606
C  C526  1  0.63762000  0.74190000  0.52810000  1.0 -0.1937514606
C  C527  1  0.74190000  0.52810000  0.63762000  1.0 -0.1937514606
C  C528  1  0.52810000  0.63762000  0.74190000  1.0 -0.1937514606
C  C529  1  0.21796000  0.10524000  0.03738000  1.0 -0.3528953351
C  C530  1  0.03738000  0.21796000  0.10524000  1.0 -0.3528953351
C  C531  1  0.10524000  0.03738000  0.21796000  1.0 -0.3528953351
C  C532  1  0.28204000  0.39476000  0.86058000  1.0 -0.3528953351
C  C533  1  0.46262000  0.86058000  0.39476000  1.0 -0.3528953351
C  C534  1  0.86058000  0.46262000  0.28204000  1.0 -0.3528953351
C  C535  1  0.46262000  0.28204000  0.86058000  1.0 -0.3528953351
C  C536  1  0.86058000  0.39476000  0.46262000  1.0 -0.3528953351
C  C537  1  0.39476000  0.86058000  0.28204000  1.0 -0.3528953351
C  C538  1  0.39476000  0.46262000  0.86058000  1.0 -0.3528953351
C  C539  1  0.28204000  0.86058000  0.46262000  1.0 -0.3528953351
C  C540  1  0.86058000  0.28204000  0.39476000  1.0 -0.3528953351
C  C541  1  0.10524000  0.21796000  0.63942000  1.0 -0.3528953351
C  C542  1  0.03738000  0.63942000  0.21796000  1.0 -0.3528953351
C  C543  1  0.63942000  0.03738000  0.10524000  1.0 -0.3528953351
C  C544  1  0.63942000  0.10524000  0.21796000  1.0 -0.3528953351
C  C545  1  0.21796000  0.03738000  0.63942000  1.0 -0.3528953351
C  C546  1  0.10524000  0.63942000  0.03738000  1.0 -0.3528953351
C  C547  1  0.21796000  0.63942000  0.10524000  1.0 -0.3528953351
C  C548  1  0.63942000  0.21796000  0.03738000  1.0 -0.3528953351
C  C549  1  0.03738000  0.10524000  0.63942000  1.0 -0.3528953351
C  C550  1  0.39476000  0.28204000  0.46262000  1.0 -0.3528953351
C  C551  1  0.28204000  0.46262000  0.39476000  1.0 -0.3528953351
C  C552  1  0.46262000  0.39476000  0.28204000  1.0 -0.3528953351
C  C553  1  0.78204000  0.89476000  0.96262000  1.0 -0.3528953351
C  C554  1  0.96262000  0.78204000  0.89476000  1.0 -0.3528953351
C  C555  1  0.89476000  0.96262000  0.78204000  1.0 -0.3528953351
C  C556  1  0.71796000  0.60524000  0.13942000  1.0 -0.3528953351
C  C557  1  0.53738000  0.13942000  0.60524000  1.0 -0.3528953351
C  C558  1  0.13942000  0.53738000  0.71796000  1.0 -0.3528953351
C  C559  1  0.53738000  0.71796000  0.13942000  1.0 -0.3528953351
C  C560  1  0.13942000  0.60524000  0.53738000  1.0 -0.3528953351
C  C561  1  0.60524000  0.13942000  0.71796000  1.0 -0.3528953351
C  C562  1  0.60524000  0.53738000  0.13942000  1.0 -0.3528953351
C  C563  1  0.71796000  0.13942000  0.53738000  1.0 -0.3528953351
C  C564  1  0.13942000  0.71796000  0.60524000  1.0 -0.3528953351
C  C565  1  0.89476000  0.78204000  0.36058000  1.0 -0.3528953351
C  C566  1  0.96262000  0.36058000  0.78204000  1.0 -0.3528953351
C  C567  1  0.36058000  0.96262000  0.89476000  1.0 -0.3528953351
C  C568  1  0.36058000  0.89476000  0.78204000  1.0 -0.3528953351
C  C569  1  0.78204000  0.96262000  0.36058000  1.0 -0.3528953351
C  C570  1  0.89476000  0.36058000  0.96262000  1.0 -0.3528953351
C  C571  1  0.78204000  0.36058000  0.89476000  1.0 -0.3528953351
C  C572  1  0.36058000  0.78204000  0.96262000  1.0 -0.3528953351
C  C573  1  0.96262000  0.89476000  0.36058000  1.0 -0.3528953351
C  C574  1  0.60524000  0.71796000  0.53738000  1.0 -0.3528953351
C  C575  1  0.71796000  0.53738000  0.60524000  1.0 -0.3528953351
C  C576  1  0.53738000  0.60524000  0.71796000  1.0 -0.3528953351
C  C577  1  0.26492000  0.16996000  0.06306000  1.0 -0.1786397706
C  C578  1  0.06306000  0.26492000  0.16996000  1.0 -0.1786397706
C  C579  1  0.16996000  0.06306000  0.26492000  1.0 -0.1786397706
C  C580  1  0.23508000  0.33004000  0.99794000  1.0 -0.1786397706
C  C581  1  0.43694000  0.99794000  0.33004000  1.0 -0.1786397706
C  C582  1  0.99794000  0.43694000  0.23508000  1.0 -0.1786397706
C  C583  1  0.43694000  0.23508000  0.99794000  1.0 -0.1786397706
C  C584  1  0.99794000  0.33004000  0.43694000  1.0 -0.1786397706
C  C585  1  0.33004000  0.99794000  0.23508000  1.0 -0.1786397706
C  C586  1  0.33004000  0.43694000  0.99794000  1.0 -0.1786397706
C  C587  1  0.23508000  0.99794000  0.43694000  1.0 -0.1786397706
C  C588  1  0.99794000  0.23508000  0.33004000  1.0 -0.1786397706
C  C589  1  0.16996000  0.26492000  0.50206000  1.0 -0.1786397706
C  C590  1  0.06306000  0.50206000  0.26492000  1.0 -0.1786397706
C  C591  1  0.50206000  0.06306000  0.16996000  1.0 -0.1786397706
C  C592  1  0.50206000  0.16996000  0.26492000  1.0 -0.1786397706
C  C593  1  0.26492000  0.06306000  0.50206000  1.0 -0.1786397706
C  C594  1  0.16996000  0.50206000  0.06306000  1.0 -0.1786397706
C  C595  1  0.26492000  0.50206000  0.16996000  1.0 -0.1786397706
C  C596  1  0.50206000  0.26492000  0.06306000  1.0 -0.1786397706
C  C597  1  0.06306000  0.16996000  0.50206000  1.0 -0.1786397706
C  C598  1  0.33004000  0.23508000  0.43694000  1.0 -0.1786397706
C  C599  1  0.23508000  0.43694000  0.33004000  1.0 -0.1786397706
C  C600  1  0.43694000  0.33004000  0.23508000  1.0 -0.1786397706
C  C601  1  0.73508000  0.83004000  0.93694000  1.0 -0.1786397706
C  C602  1  0.93694000  0.73508000  0.83004000  1.0 -0.1786397706
C  C603  1  0.83004000  0.93694000  0.73508000  1.0 -0.1786397706
C  C604  1  0.76492000  0.66996000  0.00206000  1.0 -0.1786397706
C  C605  1  0.56306000  0.00206000  0.66996000  1.0 -0.1786397706
C  C606  1  0.00206000  0.56306000  0.76492000  1.0 -0.1786397706
C  C607  1  0.56306000  0.76492000  0.00206000  1.0 -0.1786397706
C  C608  1  0.00206000  0.66996000  0.56306000  1.0 -0.1786397706
C  C609  1  0.66996000  0.00206000  0.76492000  1.0 -0.1786397706
C  C610  1  0.66996000  0.56306000  0.00206000  1.0 -0.1786397706
C  C611  1  0.76492000  0.00206000  0.56306000  1.0 -0.1786397706
C  C612  1  0.00206000  0.76492000  0.66996000  1.0 -0.1786397706
C  C613  1  0.83004000  0.73508000  0.49794000  1.0 -0.1786397706
C  C614  1  0.93694000  0.49794000  0.73508000  1.0 -0.1786397706
C  C615  1  0.49794000  0.93694000  0.83004000  1.0 -0.1786397706
C  C616  1  0.49794000  0.83004000  0.73508000  1.0 -0.1786397706
C  C617  1  0.73508000  0.93694000  0.49794000  1.0 -0.1786397706
C  C618  1  0.83004000  0.49794000  0.93694000  1.0 -0.1786397706
C  C619  1  0.73508000  0.49794000  0.83004000  1.0 -0.1786397706
C  C620  1  0.49794000  0.73508000  0.93694000  1.0 -0.1786397706
C  C621  1  0.93694000  0.83004000  0.49794000  1.0 -0.1786397706
C  C622  1  0.66996000  0.76492000  0.56306000  1.0 -0.1786397706
C  C623  1  0.76492000  0.56306000  0.66996000  1.0 -0.1786397706
C  C624  1  0.56306000  0.66996000  0.76492000  1.0 -0.1786397706
C  C625  1  0.26422000  0.17144000  0.10598000  1.0 -0.3765972897
C  C626  1  0.10598000  0.26422000  0.17144000  1.0 -0.3765972897
C  C627  1  0.17144000  0.10598000  0.26422000  1.0 -0.3765972897
C  C628  1  0.23578000  0.32856000  0.04164000  1.0 -0.3765972897
C  C629  1  0.39402000  0.04164000  0.32856000  1.0 -0.3765972897
C  C630  1  0.04164000  0.39402000  0.23578000  1.0 -0.3765972897
C  C631  1  0.39402000  0.23578000  0.04164000  1.0 -0.3765972897
C  C632  1  0.04164000  0.32856000  0.39402000  1.0 -0.3765972897
C  C633  1  0.32856000  0.04164000  0.23578000  1.0 -0.3765972897
C  C634  1  0.32856000  0.39402000  0.04164000  1.0 -0.3765972897
C  C635  1  0.23578000  0.04164000  0.39402000  1.0 -0.3765972897
C  C636  1  0.04164000  0.23578000  0.32856000  1.0 -0.3765972897
C  C637  1  0.17144000  0.26422000  0.45836000  1.0 -0.3765972897
C  C638  1  0.10598000  0.45836000  0.26422000  1.0 -0.3765972897
C  C639  1  0.45836000  0.10598000  0.17144000  1.0 -0.3765972897
C  C640  1  0.45836000  0.17144000  0.26422000  1.0 -0.3765972897
C  C641  1  0.26422000  0.10598000  0.45836000  1.0 -0.3765972897
C  C642  1  0.17144000  0.45836000  0.10598000  1.0 -0.3765972897
C  C643  1  0.26422000  0.45836000  0.17144000  1.0 -0.3765972897
C  C644  1  0.45836000  0.26422000  0.10598000  1.0 -0.3765972897
C  C645  1  0.10598000  0.17144000  0.45836000  1.0 -0.3765972897
C  C646  1  0.32856000  0.23578000  0.39402000  1.0 -0.3765972897
C  C647  1  0.23578000  0.39402000  0.32856000  1.0 -0.3765972897
C  C648  1  0.39402000  0.32856000  0.23578000  1.0 -0.3765972897
C  C649  1  0.73578000  0.82856000  0.89402000  1.0 -0.3765972897
C  C650  1  0.89402000  0.73578000  0.82856000  1.0 -0.3765972897
C  C651  1  0.82856000  0.89402000  0.73578000  1.0 -0.3765972897
C  C652  1  0.76422000  0.67144000  0.95836000  1.0 -0.3765972897
C  C653  1  0.60598000  0.95836000  0.67144000  1.0 -0.3765972897
C  C654  1  0.95836000  0.60598000  0.76422000  1.0 -0.3765972897
C  C655  1  0.60598000  0.76422000  0.95836000  1.0 -0.3765972897
C  C656  1  0.95836000  0.67144000  0.60598000  1.0 -0.3765972897
C  C657  1  0.67144000  0.95836000  0.76422000  1.0 -0.3765972897
C  C658  1  0.67144000  0.60598000  0.95836000  1.0 -0.3765972897
C  C659  1  0.76422000  0.95836000  0.60598000  1.0 -0.3765972897
C  C660  1  0.95836000  0.76422000  0.67144000  1.0 -0.3765972897
C  C661  1  0.82856000  0.73578000  0.54164000  1.0 -0.3765972897
C  C662  1  0.89402000  0.54164000  0.73578000  1.0 -0.3765972897
C  C663  1  0.54164000  0.89402000  0.82856000  1.0 -0.3765972897
C  C664  1  0.54164000  0.82856000  0.73578000  1.0 -0.3765972897
C  C665  1  0.73578000  0.89402000  0.54164000  1.0 -0.3765972897
C  C666  1  0.82856000  0.54164000  0.89402000  1.0 -0.3765972897
C  C667  1  0.73578000  0.54164000  0.82856000  1.0 -0.3765972897
C  C668  1  0.54164000  0.73578000  0.89402000  1.0 -0.3765972897
C  C669  1  0.89402000  0.82856000  0.54164000  1.0 -0.3765972897
C  C670  1  0.67144000  0.76422000  0.60598000  1.0 -0.3765972897
C  C671  1  0.76422000  0.60598000  0.67144000  1.0 -0.3765972897
C  C672  1  0.60598000  0.67144000  0.76422000  1.0 -0.3765972897
C  C673  1  0.51990000  0.86130000  0.13870000  1.0 -0.2795435893
C  C674  1  0.13870000  0.51990000  0.86130000  1.0 -0.2795435893
C  C675  1  0.86130000  0.13870000  0.51990000  1.0 -0.2795435893
C  C676  1  0.98010000  0.63870000  0.01990000  1.0 -0.2795435893
C  C677  1  0.36130000  0.01990000  0.63870000  1.0 -0.2795435893
C  C678  1  0.01990000  0.36130000  0.98010000  1.0 -0.2795435893
C  C679  1  0.36130000  0.98010000  0.01990000  1.0 -0.2795435893
C  C680  1  0.01990000  0.63870000  0.36130000  1.0 -0.2795435893
C  C681  1  0.63870000  0.01990000  0.98010000  1.0 -0.2795435893
C  C682  1  0.63870000  0.36130000  0.01990000  1.0 -0.2795435893
C  C683  1  0.98010000  0.01990000  0.36130000  1.0 -0.2795435893
C  C684  1  0.01990000  0.98010000  0.63870000  1.0 -0.2795435893
C  C685  1  0.86130000  0.51990000  0.48010000  1.0 -0.2795435893
C  C686  1  0.13870000  0.48010000  0.51990000  1.0 -0.2795435893
C  C687  1  0.48010000  0.13870000  0.86130000  1.0 -0.2795435893
C  C688  1  0.48010000  0.86130000  0.51990000  1.0 -0.2795435893
C  C689  1  0.51990000  0.13870000  0.48010000  1.0 -0.2795435893
C  C690  1  0.86130000  0.48010000  0.13870000  1.0 -0.2795435893
C  C691  1  0.51990000  0.48010000  0.86130000  1.0 -0.2795435893
C  C692  1  0.48010000  0.51990000  0.13870000  1.0 -0.2795435893
C  C693  1  0.13870000  0.86130000  0.48010000  1.0 -0.2795435893
C  C694  1  0.63870000  0.98010000  0.36130000  1.0 -0.2795435893
C  C695  1  0.98010000  0.36130000  0.63870000  1.0 -0.2795435893
C  C696  1  0.36130000  0.63870000  0.98010000  1.0 -0.2795435893
C  C697  1  0.49900000  0.83700000  0.16300000  1.0 0.2502555132
C  C698  1  0.16300000  0.49900000  0.83700000  1.0 0.2502555132
C  C699  1  0.83700000  0.16300000  0.49900000  1.0 0.2502555132
C  C700  1  0.00100000  0.66300000  0.99900000  1.0 0.2502555132
C  C701  1  0.33700000  0.99900000  0.66300000  1.0 0.2502555132
C  C702  1  0.99900000  0.33700000  0.00100000  1.0 0.2502555132
C  C703  1  0.33700000  0.00100000  0.99900000  1.0 0.2502555132
C  C704  1  0.99900000  0.66300000  0.33700000  1.0 0.2502555132
C  C705  1  0.66300000  0.99900000  0.00100000  1.0 0.2502555132
C  C706  1  0.66300000  0.33700000  0.99900000  1.0 0.2502555132
C  C707  1  0.00100000  0.99900000  0.33700000  1.0 0.2502555132
C  C708  1  0.99900000  0.00100000  0.66300000  1.0 0.2502555132
C  C709  1  0.83700000  0.49900000  0.50100000  1.0 0.2502555132
C  C710  1  0.16300000  0.50100000  0.49900000  1.0 0.2502555132
C  C711  1  0.50100000  0.16300000  0.83700000  1.0 0.2502555132
C  C712  1  0.50100000  0.83700000  0.49900000  1.0 0.2502555132
C  C713  1  0.49900000  0.16300000  0.50100000  1.0 0.2502555132
C  C714  1  0.83700000  0.50100000  0.16300000  1.0 0.2502555132
C  C715  1  0.49900000  0.50100000  0.83700000  1.0 0.2502555132
C  C716  1  0.50100000  0.49900000  0.16300000  1.0 0.2502555132
C  C717  1  0.16300000  0.83700000  0.50100000  1.0 0.2502555132
C  C718  1  0.66300000  0.00100000  0.33700000  1.0 0.2502555132
C  C719  1  0.00100000  0.33700000  0.66300000  1.0 0.2502555132
C  C720  1  0.33700000  0.66300000  0.00100000  1.0 0.2502555132
O  O1  1  0.40580000  0.00670000  0.05306000  1.0 -0.7112810408
O  O2  1  0.05306000  0.40580000  0.00670000  1.0 -0.7112810408
O  O3  1  0.00670000  0.05306000  0.40580000  1.0 -0.7112810408
O  O4  1  0.09420000  0.49330000  0.96556000  1.0 -0.7112810408
O  O5  1  0.44694000  0.96556000  0.49330000  1.0 -0.7112810408
O  O6  1  0.96556000  0.44694000  0.09420000  1.0 -0.7112810408
O  O7  1  0.44694000  0.09420000  0.96556000  1.0 -0.7112810408
O  O8  1  0.96556000  0.49330000  0.44694000  1.0 -0.7112810408
O  O9  1  0.49330000  0.96556000  0.09420000  1.0 -0.7112810408
O  O10  1  0.49330000  0.44694000  0.96556000  1.0 -0.7112810408
O  O11  1  0.09420000  0.96556000  0.44694000  1.0 -0.7112810408
O  O12  1  0.96556000  0.09420000  0.49330000  1.0 -0.7112810408
O  O13  1  0.00670000  0.40580000  0.53444000  1.0 -0.7112810408
O  O14  1  0.05306000  0.53444000  0.40580000  1.0 -0.7112810408
O  O15  1  0.53444000  0.05306000  0.00670000  1.0 -0.7112810408
O  O16  1  0.53444000  0.00670000  0.40580000  1.0 -0.7112810408
O  O17  1  0.40580000  0.05306000  0.53444000  1.0 -0.7112810408
O  O18  1  0.00670000  0.53444000  0.05306000  1.0 -0.7112810408
O  O19  1  0.40580000  0.53444000  0.00670000  1.0 -0.7112810408
O  O20  1  0.53444000  0.40580000  0.05306000  1.0 -0.7112810408
O  O21  1  0.05306000  0.00670000  0.53444000  1.0 -0.7112810408
O  O22  1  0.49330000  0.09420000  0.44694000  1.0 -0.7112810408
O  O23  1  0.09420000  0.44694000  0.49330000  1.0 -0.7112810408
O  O24  1  0.44694000  0.49330000  0.09420000  1.0 -0.7112810408
O  O25  1  0.59420000  0.99330000  0.94694000  1.0 -0.7112810408
O  O26  1  0.94694000  0.59420000  0.99330000  1.0 -0.7112810408
O  O27  1  0.99330000  0.94694000  0.59420000  1.0 -0.7112810408
O  O28  1  0.90580000  0.50670000  0.03444000  1.0 -0.7112810408
O  O29  1  0.55306000  0.03444000  0.50670000  1.0 -0.7112810408
O  O30  1  0.03444000  0.55306000  0.90580000  1.0 -0.7112810408
O  O31  1  0.55306000  0.90580000  0.03444000  1.0 -0.7112810408
O  O32  1  0.03444000  0.50670000  0.55306000  1.0 -0.7112810408
O  O33  1  0.50670000  0.03444000  0.90580000  1.0 -0.7112810408
O  O34  1  0.50670000  0.55306000  0.03444000  1.0 -0.7112810408
O  O35  1  0.90580000  0.03444000  0.55306000  1.0 -0.7112810408
O  O36  1  0.03444000  0.90580000  0.50670000  1.0 -0.7112810408
O  O37  1  0.99330000  0.59420000  0.46556000  1.0 -0.7112810408
O  O38  1  0.94694000  0.46556000  0.59420000  1.0 -0.7112810408
O  O39  1  0.46556000  0.94694000  0.99330000  1.0 -0.7112810408
O  O40  1  0.46556000  0.99330000  0.59420000  1.0 -0.7112810408
O  O41  1  0.59420000  0.94694000  0.46556000  1.0 -0.7112810408
O  O42  1  0.99330000  0.46556000  0.94694000  1.0 -0.7112810408
O  O43  1  0.59420000  0.46556000  0.99330000  1.0 -0.7112810408
O  O44  1  0.46556000  0.59420000  0.94694000  1.0 -0.7112810408
O  O45  1  0.94694000  0.99330000  0.46556000  1.0 -0.7112810408
O  O46  1  0.50670000  0.90580000  0.55306000  1.0 -0.7112810408
O  O47  1  0.90580000  0.55306000  0.50670000  1.0 -0.7112810408
O  O48  1  0.55306000  0.50670000  0.90580000  1.0 -0.7112810408
O  O49  1  0.39674000  0.94852000  0.11916000  1.0 -0.5354377709
O  O50  1  0.11916000  0.39674000  0.94852000  1.0 -0.5354377709
O  O51  1  0.94852000  0.11916000  0.39674000  1.0 -0.5354377709
O  O52  1  0.10326000  0.55148000  0.96442000  1.0 -0.5349664174
O  O53  1  0.38084000  0.96442000  0.55148000  1.0 -0.5354377709
O  O54  1  0.96442000  0.38084000  0.10326000  1.0 -0.5354377709
O  O55  1  0.38084000  0.10326000  0.96442000  1.0 -0.5354377709
O  O56  1  0.96442000  0.55148000  0.38084000  1.0 -0.5354377709
O  O57  1  0.55148000  0.96442000  0.10326000  1.0 -0.5354377709
O  O58  1  0.55148000  0.38084000  0.96442000  1.0 -0.5354377709
O  O59  1  0.10326000  0.96442000  0.38084000  1.0 -0.5349664174
O  O60  1  0.96442000  0.10326000  0.55148000  1.0 -0.5354377709
O  O61  1  0.94852000  0.39674000  0.53558000  1.0 -0.5354377709
O  O62  1  0.11916000  0.53558000  0.39674000  1.0 -0.5354377709
O  O63  1  0.53558000  0.11916000  0.94852000  1.0 -0.5349664174
O  O64  1  0.53558000  0.94852000  0.39674000  1.0 -0.5354377709
O  O65  1  0.39674000  0.11916000  0.53558000  1.0 -0.5354377709
O  O66  1  0.94852000  0.53558000  0.11916000  1.0 -0.5354377709
O  O67  1  0.39674000  0.53558000  0.94852000  1.0 -0.5354377709
O  O68  1  0.53558000  0.39674000  0.11916000  1.0 -0.5354377709
O  O69  1  0.11916000  0.94852000  0.53558000  1.0 -0.5354377709
O  O70  1  0.55148000  0.10326000  0.38084000  1.0 -0.5349664174
O  O71  1  0.10326000  0.38084000  0.55148000  1.0 -0.5349664174
O  O72  1  0.38084000  0.55148000  0.10326000  1.0 -0.5354377709
O  O73  1  0.60326000  0.05148000  0.88084000  1.0 -0.5354377709
O  O74  1  0.88084000  0.60326000  0.05148000  1.0 -0.5354377709
O  O75  1  0.05148000  0.88084000  0.60326000  1.0 -0.5354377709
O  O76  1  0.89674000  0.44852000  0.03558000  1.0 -0.5354377709
O  O77  1  0.61916000  0.03558000  0.44852000  1.0 -0.5349664174
O  O78  1  0.03558000  0.61916000  0.89674000  1.0 -0.5349664174
O  O79  1  0.61916000  0.89674000  0.03558000  1.0 -0.5354377709
O  O80  1  0.03558000  0.44852000  0.61916000  1.0 -0.5349664174
O  O81  1  0.44852000  0.03558000  0.89674000  1.0 -0.5349664174
O  O82  1  0.44852000  0.61916000  0.03558000  1.0 -0.5354377709
O  O83  1  0.89674000  0.03558000  0.61916000  1.0 -0.5354377709
O  O84  1  0.03558000  0.89674000  0.44852000  1.0 -0.5354377709
O  O85  1  0.05148000  0.60326000  0.46442000  1.0 -0.5349664174
O  O86  1  0.88084000  0.46442000  0.60326000  1.0 -0.5354377709
O  O87  1  0.46442000  0.88084000  0.05148000  1.0 -0.5354377709
O  O88  1  0.46442000  0.05148000  0.60326000  1.0 -0.5349664174
O  O89  1  0.60326000  0.88084000  0.46442000  1.0 -0.5354377709
O  O90  1  0.05148000  0.46442000  0.88084000  1.0 -0.5354377709
O  O91  1  0.60326000  0.46442000  0.05148000  1.0 -0.5349664174
O  O92  1  0.46442000  0.60326000  0.88084000  1.0 -0.5349664174
O  O93  1  0.88084000  0.05148000  0.46442000  1.0 -0.5349664174
O  O94  1  0.44852000  0.89674000  0.61916000  1.0 -0.5354377709
O  O95  1  0.89674000  0.61916000  0.44852000  1.0 -0.5354377709
O  O96  1  0.61916000  0.44852000  0.89674000  1.0 -0.5354377709
O  O97  1  0.50000000  0.00000000  0.00000000  1.0 -1.0708978854
O  O98  1  0.00000000  0.50000000  0.00000000  1.0 -1.0756747208
O  O99  1  0.00000000  0.00000000  0.50000000  1.0 -1.0708978854
O  O100  1  0.50000000  0.00000000  0.50000000  1.0 -1.0708978854
O  O101  1  0.00000000  0.50000000  0.50000000  1.0 -1.0708978854
O  O102  1  0.50000000  0.50000000  0.00000000  1.0 -1.0756747208
O  O103  1  0.48100000  0.87100000  0.12900000  1.0 -0.1074578809
O  O104  1  0.12900000  0.48100000  0.87100000  1.0 -0.1074578809
O  O105  1  0.87100000  0.12900000  0.48100000  1.0 -0.1074578809
O  O106  1  0.01900000  0.62900000  0.98100000  1.0 -0.1074578809
O  O107  1  0.37100000  0.98100000  0.62900000  1.0 -0.1074578809
O  O108  1  0.98100000  0.37100000  0.01900000  1.0 -0.1074578809
O  O109  1  0.37100000  0.01900000  0.98100000  1.0 -0.1074578809
O  O110  1  0.98100000  0.62900000  0.37100000  1.0 -0.1074578809
O  O111  1  0.62900000  0.98100000  0.01900000  1.0 -0.1074578809
O  O112  1  0.62900000  0.37100000  0.98100000  1.0 -0.1074578809
O  O113  1  0.01900000  0.98100000  0.37100000  1.0 -0.1074578809
O  O114  1  0.98100000  0.01900000  0.62900000  1.0 -0.1074578809
O  O115  1  0.87100000  0.48100000  0.51900000  1.0 -0.1074578809
O  O116  1  0.12900000  0.51900000  0.48100000  1.0 -0.1074578809
O  O117  1  0.51900000  0.12900000  0.87100000  1.0 -0.1074578809
O  O118  1  0.51900000  0.87100000  0.48100000  1.0 -0.1074578809
O  O119  1  0.48100000  0.12900000  0.51900000  1.0 -0.1074578809
O  O120  1  0.87100000  0.51900000  0.12900000  1.0 -0.1074578809
O  O121  1  0.48100000  0.51900000  0.87100000  1.0 -0.1074578809
O  O122  1  0.51900000  0.48100000  0.12900000  1.0 -0.1074578809
O  O123  1  0.12900000  0.87100000  0.51900000  1.0 -0.1074578809
O  O124  1  0.62900000  0.01900000  0.37100000  1.0 -0.1074578809
O  O125  1  0.01900000  0.37100000  0.62900000  1.0 -0.1074578809
O  O126  1  0.37100000  0.62900000  0.01900000  1.0 -0.1074578809
O  O127  1  0.46520000  0.84660000  0.15340000  1.0 -0.1041053278
O  O128  1  0.15340000  0.46520000  0.84660000  1.0 -0.1074578809
O  O129  1  0.84660000  0.15340000  0.46520000  1.0 -0.1041053278
O  O130  1  0.03480000  0.65340000  0.96520000  1.0 -0.1041053278
O  O131  1  0.34660000  0.96520000  0.65340000  1.0 -0.1074578809
O  O132  1  0.96520000  0.34660000  0.03480000  1.0 -0.1074578809
O  O133  1  0.34660000  0.03480000  0.96520000  1.0 -0.1041053278
O  O134  1  0.96520000  0.65340000  0.34660000  1.0 -0.1074578809
O  O135  1  0.65340000  0.96520000  0.03480000  1.0 -0.1041053278
O  O136  1  0.65340000  0.34660000  0.96520000  1.0 -0.1041053278
O  O137  1  0.03480000  0.96520000  0.34660000  1.0 -0.1074578809
O  O138  1  0.96520000  0.03480000  0.65340000  1.0 -0.1041053278
O  O139  1  0.84660000  0.46520000  0.53480000  1.0 -0.1041053278
O  O140  1  0.15340000  0.53480000  0.46520000  1.0 -0.1041053278
O  O141  1  0.53480000  0.15340000  0.84660000  1.0 -0.1041053278
O  O142  1  0.53480000  0.84660000  0.46520000  1.0 -0.1041053278
O  O143  1  0.46520000  0.15340000  0.53480000  1.0 -0.1041053278
O  O144  1  0.84660000  0.53480000  0.15340000  1.0 -0.1041053278
O  O145  1  0.46520000  0.53480000  0.84660000  1.0 -0.1041053278
O  O146  1  0.53480000  0.46520000  0.15340000  1.0 -0.1041053278
O  O147  1  0.15340000  0.84660000  0.53480000  1.0 -0.1041053278
O  O148  1  0.65340000  0.03480000  0.34660000  1.0 -0.1041053278
O  O149  1  0.03480000  0.34660000  0.65340000  1.0 -0.1041053278
O  O150  1  0.34660000  0.65340000  0.03480000  1.0 -0.1041053278
