# DDEC6 charges by PACMAN v1.1 (https://github.com/mtap-research/PACMAN-charge/)
data_BOXFAW_ASR_pacman
_symmetry_space_group_name_H-M   'P 1'
_cell_length_a   34.31380000
_cell_length_b   34.31380000
_cell_length_c   34.31380000
_cell_angle_alpha   60.00000000
_cell_angle_beta   60.00000000
_cell_angle_gamma   60.00000000
_symmetry_Int_Tables_number   1
_chemical_formula_structural   Cd4H104C112O17
_chemical_formula_sum   'Cd24 H624 C672 O102'
_cell_volume   28568.76384151
_cell_formula_units_Z   6
loop_
 _symmetry_equiv_pos_site_id
 _symmetry_equiv_pos_as_xyz
  1  'x, y, z'
loop_
 _atom_site_type_symbol
 _atom_site_label
 _atom_site_symmetry_multiplicity
 _atom_site_fract_x
 _atom_site_fract_y
 _atom_site_fract_z
 _atom_site_occupancy
 _atom_site_charge
Cd  Cd1  1  0.42661000  0.02315000  0.97685000  1.0 1.0007466538
Cd  Cd2  1  0.97685000  0.42661000  0.02315000  1.0 1.0007466538
Cd  Cd3  1  0.02315000  0.97685000  0.42661000  1.0 1.0007466538
Cd  Cd4  1  0.07339000  0.47685000  0.92661000  1.0 1.0007466538
Cd  Cd5  1  0.52315000  0.92661000  0.47685000  1.0 1.0007466538
Cd  Cd6  1  0.92661000  0.52315000  0.07339000  1.0 1.0007466538
Cd  Cd7  1  0.52315000  0.07339000  0.92661000  1.0 1.0007466538
Cd  Cd8  1  0.92661000  0.47685000  0.52315000  1.0 1.0007466538
Cd  Cd9  1  0.47685000  0.92661000  0.07339000  1.0 1.0007466538
Cd  Cd10  1  0.47685000  0.52315000  0.92661000  1.0 1.0007466538
Cd  Cd11  1  0.07339000  0.92661000  0.52315000  1.0 1.0007466538
Cd  Cd12  1  0.92661000  0.07339000  0.47685000  1.0 1.0007466538
Cd  Cd13  1  0.02315000  0.42661000  0.57339000  1.0 1.0007466538
Cd  Cd14  1  0.97685000  0.57339000  0.42661000  1.0 1.0007466538
Cd  Cd15  1  0.57339000  0.97685000  0.02315000  1.0 1.0007466538
Cd  Cd16  1  0.57339000  0.02315000  0.42661000  1.0 1.0007466538
Cd  Cd17  1  0.42661000  0.97685000  0.57339000  1.0 1.0007466538
Cd  Cd18  1  0.02315000  0.57339000  0.97685000  1.0 1.0007466538
Cd  Cd19  1  0.42661000  0.57339000  0.02315000  1.0 1.0007466538
Cd  Cd20  1  0.57339000  0.42661000  0.97685000  1.0 1.0007466538
Cd  Cd21  1  0.97685000  0.02315000  0.57339000  1.0 1.0007466538
Cd  Cd22  1  0.47685000  0.07339000  0.52315000  1.0 1.0007466538
Cd  Cd23  1  0.07339000  0.52315000  0.47685000  1.0 1.0007466538
Cd  Cd24  1  0.52315000  0.47685000  0.07339000  1.0 1.0007466538
H  H1  1  0.57280000  0.03980000  0.83420000  1.0 0.12904454
H  H2  1  0.83420000  0.57280000  0.03980000  1.0 0.12904454
H  H3  1  0.03980000  0.83420000  0.57280000  1.0 0.12904454
H  H4  1  0.92720000  0.46020000  0.94680000  1.0 0.12904454
H  H5  1  0.66580000  0.94680000  0.46020000  1.0 0.12904454
H  H6  1  0.94680000  0.66580000  0.92720000  1.0 0.12904454
H  H7  1  0.66580000  0.92720000  0.94680000  1.0 0.12904454
H  H8  1  0.94680000  0.46020000  0.66580000  1.0 0.12904454
H  H9  1  0.46020000  0.94680000  0.92720000  1.0 0.12904454
H  H10  1  0.46020000  0.66580000  0.94680000  1.0 0.12904454
H  H11  1  0.92720000  0.94680000  0.66580000  1.0 0.12904454
H  H12  1  0.94680000  0.92720000  0.46020000  1.0 0.12904454
H  H13  1  0.03980000  0.57280000  0.55320000  1.0 0.12904454
H  H14  1  0.83420000  0.55320000  0.57280000  1.0 0.12904454
H  H15  1  0.55320000  0.83420000  0.03980000  1.0 0.12904454
H  H16  1  0.55320000  0.03980000  0.57280000  1.0 0.12904454
H  H17  1  0.57280000  0.83420000  0.55320000  1.0 0.12904454
H  H18  1  0.03980000  0.55320000  0.83420000  1.0 0.12904454
H  H19  1  0.57280000  0.55320000  0.03980000  1.0 0.12904454
H  H20  1  0.55320000  0.57280000  0.83420000  1.0 0.12904454
H  H21  1  0.83420000  0.03980000  0.55320000  1.0 0.12904454
H  H22  1  0.46020000  0.92720000  0.66580000  1.0 0.12904454
H  H23  1  0.92720000  0.66580000  0.46020000  1.0 0.12904454
H  H24  1  0.66580000  0.46020000  0.92720000  1.0 0.12904454
H  H25  1  0.42720000  0.96020000  0.16580000  1.0 0.12904454
H  H26  1  0.16580000  0.42720000  0.96020000  1.0 0.12904454
H  H27  1  0.96020000  0.16580000  0.42720000  1.0 0.12904454
H  H28  1  0.07280000  0.53980000  0.05320000  1.0 0.12904454
H  H29  1  0.33420000  0.05320000  0.53980000  1.0 0.12904454
H  H30  1  0.05320000  0.33420000  0.07280000  1.0 0.12904454
H  H31  1  0.33420000  0.07280000  0.05320000  1.0 0.12904454
H  H32  1  0.05320000  0.53980000  0.33420000  1.0 0.12904454
H  H33  1  0.53980000  0.05320000  0.07280000  1.0 0.12904454
H  H34  1  0.53980000  0.33420000  0.05320000  1.0 0.12904454
H  H35  1  0.07280000  0.05320000  0.33420000  1.0 0.12904454
H  H36  1  0.05320000  0.07280000  0.53980000  1.0 0.12904454
H  H37  1  0.96020000  0.42720000  0.44680000  1.0 0.12904454
H  H38  1  0.16580000  0.44680000  0.42720000  1.0 0.12904454
H  H39  1  0.44680000  0.16580000  0.96020000  1.0 0.12904454
H  H40  1  0.44680000  0.96020000  0.42720000  1.0 0.12904454
H  H41  1  0.42720000  0.16580000  0.44680000  1.0 0.12904454
H  H42  1  0.96020000  0.44680000  0.16580000  1.0 0.12904454
H  H43  1  0.42720000  0.44680000  0.96020000  1.0 0.12904454
H  H44  1  0.44680000  0.42720000  0.16580000  1.0 0.12904454
H  H45  1  0.16580000  0.96020000  0.44680000  1.0 0.12904454
H  H46  1  0.53980000  0.07280000  0.33420000  1.0 0.12904454
H  H47  1  0.07280000  0.33420000  0.53980000  1.0 0.12904454
H  H48  1  0.33420000  0.53980000  0.07280000  1.0 0.12904454
H  H49  1  0.50610000  0.06110000  0.73150000  1.0 0.1103747188
H  H50  1  0.73150000  0.50610000  0.06110000  1.0 0.1103747188
H  H51  1  0.06110000  0.73150000  0.50610000  1.0 0.1103747188
H  H52  1  0.99390000  0.43890000  0.79870000  1.0 0.1103747188
H  H53  1  0.76850000  0.79870000  0.43890000  1.0 0.1103747188
H  H54  1  0.79870000  0.76850000  0.99390000  1.0 0.1103747188
H  H55  1  0.76850000  0.99390000  0.79870000  1.0 0.1103747188
H  H56  1  0.79870000  0.43890000  0.76850000  1.0 0.1103747188
H  H57  1  0.43890000  0.79870000  0.99390000  1.0 0.1103747188
H  H58  1  0.43890000  0.76850000  0.79870000  1.0 0.1103747188
H  H59  1  0.99390000  0.79870000  0.76850000  1.0 0.1103747188
H  H60  1  0.79870000  0.99390000  0.43890000  1.0 0.1103747188
H  H61  1  0.06110000  0.50610000  0.70130000  1.0 0.1103747188
H  H62  1  0.73150000  0.70130000  0.50610000  1.0 0.1103747188
H  H63  1  0.70130000  0.73150000  0.06110000  1.0 0.1103747188
H  H64  1  0.70130000  0.06110000  0.50610000  1.0 0.1103747188
H  H65  1  0.50610000  0.73150000  0.70130000  1.0 0.1103747188
H  H66  1  0.06110000  0.70130000  0.73150000  1.0 0.1103747188
H  H67  1  0.50610000  0.70130000  0.06110000  1.0 0.1103747188
H  H68  1  0.70130000  0.50610000  0.73150000  1.0 0.1103747188
H  H69  1  0.73150000  0.06110000  0.70130000  1.0 0.1103747188
H  H70  1  0.43890000  0.99390000  0.76850000  1.0 0.1103747188
H  H71  1  0.99390000  0.76850000  0.43890000  1.0 0.1103747188
H  H72  1  0.76850000  0.43890000  0.99390000  1.0 0.1103747188
H  H73  1  0.49390000  0.93890000  0.26850000  1.0 0.1103747188
H  H74  1  0.26850000  0.49390000  0.93890000  1.0 0.1103747188
H  H75  1  0.93890000  0.26850000  0.49390000  1.0 0.1103747188
H  H76  1  0.00610000  0.56110000  0.20130000  1.0 0.1103747188
H  H77  1  0.23150000  0.20130000  0.56110000  1.0 0.1103747188
H  H78  1  0.20130000  0.23150000  0.00610000  1.0 0.1103747188
H  H79  1  0.23150000  0.00610000  0.20130000  1.0 0.1103747188
H  H80  1  0.20130000  0.56110000  0.23150000  1.0 0.1103747188
H  H81  1  0.56110000  0.20130000  0.00610000  1.0 0.1103747188
H  H82  1  0.56110000  0.23150000  0.20130000  1.0 0.1103747188
H  H83  1  0.00610000  0.20130000  0.23150000  1.0 0.1103747188
H  H84  1  0.20130000  0.00610000  0.56110000  1.0 0.1103747188
H  H85  1  0.93890000  0.49390000  0.29870000  1.0 0.1103747188
H  H86  1  0.26850000  0.29870000  0.49390000  1.0 0.1103747188
H  H87  1  0.29870000  0.26850000  0.93890000  1.0 0.1103747188
H  H88  1  0.29870000  0.93890000  0.49390000  1.0 0.1103747188
H  H89  1  0.49390000  0.26850000  0.29870000  1.0 0.1103747188
H  H90  1  0.93890000  0.29870000  0.26850000  1.0 0.1103747188
H  H91  1  0.49390000  0.29870000  0.93890000  1.0 0.1103747188
H  H92  1  0.29870000  0.49390000  0.26850000  1.0 0.1103747188
H  H93  1  0.26850000  0.93890000  0.29870000  1.0 0.1103747188
H  H94  1  0.56110000  0.00610000  0.23150000  1.0 0.1103747188
H  H95  1  0.00610000  0.23150000  0.56110000  1.0 0.1103747188
H  H96  1  0.23150000  0.56110000  0.00610000  1.0 0.1103747188
H  H97  1  0.46080000  0.05420000  0.81120000  1.0 0.1206777696
H  H98  1  0.81120000  0.46080000  0.05420000  1.0 0.1206777696
H  H99  1  0.05420000  0.81120000  0.46080000  1.0 0.1206777696
H  H100  1  0.03920000  0.44580000  0.82620000  1.0 0.1206777696
H  H101  1  0.68880000  0.82620000  0.44580000  1.0 0.1206777696
H  H102  1  0.82620000  0.68880000  0.03920000  1.0 0.1206777696
H  H103  1  0.68880000  0.03920000  0.82620000  1.0 0.1206777696
H  H104  1  0.82620000  0.44580000  0.68880000  1.0 0.1206777696
H  H105  1  0.44580000  0.82620000  0.03920000  1.0 0.1206777696
H  H106  1  0.44580000  0.68880000  0.82620000  1.0 0.1206777696
H  H107  1  0.03920000  0.82620000  0.68880000  1.0 0.1206777696
H  H108  1  0.82620000  0.03920000  0.44580000  1.0 0.1206777696
H  H109  1  0.05420000  0.46080000  0.67380000  1.0 0.1206777696
H  H110  1  0.81120000  0.67380000  0.46080000  1.0 0.1206777696
H  H111  1  0.67380000  0.81120000  0.05420000  1.0 0.1206777696
H  H112  1  0.67380000  0.05420000  0.46080000  1.0 0.1206777696
H  H113  1  0.46080000  0.81120000  0.67380000  1.0 0.1206777696
H  H114  1  0.05420000  0.67380000  0.81120000  1.0 0.1206777696
H  H115  1  0.46080000  0.67380000  0.05420000  1.0 0.1206777696
H  H116  1  0.67380000  0.46080000  0.81120000  1.0 0.1206777696
H  H117  1  0.81120000  0.05420000  0.67380000  1.0 0.1206777696
H  H118  1  0.44580000  0.03920000  0.68880000  1.0 0.1206777696
H  H119  1  0.03920000  0.68880000  0.44580000  1.0 0.1206777696
H  H120  1  0.68880000  0.44580000  0.03920000  1.0 0.1206777696
H  H121  1  0.53920000  0.94580000  0.18880000  1.0 0.1206777696
H  H122  1  0.18880000  0.53920000  0.94580000  1.0 0.1206777696
H  H123  1  0.94580000  0.18880000  0.53920000  1.0 0.1206777696
H  H124  1  0.96080000  0.55420000  0.17380000  1.0 0.1206777696
H  H125  1  0.31120000  0.17380000  0.55420000  1.0 0.1206777696
H  H126  1  0.17380000  0.31120000  0.96080000  1.0 0.1206777696
H  H127  1  0.31120000  0.96080000  0.17380000  1.0 0.1206777696
H  H128  1  0.17380000  0.55420000  0.31120000  1.0 0.1206777696
H  H129  1  0.55420000  0.17380000  0.96080000  1.0 0.1206777696
H  H130  1  0.55420000  0.31120000  0.17380000  1.0 0.1206777696
H  H131  1  0.96080000  0.17380000  0.31120000  1.0 0.1206777696
H  H132  1  0.17380000  0.96080000  0.55420000  1.0 0.1206777696
H  H133  1  0.94580000  0.53920000  0.32620000  1.0 0.1206777696
H  H134  1  0.18880000  0.32620000  0.53920000  1.0 0.1206777696
H  H135  1  0.32620000  0.18880000  0.94580000  1.0 0.1206777696
H  H136  1  0.32620000  0.94580000  0.53920000  1.0 0.1206777696
H  H137  1  0.53920000  0.18880000  0.32620000  1.0 0.1206777696
H  H138  1  0.94580000  0.32620000  0.18880000  1.0 0.1206777696
H  H139  1  0.53920000  0.32620000  0.94580000  1.0 0.1206777696
H  H140  1  0.32620000  0.53920000  0.18880000  1.0 0.1206777696
H  H141  1  0.18880000  0.94580000  0.32620000  1.0 0.1206777696
H  H142  1  0.55420000  0.96080000  0.31120000  1.0 0.1206777696
H  H143  1  0.96080000  0.31120000  0.55420000  1.0 0.1206777696
H  H144  1  0.31120000  0.55420000  0.96080000  1.0 0.1206777696
H  H145  1  0.70230000  0.00530000  0.74970000  1.0 0.0905819557
H  H146  1  0.74970000  0.70230000  0.00530000  1.0 0.0905819557
H  H147  1  0.00530000  0.74970000  0.70230000  1.0 0.0905819557
H  H148  1  0.79770000  0.49470000  0.95730000  1.0 0.0905819557
H  H149  1  0.75030000  0.95730000  0.49470000  1.0 0.0905819557
H  H150  1  0.95730000  0.75030000  0.79770000  1.0 0.0905819557
H  H151  1  0.75030000  0.79770000  0.95730000  1.0 0.0905819557
H  H152  1  0.95730000  0.49470000  0.75030000  1.0 0.0905819557
H  H153  1  0.49470000  0.95730000  0.79770000  1.0 0.0905819557
H  H154  1  0.49470000  0.75030000  0.95730000  1.0 0.0905819557
H  H155  1  0.79770000  0.95730000  0.75030000  1.0 0.0905819557
H  H156  1  0.95730000  0.79770000  0.49470000  1.0 0.0905819557
H  H157  1  0.00530000  0.70230000  0.54270000  1.0 0.0905819557
H  H158  1  0.74970000  0.54270000  0.70230000  1.0 0.0905819557
H  H159  1  0.54270000  0.74970000  0.00530000  1.0 0.0905819557
H  H160  1  0.54270000  0.00530000  0.70230000  1.0 0.0905819557
H  H161  1  0.70230000  0.74970000  0.54270000  1.0 0.0905819557
H  H162  1  0.00530000  0.54270000  0.74970000  1.0 0.0905819557
H  H163  1  0.70230000  0.54270000  0.00530000  1.0 0.0905819557
H  H164  1  0.54270000  0.70230000  0.74970000  1.0 0.0905819557
H  H165  1  0.74970000  0.00530000  0.54270000  1.0 0.0905819557
H  H166  1  0.49470000  0.79770000  0.75030000  1.0 0.0905819557
H  H167  1  0.79770000  0.75030000  0.49470000  1.0 0.0905819557
H  H168  1  0.75030000  0.49470000  0.79770000  1.0 0.0905819557
H  H169  1  0.29770000  0.99470000  0.25030000  1.0 0.0905819557
H  H170  1  0.25030000  0.29770000  0.99470000  1.0 0.0905819557
H  H171  1  0.99470000  0.25030000  0.29770000  1.0 0.0905819557
H  H172  1  0.20230000  0.50530000  0.04270000  1.0 0.0905819557
H  H173  1  0.24970000  0.04270000  0.50530000  1.0 0.0905819557
H  H174  1  0.04270000  0.24970000  0.20230000  1.0 0.0905819557
H  H175  1  0.24970000  0.20230000  0.04270000  1.0 0.0905819557
H  H176  1  0.04270000  0.50530000  0.24970000  1.0 0.0905819557
H  H177  1  0.50530000  0.04270000  0.20230000  1.0 0.0905819557
H  H178  1  0.50530000  0.24970000  0.04270000  1.0 0.0905819557
H  H179  1  0.20230000  0.04270000  0.24970000  1.0 0.0905819557
H  H180  1  0.04270000  0.20230000  0.50530000  1.0 0.0905819557
H  H181  1  0.99470000  0.29770000  0.45730000  1.0 0.0905819557
H  H182  1  0.25030000  0.45730000  0.29770000  1.0 0.0905819557
H  H183  1  0.45730000  0.25030000  0.99470000  1.0 0.0905819557
H  H184  1  0.45730000  0.99470000  0.29770000  1.0 0.0905819557
H  H185  1  0.29770000  0.25030000  0.45730000  1.0 0.0905819557
H  H186  1  0.99470000  0.45730000  0.25030000  1.0 0.0905819557
H  H187  1  0.29770000  0.45730000  0.99470000  1.0 0.0905819557
H  H188  1  0.45730000  0.29770000  0.25030000  1.0 0.0905819557
H  H189  1  0.25030000  0.99470000  0.45730000  1.0 0.0905819557
H  H190  1  0.50530000  0.20230000  0.24970000  1.0 0.0905819557
H  H191  1  0.20230000  0.24970000  0.50530000  1.0 0.0905819557
H  H192  1  0.24970000  0.50530000  0.20230000  1.0 0.0905819557
H  H193  1  0.65910000  0.99970000  0.79890000  1.0 0.0905819557
H  H194  1  0.79890000  0.65910000  0.99970000  1.0 0.0905819557
H  H195  1  0.99970000  0.79890000  0.65910000  1.0 0.0905819557
H  H196  1  0.84090000  0.50030000  0.95770000  1.0 0.0905819557
H  H197  1  0.70110000  0.95770000  0.50030000  1.0 0.0905819557
H  H198  1  0.95770000  0.70110000  0.84090000  1.0 0.0905819557
H  H199  1  0.70110000  0.84090000  0.95770000  1.0 0.0905819557
H  H200  1  0.95770000  0.50030000  0.70110000  1.0 0.0905819557
H  H201  1  0.50030000  0.95770000  0.84090000  1.0 0.0905819557
H  H202  1  0.50030000  0.70110000  0.95770000  1.0 0.0905819557
H  H203  1  0.84090000  0.95770000  0.70110000  1.0 0.0905819557
H  H204  1  0.95770000  0.84090000  0.50030000  1.0 0.0905819557
H  H205  1  0.99970000  0.65910000  0.54230000  1.0 0.0905819557
H  H206  1  0.79890000  0.54230000  0.65910000  1.0 0.0905819557
H  H207  1  0.54230000  0.79890000  0.99970000  1.0 0.0905819557
H  H208  1  0.54230000  0.99970000  0.65910000  1.0 0.0905819557
H  H209  1  0.65910000  0.79890000  0.54230000  1.0 0.0905819557
H  H210  1  0.99970000  0.54230000  0.79890000  1.0 0.0905819557
H  H211  1  0.65910000  0.54230000  0.99970000  1.0 0.0905819557
H  H212  1  0.54230000  0.65910000  0.79890000  1.0 0.0905819557
H  H213  1  0.79890000  0.99970000  0.54230000  1.0 0.0905819557
H  H214  1  0.50030000  0.84090000  0.70110000  1.0 0.0905819557
H  H215  1  0.84090000  0.70110000  0.50030000  1.0 0.0905819557
H  H216  1  0.70110000  0.50030000  0.84090000  1.0 0.0905819557
H  H217  1  0.34090000  0.00030000  0.20110000  1.0 0.0905819557
H  H218  1  0.20110000  0.34090000  0.00030000  1.0 0.0905819557
H  H219  1  0.00030000  0.20110000  0.34090000  1.0 0.0905819557
H  H220  1  0.15910000  0.49970000  0.04230000  1.0 0.0905819557
H  H221  1  0.29890000  0.04230000  0.49970000  1.0 0.0905819557
H  H222  1  0.04230000  0.29890000  0.15910000  1.0 0.0905819557
H  H223  1  0.29890000  0.15910000  0.04230000  1.0 0.0905819557
H  H224  1  0.04230000  0.49970000  0.29890000  1.0 0.0905819557
H  H225  1  0.49970000  0.04230000  0.15910000  1.0 0.0905819557
H  H226  1  0.49970000  0.29890000  0.04230000  1.0 0.0905819557
H  H227  1  0.15910000  0.04230000  0.29890000  1.0 0.0905819557
H  H228  1  0.04230000  0.15910000  0.49970000  1.0 0.0905819557
H  H229  1  0.00030000  0.34090000  0.45770000  1.0 0.0905819557
H  H230  1  0.20110000  0.45770000  0.34090000  1.0 0.0905819557
H  H231  1  0.45770000  0.20110000  0.00030000  1.0 0.0905819557
H  H232  1  0.45770000  0.00030000  0.34090000  1.0 0.0905819557
H  H233  1  0.34090000  0.20110000  0.45770000  1.0 0.0905819557
H  H234  1  0.00030000  0.45770000  0.20110000  1.0 0.0905819557
H  H235  1  0.34090000  0.45770000  0.00030000  1.0 0.0905819557
H  H236  1  0.45770000  0.34090000  0.20110000  1.0 0.0905819557
H  H237  1  0.20110000  0.00030000  0.45770000  1.0 0.0905819557
H  H238  1  0.49970000  0.15910000  0.29890000  1.0 0.0905819557
H  H239  1  0.15910000  0.29890000  0.49970000  1.0 0.0905819557
H  H240  1  0.29890000  0.49970000  0.15910000  1.0 0.0905819557
H  H241  1  0.64040000  0.95740000  0.77660000  1.0 0.12904454
H  H242  1  0.77660000  0.64040000  0.95740000  1.0 0.12904454
H  H243  1  0.95740000  0.77660000  0.64040000  1.0 0.12904454
H  H244  1  0.85960000  0.54260000  0.87440000  1.0 0.12904454
H  H245  1  0.72340000  0.87440000  0.54260000  1.0 0.12904454
H  H246  1  0.87440000  0.72340000  0.85960000  1.0 0.12904454
H  H247  1  0.72340000  0.85960000  0.87440000  1.0 0.12904454
H  H248  1  0.87440000  0.54260000  0.72340000  1.0 0.12904454
H  H249  1  0.54260000  0.87440000  0.85960000  1.0 0.12904454
H  H250  1  0.54260000  0.72340000  0.87440000  1.0 0.12904454
H  H251  1  0.85960000  0.87440000  0.72340000  1.0 0.12904454
H  H252  1  0.87440000  0.85960000  0.54260000  1.0 0.12904454
H  H253  1  0.95740000  0.64040000  0.62560000  1.0 0.12904454
H  H254  1  0.77660000  0.62560000  0.64040000  1.0 0.12904454
H  H255  1  0.62560000  0.77660000  0.95740000  1.0 0.12904454
H  H256  1  0.62560000  0.95740000  0.64040000  1.0 0.12904454
H  H257  1  0.64040000  0.77660000  0.62560000  1.0 0.12904454
H  H258  1  0.95740000  0.62560000  0.77660000  1.0 0.12904454
H  H259  1  0.64040000  0.62560000  0.95740000  1.0 0.12904454
H  H260  1  0.62560000  0.64040000  0.77660000  1.0 0.12904454
H  H261  1  0.77660000  0.95740000  0.62560000  1.0 0.12904454
H  H262  1  0.54260000  0.85960000  0.72340000  1.0 0.12904454
H  H263  1  0.85960000  0.72340000  0.54260000  1.0 0.12904454
H  H264  1  0.72340000  0.54260000  0.85960000  1.0 0.12904454
H  H265  1  0.35960000  0.04260000  0.22340000  1.0 0.12904454
H  H266  1  0.22340000  0.35960000  0.04260000  1.0 0.12904454
H  H267  1  0.04260000  0.22340000  0.35960000  1.0 0.12904454
H  H268  1  0.14040000  0.45740000  0.12560000  1.0 0.12904454
H  H269  1  0.27660000  0.12560000  0.45740000  1.0 0.12904454
H  H270  1  0.12560000  0.27660000  0.14040000  1.0 0.12904454
H  H271  1  0.27660000  0.14040000  0.12560000  1.0 0.12904454
H  H272  1  0.12560000  0.45740000  0.27660000  1.0 0.12904454
H  H273  1  0.45740000  0.12560000  0.14040000  1.0 0.12904454
H  H274  1  0.45740000  0.27660000  0.12560000  1.0 0.12904454
H  H275  1  0.14040000  0.12560000  0.27660000  1.0 0.12904454
H  H276  1  0.12560000  0.14040000  0.45740000  1.0 0.12904454
H  H277  1  0.04260000  0.35960000  0.37440000  1.0 0.12904454
H  H278  1  0.22340000  0.37440000  0.35960000  1.0 0.12904454
H  H279  1  0.37440000  0.22340000  0.04260000  1.0 0.12904454
H  H280  1  0.37440000  0.04260000  0.35960000  1.0 0.12904454
H  H281  1  0.35960000  0.22340000  0.37440000  1.0 0.12904454
H  H282  1  0.04260000  0.37440000  0.22340000  1.0 0.12904454
H  H283  1  0.35960000  0.37440000  0.04260000  1.0 0.12904454
H  H284  1  0.37440000  0.35960000  0.22340000  1.0 0.12904454
H  H285  1  0.22340000  0.04260000  0.37440000  1.0 0.12904454
H  H286  1  0.45740000  0.14040000  0.27660000  1.0 0.12904454
H  H287  1  0.14040000  0.27660000  0.45740000  1.0 0.12904454
H  H288  1  0.27660000  0.45740000  0.14040000  1.0 0.12904454
H  H289  1  0.69260000  0.93080000  0.78100000  1.0 0.12904454
H  H290  1  0.78100000  0.69260000  0.93080000  1.0 0.12904454
H  H291  1  0.93080000  0.78100000  0.69260000  1.0 0.12904454
H  H292  1  0.80740000  0.56920000  0.90440000  1.0 0.12904454
H  H293  1  0.71900000  0.90440000  0.56920000  1.0 0.12904454
H  H294  1  0.90440000  0.71900000  0.80740000  1.0 0.12904454
H  H295  1  0.71900000  0.80740000  0.90440000  1.0 0.12904454
H  H296  1  0.90440000  0.56920000  0.71900000  1.0 0.12904454
H  H297  1  0.56920000  0.90440000  0.80740000  1.0 0.12904454
H  H298  1  0.56920000  0.71900000  0.90440000  1.0 0.12904454
H  H299  1  0.80740000  0.90440000  0.71900000  1.0 0.12904454
H  H300  1  0.90440000  0.80740000  0.56920000  1.0 0.12904454
H  H301  1  0.93080000  0.69260000  0.59560000  1.0 0.12904454
H  H302  1  0.78100000  0.59560000  0.69260000  1.0 0.12904454
H  H303  1  0.59560000  0.78100000  0.93080000  1.0 0.12904454
H  H304  1  0.59560000  0.93080000  0.69260000  1.0 0.12904454
H  H305  1  0.69260000  0.78100000  0.59560000  1.0 0.12904454
H  H306  1  0.93080000  0.59560000  0.78100000  1.0 0.12904454
H  H307  1  0.69260000  0.59560000  0.93080000  1.0 0.12904454
H  H308  1  0.59560000  0.69260000  0.78100000  1.0 0.12904454
H  H309  1  0.78100000  0.93080000  0.59560000  1.0 0.12904454
H  H310  1  0.56920000  0.80740000  0.71900000  1.0 0.12904454
H  H311  1  0.80740000  0.71900000  0.56920000  1.0 0.12904454
H  H312  1  0.71900000  0.56920000  0.80740000  1.0 0.12904454
H  H313  1  0.30740000  0.06920000  0.21900000  1.0 0.12904454
H  H314  1  0.21900000  0.30740000  0.06920000  1.0 0.12904454
H  H315  1  0.06920000  0.21900000  0.30740000  1.0 0.12904454
H  H316  1  0.19260000  0.43080000  0.09560000  1.0 0.12904454
H  H317  1  0.28100000  0.09560000  0.43080000  1.0 0.12904454
H  H318  1  0.09560000  0.28100000  0.19260000  1.0 0.12904454
H  H319  1  0.28100000  0.19260000  0.09560000  1.0 0.12904454
H  H320  1  0.09560000  0.43080000  0.28100000  1.0 0.12904454
H  H321  1  0.43080000  0.09560000  0.19260000  1.0 0.12904454
H  H322  1  0.43080000  0.28100000  0.09560000  1.0 0.12904454
H  H323  1  0.19260000  0.09560000  0.28100000  1.0 0.12904454
H  H324  1  0.09560000  0.19260000  0.43080000  1.0 0.12904454
H  H325  1  0.06920000  0.30740000  0.40440000  1.0 0.12904454
H  H326  1  0.21900000  0.40440000  0.30740000  1.0 0.12904454
H  H327  1  0.40440000  0.21900000  0.06920000  1.0 0.12904454
H  H328  1  0.40440000  0.06920000  0.30740000  1.0 0.12904454
H  H329  1  0.30740000  0.21900000  0.40440000  1.0 0.12904454
H  H330  1  0.06920000  0.40440000  0.21900000  1.0 0.12904454
H  H331  1  0.30740000  0.40440000  0.06920000  1.0 0.12904454
H  H332  1  0.40440000  0.30740000  0.21900000  1.0 0.12904454
H  H333  1  0.21900000  0.06920000  0.40440000  1.0 0.12904454
H  H334  1  0.43080000  0.19260000  0.28100000  1.0 0.12904454
H  H335  1  0.19260000  0.28100000  0.43080000  1.0 0.12904454
H  H336  1  0.28100000  0.43080000  0.19260000  1.0 0.12904454
H  H337  1  0.68650000  0.96050000  0.72950000  1.0 0.1206777696
H  H338  1  0.72950000  0.68650000  0.96050000  1.0 0.1206777696
H  H339  1  0.96050000  0.72950000  0.68650000  1.0 0.1206777696
H  H340  1  0.81350000  0.53950000  0.87650000  1.0 0.1206777696
H  H341  1  0.77050000  0.87650000  0.53950000  1.0 0.1206777696
H  H342  1  0.87650000  0.77050000  0.81350000  1.0 0.1206777696
H  H343  1  0.77050000  0.81350000  0.87650000  1.0 0.1206777696
H  H344  1  0.87650000  0.53950000  0.77050000  1.0 0.1206777696
H  H345  1  0.53950000  0.87650000  0.81350000  1.0 0.1206777696
H  H346  1  0.53950000  0.77050000  0.87650000  1.0 0.1206777696
H  H347  1  0.81350000  0.87650000  0.77050000  1.0 0.1206777696
H  H348  1  0.87650000  0.81350000  0.53950000  1.0 0.1206777696
H  H349  1  0.96050000  0.68650000  0.62350000  1.0 0.1206777696
H  H350  1  0.72950000  0.62350000  0.68650000  1.0 0.1206777696
H  H351  1  0.62350000  0.72950000  0.96050000  1.0 0.1206777696
H  H352  1  0.62350000  0.96050000  0.68650000  1.0 0.1206777696
H  H353  1  0.68650000  0.72950000  0.62350000  1.0 0.1206777696
H  H354  1  0.96050000  0.62350000  0.72950000  1.0 0.1206777696
H  H355  1  0.68650000  0.62350000  0.96050000  1.0 0.1206777696
H  H356  1  0.62350000  0.68650000  0.72950000  1.0 0.1206777696
H  H357  1  0.72950000  0.96050000  0.62350000  1.0 0.1206777696
H  H358  1  0.53950000  0.81350000  0.77050000  1.0 0.1206777696
H  H359  1  0.81350000  0.77050000  0.53950000  1.0 0.1206777696
H  H360  1  0.77050000  0.53950000  0.81350000  1.0 0.1206777696
H  H361  1  0.31350000  0.03950000  0.27050000  1.0 0.1206777696
H  H362  1  0.27050000  0.31350000  0.03950000  1.0 0.1206777696
H  H363  1  0.03950000  0.27050000  0.31350000  1.0 0.1206777696
H  H364  1  0.18650000  0.46050000  0.12350000  1.0 0.1206777696
H  H365  1  0.22950000  0.12350000  0.46050000  1.0 0.1206777696
H  H366  1  0.12350000  0.22950000  0.18650000  1.0 0.1206777696
H  H367  1  0.22950000  0.18650000  0.12350000  1.0 0.1206777696
H  H368  1  0.12350000  0.46050000  0.22950000  1.0 0.1206777696
H  H369  1  0.46050000  0.12350000  0.18650000  1.0 0.1206777696
H  H370  1  0.46050000  0.22950000  0.12350000  1.0 0.1206777696
H  H371  1  0.18650000  0.12350000  0.22950000  1.0 0.1206777696
H  H372  1  0.12350000  0.18650000  0.46050000  1.0 0.1206777696
H  H373  1  0.03950000  0.31350000  0.37650000  1.0 0.1206777696
H  H374  1  0.27050000  0.37650000  0.31350000  1.0 0.1206777696
H  H375  1  0.37650000  0.27050000  0.03950000  1.0 0.1206777696
H  H376  1  0.37650000  0.03950000  0.31350000  1.0 0.1206777696
H  H377  1  0.31350000  0.27050000  0.37650000  1.0 0.1206777696
H  H378  1  0.03950000  0.37650000  0.27050000  1.0 0.1206777696
H  H379  1  0.31350000  0.37650000  0.03950000  1.0 0.1206777696
H  H380  1  0.37650000  0.31350000  0.27050000  1.0 0.1206777696
H  H381  1  0.27050000  0.03950000  0.37650000  1.0 0.1206777696
H  H382  1  0.46050000  0.18650000  0.22950000  1.0 0.1206777696
H  H383  1  0.18650000  0.22950000  0.46050000  1.0 0.1206777696
H  H384  1  0.22950000  0.46050000  0.18650000  1.0 0.1206777696
H  H385  1  0.62360000  0.09120000  0.77860000  1.0 0.1103747188
H  H386  1  0.77860000  0.62360000  0.09120000  1.0 0.1103747188
H  H387  1  0.09120000  0.77860000  0.62360000  1.0 0.1103747188
H  H388  1  0.87640000  0.40880000  0.99340000  1.0 0.1103747188
H  H389  1  0.72140000  0.99340000  0.40880000  1.0 0.1103747188
H  H390  1  0.99340000  0.72140000  0.87640000  1.0 0.1103747188
H  H391  1  0.72140000  0.87640000  0.99340000  1.0 0.1103747188
H  H392  1  0.99340000  0.40880000  0.72140000  1.0 0.1103747188
H  H393  1  0.40880000  0.99340000  0.87640000  1.0 0.1103747188
H  H394  1  0.40880000  0.72140000  0.99340000  1.0 0.1103747188
H  H395  1  0.87640000  0.99340000  0.72140000  1.0 0.1103747188
H  H396  1  0.99340000  0.87640000  0.40880000  1.0 0.1103747188
H  H397  1  0.09120000  0.62360000  0.50660000  1.0 0.1103747188
H  H398  1  0.77860000  0.50660000  0.62360000  1.0 0.1103747188
H  H399  1  0.50660000  0.77860000  0.09120000  1.0 0.1103747188
H  H400  1  0.50660000  0.09120000  0.62360000  1.0 0.1103747188
H  H401  1  0.62360000  0.77860000  0.50660000  1.0 0.1103747188
H  H402  1  0.09120000  0.50660000  0.77860000  1.0 0.1103747188
H  H403  1  0.62360000  0.50660000  0.09120000  1.0 0.1103747188
H  H404  1  0.50660000  0.62360000  0.77860000  1.0 0.1103747188
H  H405  1  0.77860000  0.09120000  0.50660000  1.0 0.1103747188
H  H406  1  0.40880000  0.87640000  0.72140000  1.0 0.1103747188
H  H407  1  0.87640000  0.72140000  0.40880000  1.0 0.1103747188
H  H408  1  0.72140000  0.40880000  0.87640000  1.0 0.1103747188
H  H409  1  0.37640000  0.90880000  0.22140000  1.0 0.1103747188
H  H410  1  0.22140000  0.37640000  0.90880000  1.0 0.1103747188
H  H411  1  0.90880000  0.22140000  0.37640000  1.0 0.1103747188
H  H412  1  0.12360000  0.59120000  0.00660000  1.0 0.1103747188
H  H413  1  0.27860000  0.00660000  0.59120000  1.0 0.1103747188
H  H414  1  0.00660000  0.27860000  0.12360000  1.0 0.1103747188
H  H415  1  0.27860000  0.12360000  0.00660000  1.0 0.1103747188
H  H416  1  0.00660000  0.59120000  0.27860000  1.0 0.1103747188
H  H417  1  0.59120000  0.00660000  0.12360000  1.0 0.1103747188
H  H418  1  0.59120000  0.27860000  0.00660000  1.0 0.1103747188
H  H419  1  0.12360000  0.00660000  0.27860000  1.0 0.1103747188
H  H420  1  0.00660000  0.12360000  0.59120000  1.0 0.1103747188
H  H421  1  0.90880000  0.37640000  0.49340000  1.0 0.1103747188
H  H422  1  0.22140000  0.49340000  0.37640000  1.0 0.1103747188
H  H423  1  0.49340000  0.22140000  0.90880000  1.0 0.1103747188
H  H424  1  0.49340000  0.90880000  0.37640000  1.0 0.1103747188
H  H425  1  0.37640000  0.22140000  0.49340000  1.0 0.1103747188
H  H426  1  0.90880000  0.49340000  0.22140000  1.0 0.1103747188
H  H427  1  0.37640000  0.49340000  0.90880000  1.0 0.1103747188
H  H428  1  0.49340000  0.37640000  0.22140000  1.0 0.1103747188
H  H429  1  0.22140000  0.90880000  0.49340000  1.0 0.1103747188
H  H430  1  0.59120000  0.12360000  0.27860000  1.0 0.1103747188
H  H431  1  0.12360000  0.27860000  0.59120000  1.0 0.1103747188
H  H432  1  0.27860000  0.59120000  0.12360000  1.0 0.1103747188
H  H433  1  0.66666667  0.09730000  0.72910000  1.0 0.0905819557
H  H434  1  0.72910000  0.66666667  0.09730000  1.0 0.0905819557
H  H435  1  0.09730000  0.72910000  0.66666667  1.0 0.0905819557
H  H436  1  0.83330000  0.40270000  0.99310000  1.0 0.0905819557
H  H437  1  0.77090000  0.99310000  0.40270000  1.0 0.0905819557
H  H438  1  0.99310000  0.77090000  0.83330000  1.0 0.0905819557
H  H439  1  0.77090000  0.83330000  0.99310000  1.0 0.0905819557
H  H440  1  0.99310000  0.40270000  0.77090000  1.0 0.0905819557
H  H441  1  0.40270000  0.99310000  0.83330000  1.0 0.0905819557
H  H442  1  0.40270000  0.77090000  0.99310000  1.0 0.0905819557
H  H443  1  0.83330000  0.99310000  0.77090000  1.0 0.0905819557
H  H444  1  0.99310000  0.83330000  0.40270000  1.0 0.0905819557
H  H445  1  0.09730000  0.66666667  0.50690000  1.0 0.0905819557
H  H446  1  0.72910000  0.50690000  0.66666667  1.0 0.0905819557
H  H447  1  0.50690000  0.72910000  0.09730000  1.0 0.0905819557
H  H448  1  0.50690000  0.09730000  0.66666667  1.0 0.0905819557
H  H449  1  0.66666667  0.72910000  0.50690000  1.0 0.0905819557
H  H450  1  0.09730000  0.50690000  0.72910000  1.0 0.0905819557
H  H451  1  0.66666667  0.50690000  0.09730000  1.0 0.0905819557
H  H452  1  0.50690000  0.66666667  0.72910000  1.0 0.0905819557
H  H453  1  0.72910000  0.09730000  0.50690000  1.0 0.0905819557
H  H454  1  0.40270000  0.83330000  0.77090000  1.0 0.0905819557
H  H455  1  0.83330000  0.77090000  0.40270000  1.0 0.0905819557
H  H456  1  0.77090000  0.40270000  0.83330000  1.0 0.0905819557
H  H457  1  0.33333333  0.90270000  0.27090000  1.0 0.0905819557
H  H458  1  0.27090000  0.33333333  0.90270000  1.0 0.0905819557
H  H459  1  0.90270000  0.27090000  0.33333333  1.0 0.0905819557
H  H460  1  0.16670000  0.59730000  0.00690000  1.0 0.0905819557
H  H461  1  0.22910000  0.00690000  0.59730000  1.0 0.0905819557
H  H462  1  0.00690000  0.22910000  0.16670000  1.0 0.0905819557
H  H463  1  0.22910000  0.16670000  0.00690000  1.0 0.0905819557
H  H464  1  0.00690000  0.59730000  0.22910000  1.0 0.0905819557
H  H465  1  0.59730000  0.00690000  0.16670000  1.0 0.0905819557
H  H466  1  0.59730000  0.22910000  0.00690000  1.0 0.0905819557
H  H467  1  0.16670000  0.00690000  0.22910000  1.0 0.0905819557
H  H468  1  0.00690000  0.16670000  0.59730000  1.0 0.0905819557
H  H469  1  0.90270000  0.33333333  0.49310000  1.0 0.0905819557
H  H470  1  0.27090000  0.49310000  0.33333333  1.0 0.0905819557
H  H471  1  0.49310000  0.27090000  0.90270000  1.0 0.0905819557
H  H472  1  0.49310000  0.90270000  0.33333333  1.0 0.0905819557
H  H473  1  0.33333333  0.27090000  0.49310000  1.0 0.0905819557
H  H474  1  0.90270000  0.49310000  0.27090000  1.0 0.0905819557
H  H475  1  0.33333333  0.49310000  0.90270000  1.0 0.0905819557
H  H476  1  0.49310000  0.33333333  0.27090000  1.0 0.0905819557
H  H477  1  0.27090000  0.90270000  0.49310000  1.0 0.0905819557
H  H478  1  0.59730000  0.16670000  0.22910000  1.0 0.0905819557
H  H479  1  0.16670000  0.22910000  0.59730000  1.0 0.0905819557
H  H480  1  0.22910000  0.59730000  0.16670000  1.0 0.0905819557
H  H481  1  0.61160000  0.14840000  0.68760000  1.0 0.1206777696
H  H482  1  0.68760000  0.61160000  0.14840000  1.0 0.1206777696
H  H483  1  0.14840000  0.68760000  0.61160000  1.0 0.1103747188
H  H484  1  0.88840000  0.35160000  0.94760000  1.0 0.1206777696
H  H485  1  0.81240000  0.94760000  0.35160000  1.0 0.1206777696
H  H486  1  0.94760000  0.81240000  0.88840000  1.0 0.1206777696
H  H487  1  0.81240000  0.88840000  0.94760000  1.0 0.1206777696
H  H488  1  0.94760000  0.35160000  0.81240000  1.0 0.1206777696
H  H489  1  0.35160000  0.94760000  0.88840000  1.0 0.1103747188
H  H490  1  0.35160000  0.81240000  0.94760000  1.0 0.1103747188
H  H491  1  0.88840000  0.94760000  0.81240000  1.0 0.1206777696
H  H492  1  0.94760000  0.88840000  0.35160000  1.0 0.1206777696
H  H493  1  0.14840000  0.61160000  0.55240000  1.0 0.1206777696
H  H494  1  0.68760000  0.55240000  0.61160000  1.0 0.1206777696
H  H495  1  0.55240000  0.68760000  0.14840000  1.0 0.1206777696
H  H496  1  0.55240000  0.14840000  0.61160000  1.0 0.1206777696
H  H497  1  0.61160000  0.68760000  0.55240000  1.0 0.1206777696
H  H498  1  0.14840000  0.55240000  0.68760000  1.0 0.1206777696
H  H499  1  0.61160000  0.55240000  0.14840000  1.0 0.1206777696
H  H500  1  0.55240000  0.61160000  0.68760000  1.0 0.1206777696
H  H501  1  0.68760000  0.14840000  0.55240000  1.0 0.1206777696
H  H502  1  0.35160000  0.88840000  0.81240000  1.0 0.1206777696
H  H503  1  0.88840000  0.81240000  0.35160000  1.0 0.1206777696
H  H504  1  0.81240000  0.35160000  0.88840000  1.0 0.1206777696
H  H505  1  0.38840000  0.85160000  0.31240000  1.0 0.1206777696
H  H506  1  0.31240000  0.38840000  0.85160000  1.0 0.1206777696
H  H507  1  0.85160000  0.31240000  0.38840000  1.0 0.1206777696
H  H508  1  0.11160000  0.64840000  0.05240000  1.0 0.1206777696
H  H509  1  0.18760000  0.05240000  0.64840000  1.0 0.1206777696
H  H510  1  0.05240000  0.18760000  0.11160000  1.0 0.1206777696
H  H511  1  0.18760000  0.11160000  0.05240000  1.0 0.1206777696
H  H512  1  0.05240000  0.64840000  0.18760000  1.0 0.1103747188
H  H513  1  0.64840000  0.05240000  0.11160000  1.0 0.1206777696
H  H514  1  0.64840000  0.18760000  0.05240000  1.0 0.1206777696
H  H515  1  0.11160000  0.05240000  0.18760000  1.0 0.1206777696
H  H516  1  0.05240000  0.11160000  0.64840000  1.0 0.1206777696
H  H517  1  0.85160000  0.38840000  0.44760000  1.0 0.1206777696
H  H518  1  0.31240000  0.44760000  0.38840000  1.0 0.1206777696
H  H519  1  0.44760000  0.31240000  0.85160000  1.0 0.1206777696
H  H520  1  0.44760000  0.85160000  0.38840000  1.0 0.1103747188
H  H521  1  0.38840000  0.31240000  0.44760000  1.0 0.1206777696
H  H522  1  0.85160000  0.44760000  0.31240000  1.0 0.1206777696
H  H523  1  0.38840000  0.44760000  0.85160000  1.0 0.1206777696
H  H524  1  0.44760000  0.38840000  0.31240000  1.0 0.1206777696
H  H525  1  0.31240000  0.85160000  0.44760000  1.0 0.1206777696
H  H526  1  0.64840000  0.11160000  0.18760000  1.0 0.1206777696
H  H527  1  0.11160000  0.18760000  0.64840000  1.0 0.1206777696
H  H528  1  0.18760000  0.64840000  0.11160000  1.0 0.1206777696
H  H529  1  0.60240000  0.16880000  0.72540000  1.0 0.1206777696
H  H530  1  0.72540000  0.60240000  0.16880000  1.0 0.1206777696
H  H531  1  0.16880000  0.72540000  0.60240000  1.0 0.1206777696
H  H532  1  0.89760000  0.33120000  0.99660000  1.0 0.1206777696
H  H533  1  0.77460000  0.99660000  0.33120000  1.0 0.1206777696
H  H534  1  0.99660000  0.77460000  0.89760000  1.0 0.1206777696
H  H535  1  0.77460000  0.89760000  0.99660000  1.0 0.1206777696
H  H536  1  0.99660000  0.33120000  0.77460000  1.0 0.1206777696
H  H537  1  0.33120000  0.99660000  0.89760000  1.0 0.1206777696
H  H538  1  0.33120000  0.77460000  0.99660000  1.0 0.1206777696
H  H539  1  0.89760000  0.99660000  0.77460000  1.0 0.1206777696
H  H540  1  0.99660000  0.89760000  0.33120000  1.0 0.1206777696
H  H541  1  0.16880000  0.60240000  0.50340000  1.0 0.1206777696
H  H542  1  0.72540000  0.50340000  0.60240000  1.0 0.1206777696
H  H543  1  0.50340000  0.72540000  0.16880000  1.0 0.1206777696
H  H544  1  0.50340000  0.16880000  0.60240000  1.0 0.1206777696
H  H545  1  0.60240000  0.72540000  0.50340000  1.0 0.1206777696
H  H546  1  0.16880000  0.50340000  0.72540000  1.0 0.1206777696
H  H547  1  0.60240000  0.50340000  0.16880000  1.0 0.1206777696
H  H548  1  0.50340000  0.60240000  0.72540000  1.0 0.1206777696
H  H549  1  0.72540000  0.16880000  0.50340000  1.0 0.1206777696
H  H550  1  0.33120000  0.89760000  0.77460000  1.0 0.1206777696
H  H551  1  0.89760000  0.77460000  0.33120000  1.0 0.1206777696
H  H552  1  0.77460000  0.33120000  0.89760000  1.0 0.1206777696
H  H553  1  0.39760000  0.83120000  0.27460000  1.0 0.1206777696
H  H554  1  0.27460000  0.39760000  0.83120000  1.0 0.1206777696
H  H555  1  0.83120000  0.27460000  0.39760000  1.0 0.1206777696
H  H556  1  0.10240000  0.66880000  0.00340000  1.0 0.1206777696
H  H557  1  0.22540000  0.00340000  0.66880000  1.0 0.1206777696
H  H558  1  0.00340000  0.22540000  0.10240000  1.0 0.1206777696
H  H559  1  0.22540000  0.10240000  0.00340000  1.0 0.1206777696
H  H560  1  0.00340000  0.66880000  0.22540000  1.0 0.1206777696
H  H561  1  0.66880000  0.00340000  0.10240000  1.0 0.1206777696
H  H562  1  0.66880000  0.22540000  0.00340000  1.0 0.1206777696
H  H563  1  0.10240000  0.00340000  0.22540000  1.0 0.1206777696
H  H564  1  0.00340000  0.10240000  0.66880000  1.0 0.1206777696
H  H565  1  0.83120000  0.39760000  0.49660000  1.0 0.1206777696
H  H566  1  0.27460000  0.49660000  0.39760000  1.0 0.1206777696
H  H567  1  0.49660000  0.27460000  0.83120000  1.0 0.1206777696
H  H568  1  0.49660000  0.83120000  0.39760000  1.0 0.1206777696
H  H569  1  0.39760000  0.27460000  0.49660000  1.0 0.1206777696
H  H570  1  0.83120000  0.49660000  0.27460000  1.0 0.1206777696
H  H571  1  0.39760000  0.49660000  0.83120000  1.0 0.1206777696
H  H572  1  0.49660000  0.39760000  0.27460000  1.0 0.1206777696
H  H573  1  0.27460000  0.83120000  0.49660000  1.0 0.1206777696
H  H574  1  0.66880000  0.10240000  0.22540000  1.0 0.1206777696
H  H575  1  0.10240000  0.22540000  0.66880000  1.0 0.1206777696
H  H576  1  0.22540000  0.66880000  0.10240000  1.0 0.1206777696
H  H577  1  0.56860000  0.14240000  0.73700000  1.0 0.1206777696
H  H578  1  0.73700000  0.56860000  0.14240000  1.0 0.1206777696
H  H579  1  0.14240000  0.73700000  0.56860000  1.0 0.1206777696
H  H580  1  0.93140000  0.35760000  0.94800000  1.0 0.1206777696
H  H581  1  0.76300000  0.94800000  0.35760000  1.0 0.1206777696
H  H582  1  0.94800000  0.76300000  0.93140000  1.0 0.1206777696
H  H583  1  0.76300000  0.93140000  0.94800000  1.0 0.1206777696
H  H584  1  0.94800000  0.35760000  0.76300000  1.0 0.1206777696
H  H585  1  0.35760000  0.94800000  0.93140000  1.0 0.1206777696
H  H586  1  0.35760000  0.76300000  0.94800000  1.0 0.1206777696
H  H587  1  0.93140000  0.94800000  0.76300000  1.0 0.1206777696
H  H588  1  0.94800000  0.93140000  0.35760000  1.0 0.1206777696
H  H589  1  0.14240000  0.56860000  0.55200000  1.0 0.1206777696
H  H590  1  0.73700000  0.55200000  0.56860000  1.0 0.1206777696
H  H591  1  0.55200000  0.73700000  0.14240000  1.0 0.1206777696
H  H592  1  0.55200000  0.14240000  0.56860000  1.0 0.1206777696
H  H593  1  0.56860000  0.73700000  0.55200000  1.0 0.1206777696
H  H594  1  0.14240000  0.55200000  0.73700000  1.0 0.1206777696
H  H595  1  0.56860000  0.55200000  0.14240000  1.0 0.1206777696
H  H596  1  0.55200000  0.56860000  0.73700000  1.0 0.1206777696
H  H597  1  0.73700000  0.14240000  0.55200000  1.0 0.1206777696
H  H598  1  0.35760000  0.93140000  0.76300000  1.0 0.1206777696
H  H599  1  0.93140000  0.76300000  0.35760000  1.0 0.1206777696
H  H600  1  0.76300000  0.35760000  0.93140000  1.0 0.1206777696
H  H601  1  0.43140000  0.85760000  0.26300000  1.0 0.1206777696
H  H602  1  0.26300000  0.43140000  0.85760000  1.0 0.1206777696
H  H603  1  0.85760000  0.26300000  0.43140000  1.0 0.1206777696
H  H604  1  0.06860000  0.64240000  0.05200000  1.0 0.1206777696
H  H605  1  0.23700000  0.05200000  0.64240000  1.0 0.1206777696
H  H606  1  0.05200000  0.23700000  0.06860000  1.0 0.1206777696
H  H607  1  0.23700000  0.06860000  0.05200000  1.0 0.1206777696
H  H608  1  0.05200000  0.64240000  0.23700000  1.0 0.1206777696
H  H609  1  0.64240000  0.05200000  0.06860000  1.0 0.1206777696
H  H610  1  0.64240000  0.23700000  0.05200000  1.0 0.1206777696
H  H611  1  0.06860000  0.05200000  0.23700000  1.0 0.1206777696
H  H612  1  0.05200000  0.06860000  0.64240000  1.0 0.1206777696
H  H613  1  0.85760000  0.43140000  0.44800000  1.0 0.1206777696
H  H614  1  0.26300000  0.44800000  0.43140000  1.0 0.1206777696
H  H615  1  0.44800000  0.26300000  0.85760000  1.0 0.1206777696
H  H616  1  0.44800000  0.85760000  0.43140000  1.0 0.1206777696
H  H617  1  0.43140000  0.26300000  0.44800000  1.0 0.1206777696
H  H618  1  0.85760000  0.44800000  0.26300000  1.0 0.1206777696
H  H619  1  0.43140000  0.44800000  0.85760000  1.0 0.1206777696
H  H620  1  0.44800000  0.43140000  0.26300000  1.0 0.1206777696
H  H621  1  0.26300000  0.85760000  0.44800000  1.0 0.1206777696
H  H622  1  0.64240000  0.06860000  0.23700000  1.0 0.1206777696
H  H623  1  0.06860000  0.23700000  0.64240000  1.0 0.1206777696
H  H624  1  0.23700000  0.64240000  0.06860000  1.0 0.1206777696
C  C1  1  0.48384000  0.03698000  0.88254000  1.0 0.5610974879
C  C2  1  0.88254000  0.48384000  0.03698000  1.0 0.5610974879
C  C3  1  0.03698000  0.88254000  0.48384000  1.0 0.5610974879
C  C4  1  0.01616000  0.46302000  0.90336000  1.0 0.5610974879
C  C5  1  0.61746000  0.90336000  0.46302000  1.0 0.5610974879
C  C6  1  0.90336000  0.61746000  0.01616000  1.0 0.5610974879
C  C7  1  0.61746000  0.01616000  0.90336000  1.0 0.5610974879
C  C8  1  0.90336000  0.46302000  0.61746000  1.0 0.5610974879
C  C9  1  0.46302000  0.90336000  0.01616000  1.0 0.5610974879
C  C10  1  0.46302000  0.61746000  0.90336000  1.0 0.5610974879
C  C11  1  0.01616000  0.90336000  0.61746000  1.0 0.5610974879
C  C12  1  0.90336000  0.01616000  0.46302000  1.0 0.5610974879
C  C13  1  0.03698000  0.48384000  0.59664000  1.0 0.5610974879
C  C14  1  0.88254000  0.59664000  0.48384000  1.0 0.5610974879
C  C15  1  0.59664000  0.88254000  0.03698000  1.0 0.5610974879
C  C16  1  0.59664000  0.03698000  0.48384000  1.0 0.5610974879
C  C17  1  0.48384000  0.88254000  0.59664000  1.0 0.5610974879
C  C18  1  0.03698000  0.59664000  0.88254000  1.0 0.5610974879
C  C19  1  0.48384000  0.59664000  0.03698000  1.0 0.5610974879
C  C20  1  0.59664000  0.48384000  0.88254000  1.0 0.5610974879
C  C21  1  0.88254000  0.03698000  0.59664000  1.0 0.5610974879
C  C22  1  0.46302000  0.01616000  0.61746000  1.0 0.5610974879
C  C23  1  0.01616000  0.61746000  0.46302000  1.0 0.5610974879
C  C24  1  0.61746000  0.46302000  0.01616000  1.0 0.5610974879
C  C25  1  0.51616000  0.96302000  0.11746000  1.0 0.5610974879
C  C26  1  0.11746000  0.51616000  0.96302000  1.0 0.5610974879
C  C27  1  0.96302000  0.11746000  0.51616000  1.0 0.5610974879
C  C28  1  0.98384000  0.53698000  0.09664000  1.0 0.5610974879
C  C29  1  0.38254000  0.09664000  0.53698000  1.0 0.5610974879
C  C30  1  0.09664000  0.38254000  0.98384000  1.0 0.5610974879
C  C31  1  0.38254000  0.98384000  0.09664000  1.0 0.5610974879
C  C32  1  0.09664000  0.53698000  0.38254000  1.0 0.5610974879
C  C33  1  0.53698000  0.09664000  0.98384000  1.0 0.5610974879
C  C34  1  0.53698000  0.38254000  0.09664000  1.0 0.5610974879
C  C35  1  0.98384000  0.09664000  0.38254000  1.0 0.5610974879
C  C36  1  0.09664000  0.98384000  0.53698000  1.0 0.5610974879
C  C37  1  0.96302000  0.51616000  0.40336000  1.0 0.5610974879
C  C38  1  0.11746000  0.40336000  0.51616000  1.0 0.5610974879
C  C39  1  0.40336000  0.11746000  0.96302000  1.0 0.5610974879
C  C40  1  0.40336000  0.96302000  0.51616000  1.0 0.5610974879
C  C41  1  0.51616000  0.11746000  0.40336000  1.0 0.5610974879
C  C42  1  0.96302000  0.40336000  0.11746000  1.0 0.5610974879
C  C43  1  0.51616000  0.40336000  0.96302000  1.0 0.5610974879
C  C44  1  0.40336000  0.51616000  0.11746000  1.0 0.5610974879
C  C45  1  0.11746000  0.96302000  0.40336000  1.0 0.5610974879
C  C46  1  0.53698000  0.98384000  0.38254000  1.0 0.5610974879
C  C47  1  0.98384000  0.38254000  0.53698000  1.0 0.5610974879
C  C48  1  0.38254000  0.53698000  0.98384000  1.0 0.5610974879
C  C49  1  0.51285000  0.04467000  0.83073000  1.0 -0.0290634596
C  C50  1  0.83073000  0.51285000  0.04467000  1.0 -0.0290634596
C  C51  1  0.04467000  0.83073000  0.51285000  1.0 -0.0290634596
C  C52  1  0.98715000  0.45533000  0.88825000  1.0 -0.0290634596
C  C53  1  0.66927000  0.88825000  0.45533000  1.0 -0.0290634596
C  C54  1  0.88825000  0.66927000  0.98715000  1.0 -0.0290634596
C  C55  1  0.66927000  0.98715000  0.88825000  1.0 -0.0290634596
C  C56  1  0.88825000  0.45533000  0.66927000  1.0 -0.0290634596
C  C57  1  0.45533000  0.88825000  0.98715000  1.0 -0.0290634596
C  C58  1  0.45533000  0.66927000  0.88825000  1.0 -0.0290634596
C  C59  1  0.98715000  0.88825000  0.66927000  1.0 -0.0290634596
C  C60  1  0.88825000  0.98715000  0.45533000  1.0 -0.0290634596
C  C61  1  0.04467000  0.51285000  0.61175000  1.0 -0.0290634596
C  C62  1  0.83073000  0.61175000  0.51285000  1.0 -0.0290634596
C  C63  1  0.61175000  0.83073000  0.04467000  1.0 -0.0290634596
C  C64  1  0.61175000  0.04467000  0.51285000  1.0 -0.0290634596
C  C65  1  0.51285000  0.83073000  0.61175000  1.0 -0.0290634596
C  C66  1  0.04467000  0.61175000  0.83073000  1.0 -0.0290634596
C  C67  1  0.51285000  0.61175000  0.04467000  1.0 -0.0290634596
C  C68  1  0.61175000  0.51285000  0.83073000  1.0 -0.0290634596
C  C69  1  0.83073000  0.04467000  0.61175000  1.0 -0.0290634596
C  C70  1  0.45533000  0.98715000  0.66927000  1.0 -0.0290634596
C  C71  1  0.98715000  0.66927000  0.45533000  1.0 -0.0290634596
C  C72  1  0.66927000  0.45533000  0.98715000  1.0 -0.0290634596
C  C73  1  0.48715000  0.95533000  0.16927000  1.0 -0.0290634596
C  C74  1  0.16927000  0.48715000  0.95533000  1.0 -0.0290634596
C  C75  1  0.95533000  0.16927000  0.48715000  1.0 -0.0290634596
C  C76  1  0.01285000  0.54467000  0.11175000  1.0 -0.0290634596
C  C77  1  0.33073000  0.11175000  0.54467000  1.0 -0.0290634596
C  C78  1  0.11175000  0.33073000  0.01285000  1.0 -0.0290634596
C  C79  1  0.33073000  0.01285000  0.11175000  1.0 -0.0290634596
C  C80  1  0.11175000  0.54467000  0.33073000  1.0 -0.0290634596
C  C81  1  0.54467000  0.11175000  0.01285000  1.0 -0.0290634596
C  C82  1  0.54467000  0.33073000  0.11175000  1.0 -0.0290634596
C  C83  1  0.01285000  0.11175000  0.33073000  1.0 -0.0290634596
C  C84  1  0.11175000  0.01285000  0.54467000  1.0 -0.0290634596
C  C85  1  0.95533000  0.48715000  0.38825000  1.0 -0.0290634596
C  C86  1  0.16927000  0.38825000  0.48715000  1.0 -0.0290634596
C  C87  1  0.38825000  0.16927000  0.95533000  1.0 -0.0290634596
C  C88  1  0.38825000  0.95533000  0.48715000  1.0 -0.0290634596
C  C89  1  0.48715000  0.16927000  0.38825000  1.0 -0.0290634596
C  C90  1  0.95533000  0.38825000  0.16927000  1.0 -0.0290634596
C  C91  1  0.48715000  0.38825000  0.95533000  1.0 -0.0290634596
C  C92  1  0.38825000  0.48715000  0.16927000  1.0 -0.0290634596
C  C93  1  0.16927000  0.95533000  0.38825000  1.0 -0.0290634596
C  C94  1  0.54467000  0.01285000  0.33073000  1.0 -0.0290634596
C  C95  1  0.01285000  0.33073000  0.54467000  1.0 -0.0290634596
C  C96  1  0.33073000  0.54467000  0.01285000  1.0 -0.0290634596
C  C97  1  0.55934000  0.04376000  0.81354000  1.0 -0.1601675171
C  C98  1  0.81354000  0.55934000  0.04376000  1.0 -0.1601675171
C  C99  1  0.04376000  0.81354000  0.55934000  1.0 -0.1601675171
C  C100  1  0.94066000  0.45624000  0.91664000  1.0 -0.1601675171
C  C101  1  0.68646000  0.91664000  0.45624000  1.0 -0.1601675171
C  C102  1  0.91664000  0.68646000  0.94066000  1.0 -0.1601675171
C  C103  1  0.68646000  0.94066000  0.91664000  1.0 -0.1601675171
C  C104  1  0.91664000  0.45624000  0.68646000  1.0 -0.1601675171
C  C105  1  0.45624000  0.91664000  0.94066000  1.0 -0.1601675171
C  C106  1  0.45624000  0.68646000  0.91664000  1.0 -0.1601675171
C  C107  1  0.94066000  0.91664000  0.68646000  1.0 -0.1601675171
C  C108  1  0.91664000  0.94066000  0.45624000  1.0 -0.1601675171
C  C109  1  0.04376000  0.55934000  0.58336000  1.0 -0.1601675171
C  C110  1  0.81354000  0.58336000  0.55934000  1.0 -0.1601675171
C  C111  1  0.58336000  0.81354000  0.04376000  1.0 -0.1601675171
C  C112  1  0.58336000  0.04376000  0.55934000  1.0 -0.1601675171
C  C113  1  0.55934000  0.81354000  0.58336000  1.0 -0.1601675171
C  C114  1  0.04376000  0.58336000  0.81354000  1.0 -0.1601675171
C  C115  1  0.55934000  0.58336000  0.04376000  1.0 -0.1601675171
C  C116  1  0.58336000  0.55934000  0.81354000  1.0 -0.1601675171
C  C117  1  0.81354000  0.04376000  0.58336000  1.0 -0.1601675171
C  C118  1  0.45624000  0.94066000  0.68646000  1.0 -0.1601675171
C  C119  1  0.94066000  0.68646000  0.45624000  1.0 -0.1601675171
C  C120  1  0.68646000  0.45624000  0.94066000  1.0 -0.1601675171
C  C121  1  0.44066000  0.95624000  0.18646000  1.0 -0.1601675171
C  C122  1  0.18646000  0.44066000  0.95624000  1.0 -0.1601675171
C  C123  1  0.95624000  0.18646000  0.44066000  1.0 -0.1601675171
C  C124  1  0.05934000  0.54376000  0.08336000  1.0 -0.1601675171
C  C125  1  0.31354000  0.08336000  0.54376000  1.0 -0.1601675171
C  C126  1  0.08336000  0.31354000  0.05934000  1.0 -0.1601675171
C  C127  1  0.31354000  0.05934000  0.08336000  1.0 -0.1601675171
C  C128  1  0.08336000  0.54376000  0.31354000  1.0 -0.1601675171
C  C129  1  0.54376000  0.08336000  0.05934000  1.0 -0.1601675171
C  C130  1  0.54376000  0.31354000  0.08336000  1.0 -0.1601675171
C  C131  1  0.05934000  0.08336000  0.31354000  1.0 -0.1601675171
C  C132  1  0.08336000  0.05934000  0.54376000  1.0 -0.1601675171
C  C133  1  0.95624000  0.44066000  0.41664000  1.0 -0.1601675171
C  C134  1  0.18646000  0.41664000  0.44066000  1.0 -0.1601675171
C  C135  1  0.41664000  0.18646000  0.95624000  1.0 -0.1601675171
C  C136  1  0.41664000  0.95624000  0.44066000  1.0 -0.1601675171
C  C137  1  0.44066000  0.18646000  0.41664000  1.0 -0.1601675171
C  C138  1  0.95624000  0.41664000  0.18646000  1.0 -0.1601675171
C  C139  1  0.44066000  0.41664000  0.95624000  1.0 -0.1601675171
C  C140  1  0.41664000  0.44066000  0.18646000  1.0 -0.1601675171
C  C141  1  0.18646000  0.95624000  0.41664000  1.0 -0.1601675171
C  C142  1  0.54376000  0.05934000  0.31354000  1.0 -0.1601675171
C  C143  1  0.05934000  0.31354000  0.54376000  1.0 -0.1601675171
C  C144  1  0.31354000  0.54376000  0.05934000  1.0 -0.1601675171
C  C145  1  0.58594000  0.04882000  0.76590000  1.0 0.0323599716
C  C146  1  0.76590000  0.58594000  0.04882000  1.0 0.0323599716
C  C147  1  0.04882000  0.76590000  0.58594000  1.0 0.0323599716
C  C148  1  0.91406000  0.45118000  0.90066000  1.0 0.0323599716
C  C149  1  0.73410000  0.90066000  0.45118000  1.0 0.0323599716
C  C150  1  0.90066000  0.73410000  0.91406000  1.0 0.0323599716
C  C151  1  0.73410000  0.91406000  0.90066000  1.0 0.0323599716
C  C152  1  0.90066000  0.45118000  0.73410000  1.0 0.0323599716
C  C153  1  0.45118000  0.90066000  0.91406000  1.0 0.0323599716
C  C154  1  0.45118000  0.73410000  0.90066000  1.0 0.0323599716
C  C155  1  0.91406000  0.90066000  0.73410000  1.0 0.0323599716
C  C156  1  0.90066000  0.91406000  0.45118000  1.0 0.0323599716
C  C157  1  0.04882000  0.58594000  0.59934000  1.0 0.0323599716
C  C158  1  0.76590000  0.59934000  0.58594000  1.0 0.0323599716
C  C159  1  0.59934000  0.76590000  0.04882000  1.0 0.0323599716
C  C160  1  0.59934000  0.04882000  0.58594000  1.0 0.0323599716
C  C161  1  0.58594000  0.76590000  0.59934000  1.0 0.0323599716
C  C162  1  0.04882000  0.59934000  0.76590000  1.0 0.0323599716
C  C163  1  0.58594000  0.59934000  0.04882000  1.0 0.0323599716
C  C164  1  0.59934000  0.58594000  0.76590000  1.0 0.0323599716
C  C165  1  0.76590000  0.04882000  0.59934000  1.0 0.0323599716
C  C166  1  0.45118000  0.91406000  0.73410000  1.0 0.0323599716
C  C167  1  0.91406000  0.73410000  0.45118000  1.0 0.0323599716
C  C168  1  0.73410000  0.45118000  0.91406000  1.0 0.0323599716
C  C169  1  0.41406000  0.95118000  0.23410000  1.0 0.0323599716
C  C170  1  0.23410000  0.41406000  0.95118000  1.0 0.0323599716
C  C171  1  0.95118000  0.23410000  0.41406000  1.0 0.0323599716
C  C172  1  0.08594000  0.54882000  0.09934000  1.0 0.0323599716
C  C173  1  0.26590000  0.09934000  0.54882000  1.0 0.0323599716
C  C174  1  0.09934000  0.26590000  0.08594000  1.0 0.0323599716
C  C175  1  0.26590000  0.08594000  0.09934000  1.0 0.0323599716
C  C176  1  0.09934000  0.54882000  0.26590000  1.0 0.0323599716
C  C177  1  0.54882000  0.09934000  0.08594000  1.0 0.0323599716
C  C178  1  0.54882000  0.26590000  0.09934000  1.0 0.0323599716
C  C179  1  0.08594000  0.09934000  0.26590000  1.0 0.0323599716
C  C180  1  0.09934000  0.08594000  0.54882000  1.0 0.0323599716
C  C181  1  0.95118000  0.41406000  0.40066000  1.0 0.0323599716
C  C182  1  0.23410000  0.40066000  0.41406000  1.0 0.0323599716
C  C183  1  0.40066000  0.23410000  0.95118000  1.0 0.0323599716
C  C184  1  0.40066000  0.95118000  0.41406000  1.0 0.0323599716
C  C185  1  0.41406000  0.23410000  0.40066000  1.0 0.0323599716
C  C186  1  0.95118000  0.40066000  0.23410000  1.0 0.0323599716
C  C187  1  0.41406000  0.40066000  0.95118000  1.0 0.0323599716
C  C188  1  0.40066000  0.41406000  0.23410000  1.0 0.0323599716
C  C189  1  0.23410000  0.95118000  0.40066000  1.0 0.0323599716
C  C190  1  0.54882000  0.08594000  0.26590000  1.0 0.0323599716
C  C191  1  0.08594000  0.26590000  0.54882000  1.0 0.0323599716
C  C192  1  0.26590000  0.54882000  0.08594000  1.0 0.0323599716
C  C193  1  0.56742000  0.05386000  0.73480000  1.0 0.0353680329
C  C194  1  0.73480000  0.56742000  0.05386000  1.0 0.0353680329
C  C195  1  0.05386000  0.73480000  0.56742000  1.0 0.0353680329
C  C196  1  0.93258000  0.44614000  0.85608000  1.0 0.0353680329
C  C197  1  0.76520000  0.85608000  0.44614000  1.0 0.0353680329
C  C198  1  0.85608000  0.76520000  0.93258000  1.0 0.0353680329
C  C199  1  0.76520000  0.93258000  0.85608000  1.0 0.0353680329
C  C200  1  0.85608000  0.44614000  0.76520000  1.0 0.0353680329
C  C201  1  0.44614000  0.85608000  0.93258000  1.0 0.0353680329
C  C202  1  0.44614000  0.76520000  0.85608000  1.0 0.0353680329
C  C203  1  0.93258000  0.85608000  0.76520000  1.0 0.0353680329
C  C204  1  0.85608000  0.93258000  0.44614000  1.0 0.0353680329
C  C205  1  0.05386000  0.56742000  0.64392000  1.0 0.0353680329
C  C206  1  0.73480000  0.64392000  0.56742000  1.0 0.0353680329
C  C207  1  0.64392000  0.73480000  0.05386000  1.0 0.0353680329
C  C208  1  0.64392000  0.05386000  0.56742000  1.0 0.0353680329
C  C209  1  0.56742000  0.73480000  0.64392000  1.0 0.0353680329
C  C210  1  0.05386000  0.64392000  0.73480000  1.0 0.0353680329
C  C211  1  0.56742000  0.64392000  0.05386000  1.0 0.0353680329
C  C212  1  0.64392000  0.56742000  0.73480000  1.0 0.0353680329
C  C213  1  0.73480000  0.05386000  0.64392000  1.0 0.0353680329
C  C214  1  0.44614000  0.93258000  0.76520000  1.0 0.0353680329
C  C215  1  0.93258000  0.76520000  0.44614000  1.0 0.0353680329
C  C216  1  0.76520000  0.44614000  0.93258000  1.0 0.0353680329
C  C217  1  0.43258000  0.94614000  0.26520000  1.0 0.0353680329
C  C218  1  0.26520000  0.43258000  0.94614000  1.0 0.0353680329
C  C219  1  0.94614000  0.26520000  0.43258000  1.0 0.0353680329
C  C220  1  0.06742000  0.55386000  0.14392000  1.0 0.0353680329
C  C221  1  0.23480000  0.14392000  0.55386000  1.0 0.0353680329
C  C222  1  0.14392000  0.23480000  0.06742000  1.0 0.0353680329
C  C223  1  0.23480000  0.06742000  0.14392000  1.0 0.0353680329
C  C224  1  0.14392000  0.55386000  0.23480000  1.0 0.0353680329
C  C225  1  0.55386000  0.14392000  0.06742000  1.0 0.0353680329
C  C226  1  0.55386000  0.23480000  0.14392000  1.0 0.0353680329
C  C227  1  0.06742000  0.14392000  0.23480000  1.0 0.0353680329
C  C228  1  0.14392000  0.06742000  0.55386000  1.0 0.0353680329
C  C229  1  0.94614000  0.43258000  0.35608000  1.0 0.0353680329
C  C230  1  0.26520000  0.35608000  0.43258000  1.0 0.0353680329
C  C231  1  0.35608000  0.26520000  0.94614000  1.0 0.0353680329
C  C232  1  0.35608000  0.94614000  0.43258000  1.0 0.0353680329
C  C233  1  0.43258000  0.26520000  0.35608000  1.0 0.0353680329
C  C234  1  0.94614000  0.35608000  0.26520000  1.0 0.0353680329
C  C235  1  0.43258000  0.35608000  0.94614000  1.0 0.0353680329
C  C236  1  0.35608000  0.43258000  0.26520000  1.0 0.0353680329
C  C237  1  0.26520000  0.94614000  0.35608000  1.0 0.0353680329
C  C238  1  0.55386000  0.06742000  0.23480000  1.0 0.0353680329
C  C239  1  0.06742000  0.23480000  0.55386000  1.0 0.0353680329
C  C240  1  0.23480000  0.55386000  0.06742000  1.0 0.0353680329
C  C241  1  0.51999000  0.05643000  0.75211000  1.0 -0.1601675171
C  C242  1  0.75211000  0.51999000  0.05643000  1.0 -0.1601675171
C  C243  1  0.05643000  0.75211000  0.51999000  1.0 -0.1601675171
C  C244  1  0.98001000  0.44357000  0.82853000  1.0 -0.1601675171
C  C245  1  0.74789000  0.82853000  0.44357000  1.0 -0.1601675171
C  C246  1  0.82853000  0.74789000  0.98001000  1.0 -0.1601675171
C  C247  1  0.74789000  0.98001000  0.82853000  1.0 -0.1601675171
C  C248  1  0.82853000  0.44357000  0.74789000  1.0 -0.1601675171
C  C249  1  0.44357000  0.82853000  0.98001000  1.0 -0.1601675171
C  C250  1  0.44357000  0.74789000  0.82853000  1.0 -0.1601675171
C  C251  1  0.98001000  0.82853000  0.74789000  1.0 -0.1601675171
C  C252  1  0.82853000  0.98001000  0.44357000  1.0 -0.1601675171
C  C253  1  0.05643000  0.51999000  0.67147000  1.0 -0.1601675171
C  C254  1  0.75211000  0.67147000  0.51999000  1.0 -0.1601675171
C  C255  1  0.67147000  0.75211000  0.05643000  1.0 -0.1601675171
C  C256  1  0.67147000  0.05643000  0.51999000  1.0 -0.1601675171
C  C257  1  0.51999000  0.75211000  0.67147000  1.0 -0.1601675171
C  C258  1  0.05643000  0.67147000  0.75211000  1.0 -0.1601675171
C  C259  1  0.51999000  0.67147000  0.05643000  1.0 -0.1601675171
C  C260  1  0.67147000  0.51999000  0.75211000  1.0 -0.1601675171
C  C261  1  0.75211000  0.05643000  0.67147000  1.0 -0.1601675171
C  C262  1  0.44357000  0.98001000  0.74789000  1.0 -0.1601675171
C  C263  1  0.98001000  0.74789000  0.44357000  1.0 -0.1601675171
C  C264  1  0.74789000  0.44357000  0.98001000  1.0 -0.1601675171
C  C265  1  0.48001000  0.94357000  0.24789000  1.0 -0.1601675171
C  C266  1  0.24789000  0.48001000  0.94357000  1.0 -0.1601675171
C  C267  1  0.94357000  0.24789000  0.48001000  1.0 -0.1601675171
C  C268  1  0.01999000  0.55643000  0.17147000  1.0 -0.1601675171
C  C269  1  0.25211000  0.17147000  0.55643000  1.0 -0.1601675171
C  C270  1  0.17147000  0.25211000  0.01999000  1.0 -0.1601675171
C  C271  1  0.25211000  0.01999000  0.17147000  1.0 -0.1601675171
C  C272  1  0.17147000  0.55643000  0.25211000  1.0 -0.1601675171
C  C273  1  0.55643000  0.17147000  0.01999000  1.0 -0.1601675171
C  C274  1  0.55643000  0.25211000  0.17147000  1.0 -0.1601675171
C  C275  1  0.01999000  0.17147000  0.25211000  1.0 -0.1601675171
C  C276  1  0.17147000  0.01999000  0.55643000  1.0 -0.1601675171
C  C277  1  0.94357000  0.48001000  0.32853000  1.0 -0.1601675171
C  C278  1  0.24789000  0.32853000  0.48001000  1.0 -0.1601675171
C  C279  1  0.32853000  0.24789000  0.94357000  1.0 -0.1601675171
C  C280  1  0.32853000  0.94357000  0.48001000  1.0 -0.1601675171
C  C281  1  0.48001000  0.24789000  0.32853000  1.0 -0.1601675171
C  C282  1  0.94357000  0.32853000  0.24789000  1.0 -0.1601675171
C  C283  1  0.48001000  0.32853000  0.94357000  1.0 -0.1601675171
C  C284  1  0.32853000  0.48001000  0.24789000  1.0 -0.1601675171
C  C285  1  0.24789000  0.94357000  0.32853000  1.0 -0.1601675171
C  C286  1  0.55643000  0.01999000  0.25211000  1.0 -0.1601675171
C  C287  1  0.01999000  0.25211000  0.55643000  1.0 -0.1601675171
C  C288  1  0.25211000  0.55643000  0.01999000  1.0 -0.1601675171
C  C289  1  0.49325000  0.05207000  0.79959000  1.0 -0.1081897188
C  C290  1  0.79959000  0.49325000  0.05207000  1.0 -0.1081897188
C  C291  1  0.05207000  0.79959000  0.49325000  1.0 -0.1081897188
C  C292  1  0.00675000  0.44793000  0.84491000  1.0 -0.1081897188
C  C293  1  0.70041000  0.84491000  0.44793000  1.0 -0.1081897188
C  C294  1  0.84491000  0.70041000  0.00675000  1.0 -0.1081897188
C  C295  1  0.70041000  0.00675000  0.84491000  1.0 -0.1081897188
C  C296  1  0.84491000  0.44793000  0.70041000  1.0 -0.1081897188
C  C297  1  0.44793000  0.84491000  0.00675000  1.0 -0.1081897188
C  C298  1  0.44793000  0.70041000  0.84491000  1.0 -0.1081897188
C  C299  1  0.00675000  0.84491000  0.70041000  1.0 -0.1081897188
C  C300  1  0.84491000  0.00675000  0.44793000  1.0 -0.1081897188
C  C301  1  0.05207000  0.49325000  0.65509000  1.0 -0.1081897188
C  C302  1  0.79959000  0.65509000  0.49325000  1.0 -0.1081897188
C  C303  1  0.65509000  0.79959000  0.05207000  1.0 -0.1081897188
C  C304  1  0.65509000  0.05207000  0.49325000  1.0 -0.1081897188
C  C305  1  0.49325000  0.79959000  0.65509000  1.0 -0.1081897188
C  C306  1  0.05207000  0.65509000  0.79959000  1.0 -0.1081897188
C  C307  1  0.49325000  0.65509000  0.05207000  1.0 -0.1081897188
C  C308  1  0.65509000  0.49325000  0.79959000  1.0 -0.1081897188
C  C309  1  0.79959000  0.05207000  0.65509000  1.0 -0.1081897188
C  C310  1  0.44793000  0.00675000  0.70041000  1.0 -0.1081897188
C  C311  1  0.00675000  0.70041000  0.44793000  1.0 -0.1081897188
C  C312  1  0.70041000  0.44793000  0.00675000  1.0 -0.1081897188
C  C313  1  0.50675000  0.94793000  0.20041000  1.0 -0.1081897188
C  C314  1  0.20041000  0.50675000  0.94793000  1.0 -0.1081897188
C  C315  1  0.94793000  0.20041000  0.50675000  1.0 -0.1081897188
C  C316  1  0.99325000  0.55207000  0.15509000  1.0 -0.1081897188
C  C317  1  0.29959000  0.15509000  0.55207000  1.0 -0.1081897188
C  C318  1  0.15509000  0.29959000  0.99325000  1.0 -0.1081897188
C  C319  1  0.29959000  0.99325000  0.15509000  1.0 -0.1081897188
C  C320  1  0.15509000  0.55207000  0.29959000  1.0 -0.1081897188
C  C321  1  0.55207000  0.15509000  0.99325000  1.0 -0.1081897188
C  C322  1  0.55207000  0.29959000  0.15509000  1.0 -0.1081897188
C  C323  1  0.99325000  0.15509000  0.29959000  1.0 -0.1081897188
C  C324  1  0.15509000  0.99325000  0.55207000  1.0 -0.1081897188
C  C325  1  0.94793000  0.50675000  0.34491000  1.0 -0.1081897188
C  C326  1  0.20041000  0.34491000  0.50675000  1.0 -0.1081897188
C  C327  1  0.34491000  0.20041000  0.94793000  1.0 -0.1081897188
C  C328  1  0.34491000  0.94793000  0.50675000  1.0 -0.1081897188
C  C329  1  0.50675000  0.20041000  0.34491000  1.0 -0.1081897188
C  C330  1  0.94793000  0.34491000  0.20041000  1.0 -0.1081897188
C  C331  1  0.50675000  0.34491000  0.94793000  1.0 -0.1081897188
C  C332  1  0.34491000  0.50675000  0.20041000  1.0 -0.1081897188
C  C333  1  0.20041000  0.94793000  0.34491000  1.0 -0.1081897188
C  C334  1  0.55207000  0.99325000  0.29959000  1.0 -0.1081897188
C  C335  1  0.99325000  0.29959000  0.55207000  1.0 -0.1081897188
C  C336  1  0.29959000  0.55207000  0.99325000  1.0 -0.1081897188
C  C337  1  0.60561000  0.05617000  0.68739000  1.0 -0.0290634596
C  C338  1  0.68739000  0.60561000  0.05617000  1.0 -0.0290634596
C  C339  1  0.05617000  0.68739000  0.60561000  1.0 -0.0290634596
C  C340  1  0.89439000  0.44383000  0.84917000  1.0 -0.0290634596
C  C341  1  0.81261000  0.84917000  0.44383000  1.0 -0.0290634596
C  C342  1  0.84917000  0.81261000  0.89439000  1.0 -0.0290634596
C  C343  1  0.81261000  0.89439000  0.84917000  1.0 -0.0290634596
C  C344  1  0.84917000  0.44383000  0.81261000  1.0 -0.0290634596
C  C345  1  0.44383000  0.84917000  0.89439000  1.0 -0.0290634596
C  C346  1  0.44383000  0.81261000  0.84917000  1.0 -0.0290634596
C  C347  1  0.89439000  0.84917000  0.81261000  1.0 -0.0290634596
C  C348  1  0.84917000  0.89439000  0.44383000  1.0 -0.0290634596
C  C349  1  0.05617000  0.60561000  0.65083000  1.0 -0.0290634596
C  C350  1  0.68739000  0.65083000  0.60561000  1.0 -0.0290634596
C  C351  1  0.65083000  0.68739000  0.05617000  1.0 -0.0290634596
C  C352  1  0.65083000  0.05617000  0.60561000  1.0 -0.0290634596
C  C353  1  0.60561000  0.68739000  0.65083000  1.0 -0.0290634596
C  C354  1  0.05617000  0.65083000  0.68739000  1.0 -0.0290634596
C  C355  1  0.60561000  0.65083000  0.05617000  1.0 -0.0290634596
C  C356  1  0.65083000  0.60561000  0.68739000  1.0 -0.0290634596
C  C357  1  0.68739000  0.05617000  0.65083000  1.0 -0.0290634596
C  C358  1  0.44383000  0.89439000  0.81261000  1.0 -0.0290634596
C  C359  1  0.89439000  0.81261000  0.44383000  1.0 -0.0290634596
C  C360  1  0.81261000  0.44383000  0.89439000  1.0 -0.0290634596
C  C361  1  0.39439000  0.94383000  0.31261000  1.0 -0.0290634596
C  C362  1  0.31261000  0.39439000  0.94383000  1.0 -0.0290634596
C  C363  1  0.94383000  0.31261000  0.39439000  1.0 -0.0290634596
C  C364  1  0.10561000  0.55617000  0.15083000  1.0 -0.0290634596
C  C365  1  0.18739000  0.15083000  0.55617000  1.0 -0.0290634596
C  C366  1  0.15083000  0.18739000  0.10561000  1.0 -0.0290634596
C  C367  1  0.18739000  0.10561000  0.15083000  1.0 -0.0290634596
C  C368  1  0.15083000  0.55617000  0.18739000  1.0 -0.0290634596
C  C369  1  0.55617000  0.15083000  0.10561000  1.0 -0.0290634596
C  C370  1  0.55617000  0.18739000  0.15083000  1.0 -0.0290634596
C  C371  1  0.10561000  0.15083000  0.18739000  1.0 -0.0290634596
C  C372  1  0.15083000  0.10561000  0.55617000  1.0 -0.0290634596
C  C373  1  0.94383000  0.39439000  0.34917000  1.0 -0.0290634596
C  C374  1  0.31261000  0.34917000  0.39439000  1.0 -0.0290634596
C  C375  1  0.34917000  0.31261000  0.94383000  1.0 -0.0290634596
C  C376  1  0.34917000  0.94383000  0.39439000  1.0 -0.0290634596
C  C377  1  0.39439000  0.31261000  0.34917000  1.0 -0.0290634596
C  C378  1  0.94383000  0.34917000  0.31261000  1.0 -0.0290634596
C  C379  1  0.39439000  0.34917000  0.94383000  1.0 -0.0290634596
C  C380  1  0.34917000  0.39439000  0.31261000  1.0 -0.0290634596
C  C381  1  0.31261000  0.94383000  0.34917000  1.0 -0.0290634596
C  C382  1  0.55617000  0.10561000  0.18739000  1.0 -0.0290634596
C  C383  1  0.10561000  0.18739000  0.55617000  1.0 -0.0290634596
C  C384  1  0.18739000  0.55617000  0.10561000  1.0 -0.0290634596
C  C385  1  0.60838000  0.05576000  0.64564000  1.0 -0.0119767018
C  C386  1  0.64564000  0.60838000  0.05576000  1.0 -0.0119767018
C  C387  1  0.05576000  0.64564000  0.60838000  1.0 -0.0119767018
C  C388  1  0.89162000  0.44424000  0.80978000  1.0 -0.0119767018
C  C389  1  0.85436000  0.80978000  0.44424000  1.0 -0.0119767018
C  C390  1  0.80978000  0.85436000  0.89162000  1.0 -0.0119767018
C  C391  1  0.85436000  0.89162000  0.80978000  1.0 -0.0119767018
C  C392  1  0.80978000  0.44424000  0.85436000  1.0 -0.0119767018
C  C393  1  0.44424000  0.80978000  0.89162000  1.0 -0.0119767018
C  C394  1  0.44424000  0.85436000  0.80978000  1.0 -0.0119767018
C  C395  1  0.89162000  0.80978000  0.85436000  1.0 -0.0119767018
C  C396  1  0.80978000  0.89162000  0.44424000  1.0 -0.0119767018
C  C397  1  0.05576000  0.60838000  0.69022000  1.0 -0.0119767018
C  C398  1  0.64564000  0.69022000  0.60838000  1.0 -0.0119767018
C  C399  1  0.69022000  0.64564000  0.05576000  1.0 -0.0119767018
C  C400  1  0.69022000  0.05576000  0.60838000  1.0 -0.0119767018
C  C401  1  0.60838000  0.64564000  0.69022000  1.0 -0.0119767018
C  C402  1  0.05576000  0.69022000  0.64564000  1.0 -0.0119767018
C  C403  1  0.60838000  0.69022000  0.05576000  1.0 -0.0119767018
C  C404  1  0.69022000  0.60838000  0.64564000  1.0 -0.0119767018
C  C405  1  0.64564000  0.05576000  0.69022000  1.0 -0.0119767018
C  C406  1  0.44424000  0.89162000  0.85436000  1.0 -0.0119767018
C  C407  1  0.89162000  0.85436000  0.44424000  1.0 -0.0119767018
C  C408  1  0.85436000  0.44424000  0.89162000  1.0 -0.0119767018
C  C409  1  0.39162000  0.94424000  0.35436000  1.0 -0.0119767018
C  C410  1  0.35436000  0.39162000  0.94424000  1.0 -0.0119767018
C  C411  1  0.94424000  0.35436000  0.39162000  1.0 -0.0119767018
C  C412  1  0.10838000  0.55576000  0.19022000  1.0 -0.0119767018
C  C413  1  0.14564000  0.19022000  0.55576000  1.0 -0.0119767018
C  C414  1  0.19022000  0.14564000  0.10838000  1.0 -0.0119767018
C  C415  1  0.14564000  0.10838000  0.19022000  1.0 -0.0119767018
C  C416  1  0.19022000  0.55576000  0.14564000  1.0 -0.0119767018
C  C417  1  0.55576000  0.19022000  0.10838000  1.0 -0.0119767018
C  C418  1  0.55576000  0.14564000  0.19022000  1.0 -0.0119767018
C  C419  1  0.10838000  0.19022000  0.14564000  1.0 -0.0119767018
C  C420  1  0.19022000  0.10838000  0.55576000  1.0 -0.0119767018
C  C421  1  0.94424000  0.39162000  0.30978000  1.0 -0.0119767018
C  C422  1  0.35436000  0.30978000  0.39162000  1.0 -0.0119767018
C  C423  1  0.30978000  0.35436000  0.94424000  1.0 -0.0119767018
C  C424  1  0.30978000  0.94424000  0.39162000  1.0 -0.0119767018
C  C425  1  0.39162000  0.35436000  0.30978000  1.0 -0.0119767018
C  C426  1  0.94424000  0.30978000  0.35436000  1.0 -0.0119767018
C  C427  1  0.39162000  0.30978000  0.94424000  1.0 -0.0119767018
C  C428  1  0.30978000  0.39162000  0.35436000  1.0 -0.0119767018
C  C429  1  0.35436000  0.94424000  0.30978000  1.0 -0.0119767018
C  C430  1  0.55576000  0.10838000  0.14564000  1.0 -0.0119767018
C  C431  1  0.10838000  0.14564000  0.55576000  1.0 -0.0119767018
C  C432  1  0.14564000  0.55576000  0.10838000  1.0 -0.0119767018
C  C433  1  0.63604000  0.05066000  0.74102000  1.0 0.0905819557
C  C434  1  0.74102000  0.63604000  0.05066000  1.0 0.0905819557
C  C435  1  0.05066000  0.74102000  0.63604000  1.0 0.0905819557
C  C436  1  0.86396000  0.44934000  0.92772000  1.0 0.0905819557
C  C437  1  0.75898000  0.92772000  0.44934000  1.0 0.0905819557
C  C438  1  0.92772000  0.75898000  0.86396000  1.0 0.0905819557
C  C439  1  0.75898000  0.86396000  0.92772000  1.0 0.0905819557
C  C440  1  0.92772000  0.44934000  0.75898000  1.0 0.0905819557
C  C441  1  0.44934000  0.92772000  0.86396000  1.0 0.0905819557
C  C442  1  0.44934000  0.75898000  0.92772000  1.0 0.0905819557
C  C443  1  0.86396000  0.92772000  0.75898000  1.0 0.0905819557
C  C444  1  0.92772000  0.86396000  0.44934000  1.0 0.0905819557
C  C445  1  0.05066000  0.63604000  0.57228000  1.0 0.0905819557
C  C446  1  0.74102000  0.57228000  0.63604000  1.0 0.0905819557
C  C447  1  0.57228000  0.74102000  0.05066000  1.0 0.0905819557
C  C448  1  0.57228000  0.05066000  0.63604000  1.0 0.0905819557
C  C449  1  0.63604000  0.74102000  0.57228000  1.0 0.0905819557
C  C450  1  0.05066000  0.57228000  0.74102000  1.0 0.0905819557
C  C451  1  0.63604000  0.57228000  0.05066000  1.0 0.0905819557
C  C452  1  0.57228000  0.63604000  0.74102000  1.0 0.0905819557
C  C453  1  0.74102000  0.05066000  0.57228000  1.0 0.0905819557
C  C454  1  0.44934000  0.86396000  0.75898000  1.0 0.0905819557
C  C455  1  0.86396000  0.75898000  0.44934000  1.0 0.0905819557
C  C456  1  0.75898000  0.44934000  0.86396000  1.0 0.0905819557
C  C457  1  0.36396000  0.94934000  0.25898000  1.0 0.0905819557
C  C458  1  0.25898000  0.36396000  0.94934000  1.0 0.0905819557
C  C459  1  0.94934000  0.25898000  0.36396000  1.0 0.0905819557
C  C460  1  0.13604000  0.55066000  0.07228000  1.0 0.0905819557
C  C461  1  0.24102000  0.07228000  0.55066000  1.0 0.0905819557
C  C462  1  0.07228000  0.24102000  0.13604000  1.0 0.0905819557
C  C463  1  0.24102000  0.13604000  0.07228000  1.0 0.0905819557
C  C464  1  0.07228000  0.55066000  0.24102000  1.0 0.0905819557
C  C465  1  0.55066000  0.07228000  0.13604000  1.0 0.0905819557
C  C466  1  0.55066000  0.24102000  0.07228000  1.0 0.0905819557
C  C467  1  0.13604000  0.07228000  0.24102000  1.0 0.0905819557
C  C468  1  0.07228000  0.13604000  0.55066000  1.0 0.0905819557
C  C469  1  0.94934000  0.36396000  0.42772000  1.0 0.0905819557
C  C470  1  0.25898000  0.42772000  0.36396000  1.0 0.0905819557
C  C471  1  0.42772000  0.25898000  0.94934000  1.0 0.0905819557
C  C472  1  0.42772000  0.94934000  0.36396000  1.0 0.0905819557
C  C473  1  0.36396000  0.25898000  0.42772000  1.0 0.0905819557
C  C474  1  0.94934000  0.42772000  0.25898000  1.0 0.0905819557
C  C475  1  0.36396000  0.42772000  0.94934000  1.0 0.0905819557
C  C476  1  0.42772000  0.36396000  0.25898000  1.0 0.0905819557
C  C477  1  0.25898000  0.94934000  0.42772000  1.0 0.0905819557
C  C478  1  0.55066000  0.13604000  0.24102000  1.0 0.0905819557
C  C479  1  0.13604000  0.24102000  0.55066000  1.0 0.0905819557
C  C480  1  0.24102000  0.55066000  0.13604000  1.0 0.0905819557
C  C481  1  0.66978000  0.00326000  0.76504000  1.0 -0.1749448962
C  C482  1  0.76504000  0.66978000  0.00326000  1.0 -0.175497014
C  C483  1  0.00326000  0.76504000  0.66978000  1.0 -0.175497014
C  C484  1  0.83022000  0.49674000  0.93808000  1.0 -0.1749448962
C  C485  1  0.73496000  0.93808000  0.49674000  1.0 -0.1749448962
C  C486  1  0.93808000  0.73496000  0.83022000  1.0 -0.1749448962
C  C487  1  0.73496000  0.83022000  0.93808000  1.0 -0.1749448962
C  C488  1  0.93808000  0.49674000  0.73496000  1.0 -0.1749448962
C  C489  1  0.49674000  0.93808000  0.83022000  1.0 -0.1749448962
C  C490  1  0.49674000  0.73496000  0.93808000  1.0 -0.1749448962
C  C491  1  0.83022000  0.93808000  0.73496000  1.0 -0.1749448962
C  C492  1  0.93808000  0.83022000  0.49674000  1.0 -0.1749448962
C  C493  1  0.00326000  0.66978000  0.56192000  1.0 -0.175497014
C  C494  1  0.76504000  0.56192000  0.66978000  1.0 -0.1749448962
C  C495  1  0.56192000  0.76504000  0.00326000  1.0 -0.1749448962
C  C496  1  0.56192000  0.00326000  0.66978000  1.0 -0.175497014
C  C497  1  0.66978000  0.76504000  0.56192000  1.0 -0.1749448962
C  C498  1  0.00326000  0.56192000  0.76504000  1.0 -0.175497014
C  C499  1  0.66978000  0.56192000  0.00326000  1.0 -0.175497014
C  C500  1  0.56192000  0.66978000  0.76504000  1.0 -0.175497014
C  C501  1  0.76504000  0.00326000  0.56192000  1.0 -0.1749448962
C  C502  1  0.49674000  0.83022000  0.73496000  1.0 -0.1749448962
C  C503  1  0.83022000  0.73496000  0.49674000  1.0 -0.1749448962
C  C504  1  0.73496000  0.49674000  0.83022000  1.0 -0.1749448962
C  C505  1  0.33022000  0.99674000  0.23496000  1.0 -0.175497014
C  C506  1  0.23496000  0.33022000  0.99674000  1.0 -0.1749448962
C  C507  1  0.99674000  0.23496000  0.33022000  1.0 -0.1749448962
C  C508  1  0.16978000  0.50326000  0.06192000  1.0 -0.1749448962
C  C509  1  0.26504000  0.06192000  0.50326000  1.0 -0.1749448962
C  C510  1  0.06192000  0.26504000  0.16978000  1.0 -0.175497014
C  C511  1  0.26504000  0.16978000  0.06192000  1.0 -0.175497014
C  C512  1  0.06192000  0.50326000  0.26504000  1.0 -0.175497014
C  C513  1  0.50326000  0.06192000  0.16978000  1.0 -0.1749448962
C  C514  1  0.50326000  0.26504000  0.06192000  1.0 -0.175497014
C  C515  1  0.16978000  0.06192000  0.26504000  1.0 -0.1749448962
C  C516  1  0.06192000  0.16978000  0.50326000  1.0 -0.175497014
C  C517  1  0.99674000  0.33022000  0.43808000  1.0 -0.1749448962
C  C518  1  0.23496000  0.43808000  0.33022000  1.0 -0.175497014
C  C519  1  0.43808000  0.23496000  0.99674000  1.0 -0.1749448962
C  C520  1  0.43808000  0.99674000  0.33022000  1.0 -0.175497014
C  C521  1  0.33022000  0.23496000  0.43808000  1.0 -0.1749448962
C  C522  1  0.99674000  0.43808000  0.23496000  1.0 -0.1749448962
C  C523  1  0.33022000  0.43808000  0.99674000  1.0 -0.1749448962
C  C524  1  0.43808000  0.33022000  0.23496000  1.0 -0.175497014
C  C525  1  0.23496000  0.99674000  0.43808000  1.0 -0.175497014
C  C526  1  0.50326000  0.16978000  0.26504000  1.0 -0.175497014
C  C527  1  0.16978000  0.26504000  0.50326000  1.0 -0.175497014
C  C528  1  0.26504000  0.50326000  0.16978000  1.0 -0.1749448962
C  C529  1  0.67258000  0.95906000  0.76288000  1.0 -0.3823666758
C  C530  1  0.76288000  0.67258000  0.95906000  1.0 -0.3823666758
C  C531  1  0.95906000  0.76288000  0.67258000  1.0 -0.3823666758
C  C532  1  0.82742000  0.54094000  0.89452000  1.0 -0.3823666758
C  C533  1  0.73712000  0.89452000  0.54094000  1.0 -0.3823666758
C  C534  1  0.89452000  0.73712000  0.82742000  1.0 -0.3823666758
C  C535  1  0.73712000  0.82742000  0.89452000  1.0 -0.3823666758
C  C536  1  0.89452000  0.54094000  0.73712000  1.0 -0.3823666758
C  C537  1  0.54094000  0.89452000  0.82742000  1.0 -0.3823666758
C  C538  1  0.54094000  0.73712000  0.89452000  1.0 -0.3823666758
C  C539  1  0.82742000  0.89452000  0.73712000  1.0 -0.3823666758
C  C540  1  0.89452000  0.82742000  0.54094000  1.0 -0.3823666758
C  C541  1  0.95906000  0.67258000  0.60548000  1.0 -0.3823666758
C  C542  1  0.76288000  0.60548000  0.67258000  1.0 -0.3823666758
C  C543  1  0.60548000  0.76288000  0.95906000  1.0 -0.3823666758
C  C544  1  0.60548000  0.95906000  0.67258000  1.0 -0.3823666758
C  C545  1  0.67258000  0.76288000  0.60548000  1.0 -0.3823666758
C  C546  1  0.95906000  0.60548000  0.76288000  1.0 -0.3823666758
C  C547  1  0.67258000  0.60548000  0.95906000  1.0 -0.3823666758
C  C548  1  0.60548000  0.67258000  0.76288000  1.0 -0.3823666758
C  C549  1  0.76288000  0.95906000  0.60548000  1.0 -0.3823666758
C  C550  1  0.54094000  0.82742000  0.73712000  1.0 -0.3823666758
C  C551  1  0.82742000  0.73712000  0.54094000  1.0 -0.3823666758
C  C552  1  0.73712000  0.54094000  0.82742000  1.0 -0.3823666758
C  C553  1  0.32742000  0.04094000  0.23712000  1.0 -0.3823666758
C  C554  1  0.23712000  0.32742000  0.04094000  1.0 -0.3823666758
C  C555  1  0.04094000  0.23712000  0.32742000  1.0 -0.3823666758
C  C556  1  0.17258000  0.45906000  0.10548000  1.0 -0.3823666758
C  C557  1  0.26288000  0.10548000  0.45906000  1.0 -0.3823666758
C  C558  1  0.10548000  0.26288000  0.17258000  1.0 -0.3823666758
C  C559  1  0.26288000  0.17258000  0.10548000  1.0 -0.3823666758
C  C560  1  0.10548000  0.45906000  0.26288000  1.0 -0.3823666758
C  C561  1  0.45906000  0.10548000  0.17258000  1.0 -0.3823666758
C  C562  1  0.45906000  0.26288000  0.10548000  1.0 -0.3823666758
C  C563  1  0.17258000  0.10548000  0.26288000  1.0 -0.3823666758
C  C564  1  0.10548000  0.17258000  0.45906000  1.0 -0.3823666758
C  C565  1  0.04094000  0.32742000  0.39452000  1.0 -0.3823666758
C  C566  1  0.23712000  0.39452000  0.32742000  1.0 -0.3823666758
C  C567  1  0.39452000  0.23712000  0.04094000  1.0 -0.3823666758
C  C568  1  0.39452000  0.04094000  0.32742000  1.0 -0.3823666758
C  C569  1  0.32742000  0.23712000  0.39452000  1.0 -0.3823666758
C  C570  1  0.04094000  0.39452000  0.23712000  1.0 -0.3823666758
C  C571  1  0.32742000  0.39452000  0.04094000  1.0 -0.3823666758
C  C572  1  0.39452000  0.32742000  0.23712000  1.0 -0.3823666758
C  C573  1  0.23712000  0.04094000  0.39452000  1.0 -0.3823666758
C  C574  1  0.45906000  0.17258000  0.26288000  1.0 -0.3823666758
C  C575  1  0.17258000  0.26288000  0.45906000  1.0 -0.3823666758
C  C576  1  0.26288000  0.45906000  0.17258000  1.0 -0.3823666758
C  C577  1  0.63399000  0.09565000  0.74437000  1.0 -0.1868764335
C  C578  1  0.74437000  0.63399000  0.09565000  1.0 -0.1868764335
C  C579  1  0.09565000  0.74437000  0.63399000  1.0 -0.1868764335
C  C580  1  0.86601000  0.40435000  0.97401000  1.0 -0.1868764335
C  C581  1  0.75563000  0.97401000  0.40435000  1.0 -0.1868764335
C  C582  1  0.97401000  0.75563000  0.86601000  1.0 -0.1868764335
C  C583  1  0.75563000  0.86601000  0.97401000  1.0 -0.1868764335
C  C584  1  0.97401000  0.40435000  0.75563000  1.0 -0.1868764335
C  C585  1  0.40435000  0.97401000  0.86601000  1.0 -0.1868764335
C  C586  1  0.40435000  0.75563000  0.97401000  1.0 -0.1868764335
C  C587  1  0.86601000  0.97401000  0.75563000  1.0 -0.1868764335
C  C588  1  0.97401000  0.86601000  0.40435000  1.0 -0.1868764335
C  C589  1  0.09565000  0.63399000  0.52599000  1.0 -0.1868764335
C  C590  1  0.74437000  0.52599000  0.63399000  1.0 -0.1868764335
C  C591  1  0.52599000  0.74437000  0.09565000  1.0 -0.1868764335
C  C592  1  0.52599000  0.09565000  0.63399000  1.0 -0.1868764335
C  C593  1  0.63399000  0.74437000  0.52599000  1.0 -0.1868764335
C  C594  1  0.09565000  0.52599000  0.74437000  1.0 -0.1868764335
C  C595  1  0.63399000  0.52599000  0.09565000  1.0 -0.1868764335
C  C596  1  0.52599000  0.63399000  0.74437000  1.0 -0.1868764335
C  C597  1  0.74437000  0.09565000  0.52599000  1.0 -0.1868764335
C  C598  1  0.40435000  0.86601000  0.75563000  1.0 -0.1868764335
C  C599  1  0.86601000  0.75563000  0.40435000  1.0 -0.1868764335
C  C600  1  0.75563000  0.40435000  0.86601000  1.0 -0.1868764335
C  C601  1  0.36601000  0.90435000  0.25563000  1.0 -0.1868764335
C  C602  1  0.25563000  0.36601000  0.90435000  1.0 -0.1868764335
C  C603  1  0.90435000  0.25563000  0.36601000  1.0 -0.1868764335
C  C604  1  0.13399000  0.59565000  0.02599000  1.0 -0.1868764335
C  C605  1  0.24437000  0.02599000  0.59565000  1.0 -0.1868764335
C  C606  1  0.02599000  0.24437000  0.13399000  1.0 -0.1868764335
C  C607  1  0.24437000  0.13399000  0.02599000  1.0 -0.1868764335
C  C608  1  0.02599000  0.59565000  0.24437000  1.0 -0.1868764335
C  C609  1  0.59565000  0.02599000  0.13399000  1.0 -0.1868764335
C  C610  1  0.59565000  0.24437000  0.02599000  1.0 -0.1868764335
C  C611  1  0.13399000  0.02599000  0.24437000  1.0 -0.1868764335
C  C612  1  0.02599000  0.13399000  0.59565000  1.0 -0.1868764335
C  C613  1  0.90435000  0.36601000  0.47401000  1.0 -0.1868764335
C  C614  1  0.25563000  0.47401000  0.36601000  1.0 -0.1868764335
C  C615  1  0.47401000  0.25563000  0.90435000  1.0 -0.1868764335
C  C616  1  0.47401000  0.90435000  0.36601000  1.0 -0.1868764335
C  C617  1  0.36601000  0.25563000  0.47401000  1.0 -0.1868764335
C  C618  1  0.90435000  0.47401000  0.25563000  1.0 -0.1868764335
C  C619  1  0.36601000  0.47401000  0.90435000  1.0 -0.1868764335
C  C620  1  0.47401000  0.36601000  0.25563000  1.0 -0.1868764335
C  C621  1  0.25563000  0.90435000  0.47401000  1.0 -0.1868764335
C  C622  1  0.59565000  0.13399000  0.24437000  1.0 -0.1868764335
C  C623  1  0.13399000  0.24437000  0.59565000  1.0 -0.1868764335
C  C624  1  0.24437000  0.59565000  0.13399000  1.0 -0.1868764335
C  C625  1  0.60124000  0.14298000  0.72160000  1.0 -0.3496625218
C  C626  1  0.72160000  0.60124000  0.14298000  1.0 -0.3496625218
C  C627  1  0.14298000  0.72160000  0.60124000  1.0 -0.3496625218
C  C628  1  0.89876000  0.35702000  0.96582000  1.0 -0.3496625218
C  C629  1  0.77840000  0.96582000  0.35702000  1.0 -0.3496625218
C  C630  1  0.96582000  0.77840000  0.89876000  1.0 -0.3496625218
C  C631  1  0.77840000  0.89876000  0.96582000  1.0 -0.3496625218
C  C632  1  0.96582000  0.35702000  0.77840000  1.0 -0.3496625218
C  C633  1  0.35702000  0.96582000  0.89876000  1.0 -0.3496625218
C  C634  1  0.35702000  0.77840000  0.96582000  1.0 -0.3496625218
C  C635  1  0.89876000  0.96582000  0.77840000  1.0 -0.3496625218
C  C636  1  0.96582000  0.89876000  0.35702000  1.0 -0.3496625218
C  C637  1  0.14298000  0.60124000  0.53418000  1.0 -0.3496625218
C  C638  1  0.72160000  0.53418000  0.60124000  1.0 -0.3496625218
C  C639  1  0.53418000  0.72160000  0.14298000  1.0 -0.3496625218
C  C640  1  0.53418000  0.14298000  0.60124000  1.0 -0.3496625218
C  C641  1  0.60124000  0.72160000  0.53418000  1.0 -0.3496625218
C  C642  1  0.14298000  0.53418000  0.72160000  1.0 -0.3496625218
C  C643  1  0.60124000  0.53418000  0.14298000  1.0 -0.3496625218
C  C644  1  0.53418000  0.60124000  0.72160000  1.0 -0.3496625218
C  C645  1  0.72160000  0.14298000  0.53418000  1.0 -0.3496625218
C  C646  1  0.35702000  0.89876000  0.77840000  1.0 -0.3496625218
C  C647  1  0.89876000  0.77840000  0.35702000  1.0 -0.3496625218
C  C648  1  0.77840000  0.35702000  0.89876000  1.0 -0.3496625218
C  C649  1  0.39876000  0.85702000  0.27840000  1.0 -0.3496625218
C  C650  1  0.27840000  0.39876000  0.85702000  1.0 -0.3496625218
C  C651  1  0.85702000  0.27840000  0.39876000  1.0 -0.3496625218
C  C652  1  0.10124000  0.64298000  0.03418000  1.0 -0.3496625218
C  C653  1  0.22160000  0.03418000  0.64298000  1.0 -0.3496625218
C  C654  1  0.03418000  0.22160000  0.10124000  1.0 -0.3496625218
C  C655  1  0.22160000  0.10124000  0.03418000  1.0 -0.3496625218
C  C656  1  0.03418000  0.64298000  0.22160000  1.0 -0.3496625218
C  C657  1  0.64298000  0.03418000  0.10124000  1.0 -0.3496625218
C  C658  1  0.64298000  0.22160000  0.03418000  1.0 -0.3496625218
C  C659  1  0.10124000  0.03418000  0.22160000  1.0 -0.3496625218
C  C660  1  0.03418000  0.10124000  0.64298000  1.0 -0.3496625218
C  C661  1  0.85702000  0.39876000  0.46582000  1.0 -0.3496625218
C  C662  1  0.27840000  0.46582000  0.39876000  1.0 -0.3496625218
C  C663  1  0.46582000  0.27840000  0.85702000  1.0 -0.3496625218
C  C664  1  0.46582000  0.85702000  0.39876000  1.0 -0.3496625218
C  C665  1  0.39876000  0.27840000  0.46582000  1.0 -0.3496625218
C  C666  1  0.85702000  0.46582000  0.27840000  1.0 -0.3496625218
C  C667  1  0.39876000  0.46582000  0.85702000  1.0 -0.3496625218
C  C668  1  0.46582000  0.39876000  0.27840000  1.0 -0.3496625218
C  C669  1  0.27840000  0.85702000  0.46582000  1.0 -0.3496625218
C  C670  1  0.64298000  0.10124000  0.22160000  1.0 -0.3496625218
C  C671  1  0.10124000  0.22160000  0.64298000  1.0 -0.3496625218
C  C672  1  0.22160000  0.64298000  0.10124000  1.0 -0.3496625218
O  O1  1  0.44311000  0.03481000  0.89799000  1.0 -0.5372039365
O  O2  1  0.89799000  0.44311000  0.03481000  1.0 -0.5372039365
O  O3  1  0.03481000  0.89799000  0.44311000  1.0 -0.5372039365
O  O4  1  0.05689000  0.46519000  0.87591000  1.0 -0.5372039365
O  O5  1  0.60201000  0.87591000  0.46519000  1.0 -0.5372039365
O  O6  1  0.87591000  0.60201000  0.05689000  1.0 -0.5372039365
O  O7  1  0.60201000  0.05689000  0.87591000  1.0 -0.5372039365
O  O8  1  0.87591000  0.46519000  0.60201000  1.0 -0.5372039365
O  O9  1  0.46519000  0.87591000  0.05689000  1.0 -0.5372039365
O  O10  1  0.46519000  0.60201000  0.87591000  1.0 -0.5372039365
O  O11  1  0.05689000  0.87591000  0.60201000  1.0 -0.5372039365
O  O12  1  0.87591000  0.05689000  0.46519000  1.0 -0.5372039365
O  O13  1  0.03481000  0.44311000  0.62409000  1.0 -0.5372039365
O  O14  1  0.89799000  0.62409000  0.44311000  1.0 -0.5372039365
O  O15  1  0.62409000  0.89799000  0.03481000  1.0 -0.5372039365
O  O16  1  0.62409000  0.03481000  0.44311000  1.0 -0.5372039365
O  O17  1  0.44311000  0.89799000  0.62409000  1.0 -0.5372039365
O  O18  1  0.03481000  0.62409000  0.89799000  1.0 -0.5372039365
O  O19  1  0.44311000  0.62409000  0.03481000  1.0 -0.5372039365
O  O20  1  0.62409000  0.44311000  0.89799000  1.0 -0.5372039365
O  O21  1  0.89799000  0.03481000  0.62409000  1.0 -0.5372039365
O  O22  1  0.46519000  0.05689000  0.60201000  1.0 -0.5372039365
O  O23  1  0.05689000  0.60201000  0.46519000  1.0 -0.5372039365
O  O24  1  0.60201000  0.46519000  0.05689000  1.0 -0.5372039365
O  O25  1  0.55689000  0.96519000  0.10201000  1.0 -0.5372039365
O  O26  1  0.10201000  0.55689000  0.96519000  1.0 -0.5372039365
O  O27  1  0.96519000  0.10201000  0.55689000  1.0 -0.5372039365
O  O28  1  0.94311000  0.53481000  0.12409000  1.0 -0.5372039365
O  O29  1  0.39799000  0.12409000  0.53481000  1.0 -0.5372039365
O  O30  1  0.12409000  0.39799000  0.94311000  1.0 -0.5372039365
O  O31  1  0.39799000  0.94311000  0.12409000  1.0 -0.5372039365
O  O32  1  0.12409000  0.53481000  0.39799000  1.0 -0.5372039365
O  O33  1  0.53481000  0.12409000  0.94311000  1.0 -0.5372039365
O  O34  1  0.53481000  0.39799000  0.12409000  1.0 -0.5372039365
O  O35  1  0.94311000  0.12409000  0.39799000  1.0 -0.5372039365
O  O36  1  0.12409000  0.94311000  0.53481000  1.0 -0.5372039365
O  O37  1  0.96519000  0.55689000  0.37591000  1.0 -0.5372039365
O  O38  1  0.10201000  0.37591000  0.55689000  1.0 -0.5372039365
O  O39  1  0.37591000  0.10201000  0.96519000  1.0 -0.5372039365
O  O40  1  0.37591000  0.96519000  0.55689000  1.0 -0.5372039365
O  O41  1  0.55689000  0.10201000  0.37591000  1.0 -0.5372039365
O  O42  1  0.96519000  0.37591000  0.10201000  1.0 -0.5372039365
O  O43  1  0.55689000  0.37591000  0.96519000  1.0 -0.5372039365
O  O44  1  0.37591000  0.55689000  0.10201000  1.0 -0.5372039365
O  O45  1  0.10201000  0.96519000  0.37591000  1.0 -0.5372039365
O  O46  1  0.53481000  0.94311000  0.39799000  1.0 -0.5372039365
O  O47  1  0.94311000  0.39799000  0.53481000  1.0 -0.5372039365
O  O48  1  0.39799000  0.53481000  0.94311000  1.0 -0.5372039365
O  O49  1  0.41076000  0.00222000  0.05660000  1.0 -0.5637564646
O  O50  1  0.05660000  0.41076000  0.00222000  1.0 -0.5637564646
O  O51  1  0.00222000  0.05660000  0.41076000  1.0 -0.5637564646
O  O52  1  0.08924000  0.49778000  0.96958000  1.0 -0.5637564646
O  O53  1  0.44340000  0.96958000  0.49778000  1.0 -0.5637564646
O  O54  1  0.96958000  0.44340000  0.08924000  1.0 -0.5637564646
O  O55  1  0.44340000  0.08924000  0.96958000  1.0 -0.5637564646
O  O56  1  0.96958000  0.49778000  0.44340000  1.0 -0.5637564646
O  O57  1  0.49778000  0.96958000  0.08924000  1.0 -0.5637564646
O  O58  1  0.49778000  0.44340000  0.96958000  1.0 -0.5637564646
O  O59  1  0.08924000  0.96958000  0.44340000  1.0 -0.5637564646
O  O60  1  0.96958000  0.08924000  0.49778000  1.0 -0.5637564646
O  O61  1  0.00222000  0.41076000  0.53042000  1.0 -0.5637564646
O  O62  1  0.05660000  0.53042000  0.41076000  1.0 -0.5637564646
O  O63  1  0.53042000  0.05660000  0.00222000  1.0 -0.5637564646
O  O64  1  0.53042000  0.00222000  0.41076000  1.0 -0.5637564646
O  O65  1  0.41076000  0.05660000  0.53042000  1.0 -0.5637564646
O  O66  1  0.00222000  0.53042000  0.05660000  1.0 -0.5637564646
O  O67  1  0.41076000  0.53042000  0.00222000  1.0 -0.5637564646
O  O68  1  0.53042000  0.41076000  0.05660000  1.0 -0.5637564646
O  O69  1  0.05660000  0.00222000  0.53042000  1.0 -0.5637564646
O  O70  1  0.49778000  0.08924000  0.44340000  1.0 -0.5637564646
O  O71  1  0.08924000  0.44340000  0.49778000  1.0 -0.5637564646
O  O72  1  0.44340000  0.49778000  0.08924000  1.0 -0.5637564646
O  O73  1  0.58924000  0.99778000  0.94340000  1.0 -0.5637564646
O  O74  1  0.94340000  0.58924000  0.99778000  1.0 -0.5637564646
O  O75  1  0.99778000  0.94340000  0.58924000  1.0 -0.5637564646
O  O76  1  0.91076000  0.50222000  0.03042000  1.0 -0.5637564646
O  O77  1  0.55660000  0.03042000  0.50222000  1.0 -0.5637564646
O  O78  1  0.03042000  0.55660000  0.91076000  1.0 -0.5637564646
O  O79  1  0.55660000  0.91076000  0.03042000  1.0 -0.5637564646
O  O80  1  0.03042000  0.50222000  0.55660000  1.0 -0.5637564646
O  O81  1  0.50222000  0.03042000  0.91076000  1.0 -0.5637564646
O  O82  1  0.50222000  0.55660000  0.03042000  1.0 -0.5637564646
O  O83  1  0.91076000  0.03042000  0.55660000  1.0 -0.5637564646
O  O84  1  0.03042000  0.91076000  0.50222000  1.0 -0.5637564646
O  O85  1  0.99778000  0.58924000  0.46958000  1.0 -0.5637564646
O  O86  1  0.94340000  0.46958000  0.58924000  1.0 -0.5637564646
O  O87  1  0.46958000  0.94340000  0.99778000  1.0 -0.5637564646
O  O88  1  0.46958000  0.99778000  0.58924000  1.0 -0.5637564646
O  O89  1  0.58924000  0.94340000  0.46958000  1.0 -0.5637564646
O  O90  1  0.99778000  0.46958000  0.94340000  1.0 -0.5637564646
O  O91  1  0.58924000  0.46958000  0.99778000  1.0 -0.5637564646
O  O92  1  0.46958000  0.58924000  0.94340000  1.0 -0.5637564646
O  O93  1  0.94340000  0.99778000  0.46958000  1.0 -0.5637564646
O  O94  1  0.50222000  0.91076000  0.55660000  1.0 -0.5637564646
O  O95  1  0.91076000  0.55660000  0.50222000  1.0 -0.5637564646
O  O96  1  0.55660000  0.50222000  0.91076000  1.0 -0.5637564646
O  O97  1  0.50000000  0.00000000  0.00000000  1.0 -0.0606757576
O  O98  1  0.00000000  0.50000000  0.00000000  1.0 -0.0684036699
O  O99  1  0.00000000  0.00000000  0.50000000  1.0 -0.0606757576
O  O100  1  0.50000000  0.00000000  0.50000000  1.0 -0.0684036699
O  O101  1  0.00000000  0.50000000  0.50000000  1.0 -0.0606757576
O  O102  1  0.50000000  0.50000000  0.00000000  1.0 -0.0684036699
