# DDEC6 charges by PACMAN v1.1 (https://github.com/mtap-research/PACMAN-charge/)
data_BOZFON_ASR_pacman
_symmetry_space_group_name_H-M   'P 1'
_cell_length_a   12.56020000
_cell_length_b   24.66020000
_cell_length_c   28.69110000
_cell_angle_alpha   90.00000000
_cell_angle_beta   90.00000000
_cell_angle_gamma   90.00000000
_symmetry_Int_Tables_number   1
_chemical_formula_structural   Cd3H50C81(N2O3)4
_chemical_formula_sum   'Cd12 H200 C324 N32 O48'
_cell_volume   8886.69650426
_cell_formula_units_Z   4
loop_
 _symmetry_equiv_pos_site_id
 _symmetry_equiv_pos_as_xyz
  1  'x, y, z'
loop_
 _atom_site_type_symbol
 _atom_site_label
 _atom_site_symmetry_multiplicity
 _atom_site_fract_x
 _atom_site_fract_y
 _atom_site_fract_z
 _atom_site_occupancy
 _atom_site_charge
Cd  Cd1  1  0.06286000  0.99389000  0.31217000  1.0 0.8661391115
Cd  Cd2  1  0.06286000  0.00611000  0.68783000  1.0 0.8661391115
Cd  Cd3  1  0.56286000  0.50611000  0.81217000  1.0 0.8661391115
Cd  Cd4  1  0.56286000  0.49389000  0.18783000  1.0 0.8661391115
Cd  Cd5  1  0.19015000  0.89786000  0.24038000  1.0 1.1007006294
Cd  Cd6  1  0.19015000  0.10214000  0.75962000  1.0 1.1007006294
Cd  Cd7  1  0.69015000  0.60214000  0.74038000  1.0 1.1007006294
Cd  Cd8  1  0.69015000  0.39786000  0.25962000  1.0 1.1007006294
Cd  Cd9  1  0.31844000  0.79826000  0.17338000  1.0 0.8952085501
Cd  Cd10  1  0.31844000  0.20174000  0.82662000  1.0 0.8952085501
Cd  Cd11  1  0.81844000  0.70174000  0.67338000  1.0 0.8952085501
Cd  Cd12  1  0.81844000  0.29826000  0.32662000  1.0 0.8952085501
H  H1  1  0.79160000  0.65090000  0.13070000  1.0 0.1199531556
H  H2  1  0.79160000  0.34910000  0.86930000  1.0 0.1199531556
H  H3  1  0.29160000  0.84910000  0.63070000  1.0 0.1199531556
H  H4  1  0.29160000  0.15090000  0.36930000  1.0 0.1199531556
H  H5  1  0.88180000  0.56570000  0.02040000  1.0 0.1199531556
H  H6  1  0.88180000  0.43430000  0.97960000  1.0 0.1199531556
H  H7  1  0.38180000  0.93430000  0.52040000  1.0 0.1199531556
H  H8  1  0.38180000  0.06570000  0.47960000  1.0 0.1199531556
H  H9  1  0.92480000  0.59850000  0.16820000  1.0 0.1199531556
H  H10  1  0.92480000  0.40150000  0.83180000  1.0 0.1199531556
H  H11  1  0.42480000  0.90150000  0.66820000  1.0 0.1199531556
H  H12  1  0.42480000  0.09850000  0.33180000  1.0 0.1199531556
H  H13  1  0.09390000  0.58830000  0.19950000  1.0 0.1289656044
H  H14  1  0.09390000  0.41170000  0.80050000  1.0 0.1289656044
H  H15  1  0.59390000  0.91170000  0.69950000  1.0 0.1289656044
H  H16  1  0.59390000  0.08830000  0.30050000  1.0 0.1289656044
H  H17  1  0.21870000  0.58850000  0.07060000  1.0 0.1289656044
H  H18  1  0.21870000  0.41150000  0.92940000  1.0 0.1199531556
H  H19  1  0.71870000  0.91150000  0.57060000  1.0 0.1289656044
H  H20  1  0.71870000  0.08850000  0.42940000  1.0 0.1289656044
H  H21  1  0.04970000  0.59890000  0.03920000  1.0 0.110567692
H  H22  1  0.04970000  0.40110000  0.96080000  1.0 0.110567692
H  H23  1  0.54970000  0.90110000  0.53920000  1.0 0.110567692
H  H24  1  0.54970000  0.09890000  0.46080000  1.0 0.110567692
H  H25  1  0.77790000  0.53450000  0.87070000  1.0 0.110567692
H  H26  1  0.77790000  0.46550000  0.12930000  1.0 0.110567692
H  H27  1  0.27790000  0.96550000  0.37070000  1.0 0.110567692
H  H28  1  0.27790000  0.03450000  0.62930000  1.0 0.110567692
H  H29  1  0.83510000  0.56680000  0.94040000  1.0 0.1289656044
H  H30  1  0.83510000  0.43320000  0.05960000  1.0 0.1289656044
H  H31  1  0.33510000  0.93320000  0.44040000  1.0 0.1289656044
H  H32  1  0.33510000  0.06680000  0.55960000  1.0 0.1289656044
H  H33  1  0.54820000  0.56390000  0.98870000  1.0 0.1289656044
H  H34  1  0.54820000  0.43610000  0.01130000  1.0 0.1289656044
H  H35  1  0.04820000  0.93610000  0.48870000  1.0 0.1289656044
H  H36  1  0.04820000  0.06390000  0.51130000  1.0 0.1289656044
H  H37  1  0.49510000  0.52280000  0.92080000  1.0 0.1013107766
H  H38  1  0.49510000  0.47720000  0.07920000  1.0 0.1013107766
H  H39  1  0.99510000  0.97720000  0.42080000  1.0 0.1013107766
H  H40  1  0.99510000  0.02280000  0.57920000  1.0 0.1013107766
H  H41  1  0.55000000  0.76540000  0.18030000  1.0 0.110567692
H  H42  1  0.55000000  0.23460000  0.81970000  1.0 0.110567692
H  H43  1  0.05000000  0.73460000  0.68030000  1.0 0.110567692
H  H44  1  0.05000000  0.26540000  0.31970000  1.0 0.110567692
H  H45  1  0.67590000  0.69780000  0.16400000  1.0 0.1289656044
H  H46  1  0.67590000  0.30220000  0.83600000  1.0 0.1289656044
H  H47  1  0.17590000  0.80220000  0.66400000  1.0 0.1289656044
H  H48  1  0.17590000  0.19780000  0.33600000  1.0 0.1289656044
H  H49  1  0.46350000  0.63690000  0.07160000  1.0 0.1289656044
H  H50  1  0.46350000  0.36310000  0.92840000  1.0 0.1289656044
H  H51  1  0.96350000  0.86310000  0.57160000  1.0 0.1289656044
H  H52  1  0.96350000  0.13690000  0.42840000  1.0 0.1289656044
H  H53  1  0.35190000  0.70200000  0.09380000  1.0 0.110567692
H  H54  1  0.35190000  0.29800000  0.90620000  1.0 0.110567692
H  H55  1  0.85190000  0.79800000  0.59380000  1.0 0.110567692
H  H56  1  0.85190000  0.20200000  0.40620000  1.0 0.110567692
H  H57  1  0.34520000  0.52860000  0.12110000  1.0 0.1199531556
H  H58  1  0.34520000  0.47140000  0.87890000  1.0 0.1199531556
H  H59  1  0.84520000  0.97140000  0.62110000  1.0 0.1199531556
H  H60  1  0.84520000  0.02860000  0.37890000  1.0 0.1199531556
H  H61  1  0.46170000  0.60970000  0.23080000  1.0 0.1369377053
H  H62  1  0.46170000  0.39030000  0.76920000  1.0 0.1369377053
H  H63  1  0.96170000  0.89030000  0.73080000  1.0 0.1369377053
H  H64  1  0.96170000  0.10970000  0.26920000  1.0 0.1369377053
H  H65  1  0.28840000  0.65090000  0.20680000  1.0 0.1501123732
H  H66  1  0.28840000  0.34910000  0.79320000  1.0 0.1501123732
H  H67  1  0.78840000  0.84910000  0.70680000  1.0 0.1501123732
H  H68  1  0.78840000  0.15090000  0.29320000  1.0 0.1501123732
H  H69  1  0.51490000  0.88690000  0.24150000  1.0 0.110567692
H  H70  1  0.51490000  0.11310000  0.75850000  1.0 0.110567692
H  H71  1  0.01490000  0.61310000  0.74150000  1.0 0.110567692
H  H72  1  0.01490000  0.38690000  0.25850000  1.0 0.110567692
H  H73  1  0.74130000  0.98710000  0.23920000  1.0 0.1199531556
H  H74  1  0.74130000  0.01290000  0.76080000  1.0 0.1199531556
H  H75  1  0.24130000  0.51290000  0.73920000  1.0 0.1199531556
H  H76  1  0.24130000  0.48710000  0.26080000  1.0 0.1199531556
H  H77  1  0.86570000  0.91380000  0.22830000  1.0 0.1199531556
H  H78  1  0.86570000  0.08620000  0.77170000  1.0 0.1199531556
H  H79  1  0.36570000  0.58620000  0.72830000  1.0 0.1199531556
H  H80  1  0.36570000  0.41380000  0.27170000  1.0 0.1199531556
H  H81  1  0.42640000  0.95220000  0.27010000  1.0 0.1199531556
H  H82  1  0.42640000  0.04780000  0.72990000  1.0 0.1199531556
H  H83  1  0.92640000  0.54780000  0.77010000  1.0 0.1199531556
H  H84  1  0.92640000  0.45220000  0.22990000  1.0 0.1199531556
H  H85  1  0.64170000  0.03580000  0.19540000  1.0 0.110567692
H  H86  1  0.64170000  0.96420000  0.80460000  1.0 0.110567692
H  H87  1  0.14170000  0.46420000  0.69540000  1.0 0.110567692
H  H88  1  0.14170000  0.53580000  0.30460000  1.0 0.110567692
H  H89  1  0.52390000  0.10800000  0.19010000  1.0 0.110567692
H  H90  1  0.52390000  0.89200000  0.80990000  1.0 0.110567692
H  H91  1  0.02390000  0.39200000  0.69010000  1.0 0.110567692
H  H92  1  0.02390000  0.60800000  0.30990000  1.0 0.110567692
H  H93  1  0.35760000  0.10240000  0.22480000  1.0 0.110567692
H  H94  1  0.35760000  0.89760000  0.77520000  1.0 0.110567692
H  H95  1  0.85760000  0.39760000  0.72480000  1.0 0.110567692
H  H96  1  0.85760000  0.60240000  0.27520000  1.0 0.110567692
H  H97  1  0.96270000  0.84440000  0.21600000  1.0 0.1199531556
H  H98  1  0.96270000  0.15560000  0.78400000  1.0 0.1199531556
H  H99  1  0.46270000  0.65560000  0.71600000  1.0 0.1199531556
H  H100  1  0.46270000  0.34440000  0.28400000  1.0 0.1199531556
H  H101  1  0.70990000  0.74960000  0.24280000  1.0 0.110567692
H  H102  1  0.70990000  0.25040000  0.75720000  1.0 0.110567692
H  H103  1  0.20990000  0.75040000  0.74280000  1.0 0.110567692
H  H104  1  0.20990000  0.24960000  0.25720000  1.0 0.110567692
H  H105  1  0.81790000  0.67340000  0.23920000  1.0 0.1199531556
H  H106  1  0.81790000  0.32660000  0.76080000  1.0 0.1199531556
H  H107  1  0.31790000  0.82660000  0.73920000  1.0 0.1199531556
H  H108  1  0.31790000  0.17340000  0.26080000  1.0 0.1199531556
H  H109  1  0.99830000  0.68280000  0.22390000  1.0 0.110567692
H  H110  1  0.99830000  0.31720000  0.77610000  1.0 0.110567692
H  H111  1  0.49830000  0.81720000  0.72390000  1.0 0.110567692
H  H112  1  0.49830000  0.18280000  0.27610000  1.0 0.110567692
H  H113  1  0.05680000  0.66340000  0.41740000  1.0 0.110567692
H  H114  1  0.05680000  0.33660000  0.58260000  1.0 0.110567692
H  H115  1  0.55680000  0.83660000  0.91740000  1.0 0.110567692
H  H116  1  0.55680000  0.16340000  0.08260000  1.0 0.110567692
H  H117  1  0.19090000  0.71220000  0.30050000  1.0 0.1199531556
H  H118  1  0.19090000  0.28780000  0.69950000  1.0 0.1199531556
H  H119  1  0.69090000  0.78780000  0.80050000  1.0 0.1199531556
H  H120  1  0.69090000  0.21220000  0.19950000  1.0 0.1199531556
H  H121  1  0.32150000  0.64650000  0.30840000  1.0 0.1199531556
H  H122  1  0.32150000  0.35350000  0.69160000  1.0 0.1199531556
H  H123  1  0.82150000  0.85350000  0.80840000  1.0 0.1199531556
H  H124  1  0.82150000  0.14650000  0.19160000  1.0 0.1199531556
H  H125  1  0.11550000  0.79780000  0.32930000  1.0 0.1199531556
H  H126  1  0.11550000  0.20220000  0.67070000  1.0 0.1199531556
H  H127  1  0.61550000  0.70220000  0.82930000  1.0 0.1199531556
H  H128  1  0.61550000  0.29780000  0.17070000  1.0 0.1199531556
H  H129  1  0.90510000  0.68890000  0.37810000  1.0 0.110567692
H  H130  1  0.90510000  0.31110000  0.62190000  1.0 0.110567692
H  H131  1  0.40510000  0.81110000  0.87810000  1.0 0.110567692
H  H132  1  0.40510000  0.18890000  0.12190000  1.0 0.110567692
H  H133  1  0.77260000  0.75440000  0.37650000  1.0 0.110567692
H  H134  1  0.77260000  0.24560000  0.62350000  1.0 0.110567692
H  H135  1  0.27260000  0.74560000  0.87650000  1.0 0.110567692
H  H136  1  0.27260000  0.25440000  0.12350000  1.0 0.110567692
H  H137  1  0.81140000  0.84150000  0.35130000  1.0 0.1199531556
H  H138  1  0.81140000  0.15850000  0.64870000  1.0 0.1199531556
H  H139  1  0.31140000  0.65850000  0.85130000  1.0 0.1199531556
H  H140  1  0.31140000  0.34150000  0.14870000  1.0 0.1199531556
H  H141  1  0.37020000  0.55730000  0.30600000  1.0 0.110567692
H  H142  1  0.37020000  0.44270000  0.69400000  1.0 0.110567692
H  H143  1  0.87020000  0.94270000  0.80600000  1.0 0.110567692
H  H144  1  0.87020000  0.05730000  0.19400000  1.0 0.110567692
H  H145  1  0.33680000  0.57140000  0.44470000  1.0 0.1199531556
H  H146  1  0.33680000  0.42860000  0.55530000  1.0 0.1199531556
H  H147  1  0.83680000  0.92860000  0.94470000  1.0 0.1199531556
H  H148  1  0.83680000  0.07140000  0.05530000  1.0 0.1199531556
H  H149  1  0.46200000  0.50340000  0.45560000  1.0 0.1199531556
H  H150  1  0.46200000  0.49660000  0.54440000  1.0 0.1199531556
H  H151  1  0.96200000  0.99660000  0.95560000  1.0 0.1199531556
H  H152  1  0.96200000  0.00340000  0.04440000  1.0 0.1199531556
H  H153  1  0.54100000  0.46220000  0.39160000  1.0 0.1289656044
H  H154  1  0.54100000  0.53780000  0.60840000  1.0 0.1289656044
H  H155  1  0.04100000  0.03780000  0.89160000  1.0 0.1289656044
H  H156  1  0.04100000  0.96220000  0.10840000  1.0 0.1289656044
H  H157  1  0.56790000  0.65460000  0.30870000  1.0 0.1013107766
H  H158  1  0.56790000  0.34540000  0.69130000  1.0 0.1013107766
H  H159  1  0.06790000  0.84540000  0.80870000  1.0 0.1013107766
H  H160  1  0.06790000  0.15460000  0.19130000  1.0 0.1013107766
H  H161  1  0.63400000  0.69610000  0.43410000  1.0 0.1199531556
H  H162  1  0.63400000  0.30390000  0.56590000  1.0 0.1199531556
H  H163  1  0.13400000  0.80390000  0.93410000  1.0 0.1199531556
H  H164  1  0.13400000  0.19610000  0.06590000  1.0 0.1199531556
H  H165  1  0.74830000  0.63000000  0.44640000  1.0 0.1199531556
H  H166  1  0.74830000  0.37000000  0.55360000  1.0 0.1199531556
H  H167  1  0.24830000  0.87000000  0.94640000  1.0 0.1199531556
H  H168  1  0.24830000  0.13000000  0.05360000  1.0 0.1199531556
H  H169  1  0.51460000  0.73960000  0.29990000  1.0 0.1199531556
H  H170  1  0.51460000  0.26040000  0.70010000  1.0 0.1199531556
H  H171  1  0.01460000  0.76040000  0.79990000  1.0 0.1199531556
H  H172  1  0.01460000  0.23960000  0.20010000  1.0 0.1199531556
H  H173  1  0.46630000  0.71780000  0.43710000  1.0 0.1199531556
H  H174  1  0.46630000  0.28220000  0.56290000  1.0 0.1199531556
H  H175  1  0.96630000  0.78220000  0.93710000  1.0 0.1199531556
H  H176  1  0.96630000  0.21780000  0.06290000  1.0 0.1199531556
H  H177  1  0.33390000  0.78340000  0.43590000  1.0 0.1199531556
H  H178  1  0.33390000  0.21660000  0.56410000  1.0 0.1199531556
H  H179  1  0.83390000  0.71660000  0.93590000  1.0 0.1199531556
H  H180  1  0.83390000  0.28340000  0.06410000  1.0 0.1199531556
H  H181  1  0.29200000  0.82720000  0.36670000  1.0 0.1199531556
H  H182  1  0.29200000  0.17280000  0.63330000  1.0 0.1199531556
H  H183  1  0.79200000  0.67280000  0.86670000  1.0 0.1199531556
H  H184  1  0.79200000  0.32720000  0.13330000  1.0 0.1199531556
H  H185  1  0.74800000  0.49260000  0.34470000  1.0 0.1289656044
H  H186  1  0.74800000  0.50740000  0.65530000  1.0 0.1289656044
H  H187  1  0.24800000  0.00740000  0.84470000  1.0 0.1289656044
H  H188  1  0.24800000  0.99260000  0.15530000  1.0 0.1289656044
H  H189  1  0.89120000  0.59610000  0.43200000  1.0 0.110567692
H  H190  1  0.89120000  0.40390000  0.56800000  1.0 0.110567692
H  H191  1  0.39120000  0.90390000  0.93200000  1.0 0.110567692
H  H192  1  0.39120000  0.09610000  0.06800000  1.0 0.110567692
H  H193  1  0.02200000  0.53150000  0.44680000  1.0 0.1199531556
H  H194  1  0.02200000  0.46850000  0.55320000  1.0 0.1199531556
H  H195  1  0.52200000  0.96850000  0.94680000  1.0 0.1199531556
H  H196  1  0.52200000  0.03150000  0.05320000  1.0 0.1199531556
H  H197  1  0.99000000  0.44190000  0.42380000  1.0 0.1289656044
H  H198  1  0.99000000  0.55810000  0.57620000  1.0 0.1289656044
H  H199  1  0.49000000  0.05810000  0.92380000  1.0 0.1289656044
H  H200  1  0.49000000  0.94190000  0.07620000  1.0 0.1289656044
C  C1  1  0.67700000  0.63490000  0.08160000  1.0 0.2170660621
C  C2  1  0.67700000  0.36510000  0.91840000  1.0 0.2170660621
C  C3  1  0.17700000  0.86510000  0.58160000  1.0 0.2170660621
C  C4  1  0.17700000  0.13490000  0.41840000  1.0 0.2170660621
C  C5  1  0.77890000  0.63380000  0.10240000  1.0 -0.2457982773
C  C6  1  0.77890000  0.36620000  0.89760000  1.0 -0.2457982773
C  C7  1  0.27890000  0.86620000  0.60240000  1.0 -0.2457982773
C  C8  1  0.27890000  0.13380000  0.39760000  1.0 -0.2457982773
C  C9  1  0.86500000  0.60460000  0.07780000  1.0 0.1199531556
C  C10  1  0.86500000  0.39540000  0.92220000  1.0 0.1199531556
C  C11  1  0.36500000  0.89540000  0.57780000  1.0 0.1199531556
C  C12  1  0.36500000  0.10460000  0.42220000  1.0 0.1199531556
C  C13  1  0.83200000  0.58520000  0.03770000  1.0 -0.2176358407
C  C14  1  0.83200000  0.41480000  0.96230000  1.0 -0.2176358407
C  C15  1  0.33200000  0.91480000  0.53770000  1.0 -0.2176358407
C  C16  1  0.33200000  0.08520000  0.46230000  1.0 -0.2176358407
C  C17  1  0.73460000  0.59080000  0.01910000  1.0 0.1666765599
C  C18  1  0.73460000  0.40920000  0.98090000  1.0 0.1666765599
C  C19  1  0.23460000  0.90920000  0.51910000  1.0 0.1666765599
C  C20  1  0.23460000  0.09080000  0.48090000  1.0 0.1666765599
C  C21  1  0.97000000  0.59970000  0.10060000  1.0 0.0585510758
C  C22  1  0.97000000  0.40030000  0.89940000  1.0 0.0585510758
C  C23  1  0.47000000  0.90030000  0.60060000  1.0 0.0585510758
C  C24  1  0.47000000  0.09970000  0.39940000  1.0 0.0585510758
C  C25  1  0.98400000  0.59650000  0.14860000  1.0 -0.1112672201
C  C26  1  0.98400000  0.40350000  0.85140000  1.0 -0.1112672201
C  C27  1  0.48400000  0.90350000  0.64860000  1.0 -0.1112672201
C  C28  1  0.48400000  0.09650000  0.35140000  1.0 -0.1112672201
C  C29  1  0.08500000  0.59040000  0.16740000  1.0 -0.1594409464
C  C30  1  0.08500000  0.40960000  0.83260000  1.0 -0.1594409464
C  C31  1  0.58500000  0.90960000  0.66740000  1.0 -0.1594409464
C  C32  1  0.58500000  0.09040000  0.33260000  1.0 -0.1594409464
C  C33  1  0.17300000  0.58740000  0.13820000  1.0 0.1631964868
C  C34  1  0.17300000  0.41260000  0.86180000  1.0 0.1631964868
C  C35  1  0.67300000  0.91260000  0.63820000  1.0 0.1631964868
C  C36  1  0.67300000  0.08740000  0.36180000  1.0 0.1631964868
C  C37  1  0.16000000  0.59050000  0.09020000  1.0 -0.1982625132
C  C38  1  0.16000000  0.40950000  0.90980000  1.0 -0.1982625132
C  C39  1  0.66000000  0.90950000  0.59020000  1.0 -0.1982625132
C  C40  1  0.66000000  0.09050000  0.40980000  1.0 -0.1982625132
C  C41  1  0.05900000  0.59670000  0.07140000  1.0 -0.1294410588
C  C42  1  0.05900000  0.40330000  0.92860000  1.0 -0.1294410588
C  C43  1  0.55900000  0.90330000  0.57140000  1.0 -0.1294410588
C  C44  1  0.55900000  0.09670000  0.42860000  1.0 -0.1294410588
C  C45  1  0.72800000  0.53760000  0.89460000  1.0 0.110567692
C  C46  1  0.72800000  0.46240000  0.10540000  1.0 0.110567692
C  C47  1  0.22800000  0.96240000  0.39460000  1.0 0.110567692
C  C48  1  0.22800000  0.03760000  0.60540000  1.0 0.110567692
C  C49  1  0.76390000  0.55740000  0.93700000  1.0 -0.2176358407
C  C50  1  0.76390000  0.44260000  0.06300000  1.0 -0.2176358407
C  C51  1  0.26390000  0.94260000  0.43700000  1.0 -0.2176358407
C  C52  1  0.26390000  0.05740000  0.56300000  1.0 -0.2176358407
C  C53  1  0.69800000  0.56330000  0.97280000  1.0 0.1013107766
C  C54  1  0.69800000  0.43670000  0.02720000  1.0 0.1013107766
C  C55  1  0.19800000  0.93670000  0.47280000  1.0 0.1013107766
C  C56  1  0.19800000  0.06330000  0.52720000  1.0 0.1013107766
C  C57  1  0.59800000  0.55500000  0.96600000  1.0 -0.1594409464
C  C58  1  0.59800000  0.44500000  0.03400000  1.0 -0.1594409464
C  C59  1  0.09800000  0.94500000  0.46600000  1.0 -0.1594409464
C  C60  1  0.09800000  0.05500000  0.53400000  1.0 -0.1594409464
C  C61  1  0.56600000  0.53240000  0.92370000  1.0 0.0099920827
C  C62  1  0.56600000  0.46760000  0.07630000  1.0 0.0099920827
C  C63  1  0.06600000  0.96760000  0.42370000  1.0 0.0099920827
C  C64  1  0.06600000  0.03240000  0.57630000  1.0 0.0099920827
C  C65  1  0.53200000  0.73780000  0.15970000  1.0 0.110567692
C  C66  1  0.53200000  0.26220000  0.84030000  1.0 0.110567692
C  C67  1  0.03200000  0.76220000  0.65970000  1.0 0.110567692
C  C68  1  0.03200000  0.23780000  0.34030000  1.0 0.110567692
C  C69  1  0.61400000  0.70090000  0.14670000  1.0 -0.1982625132
C  C70  1  0.61400000  0.29910000  0.85330000  1.0 -0.1982625132
C  C71  1  0.11400000  0.79910000  0.64670000  1.0 -0.1982625132
C  C72  1  0.11400000  0.20090000  0.35330000  1.0 -0.1982625132
C  C73  1  0.59600000  0.66750000  0.10460000  1.0 0.0830735838
C  C74  1  0.59600000  0.33250000  0.89540000  1.0 0.0830735838
C  C75  1  0.09600000  0.83250000  0.60460000  1.0 0.0830735838
C  C76  1  0.09600000  0.16750000  0.39540000  1.0 0.0830735838
C  C77  1  0.48700000  0.66420000  0.09160000  1.0 -0.1901393681
C  C78  1  0.48700000  0.33580000  0.90840000  1.0 -0.1901393681
C  C79  1  0.98700000  0.83580000  0.59160000  1.0 -0.1901393681
C  C80  1  0.98700000  0.16420000  0.40840000  1.0 -0.1901393681
C  C81  1  0.41800000  0.70050000  0.10840000  1.0 0.0407263278
C  C82  1  0.41800000  0.29950000  0.89160000  1.0 0.0407263278
C  C83  1  0.91800000  0.79950000  0.60840000  1.0 0.0407263278
C  C84  1  0.91800000  0.20050000  0.39160000  1.0 0.0407263278
C  C85  1  0.35000000  0.55250000  0.14610000  1.0 0.110567692
C  C86  1  0.35000000  0.44750000  0.85390000  1.0 0.110567692
C  C87  1  0.85000000  0.94750000  0.64610000  1.0 0.110567692
C  C88  1  0.85000000  0.05250000  0.35390000  1.0 0.110567692
C  C89  1  0.41700000  0.59900000  0.20660000  1.0 -0.010642414
C  C90  1  0.41700000  0.40100000  0.79340000  1.0 -0.010642414
C  C91  1  0.91700000  0.90100000  0.70660000  1.0 -0.010642414
C  C92  1  0.91700000  0.09900000  0.29340000  1.0 -0.010642414
C  C93  1  0.32000000  0.61990000  0.19430000  1.0 -0.1112672201
C  C94  1  0.32000000  0.38010000  0.80570000  1.0 -0.1112672201
C  C95  1  0.82000000  0.88010000  0.69430000  1.0 -0.1112672201
C  C96  1  0.82000000  0.11990000  0.30570000  1.0 -0.1112672201
C  C97  1  0.58600000  0.89240000  0.23410000  1.0 0.0189844954
C  C98  1  0.58600000  0.10760000  0.76590000  1.0 0.0099920827
C  C99  1  0.08600000  0.60760000  0.73410000  1.0 0.0189844954
C  C100  1  0.08600000  0.39240000  0.26590000  1.0 0.0099920827
C  C101  1  0.62200000  0.94440000  0.23210000  1.0 0.0189844954
C  C102  1  0.62200000  0.05560000  0.76790000  1.0 0.0189844954
C  C103  1  0.12200000  0.55560000  0.73210000  1.0 0.0189844954
C  C104  1  0.12200000  0.44440000  0.26790000  1.0 0.0189844954
C  C105  1  0.71600000  0.95200000  0.23480000  1.0 -0.0896694982
C  C106  1  0.71600000  0.04800000  0.76520000  1.0 -0.0896694982
C  C107  1  0.21600000  0.54800000  0.73480000  1.0 -0.0896694982
C  C108  1  0.21600000  0.45200000  0.26520000  1.0 -0.0896694982
C  C109  1  0.79300000  0.90700000  0.23130000  1.0 -0.1901393681
C  C110  1  0.79300000  0.09300000  0.76870000  1.0 -0.1901393681
C  C111  1  0.29300000  0.59300000  0.73130000  1.0 -0.1901393681
C  C112  1  0.29300000  0.40700000  0.26870000  1.0 -0.1901393681
C  C113  1  0.75400000  0.85290000  0.23270000  1.0 0.2015936239
C  C114  1  0.75400000  0.14710000  0.76730000  1.0 0.2015936239
C  C115  1  0.25400000  0.64710000  0.73270000  1.0 0.2015936239
C  C116  1  0.25400000  0.35290000  0.26730000  1.0 0.2015936239
C  C117  1  0.26700000  0.02320000  0.27430000  1.0 0.568532986
C  C118  1  0.26700000  0.97680000  0.72570000  1.0 0.568532986
C  C119  1  0.76700000  0.47680000  0.77430000  1.0 0.568532986
C  C120  1  0.76700000  0.52320000  0.22570000  1.0 0.568532986
C  C121  1  0.37600000  0.02680000  0.25090000  1.0 -0.010642414
C  C122  1  0.37600000  0.97320000  0.74910000  1.0 -0.010642414
C  C123  1  0.87600000  0.47320000  0.75090000  1.0 -0.010642414
C  C124  1  0.87600000  0.52680000  0.24910000  1.0 -0.010642414
C  C125  1  0.44600000  0.98350000  0.25410000  1.0 -0.1594409464
C  C126  1  0.44600000  0.01650000  0.74590000  1.0 -0.1594409464
C  C127  1  0.94600000  0.51650000  0.75410000  1.0 -0.1594409464
C  C128  1  0.94600000  0.48350000  0.24590000  1.0 -0.1594409464
C  C129  1  0.54600000  0.98690000  0.23330000  1.0 0.0585510758
C  C130  1  0.54600000  0.01310000  0.76670000  1.0 0.0585510758
C  C131  1  0.04600000  0.51310000  0.73330000  1.0 0.0585510758
C  C132  1  0.04600000  0.48690000  0.26670000  1.0 0.0585510758
C  C133  1  0.57500000  0.03350000  0.20930000  1.0 -0.1594409464
C  C134  1  0.57500000  0.96650000  0.79070000  1.0 -0.1594409464
C  C135  1  0.07500000  0.46650000  0.70930000  1.0 -0.1594409464
C  C136  1  0.07500000  0.53350000  0.29070000  1.0 -0.1594409464
C  C137  1  0.50400000  0.07680000  0.20610000  1.0 -0.0896694982
C  C138  1  0.50400000  0.92320000  0.79390000  1.0 -0.0896694982
C  C139  1  0.00400000  0.42320000  0.70610000  1.0 -0.0896694982
C  C140  1  0.00400000  0.57680000  0.29390000  1.0 -0.0896694982
C  C141  1  0.40500000  0.07340000  0.22690000  1.0 -0.1112672201
C  C142  1  0.40500000  0.92660000  0.77310000  1.0 -0.1112672201
C  C143  1  0.90500000  0.42660000  0.72690000  1.0 -0.1112672201
C  C144  1  0.90500000  0.57340000  0.27310000  1.0 -0.1112672201
C  C145  1  0.11900000  0.77460000  0.20830000  1.0 0.5515658683
C  C146  1  0.11900000  0.22540000  0.79170000  1.0 0.5515658683
C  C147  1  0.61900000  0.72540000  0.70830000  1.0 0.5515658683
C  C148  1  0.61900000  0.27460000  0.29170000  1.0 0.5515658683
C  C149  1  0.99800000  0.76450000  0.21840000  1.0 0.0042497226
C  C150  1  0.99800000  0.23550000  0.78160000  1.0 0.0042497226
C  C151  1  0.49800000  0.73550000  0.71840000  1.0 0.0099920827
C  C152  1  0.49800000  0.26450000  0.28160000  1.0 0.0042497226
C  C153  1  0.93400000  0.81010000  0.22060000  1.0 -0.1507060105
C  C154  1  0.93400000  0.18990000  0.77940000  1.0 -0.1507060105
C  C155  1  0.43400000  0.68990000  0.72060000  1.0 -0.1507060105
C  C156  1  0.43400000  0.31010000  0.27940000  1.0 -0.1507060105
C  C157  1  0.82600000  0.80460000  0.22980000  1.0 0.0511946761
C  C158  1  0.82600000  0.19540000  0.77020000  1.0 0.0511946761
C  C159  1  0.32600000  0.69540000  0.72980000  1.0 0.0511946761
C  C160  1  0.32600000  0.30460000  0.27020000  1.0 0.0511946761
C  C161  1  0.78200000  0.75330000  0.23670000  1.0 -0.1294410588
C  C162  1  0.78200000  0.24670000  0.76330000  1.0 -0.1294410588
C  C163  1  0.28200000  0.74670000  0.73670000  1.0 -0.1294410588
C  C164  1  0.28200000  0.25330000  0.26330000  1.0 -0.1294410588
C  C165  1  0.84700000  0.70770000  0.23450000  1.0 -0.10133234
C  C166  1  0.84700000  0.29230000  0.76550000  1.0 -0.10133234
C  C167  1  0.34700000  0.79230000  0.73450000  1.0 -0.10133234
C  C168  1  0.34700000  0.20770000  0.26550000  1.0 -0.10133234
C  C169  1  0.95500000  0.71330000  0.22540000  1.0 -0.10133234
C  C170  1  0.95500000  0.28670000  0.77460000  1.0 -0.10133234
C  C171  1  0.45500000  0.78670000  0.72540000  1.0 -0.10133234
C  C172  1  0.45500000  0.21330000  0.27460000  1.0 -0.10133234
C  C173  1  0.11100000  0.66250000  0.39550000  1.0 0.0099920827
C  C174  1  0.11100000  0.33750000  0.60450000  1.0 0.0099920827
C  C175  1  0.61100000  0.83750000  0.89550000  1.0 0.0099920827
C  C176  1  0.61100000  0.16250000  0.10450000  1.0 0.0099920827
C  C177  1  0.10700000  0.69710000  0.36040000  1.0 0.0099920827
C  C178  1  0.10700000  0.30290000  0.63960000  1.0 0.0189844954
C  C179  1  0.60700000  0.80290000  0.86040000  1.0 0.0099920827
C  C180  1  0.60700000  0.19710000  0.13960000  1.0 0.0189844954
C  C181  1  0.18900000  0.68950000  0.32630000  1.0 -0.10133234
C  C182  1  0.18900000  0.31050000  0.67370000  1.0 -0.10133234
C  C183  1  0.68900000  0.81050000  0.82630000  1.0 -0.10133234
C  C184  1  0.68900000  0.18950000  0.17370000  1.0 -0.10133234
C  C185  1  0.26800000  0.64920000  0.33050000  1.0 -0.1901393681
C  C186  1  0.26800000  0.35080000  0.66950000  1.0 -0.1901393681
C  C187  1  0.76800000  0.85080000  0.83050000  1.0 -0.1901393681
C  C188  1  0.76800000  0.14920000  0.16950000  1.0 -0.1901393681
C  C189  1  0.26400000  0.61210000  0.36910000  1.0 0.2015936239
C  C190  1  0.26400000  0.38790000  0.63090000  1.0 0.2015936239
C  C191  1  0.76400000  0.88790000  0.86910000  1.0 0.2015936239
C  C192  1  0.76400000  0.11210000  0.13090000  1.0 0.2015936239
C  C193  1  0.98600000  0.88720000  0.32660000  1.0 0.5515658683
C  C194  1  0.98600000  0.11280000  0.67340000  1.0 0.5515658683
C  C195  1  0.48600000  0.61280000  0.82660000  1.0 0.5515658683
C  C196  1  0.48600000  0.38720000  0.17340000  1.0 0.5515658683
C  C197  1  0.96700000  0.82830000  0.33780000  1.0 -0.010642414
C  C198  1  0.96700000  0.17170000  0.66220000  1.0 -0.010642414
C  C199  1  0.46700000  0.67170000  0.83780000  1.0 -0.010642414
C  C200  1  0.46700000  0.32830000  0.16220000  1.0 -0.010642414
C  C201  1  0.04700000  0.78910000  0.33880000  1.0 -0.1379073715
C  C202  1  0.04700000  0.21090000  0.66120000  1.0 -0.1379073715
C  C203  1  0.54700000  0.71090000  0.83880000  1.0 -0.1379073715
C  C204  1  0.54700000  0.28910000  0.16120000  1.0 -0.1379073715
C  C205  1  0.02400000  0.73680000  0.35390000  1.0 0.0742023265
C  C206  1  0.02400000  0.26320000  0.64610000  1.0 0.0742023265
C  C207  1  0.52400000  0.76320000  0.85390000  1.0 0.0742023265
C  C208  1  0.52400000  0.23680000  0.14610000  1.0 0.0742023265
C  C209  1  0.92100000  0.72380000  0.36800000  1.0 -0.1507060105
C  C210  1  0.92100000  0.27620000  0.63200000  1.0 -0.1507060105
C  C211  1  0.42100000  0.77620000  0.86800000  1.0 -0.1507060105
C  C212  1  0.42100000  0.22380000  0.13200000  1.0 -0.1507060105
C  C213  1  0.84100000  0.76310000  0.36710000  1.0 -0.0844064975
C  C214  1  0.84100000  0.23690000  0.63290000  1.0 -0.0844064975
C  C215  1  0.34100000  0.73690000  0.86710000  1.0 -0.0844064975
C  C216  1  0.34100000  0.26310000  0.13290000  1.0 -0.0844064975
C  C217  1  0.86500000  0.81530000  0.35190000  1.0 -0.1112672201
C  C218  1  0.86500000  0.18470000  0.64810000  1.0 -0.1112672201
C  C219  1  0.36500000  0.68470000  0.85190000  1.0 -0.1112672201
C  C220  1  0.36500000  0.31530000  0.14810000  1.0 -0.1112672201
C  C221  1  0.51800000  0.48210000  0.30210000  1.0 0.568532986
C  C222  1  0.51800000  0.51790000  0.69790000  1.0 0.568532986
C  C223  1  0.01800000  0.01790000  0.80210000  1.0 0.568532986
C  C224  1  0.01800000  0.98210000  0.19790000  1.0 0.568532986
C  C225  1  0.46400000  0.50570000  0.34250000  1.0 -0.0417242819
C  C226  1  0.46400000  0.49430000  0.65750000  1.0 -0.0417242819
C  C227  1  0.96400000  0.99430000  0.84250000  1.0 -0.0417242819
C  C228  1  0.96400000  0.00570000  0.15750000  1.0 -0.0417242819
C  C229  1  0.38900000  0.54650000  0.33600000  1.0 -0.1379073715
C  C230  1  0.38900000  0.45350000  0.66400000  1.0 -0.1379073715
C  C231  1  0.88900000  0.95350000  0.83600000  1.0 -0.1379073715
C  C232  1  0.88900000  0.04650000  0.16400000  1.0 -0.1379073715
C  C233  1  0.34100000  0.57110000  0.37430000  1.0 0.0189844954
C  C234  1  0.34100000  0.42890000  0.62570000  1.0 0.0189844954
C  C235  1  0.84100000  0.92890000  0.87430000  1.0 0.0189844954
C  C236  1  0.84100000  0.07110000  0.12570000  1.0 0.0189844954
C  C237  1  0.36900000  0.55490000  0.41910000  1.0 -0.1197045991
C  C238  1  0.36900000  0.44510000  0.58090000  1.0 -0.1197045991
C  C239  1  0.86900000  0.94510000  0.91910000  1.0 -0.1197045991
C  C240  1  0.86900000  0.05490000  0.08090000  1.0 -0.1197045991
C  C241  1  0.44400000  0.51420000  0.42560000  1.0 -0.10133234
C  C242  1  0.44400000  0.48580000  0.57440000  1.0 -0.10133234
C  C243  1  0.94400000  0.98580000  0.92560000  1.0 -0.10133234
C  C244  1  0.94400000  0.01420000  0.07440000  1.0 -0.10133234
C  C245  1  0.49100000  0.48960000  0.38730000  1.0 -0.0844064975
C  C246  1  0.49100000  0.51040000  0.61270000  1.0 -0.0844064975
C  C247  1  0.99100000  0.01040000  0.88730000  1.0 -0.0844064975
C  C248  1  0.99100000  0.98960000  0.11270000  1.0 -0.0844064975
C  C249  1  0.60100000  0.64690000  0.33700000  1.0 -0.0287306086
C  C250  1  0.60100000  0.35310000  0.66300000  1.0 -0.0287306086
C  C251  1  0.10100000  0.85310000  0.83700000  1.0 -0.0287306086
C  C252  1  0.10100000  0.14690000  0.16300000  1.0 -0.0287306086
C  C253  1  0.58700000  0.67840000  0.37470000  1.0 0.0099920827
C  C254  1  0.58700000  0.32160000  0.62530000  1.0 0.0099920827
C  C255  1  0.08700000  0.82160000  0.87470000  1.0 0.0099920827
C  C256  1  0.08700000  0.17840000  0.12530000  1.0 0.0099920827
C  C257  1  0.64300000  0.67120000  0.41010000  1.0 -0.10133234
C  C258  1  0.64300000  0.32880000  0.58990000  1.0 -0.10133234
C  C259  1  0.14300000  0.82880000  0.91010000  1.0 -0.10133234
C  C260  1  0.14300000  0.17120000  0.08990000  1.0 -0.10133234
C  C261  1  0.71400000  0.63300000  0.41780000  1.0 -0.18087907
C  C262  1  0.71400000  0.36700000  0.58220000  1.0 -0.18087907
C  C263  1  0.21400000  0.86700000  0.91780000  1.0 -0.18087907
C  C264  1  0.21400000  0.13300000  0.08220000  1.0 -0.18087907
C  C265  1  0.73600000  0.59780000  0.38230000  1.0 0.1666765599
C  C266  1  0.73600000  0.40220000  0.61770000  1.0 0.1666765599
C  C267  1  0.23600000  0.90220000  0.88230000  1.0 0.1666765599
C  C268  1  0.23600000  0.09780000  0.11770000  1.0 0.1666765599
C  C269  1  0.36100000  0.80900000  0.28050000  1.0 0.5866477018
C  C270  1  0.36100000  0.19100000  0.71950000  1.0 0.5866477018
C  C271  1  0.86100000  0.69100000  0.78050000  1.0 0.5866477018
C  C272  1  0.86100000  0.30900000  0.21950000  1.0 0.5866477018
C  C273  1  0.39900000  0.78780000  0.32640000  1.0 -0.0238806667
C  C274  1  0.39900000  0.21220000  0.67360000  1.0 -0.0238806667
C  C275  1  0.89900000  0.71220000  0.82640000  1.0 -0.0238806667
C  C276  1  0.89900000  0.28780000  0.17360000  1.0 -0.0238806667
C  C277  1  0.47800000  0.74840000  0.32710000  1.0 -0.1594409464
C  C278  1  0.47800000  0.25160000  0.67290000  1.0 -0.1594409464
C  C279  1  0.97800000  0.75160000  0.82710000  1.0 -0.1594409464
C  C280  1  0.97800000  0.24840000  0.17290000  1.0 -0.1594409464
C  C281  1  0.50400000  0.72220000  0.36860000  1.0 0.0830735838
C  C282  1  0.50400000  0.27780000  0.63140000  1.0 0.0830735838
C  C283  1  0.00400000  0.77780000  0.86860000  1.0 0.0830735838
C  C284  1  0.00400000  0.22220000  0.13140000  1.0 0.0830735838
C  C285  1  0.44900000  0.73530000  0.40930000  1.0 -0.1507060105
C  C286  1  0.44900000  0.26470000  0.59070000  1.0 -0.1507060105
C  C287  1  0.94900000  0.76470000  0.90930000  1.0 -0.1507060105
C  C288  1  0.94900000  0.23530000  0.09070000  1.0 -0.1507060105
C  C289  1  0.37000000  0.77470000  0.40860000  1.0 -0.10133234
C  C290  1  0.37000000  0.22530000  0.59140000  1.0 -0.10133234
C  C291  1  0.87000000  0.72530000  0.90860000  1.0 -0.10133234
C  C292  1  0.87000000  0.27470000  0.09140000  1.0 -0.10133234
C  C293  1  0.34500000  0.80090000  0.36720000  1.0 -0.1112672201
C  C294  1  0.34500000  0.19910000  0.63280000  1.0 -0.1112672201
C  C295  1  0.84500000  0.69910000  0.86720000  1.0 -0.1112672201
C  C296  1  0.84500000  0.30090000  0.13280000  1.0 -0.1112672201
C  C297  1  0.86800000  0.40620000  0.35080000  1.0 0.5649713999
C  C298  1  0.86800000  0.59380000  0.64920000  1.0 0.5649713999
C  C299  1  0.36800000  0.09380000  0.85080000  1.0 0.5649713999
C  C300  1  0.36800000  0.90620000  0.14920000  1.0 0.5649713999
C  C301  1  0.87800000  0.46020000  0.37540000  1.0 -0.010642414
C  C302  1  0.87800000  0.53980000  0.62460000  1.0 -0.010642414
C  C303  1  0.37800000  0.03980000  0.87540000  1.0 -0.010642414
C  C304  1  0.37800000  0.96020000  0.12460000  1.0 -0.010642414
C  C305  1  0.80300000  0.50030000  0.36530000  1.0 -0.1197045991
C  C306  1  0.80300000  0.49970000  0.63470000  1.0 -0.1197045991
C  C307  1  0.30300000  0.99970000  0.86530000  1.0 -0.1197045991
C  C308  1  0.30300000  0.00030000  0.13470000  1.0 -0.1197045991
C  C309  1  0.80900000  0.55120000  0.38520000  1.0 0.0511946761
C  C310  1  0.80900000  0.44880000  0.61480000  1.0 0.0511946761
C  C311  1  0.30900000  0.94880000  0.88520000  1.0 0.0511946761
C  C312  1  0.30900000  0.05120000  0.11480000  1.0 0.0511946761
C  C313  1  0.88800000  0.56240000  0.41760000  1.0 -0.1594409464
C  C314  1  0.88800000  0.43760000  0.58240000  1.0 -0.1594409464
C  C315  1  0.38800000  0.93760000  0.91760000  1.0 -0.1594409464
C  C316  1  0.38800000  0.06240000  0.08240000  1.0 -0.1594409464
C  C317  1  0.96300000  0.52290000  0.42840000  1.0 -0.0896694982
C  C318  1  0.96300000  0.47710000  0.57160000  1.0 -0.0896694982
C  C319  1  0.46300000  0.97710000  0.92840000  1.0 -0.0896694982
C  C320  1  0.46300000  0.02290000  0.07160000  1.0 -0.0896694982
C  C321  1  0.95000000  0.47020000  0.41130000  1.0 -0.1112672201
C  C322  1  0.95000000  0.52980000  0.58870000  1.0 -0.1112672201
C  C323  1  0.45000000  0.02980000  0.91130000  1.0 -0.1112672201
C  C324  1  0.45000000  0.97020000  0.08870000  1.0 -0.1112672201
N  N1  1  0.65080000  0.61300000  0.04290000  1.0 -0.3069017628
N  N2  1  0.65080000  0.38700000  0.95710000  1.0 -0.3069017628
N  N3  1  0.15080000  0.88700000  0.54290000  1.0 -0.3069017628
N  N4  1  0.15080000  0.11300000  0.45710000  1.0 -0.3069017628
N  N5  1  0.63190000  0.52290000  0.88570000  1.0 -0.2418374704
N  N6  1  0.63190000  0.47710000  0.11430000  1.0 -0.2418374704
N  N7  1  0.13190000  0.97710000  0.38570000  1.0 -0.2418374704
N  N8  1  0.13190000  0.02290000  0.61430000  1.0 -0.2418374704
N  N9  1  0.43320000  0.73560000  0.14450000  1.0 -0.2591067428
N  N10  1  0.43320000  0.26440000  0.85550000  1.0 -0.2591067428
N  N11  1  0.93320000  0.76440000  0.64450000  1.0 -0.2591067428
N  N12  1  0.93320000  0.23560000  0.35550000  1.0 -0.2591067428
N  N13  1  0.27550000  0.58660000  0.15970000  1.0 0.0099920827
N  N14  1  0.27550000  0.41340000  0.84030000  1.0 0.0099920827
N  N15  1  0.77550000  0.91340000  0.65970000  1.0 0.0099920827
N  N16  1  0.77550000  0.08660000  0.34030000  1.0 0.0099920827
N  N17  1  0.43240000  0.55820000  0.17430000  1.0 -0.2707056651
N  N18  1  0.43240000  0.44180000  0.82570000  1.0 -0.2707056651
N  N19  1  0.93240000  0.94180000  0.67430000  1.0 -0.2707056651
N  N20  1  0.93240000  0.05820000  0.32570000  1.0 -0.2707056651
N  N21  1  0.64630000  0.84870000  0.22640000  1.0 -0.2890189523
N  N22  1  0.64630000  0.15130000  0.77360000  1.0 -0.2890189523
N  N23  1  0.14630000  0.65130000  0.72640000  1.0 -0.2890189523
N  N24  1  0.14630000  0.34870000  0.27360000  1.0 -0.2890189523
N  N25  1  0.19100000  0.62560000  0.40190000  1.0 -0.284564115
N  N26  1  0.19100000  0.37440000  0.59810000  1.0 -0.284564115
N  N27  1  0.69100000  0.87440000  0.90190000  1.0 -0.284564115
N  N28  1  0.69100000  0.12560000  0.09810000  1.0 -0.2890189523
N  N29  1  0.67100000  0.59920000  0.34270000  1.0 -0.3037629673
N  N30  1  0.67100000  0.40080000  0.65730000  1.0 -0.3037629673
N  N31  1  0.17100000  0.90080000  0.84270000  1.0 -0.3037629673
N  N32  1  0.17100000  0.09920000  0.15730000  1.0 -0.3037629673
O  O1  1  0.23000000  0.97690000  0.28090000  1.0 -0.5695477748
O  O2  1  0.23000000  0.02310000  0.71910000  1.0 -0.5695477748
O  O3  1  0.73000000  0.52310000  0.78090000  1.0 -0.5695477748
O  O4  1  0.73000000  0.47690000  0.21910000  1.0 -0.5695477748
O  O5  1  0.21860000  0.06690000  0.28570000  1.0 -0.5695477748
O  O6  1  0.21860000  0.93310000  0.71430000  1.0 -0.5695477748
O  O7  1  0.71860000  0.43310000  0.78570000  1.0 -0.5695477748
O  O8  1  0.71860000  0.56690000  0.21430000  1.0 -0.5695477748
O  O9  1  0.15200000  0.81930000  0.20270000  1.0 -0.5074156398
O  O10  1  0.15200000  0.18070000  0.79730000  1.0 -0.5074156398
O  O11  1  0.65200000  0.68070000  0.70270000  1.0 -0.5074156398
O  O12  1  0.65200000  0.31930000  0.29730000  1.0 -0.5074156398
O  O13  1  0.17290000  0.73180000  0.20300000  1.0 -0.5601048295
O  O14  1  0.17290000  0.26820000  0.79700000  1.0 -0.5601048295
O  O15  1  0.67290000  0.76820000  0.70300000  1.0 -0.5601048295
O  O16  1  0.67290000  0.23180000  0.29700000  1.0 -0.5601048295
O  O17  1  0.08270000  0.89430000  0.30400000  1.0 -0.6605697149
O  O18  1  0.08270000  0.10570000  0.69600000  1.0 -0.6605697149
O  O19  1  0.58270000  0.60570000  0.80400000  1.0 -0.6605697149
O  O20  1  0.58270000  0.39430000  0.19600000  1.0 -0.6605697149
O  O21  1  0.92960000  0.92470000  0.33820000  1.0 -0.5009997958
O  O22  1  0.92960000  0.07530000  0.66180000  1.0 -0.5009997958
O  O23  1  0.42960000  0.57530000  0.83820000  1.0 -0.5009997958
O  O24  1  0.42960000  0.42470000  0.16180000  1.0 -0.5009997958
O  O25  1  0.50070000  0.50110000  0.26140000  1.0 -0.5601048295
O  O26  1  0.50070000  0.49890000  0.73860000  1.0 -0.5601048295
O  O27  1  0.00070000  0.99890000  0.76140000  1.0 -0.5601048295
O  O28  1  0.00070000  0.00110000  0.23860000  1.0 -0.5601048295
O  O29  1  0.56950000  0.44130000  0.30870000  1.0 -0.5202316368
O  O30  1  0.56950000  0.55870000  0.69130000  1.0 -0.5202316368
O  O31  1  0.06950000  0.05870000  0.80870000  1.0 -0.5202316368
O  O32  1  0.06950000  0.94130000  0.19130000  1.0 -0.5202316368
O  O33  1  0.30820000  0.85350000  0.28320000  1.0 -0.5833435231
O  O34  1  0.30820000  0.14650000  0.71680000  1.0 -0.5833435231
O  O35  1  0.80820000  0.64650000  0.78320000  1.0 -0.5833435231
O  O36  1  0.80820000  0.35350000  0.21680000  1.0 -0.5833435231
O  O37  1  0.39360000  0.78670000  0.24250000  1.0 -0.5601048295
O  O38  1  0.39360000  0.21330000  0.75750000  1.0 -0.5601048295
O  O39  1  0.89360000  0.71330000  0.74250000  1.0 -0.5601048295
O  O40  1  0.89360000  0.28670000  0.25750000  1.0 -0.5601048295
O  O41  1  0.80430000  0.40010000  0.31960000  1.0 -0.5430190438
O  O42  1  0.80430000  0.59990000  0.68040000  1.0 -0.5430190438
O  O43  1  0.30430000  0.09990000  0.81960000  1.0 -0.5430190438
O  O44  1  0.30430000  0.90010000  0.18040000  1.0 -0.5430190438
O  O45  1  0.91550000  0.36620000  0.36900000  1.0 -0.5283085579
O  O46  1  0.91550000  0.63380000  0.63100000  1.0 -0.5283085579
O  O47  1  0.41550000  0.13380000  0.86900000  1.0 -0.5283085579
O  O48  1  0.41550000  0.86620000  0.13100000  1.0 -0.5283085579
