# DDEC6 charges by PACMAN v1.1 (https://github.com/mtap-research/PACMAN-charge/)
data_BUCSIC01_ASR_pacman
_symmetry_space_group_name_H-M   'P 1'
_cell_length_a   13.72390000
_cell_length_b   15.07240000
_cell_length_c   20.14200000
_cell_angle_alpha   90.00000000
_cell_angle_beta   128.28100000
_cell_angle_gamma   90.00000000
_symmetry_Int_Tables_number   1
_chemical_formula_structural   Fe4Co3H50(C31O9)2
_chemical_formula_sum   'Fe8 Co6 H100 C124 O36'
_cell_volume   3270.56033316
_cell_formula_units_Z   2
loop_
 _symmetry_equiv_pos_site_id
 _symmetry_equiv_pos_as_xyz
  1  'x, y, z'
loop_
 _atom_site_type_symbol
 _atom_site_label
 _atom_site_symmetry_multiplicity
 _atom_site_fract_x
 _atom_site_fract_y
 _atom_site_fract_z
 _atom_site_occupancy
 _atom_site_charge
Fe  Fe1  1  0.47040000  0.65963000  0.25053000  1.0 0.2151652065
Fe  Fe2  1  0.52960000  0.15963000  0.24947000  1.0 0.2151652065
Fe  Fe3  1  0.52960000  0.34037000  0.74947000  1.0 0.2147563485
Fe  Fe4  1  0.47040000  0.84037000  0.75053000  1.0 0.2147563485
Fe  Fe5  1  0.02289000  0.67736000  0.76848000  1.0 0.1380144102
Fe  Fe6  1  0.97711000  0.17736000  0.73152000  1.0 0.1306248889
Fe  Fe7  1  0.97711000  0.32264000  0.23152000  1.0 0.1306248889
Fe  Fe8  1  0.02289000  0.82264000  0.26848000  1.0 0.1380144102
Co  Co1  1  0.00000000  0.50000000  0.00000000  1.0 1.0583677379
Co  Co2  1  0.00000000  0.00000000  0.50000000  1.0 1.0583677379
Co  Co3  1  0.75877000  0.90927000  0.49630000  1.0 1.0407893148
Co  Co4  1  0.24123000  0.40927000  0.00370000  1.0 1.0407893148
Co  Co5  1  0.24123000  0.09073000  0.50370000  1.0 1.0407893148
Co  Co6  1  0.75877000  0.59073000  0.99630000  1.0 1.0407893148
H  H1  1  0.16100000  0.37200000  0.07900000  1.0 0.351392479
H  H2  1  0.83900000  0.87200000  0.42100000  1.0 0.351392479
H  H3  1  0.83900000  0.62800000  0.92100000  1.0 0.351392479
H  H4  1  0.16100000  0.12800000  0.57900000  1.0 0.351392479
H  H5  1  0.07050000  0.34700000  0.99550000  1.0 0.351392479
H  H6  1  0.92950000  0.84700000  0.50450000  1.0 0.351392479
H  H7  1  0.92950000  0.65300000  0.00450000  1.0 0.351392479
H  H8  1  0.07050000  0.15300000  0.49550000  1.0 0.351392479
H  H9  1  0.09420000  0.50410000  0.76150000  1.0 0.1380144102
H  H10  1  0.90580000  0.00410000  0.73850000  1.0 0.1380144102
H  H11  1  0.90580000  0.49590000  0.23850000  1.0 0.1380144102
H  H12  1  0.09420000  0.99590000  0.26150000  1.0 0.1380144102
H  H13  1  0.04650000  0.60070000  0.65300000  1.0 0.1380144102
H  H14  1  0.95350000  0.10070000  0.84700000  1.0 0.1380144102
H  H15  1  0.95350000  0.39930000  0.34700000  1.0 0.1380144102
H  H16  1  0.04650000  0.89930000  0.15300000  1.0 0.1380144102
H  H17  1  0.76780000  0.70810000  0.64440000  1.0 0.1380144102
H  H18  1  0.23220000  0.20810000  0.85560000  1.0 0.1380144102
H  H19  1  0.23220000  0.29190000  0.35560000  1.0 0.1380144102
H  H20  1  0.76780000  0.79190000  0.14440000  1.0 0.1380144102
H  H21  1  0.81990000  0.61610000  0.75640000  1.0 0.1488894609
H  H22  1  0.18010000  0.11610000  0.74360000  1.0 0.1488894609
H  H23  1  0.18010000  0.38390000  0.24360000  1.0 0.1488894609
H  H24  1  0.81990000  0.88390000  0.25640000  1.0 0.1488894609
H  H25  1  0.22860000  0.73120000  0.15110000  1.0 0.1380144102
H  H26  1  0.77140000  0.23120000  0.34890000  1.0 0.1380144102
H  H27  1  0.77140000  0.26880000  0.84890000  1.0 0.1380144102
H  H28  1  0.22860000  0.76880000  0.65110000  1.0 0.1380144102
H  H29  1  0.38510000  0.82860000  0.25300000  1.0 0.1306248889
H  H30  1  0.61490000  0.32860000  0.24700000  1.0 0.1306248889
H  H31  1  0.61490000  0.17140000  0.74700000  1.0 0.1306248889
H  H32  1  0.38510000  0.67140000  0.75300000  1.0 0.1306248889
H  H33  1  0.61790000  0.73060000  0.20890000  1.0 0.1380144102
H  H34  1  0.38210000  0.23060000  0.29110000  1.0 0.1380144102
H  H35  1  0.38210000  0.26940000  0.79110000  1.0 0.1380144102
H  H36  1  0.61790000  0.76940000  0.70890000  1.0 0.1380144102
H  H37  1  0.46090000  0.63180000  0.10750000  1.0 0.1306248889
H  H38  1  0.53910000  0.13180000  0.39250000  1.0 0.1306248889
H  H39  1  0.53910000  0.36820000  0.89250000  1.0 0.1306248889
H  H40  1  0.46090000  0.86820000  0.60750000  1.0 0.1306248889
H  H41  1  0.34800000  0.51460000  0.24390000  1.0 0.1380144102
H  H42  1  0.65200000  0.01460000  0.25610000  1.0 0.1380144102
H  H43  1  0.65200000  0.48540000  0.75610000  1.0 0.1380144102
H  H44  1  0.34800000  0.98540000  0.74390000  1.0 0.1380144102
H  H45  1  0.53290000  0.48980000  0.25010000  1.0 0.1306248889
H  H46  1  0.46710000  0.98980000  0.24990000  1.0 0.1306248889
H  H47  1  0.46710000  0.51020000  0.74990000  1.0 0.1306248889
H  H48  1  0.53290000  0.01020000  0.75010000  1.0 0.1306248889
H  H49  1  0.70310000  0.59110000  0.36000000  1.0 0.1306248889
H  H50  1  0.29690000  0.09110000  0.14000000  1.0 0.1306248889
H  H51  1  0.29690000  0.40890000  0.64000000  1.0 0.1306248889
H  H52  1  0.70310000  0.90890000  0.86000000  1.0 0.1306248889
H  H53  1  0.62230000  0.68320000  0.42010000  1.0 0.1380144102
H  H54  1  0.37770000  0.18320000  0.07990000  1.0 0.1380144102
H  H55  1  0.37770000  0.31680000  0.57990000  1.0 0.1380144102
H  H56  1  0.62230000  0.81680000  0.92010000  1.0 0.1380144102
H  H57  1  0.39960000  0.63530000  0.34920000  1.0 0.120736813
H  H58  1  0.60040000  0.13530000  0.15080000  1.0 0.120736813
H  H59  1  0.60040000  0.36470000  0.65080000  1.0 0.120736813
H  H60  1  0.39960000  0.86470000  0.84920000  1.0 0.120736813
H  H61  1  0.24830000  0.64160000  0.92580000  1.0 0.120736813
H  H62  1  0.75170000  0.14160000  0.57420000  1.0 0.120736813
H  H63  1  0.75170000  0.35840000  0.07420000  1.0 0.120736813
H  H64  1  0.24830000  0.85840000  0.42580000  1.0 0.120736813
H  H65  1  0.26770000  0.68910000  0.81360000  1.0 0.0960640292
H  H66  1  0.73230000  0.18910000  0.68640000  1.0 0.0960640292
H  H67  1  0.73230000  0.31090000  0.18640000  1.0 0.0960640292
H  H68  1  0.26770000  0.81090000  0.31360000  1.0 0.0960640292
H  H69  1  0.11800000  0.81650000  0.73090000  1.0 0.120736813
H  H70  1  0.88200000  0.31650000  0.76910000  1.0 0.120736813
H  H71  1  0.88200000  0.18350000  0.26910000  1.0 0.120736813
H  H72  1  0.11800000  0.68350000  0.23090000  1.0 0.120736813
H  H73  1  0.00620000  0.84760000  0.79210000  1.0 0.0908533281
H  H74  1  0.99380000  0.34760000  0.70790000  1.0 0.0908533281
H  H75  1  0.99380000  0.15240000  0.20790000  1.0 0.0908533281
H  H76  1  0.00620000  0.65240000  0.29210000  1.0 0.0908533281
H  H77  1  0.08670000  0.73960000  0.91250000  1.0 0.1055082794
H  H78  1  0.91330000  0.23960000  0.58750000  1.0 0.1055082794
H  H79  1  0.91330000  0.26040000  0.08750000  1.0 0.1055082794
H  H80  1  0.08670000  0.76040000  0.41250000  1.0 0.1055082794
H  H81  1  0.22240000  0.75190000  0.81500000  1.0 0.0908533281
H  H82  1  0.77760000  0.25190000  0.68500000  1.0 0.0908533281
H  H83  1  0.77760000  0.24810000  0.18500000  1.0 0.0908533281
H  H84  1  0.22240000  0.74810000  0.31500000  1.0 0.0908533281
H  H85  1  0.03250000  0.85100000  0.74090000  1.0 0.0960640292
H  H86  1  0.96750000  0.35100000  0.75910000  1.0 0.0960640292
H  H87  1  0.96750000  0.14900000  0.25910000  1.0 0.0908533281
H  H88  1  0.03250000  0.64900000  0.24090000  1.0 0.0960640292
H  H89  1  0.92570000  0.82270000  0.80610000  1.0 0.1055082794
H  H90  1  0.07430000  0.32270000  0.69390000  1.0 0.1055082794
H  H91  1  0.07430000  0.17730000  0.19390000  1.0 0.1055082794
H  H92  1  0.92570000  0.67730000  0.30610000  1.0 0.1055082794
H  H93  1  0.04970000  0.70610000  0.92050000  1.0 0.120736813
H  H94  1  0.95030000  0.20610000  0.57950000  1.0 0.120736813
H  H95  1  0.95030000  0.29390000  0.07950000  1.0 0.120736813
H  H96  1  0.04970000  0.79390000  0.42050000  1.0 0.120736813
H  H97  1  0.23320000  0.66240000  0.92610000  1.0 0.1306248889
H  H98  1  0.76680000  0.16240000  0.57390000  1.0 0.1306248889
H  H99  1  0.76680000  0.33760000  0.07390000  1.0 0.1306248889
H  H100  1  0.23320000  0.83760000  0.42610000  1.0 0.1306248889
C  C1  1  0.01477000  0.50395000  0.85352000  1.0 0.5524009851
C  C2  1  0.98523000  0.00395000  0.64648000  1.0 0.5524009851
C  C3  1  0.98523000  0.49605000  0.14648000  1.0 0.5524009851
C  C4  1  0.01477000  0.99605000  0.35352000  1.0 0.5524009851
C  C5  1  0.96490000  0.55297000  0.77226000  1.0 -0.0129053994
C  C6  1  0.03510000  0.05297000  0.72774000  1.0 -0.0129053994
C  C7  1  0.03510000  0.44703000  0.22774000  1.0 -0.0129053994
C  C8  1  0.96490000  0.94703000  0.27226000  1.0 -0.0129053994
C  C9  1  0.03013000  0.54693000  0.73943000  1.0 -0.1738176743
C  C10  1  0.96987000  0.04693000  0.76057000  1.0 -0.1738176743
C  C11  1  0.96987000  0.45307000  0.26057000  1.0 -0.1738176743
C  C12  1  0.03013000  0.95307000  0.23943000  1.0 -0.1738176743
C  C13  1  0.00061000  0.60419000  0.67381000  1.0 -0.1500387943
C  C14  1  0.99939000  0.10419000  0.82619000  1.0 -0.1500387943
C  C15  1  0.99939000  0.39581000  0.32619000  1.0 -0.1500387943
C  C16  1  0.00061000  0.89581000  0.17381000  1.0 -0.1500387943
C  C17  1  0.90410000  0.66617000  0.63910000  1.0 -0.0200505591
C  C18  1  0.09590000  0.16617000  0.86090000  1.0 -0.0200505591
C  C19  1  0.09590000  0.33383000  0.36090000  1.0 -0.0200505591
C  C20  1  0.90410000  0.83383000  0.13910000  1.0 -0.0200505591
C  C21  1  0.83586000  0.66850000  0.66926000  1.0 -0.1321352155
C  C22  1  0.16414000  0.16850000  0.83074000  1.0 -0.1321352155
C  C23  1  0.16414000  0.33150000  0.33074000  1.0 -0.1321352155
C  C24  1  0.83586000  0.83150000  0.16926000  1.0 -0.1321352155
C  C25  1  0.86640000  0.61290000  0.73600000  1.0 -0.1586617331
C  C26  1  0.13360000  0.11290000  0.76400000  1.0 -0.1586617331
C  C27  1  0.13360000  0.38710000  0.26400000  1.0 -0.1586617331
C  C28  1  0.86640000  0.88710000  0.23600000  1.0 -0.1586617331
C  C29  1  0.88384000  0.73590000  0.57754000  1.0 0.5772084234
C  C30  1  0.11616000  0.23590000  0.92246000  1.0 0.5772084234
C  C31  1  0.11616000  0.26410000  0.42246000  1.0 0.5772084234
C  C32  1  0.88384000  0.76410000  0.07754000  1.0 0.5772084234
C  C33  1  0.24307000  0.59226000  0.07156000  1.0 0.5772084234
C  C34  1  0.75693000  0.09226000  0.42844000  1.0 0.5772084234
C  C35  1  0.75693000  0.40774000  0.92844000  1.0 0.5772084234
C  C36  1  0.24307000  0.90774000  0.57156000  1.0 0.5772084234
C  C37  1  0.33061000  0.66820000  0.12207000  1.0 -0.0200505591
C  C38  1  0.66939000  0.16820000  0.37793000  1.0 -0.0200505591
C  C39  1  0.66939000  0.33180000  0.87793000  1.0 -0.0200505591
C  C40  1  0.33061000  0.83180000  0.62207000  1.0 -0.0200505591
C  C41  1  0.30795000  0.72957000  0.16405000  1.0 -0.1376172267
C  C42  1  0.69205000  0.22957000  0.33595000  1.0 -0.1376172267
C  C43  1  0.69205000  0.27043000  0.83595000  1.0 -0.1376172267
C  C44  1  0.30795000  0.77043000  0.66405000  1.0 -0.1376172267
C  C45  1  0.40112000  0.78820000  0.22462000  1.0 -0.1321352155
C  C46  1  0.59888000  0.28820000  0.27538000  1.0 -0.1321352155
C  C47  1  0.59888000  0.21180000  0.77538000  1.0 -0.1321352155
C  C48  1  0.40112000  0.71180000  0.72462000  1.0 -0.1321352155
C  C49  1  0.51917000  0.78689000  0.24324000  1.0 -0.0129053994
C  C50  1  0.48083000  0.28689000  0.25676000  1.0 -0.0129053994
C  C51  1  0.48083000  0.21311000  0.75676000  1.0 -0.0129053994
C  C52  1  0.51917000  0.71311000  0.74324000  1.0 -0.0129053994
C  C53  1  0.54027000  0.72964000  0.19847000  1.0 -0.1321352155
C  C54  1  0.45973000  0.22964000  0.30153000  1.0 -0.1321352155
C  C55  1  0.45973000  0.27036000  0.80153000  1.0 -0.1321352155
C  C56  1  0.54027000  0.77036000  0.69847000  1.0 -0.1321352155
C  C57  1  0.44617000  0.67036000  0.13777000  1.0 -0.1376172267
C  C58  1  0.55383000  0.17036000  0.36223000  1.0 -0.1376172267
C  C59  1  0.55383000  0.32964000  0.86223000  1.0 -0.1376172267
C  C60  1  0.44617000  0.82964000  0.63777000  1.0 -0.1376172267
C  C61  1  0.63012000  0.83610000  0.31912000  1.0 0.5873774377
C  C62  1  0.36988000  0.33610000  0.18088000  1.0 0.5873774377
C  C63  1  0.36988000  0.16390000  0.68088000  1.0 0.5873774377
C  C64  1  0.63012000  0.66390000  0.81912000  1.0 0.5873774377
C  C65  1  0.42490000  0.54510000  0.27980000  1.0 -0.1376172267
C  C66  1  0.57510000  0.04510000  0.22020000  1.0 -0.1321352155
C  C67  1  0.57510000  0.45490000  0.72020000  1.0 -0.1376172267
C  C68  1  0.42490000  0.95490000  0.77980000  1.0 -0.1321352155
C  C69  1  0.52760000  0.53100000  0.28340000  1.0 -0.1321352155
C  C70  1  0.47240000  0.03100000  0.21660000  1.0 -0.1321352155
C  C71  1  0.47240000  0.46900000  0.71660000  1.0 -0.1321352155
C  C72  1  0.52760000  0.96900000  0.78340000  1.0 -0.1321352155
C  C73  1  0.62200000  0.58770000  0.34420000  1.0 -0.1376172267
C  C74  1  0.37800000  0.08770000  0.15580000  1.0 -0.1376172267
C  C75  1  0.37800000  0.41230000  0.65580000  1.0 -0.1321352155
C  C76  1  0.62200000  0.91230000  0.84420000  1.0 -0.1321352155
C  C77  1  0.57730000  0.63860000  0.37790000  1.0 -0.1321352155
C  C78  1  0.42270000  0.13860000  0.12210000  1.0 -0.1321352155
C  C79  1  0.42270000  0.36140000  0.62210000  1.0 -0.1321352155
C  C80  1  0.57730000  0.86140000  0.87790000  1.0 -0.1321352155
C  C81  1  0.45310000  0.61240000  0.33850000  1.0 -0.1500387943
C  C82  1  0.54690000  0.11240000  0.16150000  1.0 -0.1500387943
C  C83  1  0.54690000  0.38760000  0.66150000  1.0 -0.1500387943
C  C84  1  0.45310000  0.88760000  0.83850000  1.0 -0.1500387943
C  C85  1  0.20300000  0.68800000  0.88580000  1.0 -0.1022875455
C  C86  1  0.79700000  0.18800000  0.61420000  1.0 -0.1022875455
C  C87  1  0.79700000  0.31200000  0.11420000  1.0 -0.1022875455
C  C88  1  0.20300000  0.81200000  0.38580000  1.0 -0.1022875455
C  C89  1  0.21390000  0.71460000  0.82300000  1.0 -0.0878429475
C  C90  1  0.78610000  0.21460000  0.67700000  1.0 -0.0878429475
C  C91  1  0.78610000  0.28540000  0.17700000  1.0 -0.0878429475
C  C92  1  0.21390000  0.78540000  0.32300000  1.0 -0.0878429475
C  C93  1  0.13000000  0.78580000  0.77670000  1.0 -0.0878429475
C  C94  1  0.87000000  0.28580000  0.72330000  1.0 -0.0878429475
C  C95  1  0.87000000  0.21420000  0.22330000  1.0 -0.0878429475
C  C96  1  0.13000000  0.71420000  0.27670000  1.0 -0.0878429475
C  C97  1  0.06740000  0.80330000  0.81090000  1.0 -0.0512860554
C  C98  1  0.93260000  0.30330000  0.68910000  1.0 -0.0512860554
C  C99  1  0.93260000  0.19670000  0.18910000  1.0 -0.0512860554
C  C100  1  0.06740000  0.69670000  0.31090000  1.0 -0.0512860554
C  C101  1  0.11260000  0.74280000  0.87840000  1.0 -0.0200505591
C  C102  1  0.88740000  0.24280000  0.62160000  1.0 -0.0200505591
C  C103  1  0.88740000  0.25720000  0.12160000  1.0 -0.0200505591
C  C104  1  0.11260000  0.75720000  0.37840000  1.0 -0.0200505591
C  C105  1  0.16540000  0.75490000  0.82680000  1.0 -0.0200505591
C  C106  1  0.83460000  0.25490000  0.67320000  1.0 -0.0200505591
C  C107  1  0.83460000  0.24510000  0.17320000  1.0 -0.0200505591
C  C108  1  0.16540000  0.74510000  0.32680000  1.0 -0.0200505591
C  C109  1  0.05900000  0.81040000  0.78530000  1.0 -0.0808850747
C  C110  1  0.94100000  0.31040000  0.71470000  1.0 -0.0808850747
C  C111  1  0.94100000  0.18960000  0.21470000  1.0 -0.0808850747
C  C112  1  0.05900000  0.68960000  0.28530000  1.0 -0.0808850747
C  C113  1  0.99930000  0.79460000  0.82180000  1.0 -0.1022875455
C  C114  1  0.00070000  0.29460000  0.67820000  1.0 -0.1022875455
C  C115  1  0.00070000  0.20540000  0.17820000  1.0 -0.1022875455
C  C116  1  0.99930000  0.70540000  0.32180000  1.0 -0.1022875455
C  C117  1  0.06860000  0.72930000  0.88580000  1.0 -0.073588452
C  C118  1  0.93140000  0.22930000  0.61420000  1.0 -0.073588452
C  C119  1  0.93140000  0.27070000  0.11420000  1.0 -0.073588452
C  C120  1  0.06860000  0.77070000  0.38580000  1.0 -0.073588452
C  C121  1  0.17130000  0.70480000  0.88890000  1.0 -0.0808850747
C  C122  1  0.82870000  0.20480000  0.61110000  1.0 -0.0808850747
C  C123  1  0.82870000  0.29520000  0.11110000  1.0 -0.0808850747
C  C124  1  0.17130000  0.79520000  0.38890000  1.0 -0.0808850747
O  O1  1  0.96692000  0.74464000  0.56962000  1.0 -0.5424630927
O  O2  1  0.03308000  0.24464000  0.93038000  1.0 -0.5424630927
O  O3  1  0.03308000  0.25536000  0.43038000  1.0 -0.5424630927
O  O4  1  0.96692000  0.75536000  0.06962000  1.0 -0.5424630927
O  O5  1  0.78610000  0.77989000  0.54075000  1.0 -0.5700409028
O  O6  1  0.21390000  0.27989000  0.95925000  1.0 -0.5700409028
O  O7  1  0.21390000  0.22011000  0.45925000  1.0 -0.5700409028
O  O8  1  0.78610000  0.72011000  0.04075000  1.0 -0.5700409028
O  O9  1  0.10038000  0.44975000  0.87954000  1.0 -0.5517655226
O  O10  1  0.89962000  0.94975000  0.62046000  1.0 -0.5517655226
O  O11  1  0.89962000  0.55025000  0.12046000  1.0 -0.5517655226
O  O12  1  0.10038000  0.05025000  0.37954000  1.0 -0.5517655226
O  O13  1  0.96526000  0.52485000  0.88659000  1.0 -0.5316285478
O  O14  1  0.03474000  0.02485000  0.61341000  1.0 -0.5316285478
O  O15  1  0.03474000  0.47515000  0.11341000  1.0 -0.5316285478
O  O16  1  0.96526000  0.97515000  0.38659000  1.0 -0.5316285478
O  O17  1  0.14703000  0.58902000  0.06543000  1.0 -0.5316285478
O  O18  1  0.85297000  0.08902000  0.43457000  1.0 -0.5316285478
O  O19  1  0.85297000  0.41098000  0.93457000  1.0 -0.5316285478
O  O20  1  0.14703000  0.91098000  0.56543000  1.0 -0.5316285478
O  O21  1  0.27668000  0.53969000  0.04179000  1.0 -0.5587488326
O  O22  1  0.72332000  0.03969000  0.45821000  1.0 -0.5587488326
O  O23  1  0.72332000  0.46031000  0.95821000  1.0 -0.5587488326
O  O24  1  0.27668000  0.96031000  0.54179000  1.0 -0.5587488326
O  O25  1  0.61617000  0.86788000  0.37081000  1.0 -0.588020167
O  O26  1  0.38383000  0.36788000  0.12919000  1.0 -0.588020167
O  O27  1  0.38383000  0.13212000  0.62919000  1.0 -0.588020167
O  O28  1  0.61617000  0.63212000  0.87081000  1.0 -0.588020167
O  O29  1  0.72386000  0.83997000  0.32306000  1.0 -0.5424630927
O  O30  1  0.27614000  0.33997000  0.17694000  1.0 -0.5424630927
O  O31  1  0.27614000  0.16003000  0.67694000  1.0 -0.5424630927
O  O32  1  0.72386000  0.66003000  0.82306000  1.0 -0.5424630927
O  O33  1  0.10950000  0.38927000  0.02504000  1.0 -0.722947112
O  O34  1  0.89050000  0.88927000  0.47496000  1.0 -0.722947112
O  O35  1  0.89050000  0.61073000  0.97496000  1.0 -0.722947112
O  O36  1  0.10950000  0.11073000  0.52504000  1.0 -0.722947112
