# DDEC6 charges by PACMAN v1.1 (https://github.com/mtap-research/PACMAN-charge/)
data_BUCTUQ_ASR_pacman
_symmetry_space_group_name_H-M   'P 1'
_cell_length_a   21.55430000
_cell_length_b   21.55430000
_cell_length_c   20.24290000
_cell_angle_alpha   72.36960000
_cell_angle_beta   107.63000000
_cell_angle_gamma   141.14700000
_symmetry_Int_Tables_number   1
_chemical_formula_structural   Zn2Co2H36C53(NO)8
_chemical_formula_sum   'Zn8 Co8 H144 C212 N32 O32'
_cell_volume   5587.20787455
_cell_formula_units_Z   4
loop_
 _symmetry_equiv_pos_site_id
 _symmetry_equiv_pos_as_xyz
  1  'x, y, z'
loop_
 _atom_site_type_symbol
 _atom_site_label
 _atom_site_symmetry_multiplicity
 _atom_site_fract_x
 _atom_site_fract_y
 _atom_site_fract_z
 _atom_site_occupancy
 _atom_site_charge
Zn  Zn1  1  0.95247000  0.11695000  0.88109000  1.0 0.8389638231
Zn  Zn2  1  0.11695000  0.95247000  0.61891000  1.0 0.8389638231
Zn  Zn3  1  0.04753000  0.88305000  0.11891000  1.0 0.8389638231
Zn  Zn4  1  0.88305000  0.04753000  0.38109000  1.0 0.8389638231
Zn  Zn5  1  0.56820000  0.12400000  0.82938000  1.0 0.8718549699
Zn  Zn6  1  0.12400000  0.56820000  0.67062000  1.0 0.8718549699
Zn  Zn7  1  0.43180000  0.87600000  0.17062000  1.0 0.8718549699
Zn  Zn8  1  0.87600000  0.43180000  0.32938000  1.0 0.8718549699
Co  Co1  1  0.94970000  0.11430000  0.88210000  1.0 0.8718549699
Co  Co2  1  0.11430000  0.94970000  0.61790000  1.0 0.8718549699
Co  Co3  1  0.05030000  0.88570000  0.11790000  1.0 0.8718549699
Co  Co4  1  0.88570000  0.05030000  0.38210000  1.0 0.8718549699
Co  Co5  1  0.56990000  0.12630000  0.82770000  1.0 0.8932560251
Co  Co6  1  0.12630000  0.56990000  0.67230000  1.0 0.8932560251
Co  Co7  1  0.43010000  0.87370000  0.17230000  1.0 0.8932560251
Co  Co8  1  0.87370000  0.43010000  0.32770000  1.0 0.8932560251
H  H1  1  0.93170000  0.08770000  0.63040000  1.0 0.1203314331
H  H2  1  0.08770000  0.93170000  0.86960000  1.0 0.1203314331
H  H3  1  0.06830000  0.91230000  0.36960000  1.0 0.1203314331
H  H4  1  0.91230000  0.06830000  0.13040000  1.0 0.1203314331
H  H5  1  0.75920000  0.08780000  0.48370000  1.0 0.1203314331
H  H6  1  0.08780000  0.75920000  0.01630000  1.0 0.1203314331
H  H7  1  0.24080000  0.91220000  0.51630000  1.0 0.1203314331
H  H8  1  0.91220000  0.24080000  0.98370000  1.0 0.1203314331
H  H9  1  0.72710000  0.11310000  0.56670000  1.0 0.1028456426
H  H10  1  0.11310000  0.72710000  0.93330000  1.0 0.1028456426
H  H11  1  0.27290000  0.88690000  0.43330000  1.0 0.1028456426
H  H12  1  0.88690000  0.27290000  0.06670000  1.0 0.1028456426
H  H13  1  0.79970000  0.12790000  0.68030000  1.0 0.1092632456
H  H14  1  0.12790000  0.79970000  0.81970000  1.0 0.1092632456
H  H15  1  0.20030000  0.87210000  0.31970000  1.0 0.1092632456
H  H16  1  0.87210000  0.20030000  0.18030000  1.0 0.1092632456
H  H17  1  0.12250000  0.28450000  0.78760000  1.0 0.1203314331
H  H18  1  0.28450000  0.12250000  0.71240000  1.0 0.1203314331
H  H19  1  0.87750000  0.71550000  0.21240000  1.0 0.1203314331
H  H20  1  0.71550000  0.87750000  0.28760000  1.0 0.1203314331
H  H21  1  0.31360000  0.42740000  0.94840000  1.0 0.1274781963
H  H22  1  0.42740000  0.31360000  0.55160000  1.0 0.1274781963
H  H23  1  0.68640000  0.57260000  0.05160000  1.0 0.1274781963
H  H24  1  0.57260000  0.68640000  0.44840000  1.0 0.1274781963
H  H25  1  0.15580000  0.26260000  0.99070000  1.0 0.1203314331
H  H26  1  0.26260000  0.15580000  0.50930000  1.0 0.1203314331
H  H27  1  0.84420000  0.73740000  0.00930000  1.0 0.1203314331
H  H28  1  0.73740000  0.84420000  0.49070000  1.0 0.1203314331
H  H29  1  0.22710000  0.47610000  0.74770000  1.0 0.1203314331
H  H30  1  0.47610000  0.22710000  0.75230000  1.0 0.1203314331
H  H31  1  0.77290000  0.52390000  0.25230000  1.0 0.1203314331
H  H32  1  0.52390000  0.77290000  0.24770000  1.0 0.1203314331
H  H33  1  0.34080000  0.61220000  0.67320000  1.0 0.1092632456
H  H34  1  0.61220000  0.34080000  0.82680000  1.0 0.1092632456
H  H35  1  0.65920000  0.38780000  0.32680000  1.0 0.1092632456
H  H36  1  0.38780000  0.65920000  0.17320000  1.0 0.1092632456
H  H37  1  0.53190000  0.61130000  0.76360000  1.0 0.1028456426
H  H38  1  0.61130000  0.53190000  0.73640000  1.0 0.1028456426
H  H39  1  0.46810000  0.38870000  0.23640000  1.0 0.1028456426
H  H40  1  0.38870000  0.46810000  0.26360000  1.0 0.1028456426
H  H41  1  0.42090000  0.47810000  0.84130000  1.0 0.1203314331
H  H42  1  0.47810000  0.42090000  0.65870000  1.0 0.1203314331
H  H43  1  0.57910000  0.52190000  0.15870000  1.0 0.1203314331
H  H44  1  0.52190000  0.57910000  0.34130000  1.0 0.1203314331
H  H45  1  0.95360000  0.90420000  0.66730000  1.0 0.1203314331
H  H46  1  0.90420000  0.95360000  0.83270000  1.0 0.1203314331
H  H47  1  0.04640000  0.09580000  0.33270000  1.0 0.1203314331
H  H48  1  0.09580000  0.04640000  0.16730000  1.0 0.1203314331
H  H49  1  0.75150000  0.69490000  0.53980000  1.0 0.1203314331
H  H50  1  0.69490000  0.75150000  0.96020000  1.0 0.1203314331
H  H51  1  0.24850000  0.30510000  0.46020000  1.0 0.1203314331
H  H52  1  0.30510000  0.24850000  0.03980000  1.0 0.1203314331
H  H53  1  0.91240000  0.77740000  0.52980000  1.0 0.1274781963
H  H54  1  0.77740000  0.91240000  0.97020000  1.0 0.1274781963
H  H55  1  0.08760000  0.22260000  0.47020000  1.0 0.1274781963
H  H56  1  0.22260000  0.08760000  0.02980000  1.0 0.1274781963
H  H57  1  0.84910000  0.91210000  0.65560000  1.0 0.1203314331
H  H58  1  0.91210000  0.84910000  0.84440000  1.0 0.1203314331
H  H59  1  0.15090000  0.08790000  0.34440000  1.0 0.1203314331
H  H60  1  0.08790000  0.15090000  0.15560000  1.0 0.1203314331
H  H61  1  0.72870000  0.88190000  0.68060000  1.0 0.1028456426
H  H62  1  0.88190000  0.72870000  0.81940000  1.0 0.1028456426
H  H63  1  0.27130000  0.11810000  0.31940000  1.0 0.1028456426
H  H64  1  0.11810000  0.27130000  0.18060000  1.0 0.1028456426
H  H65  1  0.51670000  0.60250000  0.63250000  1.0 0.1028456426
H  H66  1  0.60250000  0.51670000  0.86750000  1.0 0.1028456426
H  H67  1  0.48330000  0.39750000  0.36750000  1.0 0.1028456426
H  H68  1  0.39750000  0.48330000  0.13250000  1.0 0.1028456426
H  H69  1  0.63670000  0.63210000  0.60880000  1.0 0.1092632456
H  H70  1  0.63210000  0.63670000  0.89120000  1.0 0.1092632456
H  H71  1  0.36330000  0.36790000  0.39120000  1.0 0.1092632456
H  H72  1  0.36790000  0.36330000  0.10880000  1.0 0.1092632456
H  H73  1  0.51370000  0.96830000  0.76640000  1.0 0.1092632456
H  H74  1  0.96830000  0.51370000  0.73360000  1.0 0.1092632456
H  H75  1  0.48630000  0.03170000  0.23360000  1.0 0.1092632456
H  H76  1  0.03170000  0.48630000  0.26640000  1.0 0.1092632456
H  H77  1  0.78040000  0.09320000  0.83990000  1.0 0.1274781963
H  H78  1  0.09320000  0.78040000  0.66010000  1.0 0.1274781963
H  H79  1  0.21960000  0.90680000  0.16010000  1.0 0.1274781963
H  H80  1  0.90680000  0.21960000  0.33990000  1.0 0.1274781963
H  H81  1  0.76470000  0.17890000  0.87450000  1.0 0.1397966646
H  H82  1  0.17890000  0.76470000  0.62550000  1.0 0.1397966646
H  H83  1  0.23530000  0.82110000  0.12550000  1.0 0.1397966646
H  H84  1  0.82110000  0.23530000  0.37450000  1.0 0.1397966646
H  H85  1  0.67790000  0.91270000  0.83400000  1.0 0.1203314331
H  H86  1  0.91270000  0.67790000  0.66600000  1.0 0.1203314331
H  H87  1  0.32210000  0.08730000  0.16600000  1.0 0.1203314331
H  H88  1  0.08730000  0.32210000  0.33400000  1.0 0.1203314331
H  H89  1  0.63780000  0.80380000  0.78000000  1.0 0.1028456426
H  H90  1  0.80380000  0.63780000  0.72000000  1.0 0.1028456426
H  H91  1  0.36220000  0.19620000  0.22000000  1.0 0.1028456426
H  H92  1  0.19620000  0.36220000  0.28000000  1.0 0.1028456426
H  H93  1  0.48910000  0.82330000  0.61910000  1.0 0.1092632456
H  H94  1  0.82330000  0.48910000  0.88090000  1.0 0.1092632456
H  H95  1  0.51090000  0.17670000  0.38090000  1.0 0.1092632456
H  H96  1  0.17670000  0.51090000  0.11910000  1.0 0.1092632456
H  H97  1  0.53430000  0.93730000  0.67200000  1.0 0.1203314331
H  H98  1  0.93730000  0.53430000  0.82800000  1.0 0.1203314331
H  H99  1  0.46570000  0.06270000  0.32800000  1.0 0.1203314331
H  H100  1  0.06270000  0.46570000  0.17200000  1.0 0.1203314331
H  H101  1  0.51230000  0.86630000  0.32850000  1.0 0.1028456426
H  H102  1  0.86630000  0.51230000  0.17150000  1.0 0.1028456426
H  H103  1  0.48770000  0.13370000  0.67150000  1.0 0.1028456426
H  H104  1  0.13370000  0.48770000  0.82850000  1.0 0.1028456426
H  H105  1  0.25340000  0.58040000  0.35160000  1.0 0.1203314331
H  H106  1  0.58040000  0.25340000  0.14840000  1.0 0.1203314331
H  H107  1  0.74660000  0.41960000  0.64840000  1.0 0.1203314331
H  H108  1  0.41960000  0.74660000  0.85160000  1.0 0.1203314331
H  H109  1  0.25360000  0.64560000  0.22920000  1.0 0.1274781963
H  H110  1  0.64560000  0.25360000  0.27080000  1.0 0.1274781963
H  H111  1  0.74640000  0.35440000  0.77080000  1.0 0.1274781963
H  H112  1  0.35440000  0.74640000  0.72920000  1.0 0.1274781963
H  H113  1  0.30610000  0.57410000  0.46430000  1.0 0.1203314331
H  H114  1  0.57410000  0.30610000  0.03570000  1.0 0.1203314331
H  H115  1  0.69390000  0.42590000  0.53570000  1.0 0.1203314331
H  H116  1  0.42590000  0.69390000  0.96430000  1.0 0.1203314331
H  H117  1  0.35670000  0.57330000  0.58260000  1.0 0.1092632456
H  H118  1  0.57330000  0.35670000  0.91740000  1.0 0.1092632456
H  H119  1  0.64330000  0.42670000  0.41740000  1.0 0.1092632456
H  H120  1  0.42670000  0.64330000  0.08260000  1.0 0.1092632456
H  H121  1  0.60610000  0.86350000  0.55620000  1.0 0.1092632456
H  H122  1  0.86350000  0.60610000  0.94380000  1.0 0.1092632456
H  H123  1  0.39390000  0.13650000  0.44380000  1.0 0.1092632456
H  H124  1  0.13650000  0.39390000  0.05620000  1.0 0.1092632456
H  H125  1  0.55620000  0.86760000  0.43840000  1.0 0.1203314331
H  H126  1  0.86760000  0.55620000  0.06160000  1.0 0.1203314331
H  H127  1  0.44380000  0.13240000  0.56160000  1.0 0.1203314331
H  H128  1  0.13240000  0.44380000  0.93840000  1.0 0.1203314331
H  H129  1  0.38940000  0.89100000  0.95630000  1.0 0.1274781963
H  H130  1  0.89100000  0.38940000  0.54370000  1.0 0.1274781963
H  H131  1  0.61060000  0.10900000  0.04370000  1.0 0.1274781963
H  H132  1  0.10900000  0.61060000  0.45630000  1.0 0.1274781963
H  H133  1  0.14800000  0.59760000  0.99280000  1.0 0.1092632456
H  H134  1  0.59760000  0.14800000  0.50720000  1.0 0.1092632456
H  H135  1  0.85200000  0.40240000  0.00720000  1.0 0.1092632456
H  H136  1  0.40240000  0.85200000  0.49280000  1.0 0.1092632456
H  H137  1  0.10570000  0.58650000  0.87170000  1.0 0.1028456426
H  H138  1  0.58650000  0.10570000  0.62830000  1.0 0.1028456426
H  H139  1  0.89430000  0.41350000  0.12830000  1.0 0.1028456426
H  H140  1  0.41350000  0.89430000  0.37170000  1.0 0.1028456426
H  H141  1  0.20620000  0.72940000  0.79530000  1.0 0.1028456426
H  H142  1  0.72940000  0.20620000  0.70470000  1.0 0.1028456426
H  H143  1  0.79380000  0.27060000  0.20470000  1.0 0.1028456426
H  H144  1  0.27060000  0.79380000  0.29530000  1.0 0.1028456426
C  C1  1  0.91981000  0.11679000  0.74113000  1.0 0.5198282614
C  C2  1  0.11679000  0.91981000  0.75887000  1.0 0.5198282614
C  C3  1  0.08019000  0.88321000  0.25887000  1.0 0.5198282614
C  C4  1  0.88321000  0.08019000  0.24113000  1.0 0.5198282614
C  C5  1  0.87297000  0.10923000  0.66697000  1.0 -0.0101227688
C  C6  1  0.10923000  0.87297000  0.83303000  1.0 -0.0101227688
C  C7  1  0.12703000  0.89077000  0.33303000  1.0 -0.0101227688
C  C8  1  0.89077000  0.12703000  0.16697000  1.0 -0.0101227688
C  C9  1  0.89095000  0.09345000  0.61742000  1.0 -0.1330638976
C  C10  1  0.09345000  0.89095000  0.88258000  1.0 -0.1330638976
C  C11  1  0.10905000  0.90655000  0.38258000  1.0 -0.1330638976
C  C12  1  0.90655000  0.10905000  0.11742000  1.0 -0.1330638976
C  C13  1  0.84924000  0.08616000  0.54890000  1.0 -0.0101227688
C  C14  1  0.08616000  0.84924000  0.95110000  1.0 -0.0101227688
C  C15  1  0.15076000  0.91384000  0.45110000  1.0 -0.0101227688
C  C16  1  0.91384000  0.15076000  0.04890000  1.0 -0.0101227688
C  C17  1  0.87016000  0.06744000  0.49761000  1.0 0.4985586569
C  C18  1  0.06744000  0.87016000  0.00239000  1.0 0.4985586569
C  C19  1  0.12984000  0.93256000  0.50239000  1.0 0.4985586569
C  C20  1  0.93256000  0.12984000  0.99761000  1.0 0.4985586569
C  C21  1  0.78797000  0.09323000  0.52960000  1.0 -0.1215160679
C  C22  1  0.09323000  0.78797000  0.97040000  1.0 -0.1215160679
C  C23  1  0.21203000  0.90677000  0.47040000  1.0 -0.1215160679
C  C24  1  0.90677000  0.21203000  0.02960000  1.0 -0.1215160679
C  C25  1  0.76879000  0.10861000  0.57950000  1.0 -0.0976132884
C  C26  1  0.10861000  0.76879000  0.92050000  1.0 -0.0976132884
C  C27  1  0.23121000  0.89139000  0.42050000  1.0 -0.0976132884
C  C28  1  0.89139000  0.23121000  0.07950000  1.0 -0.0976132884
C  C29  1  0.81182000  0.11698000  0.64750000  1.0 -0.1114078922
C  C30  1  0.11698000  0.81182000  0.85250000  1.0 -0.1114078922
C  C31  1  0.18818000  0.88302000  0.35250000  1.0 -0.1114078922
C  C32  1  0.88302000  0.18818000  0.14750000  1.0 -0.1114078922
C  C33  1  0.15057000  0.29823000  0.83350000  1.0 0.0678359956
C  C34  1  0.29823000  0.15057000  0.66650000  1.0 0.0678359956
C  C35  1  0.84943000  0.70177000  0.16650000  1.0 0.0678359956
C  C36  1  0.70177000  0.84943000  0.33350000  1.0 0.0678359956
C  C37  1  0.25594000  0.37726000  0.92150000  1.0 -0.0976132884
C  C38  1  0.37726000  0.25594000  0.57850000  1.0 -0.0976132884
C  C39  1  0.74406000  0.62274000  0.07850000  1.0 -0.0976132884
C  C40  1  0.62274000  0.74406000  0.42150000  1.0 -0.0976132884
C  C41  1  0.16818000  0.28662000  0.94430000  1.0 -0.0708903431
C  C42  1  0.28662000  0.16818000  0.55570000  1.0 -0.0708903431
C  C43  1  0.83182000  0.71338000  0.05570000  1.0 -0.0708903431
C  C44  1  0.71338000  0.83182000  0.44430000  1.0 -0.0708903431
C  C45  1  0.31454000  0.46486000  0.80264000  1.0 0.1274781963
C  C46  1  0.46486000  0.31454000  0.69736000  1.0 0.1274781963
C  C47  1  0.68546000  0.53514000  0.19736000  1.0 0.1274781963
C  C48  1  0.53514000  0.68546000  0.30264000  1.0 0.1274781963
C  C49  1  0.28912000  0.50408000  0.75120000  1.0 -0.1907219581
C  C50  1  0.50408000  0.28912000  0.74880000  1.0 -0.1907219581
C  C51  1  0.71088000  0.49592000  0.24880000  1.0 -0.1907219581
C  C52  1  0.49592000  0.71088000  0.25120000  1.0 -0.1907219581
C  C53  1  0.35635000  0.58405000  0.70620000  1.0 -0.1330638976
C  C54  1  0.58405000  0.35635000  0.79380000  1.0 -0.1330638976
C  C55  1  0.64365000  0.41595000  0.29380000  1.0 -0.1330638976
C  C56  1  0.41595000  0.64365000  0.20620000  1.0 -0.1330638976
C  C57  1  0.47041000  0.58419000  0.76020000  1.0 -0.157946451
C  C58  1  0.58419000  0.47041000  0.73980000  1.0 -0.157946451
C  C59  1  0.52959000  0.41581000  0.23980000  1.0 -0.157946451
C  C60  1  0.41581000  0.52959000  0.26020000  1.0 -0.157946451
C  C61  1  0.40423000  0.50457000  0.80690000  1.0 -0.1907219581
C  C62  1  0.50457000  0.40423000  0.69310000  1.0 -0.1907219581
C  C63  1  0.59577000  0.49543000  0.19310000  1.0 -0.1907219581
C  C64  1  0.49543000  0.59577000  0.30690000  1.0 -0.1907219581
C  C65  1  0.44757000  0.62443000  0.70850000  1.0 0.0476903848
C  C66  1  0.62443000  0.44757000  0.79150000  1.0 0.0476903848
C  C67  1  0.55243000  0.37557000  0.29150000  1.0 0.0476903848
C  C68  1  0.37557000  0.55243000  0.20850000  1.0 0.0476903848
C  C69  1  0.52493000  0.72147000  0.66075000  1.0 -0.0170821197
C  C70  1  0.72147000  0.52493000  0.83925000  1.0 -0.0170821197
C  C71  1  0.47507000  0.27853000  0.33925000  1.0 -0.0170821197
C  C72  1  0.27853000  0.47507000  0.16075000  1.0 -0.0170821197
C  C73  1  0.92425000  0.86375000  0.63356000  1.0 0.0620525364
C  C74  1  0.86375000  0.92425000  0.86644000  1.0 0.0620525364
C  C75  1  0.07575000  0.13625000  0.36644000  1.0 0.0620525364
C  C76  1  0.13625000  0.07575000  0.13356000  1.0 0.0620525364
C  C77  1  0.81209000  0.74771000  0.56340000  1.0 -0.0976132884
C  C78  1  0.74771000  0.81209000  0.93660000  1.0 -0.0976132884
C  C79  1  0.18791000  0.25229000  0.43660000  1.0 -0.0976132884
C  C80  1  0.25229000  0.18791000  0.06340000  1.0 -0.0976132884
C  C81  1  0.90058000  0.79322000  0.55840000  1.0 -0.0813880821
C  C82  1  0.79322000  0.90058000  0.94160000  1.0 -0.0813880821
C  C83  1  0.09942000  0.20678000  0.44160000  1.0 -0.0813880821
C  C84  1  0.20678000  0.09942000  0.05840000  1.0 -0.0813880821
C  C85  1  0.75464000  0.77536000  0.63001000  1.0 0.1397966646
C  C86  1  0.77536000  0.75464000  0.86999000  1.0 0.1397966646
C  C87  1  0.24536000  0.22464000  0.36999000  1.0 0.1397966646
C  C88  1  0.22464000  0.24536000  0.13001000  1.0 0.1397966646
C  C89  1  0.78234000  0.84986000  0.65110000  1.0 -0.1907219581
C  C90  1  0.84986000  0.78234000  0.84890000  1.0 -0.1907219581
C  C91  1  0.21766000  0.15014000  0.34890000  1.0 -0.1907219581
C  C92  1  0.15014000  0.21766000  0.15110000  1.0 -0.1907219581
C  C93  1  0.70961000  0.83159000  0.66560000  1.0 -0.1489897057
C  C94  1  0.83159000  0.70961000  0.83440000  1.0 -0.1489897057
C  C95  1  0.29039000  0.16841000  0.33440000  1.0 -0.1489897057
C  C96  1  0.16841000  0.29039000  0.16560000  1.0 -0.1489897057
C  C97  1  0.60911000  0.73969000  0.65823000  1.0 0.0420999945
C  C98  1  0.73969000  0.60911000  0.84177000  1.0 0.0420999945
C  C99  1  0.39089000  0.26031000  0.34177000  1.0 0.0420999945
C  C100  1  0.26031000  0.39089000  0.15823000  1.0 0.0420999945
C  C101  1  0.58329000  0.66491000  0.63710000  1.0 -0.1489897057
C  C102  1  0.66491000  0.58329000  0.86290000  1.0 -0.1489897057
C  C103  1  0.41671000  0.33509000  0.36290000  1.0 -0.1489897057
C  C104  1  0.33509000  0.41671000  0.13710000  1.0 -0.1489897057
C  C105  1  0.65495000  0.68225000  0.62300000  1.0 -0.2069815531
C  C106  1  0.68225000  0.65495000  0.87700000  1.0 -0.2069815531
C  C107  1  0.34505000  0.31775000  0.37700000  1.0 -0.2069815531
C  C108  1  0.31775000  0.34505000  0.12300000  1.0 -0.2069815531
C  C109  1  0.57814000  0.01046000  0.78909000  1.0 0.0420999945
C  C110  1  0.01046000  0.57814000  0.71091000  1.0 0.0420999945
C  C111  1  0.42186000  0.98954000  0.21091000  1.0 0.0420999945
C  C112  1  0.98954000  0.42186000  0.28909000  1.0 0.0420999945
C  C113  1  0.72538000  0.07902000  0.82930000  1.0 -0.0708903431
C  C114  1  0.07902000  0.72538000  0.67070000  1.0 -0.0708903431
C  C115  1  0.27462000  0.92098000  0.17070000  1.0 -0.0708903431
C  C116  1  0.92098000  0.27462000  0.32930000  1.0 -0.0708903431
C  C117  1  0.71566000  0.12514000  0.84830000  1.0 -0.0615702117
C  C118  1  0.12514000  0.71566000  0.65170000  1.0 -0.0615702117
C  C119  1  0.28434000  0.87486000  0.15170000  1.0 -0.0615702117
C  C120  1  0.87486000  0.28434000  0.34830000  1.0 -0.0615702117
C  C121  1  0.61068000  0.93572000  0.75766000  1.0 0.1397966646
C  C122  1  0.93572000  0.61068000  0.74234000  1.0 0.1397966646
C  C123  1  0.38932000  0.06428000  0.24234000  1.0 0.1397966646
C  C124  1  0.06428000  0.38932000  0.25766000  1.0 0.1397966646
C  C125  1  0.64107000  0.89573000  0.79034000  1.0 -0.1907219581
C  C126  1  0.89573000  0.64107000  0.70966000  1.0 -0.1907219581
C  C127  1  0.35893000  0.10427000  0.20966000  1.0 -0.1907219581
C  C128  1  0.10427000  0.35893000  0.29034000  1.0 -0.1907219581
C  C129  1  0.61639000  0.83021000  0.75790000  1.0 -0.1489897057
C  C130  1  0.83021000  0.61639000  0.74210000  1.0 -0.1489897057
C  C131  1  0.38361000  0.16979000  0.24210000  1.0 -0.1489897057
C  C132  1  0.16979000  0.38361000  0.25790000  1.0 -0.1489897057
C  C133  1  0.56029000  0.80211000  0.69274000  1.0 0.0476903848
C  C134  1  0.80211000  0.56029000  0.80726000  1.0 0.0476903848
C  C135  1  0.43971000  0.19789000  0.30726000  1.0 0.0476903848
C  C136  1  0.19789000  0.43971000  0.19274000  1.0 0.0476903848
C  C137  1  0.52844000  0.84216000  0.66180000  1.0 -0.1407795282
C  C138  1  0.84216000  0.52844000  0.83820000  1.0 -0.1407795282
C  C139  1  0.47156000  0.15784000  0.33820000  1.0 -0.1407795282
C  C140  1  0.15784000  0.47156000  0.16180000  1.0 -0.1407795282
C  C141  1  0.55458000  0.90982000  0.69376000  1.0 -0.1823674277
C  C142  1  0.90982000  0.55458000  0.80624000  1.0 -0.1823674277
C  C143  1  0.44542000  0.09018000  0.30624000  1.0 -0.1823674277
C  C144  1  0.09018000  0.44542000  0.19376000  1.0 -0.1823674277
C  C145  1  0.44818000  0.80342000  0.31859000  1.0 -0.0005743954
C  C146  1  0.80342000  0.44818000  0.18141000  1.0 -0.0005743954
C  C147  1  0.55182000  0.19658000  0.68141000  1.0 -0.0005743954
C  C148  1  0.19658000  0.55182000  0.81859000  1.0 -0.0005743954
C  C149  1  0.30523000  0.64557000  0.33210000  1.0 -0.0813880821
C  C150  1  0.64557000  0.30523000  0.16790000  1.0 -0.0813880821
C  C151  1  0.69477000  0.35443000  0.66790000  1.0 -0.0813880821
C  C152  1  0.35443000  0.69477000  0.83210000  1.0 -0.0813880821
C  C153  1  0.30586000  0.68174000  0.26440000  1.0 -0.0813880821
C  C154  1  0.68174000  0.30586000  0.23560000  1.0 -0.0813880821
C  C155  1  0.69414000  0.31826000  0.73560000  1.0 -0.0813880821
C  C156  1  0.31826000  0.69414000  0.76440000  1.0 -0.0813880821
C  C157  1  0.42657000  0.72183000  0.43963000  1.0 0.1397966646
C  C158  1  0.72183000  0.42657000  0.06037000  1.0 0.1397966646
C  C159  1  0.57343000  0.27817000  0.56037000  1.0 0.1397966646
C  C160  1  0.27817000  0.57343000  0.93963000  1.0 0.1397966646
C  C161  1  0.36646000  0.63314000  0.48270000  1.0 -0.196046172
C  C162  1  0.63314000  0.36646000  0.01730000  1.0 -0.196046172
C  C163  1  0.63354000  0.36686000  0.51730000  1.0 -0.196046172
C  C164  1  0.36686000  0.63354000  0.98270000  1.0 -0.196046172
C  C165  1  0.39730000  0.63330000  0.55395000  1.0 -0.1407795282
C  C166  1  0.63330000  0.39730000  0.94605000  1.0 -0.1407795282
C  C167  1  0.60270000  0.36670000  0.44605000  1.0 -0.1407795282
C  C168  1  0.36670000  0.60270000  0.05395000  1.0 -0.1407795282
C  C169  1  0.48452000  0.71788000  0.58308000  1.0 0.0420999945
C  C170  1  0.71788000  0.48452000  0.91692000  1.0 0.0420999945
C  C171  1  0.51548000  0.28212000  0.41692000  1.0 0.0420999945
C  C172  1  0.28212000  0.51548000  0.08308000  1.0 0.0476903848
C  C173  1  0.54446000  0.80494000  0.53817000  1.0 -0.1407795282
C  C174  1  0.80494000  0.54446000  0.96183000  1.0 -0.1407795282
C  C175  1  0.45554000  0.19506000  0.46183000  1.0 -0.1407795282
C  C176  1  0.19506000  0.45554000  0.03817000  1.0 -0.1407795282
C  C177  1  0.51539000  0.80761000  0.46709000  1.0 -0.1907219581
C  C178  1  0.80761000  0.51539000  0.03291000  1.0 -0.1907219581
C  C179  1  0.48461000  0.19239000  0.53291000  1.0 -0.1907219581
C  C180  1  0.19239000  0.48461000  0.96709000  1.0 -0.1907219581
C  C181  1  0.37004000  0.91896000  0.81790000  1.0 0.5376114711
C  C182  1  0.91896000  0.37004000  0.68210000  1.0 0.5376114711
C  C183  1  0.62996000  0.08104000  0.18210000  1.0 0.5376114711
C  C184  1  0.08104000  0.62996000  0.31790000  1.0 0.5376114711
C  C185  1  0.30742000  0.82678000  0.86720000  1.0 -0.0303118302
C  C186  1  0.82678000  0.30742000  0.63280000  1.0 -0.0303118302
C  C187  1  0.69258000  0.17322000  0.13280000  1.0 -0.0303118302
C  C188  1  0.17322000  0.69258000  0.36720000  1.0 -0.0303118302
C  C189  1  0.33184000  0.82976000  0.93931000  1.0 -0.1407795282
C  C190  1  0.82976000  0.33184000  0.56069000  1.0 -0.1407795282
C  C191  1  0.66816000  0.17024000  0.06069000  1.0 -0.1407795282
C  C192  1  0.17024000  0.66816000  0.43931000  1.0 -0.1407795282
C  C193  1  0.27422000  0.74598000  0.98602000  1.0 -0.0170821197
C  C194  1  0.74598000  0.27422000  0.51398000  1.0 -0.0170821197
C  C195  1  0.72578000  0.25402000  0.01398000  1.0 -0.0170821197
C  C196  1  0.25402000  0.72578000  0.48602000  1.0 -0.0170821197
C  C197  1  0.30268000  0.75592000  0.06310000  1.0 0.5198282614
C  C198  1  0.75592000  0.30268000  0.43690000  1.0 0.5198282614
C  C199  1  0.69732000  0.24408000  0.93690000  1.0 0.5198282614
C  C200  1  0.24408000  0.69732000  0.56310000  1.0 0.5198282614
C  C201  1  0.18854000  0.65466000  0.96160000  1.0 -0.1215160679
C  C202  1  0.65466000  0.18854000  0.53840000  1.0 -0.1215160679
C  C203  1  0.81146000  0.34534000  0.03840000  1.0 -0.1215160679
C  C204  1  0.34534000  0.81146000  0.46160000  1.0 -0.1215160679
C  C205  1  0.16247000  0.64793000  0.88860000  1.0 -0.1407795282
C  C206  1  0.64793000  0.16247000  0.61140000  1.0 -0.1407795282
C  C207  1  0.83753000  0.35207000  0.11140000  1.0 -0.1330638976
C  C208  1  0.35207000  0.83753000  0.38860000  1.0 -0.1407795282
C  C209  1  0.22263000  0.73377000  0.84300000  1.0 -0.1114078922
C  C210  1  0.73377000  0.22263000  0.65700000  1.0 -0.1114078922
C  C211  1  0.77737000  0.26623000  0.15700000  1.0 -0.1114078922
C  C212  1  0.26623000  0.77737000  0.34300000  1.0 -0.1114078922
N  N1  1  0.10076000  0.23604000  0.88840000  1.0 -0.4049343898
N  N2  1  0.23604000  0.10076000  0.61160000  1.0 -0.4049343898
N  N3  1  0.89924000  0.76396000  0.11160000  1.0 -0.4049343898
N  N4  1  0.76396000  0.89924000  0.38840000  1.0 -0.4049343898
N  N5  1  0.24204000  0.37956000  0.85120000  1.0 0.0229722798
N  N6  1  0.37956000  0.24204000  0.64880000  1.0 0.0229722798
N  N7  1  0.75796000  0.62044000  0.14880000  1.0 0.0229722798
N  N8  1  0.62044000  0.75796000  0.35120000  1.0 0.0229722798
N  N9  1  0.97299000  0.86781000  0.60217000  1.0 -0.4178160563
N  N10  1  0.86781000  0.97299000  0.89783000  1.0 -0.4178160563
N  N11  1  0.02701000  0.13219000  0.39783000  1.0 -0.4178160563
N  N12  1  0.13219000  0.02701000  0.10217000  1.0 -0.4178160563
N  N13  1  0.82844000  0.79496000  0.61090000  1.0 0.0123494618
N  N14  1  0.79496000  0.82844000  0.88910000  1.0 0.0123494618
N  N15  1  0.17156000  0.20504000  0.38910000  1.0 0.0123494618
N  N16  1  0.20504000  0.17156000  0.11090000  1.0 0.0123494618
N  N17  1  0.62310000  0.08210000  0.82371000  1.0 -0.4271457777
N  N18  1  0.08210000  0.62310000  0.67629000  1.0 -0.4271457777
N  N19  1  0.37690000  0.91790000  0.17629000  1.0 -0.4271457777
N  N20  1  0.91790000  0.37690000  0.32371000  1.0 -0.4271457777
N  N21  1  0.63729000  0.00631000  0.79084000  1.0 0.0123494618
N  N22  1  0.00631000  0.63729000  0.70916000  1.0 0.0123494618
N  N23  1  0.36271000  0.99369000  0.20916000  1.0 0.0123494618
N  N24  1  0.99369000  0.36271000  0.29084000  1.0 0.0123494618
N  N25  1  0.39748000  0.78172000  0.25608000  1.0 -0.4271457777
N  N26  1  0.78172000  0.39748000  0.24392000  1.0 -0.4271457777
N  N27  1  0.60252000  0.21828000  0.74392000  1.0 -0.4271457777
N  N28  1  0.21828000  0.60252000  0.75608000  1.0 -0.4271457777
N  N29  1  0.39509000  0.72291000  0.36626000  1.0 0.0123494618
N  N30  1  0.72291000  0.39509000  0.13374000  1.0 0.0123494618
N  N31  1  0.60491000  0.27709000  0.63374000  1.0 0.0123494618
N  N32  1  0.27709000  0.60491000  0.86626000  1.0 0.0123494618
O  O1  1  0.90047000  0.12975000  0.78491000  1.0 -0.573496981
O  O2  1  0.12975000  0.90047000  0.71509000  1.0 -0.573496981
O  O3  1  0.09953000  0.87025000  0.21509000  1.0 -0.573496981
O  O4  1  0.87025000  0.09953000  0.28491000  1.0 -0.573496981
O  O5  1  0.97356000  0.10804000  0.75701000  1.0 -0.5870360568
O  O6  1  0.10804000  0.97356000  0.74299000  1.0 -0.5870360568
O  O7  1  0.02644000  0.89196000  0.24299000  1.0 -0.5870360568
O  O8  1  0.89196000  0.02644000  0.25701000  1.0 -0.5870360568
O  O9  1  0.85237000  0.08527000  0.43280000  1.0 -0.5870360568
O  O10  1  0.08527000  0.85237000  0.06720000  1.0 -0.5870360568
O  O11  1  0.14763000  0.91473000  0.56720000  1.0 -0.5870360568
O  O12  1  0.91473000  0.14763000  0.93280000  1.0 -0.5870360568
O  O13  1  0.90315000  0.03665000  0.51832000  1.0 -0.5489454105
O  O14  1  0.03665000  0.90315000  0.98168000  1.0 -0.5489454105
O  O15  1  0.09685000  0.96335000  0.48168000  1.0 -0.5489454105
O  O16  1  0.96335000  0.09685000  0.01832000  1.0 -0.5489454105
O  O17  1  0.42946000  0.00094000  0.84250000  1.0 -0.620198293
O  O18  1  0.00094000  0.42946000  0.65750000  1.0 -0.620198293
O  O19  1  0.57054000  0.99906000  0.15750000  1.0 -0.620198293
O  O20  1  0.99906000  0.57054000  0.34250000  1.0 -0.620198293
O  O21  1  0.36180000  0.91300000  0.75625000  1.0 -0.5370587542
O  O22  1  0.91300000  0.36180000  0.74375000  1.0 -0.5370587542
O  O23  1  0.63820000  0.08700000  0.24375000  1.0 -0.5370587542
O  O24  1  0.08700000  0.63820000  0.25625000  1.0 -0.5370587542
O  O25  1  0.39234000  0.83566000  0.08007000  1.0 -0.5870360568
O  O26  1  0.83566000  0.39234000  0.41993000  1.0 -0.5870360568
O  O27  1  0.60766000  0.16434000  0.91993000  1.0 -0.5870360568
O  O28  1  0.16434000  0.60766000  0.58007000  1.0 -0.5870360568
O  O29  1  0.23778000  0.68962000  0.10350000  1.0 -0.5489454105
O  O30  1  0.68962000  0.23778000  0.39650000  1.0 -0.5489454105
O  O31  1  0.76222000  0.31038000  0.89650000  1.0 -0.5489454105
O  O32  1  0.31038000  0.76222000  0.60350000  1.0 -0.5489454105
