# DDEC6 charges by PACMAN v1.1 (https://github.com/mtap-research/PACMAN-charge/)
data_BUCWAZ_ASR_pacman
_symmetry_space_group_name_H-M   'P 1'
_cell_length_a   14.15120000
_cell_length_b   14.50760000
_cell_length_c   25.80730000
_cell_angle_alpha   90.00000000
_cell_angle_beta   92.16600000
_cell_angle_gamma   90.00000000
_symmetry_Int_Tables_number   1
_chemical_formula_structural   Cd5H26(C25O12)2
_chemical_formula_sum   'Cd10 H52 C100 O48'
_cell_volume   5294.45189363
_cell_formula_units_Z   2
loop_
 _symmetry_equiv_pos_site_id
 _symmetry_equiv_pos_as_xyz
  1  'x, y, z'
loop_
 _atom_site_type_symbol
 _atom_site_label
 _atom_site_symmetry_multiplicity
 _atom_site_fract_x
 _atom_site_fract_y
 _atom_site_fract_z
 _atom_site_occupancy
 _atom_site_charge
Cd  Cd1  1  0.16287000  0.79025000  0.62415000  1.0 1.0285372941
Cd  Cd2  1  0.83713000  0.29025000  0.37585000  1.0 1.0285372941
Cd  Cd3  1  0.25017000  0.70756000  0.49974000  1.0 1.1114793626
Cd  Cd4  1  0.74983000  0.20756000  0.50026000  1.0 1.1114793626
Cd  Cd5  1  0.33675000  0.62544000  0.37526000  1.0 1.0285372941
Cd  Cd6  1  0.66325000  0.12544000  0.62474000  1.0 1.0285372941
Cd  Cd7  1  0.75331000  0.94569000  0.98147000  1.0 0.9939767329
Cd  Cd8  1  0.24669000  0.44569000  0.01853000  1.0 0.9939767329
Cd  Cd9  1  0.67175000  0.83414000  0.08857000  1.0 1.0653944222
Cd  Cd10  1  0.32825000  0.33414000  0.91143000  1.0 1.0653944222
H  H1  1  0.42630000  0.71100000  0.71150000  1.0 0.1312407121
H  H2  1  0.57370000  0.21100000  0.28850000  1.0 0.1312407121
H  H3  1  0.67010000  0.57150000  0.70340000  1.0 0.1223172945
H  H4  1  0.32990000  0.07150000  0.29660000  1.0 0.1223172945
H  H5  1  0.49320000  0.58720000  0.57900000  1.0 0.1223172945
H  H6  1  0.50680000  0.08720000  0.42100000  1.0 0.1223172945
H  H7  1  0.64490000  0.51710000  0.56830000  1.0 0.1093806602
H  H8  1  0.35510000  0.01710000  0.43170000  1.0 0.1093806602
H  H9  1  0.65570000  0.44830000  0.61530000  1.0 0.1093806602
H  H10  1  0.34430000  0.94830000  0.38470000  1.0 0.1093806602
H  H11  1  0.75930000  0.42940000  0.53900000  1.0 0.1312407121
H  H12  1  0.24070000  0.92940000  0.46100000  1.0 0.1312407121
H  H13  1  0.01720000  0.49920000  0.49290000  1.0 0.141141385
H  H14  1  0.98280000  0.99920000  0.50710000  1.0 0.141141385
H  H15  1  0.91160000  0.61610000  0.61690000  1.0 0.141141385
H  H16  1  0.08840000  0.11610000  0.38310000  1.0 0.141141385
H  H17  1  0.60660000  0.74930000  0.85930000  1.0 0.1223172945
H  H18  1  0.39340000  0.24930000  0.14070000  1.0 0.1223172945
H  H19  1  0.50230000  0.67370000  0.99410000  1.0 0.1312407121
H  H20  1  0.49770000  0.17370000  0.00590000  1.0 0.1312407121
H  H21  1  0.43240000  0.53680000  0.86400000  1.0 0.1312407121
H  H22  1  0.56760000  0.03680000  0.13600000  1.0 0.1312407121
H  H23  1  0.57150000  0.73880000  0.77550000  1.0 0.1093806602
H  H24  1  0.42850000  0.23880000  0.22450000  1.0 0.1093806602
H  H25  1  0.64390000  0.65660000  0.77920000  1.0 0.1093806602
H  H26  1  0.35610000  0.15660000  0.22080000  1.0 0.1093806602
H  H27  1  0.08940000  0.74040000  0.28560000  1.0 0.1312407121
H  H28  1  0.91060000  0.24040000  0.71440000  1.0 0.1312407121
H  H29  1  0.84210000  0.87140000  0.29450000  1.0 0.1223172945
H  H30  1  0.15790000  0.37140000  0.70550000  1.0 0.1223172945
H  H31  1  0.00460000  0.82630000  0.42200000  1.0 0.1223172945
H  H32  1  0.99540000  0.32630000  0.57800000  1.0 0.1223172945
H  H33  1  0.95330000  0.85710000  0.20950000  1.0 0.1223172945
H  H34  1  0.04670000  0.35710000  0.79050000  1.0 0.1223172945
H  H35  1  0.87500000  0.78140000  0.21560000  1.0 0.1093806602
H  H36  1  0.12500000  0.28140000  0.78440000  1.0 0.1093806602
H  H37  1  0.09930000  0.61810000  0.15010000  1.0 0.151626399
H  H38  1  0.90070000  0.11810000  0.84990000  1.0 0.151626399
H  H39  1  0.00570000  0.69020000  0.00870000  1.0 0.141141385
H  H40  1  0.99430000  0.19020000  0.99130000  1.0 0.141141385
H  H41  1  0.88810000  0.80030000  0.13050000  1.0 0.099207299
H  H42  1  0.11190000  0.30030000  0.86950000  1.0 0.099207299
H  H43  1  0.59160000  0.79360000  0.38380000  1.0 0.141141385
H  H44  1  0.40840000  0.29360000  0.61620000  1.0 0.141141385
H  H45  1  0.48450000  0.91460000  0.51020000  1.0 0.1312407121
H  H46  1  0.51550000  0.41460000  0.48980000  1.0 0.1312407121
H  H47  1  0.74120000  0.98850000  0.46170000  1.0 0.1312407121
H  H48  1  0.25880000  0.48850000  0.53830000  1.0 0.1312407121
H  H49  1  0.84120000  0.97380000  0.38580000  1.0 0.1093806602
H  H50  1  0.15880000  0.47380000  0.61420000  1.0 0.1093806602
H  H51  1  0.85940000  0.90400000  0.43190000  1.0 0.1093806602
H  H52  1  0.14060000  0.40400000  0.56810000  1.0 0.1093806602
C  C1  1  0.35500000  0.68430000  0.61710000  1.0 0.6077071635
C  C2  1  0.64500000  0.18430000  0.38290000  1.0 0.6077071635
C  C3  1  0.44570000  0.65340000  0.64260000  1.0 -0.0212633776
C  C4  1  0.55430000  0.15340000  0.35740000  1.0 -0.0212633776
C  C5  1  0.46840000  0.67650000  0.69270000  1.0 -0.1604912522
C  C6  1  0.53160000  0.17650000  0.30730000  1.0 -0.1604912522
C  C7  1  0.55520000  0.64870000  0.71620000  1.0 0.0445416068
C  C8  1  0.44480000  0.14870000  0.28380000  1.0 0.0445416068
C  C9  1  0.61420000  0.59350000  0.68780000  1.0 -0.1910441609
C  C10  1  0.38580000  0.09350000  0.31220000  1.0 -0.1910441609
C  C11  1  0.59100000  0.56990000  0.63530000  1.0 0.0884540586
C  C12  1  0.40900000  0.06990000  0.36470000  1.0 0.0884540586
C  C13  1  0.50860000  0.60080000  0.61350000  1.0 -0.1680270189
C  C14  1  0.49140000  0.10080000  0.38650000  1.0 -0.1680270189
C  C15  1  0.65990000  0.51250000  0.60520000  1.0 -0.0765372904
C  C16  1  0.34010000  0.01250000  0.39480000  1.0 -0.0765372904
C  C17  1  0.82350000  0.52560000  0.58220000  1.0 0.2317895798
C  C18  1  0.17650000  0.02560000  0.41780000  1.0 0.2317895798
C  C19  1  0.81470000  0.46370000  0.54310000  1.0 -0.2074842992
C  C20  1  0.18530000  0.96370000  0.45690000  1.0 -0.2074842992
C  C21  1  0.88710000  0.45060000  0.50890000  1.0 -0.0092492846
C  C22  1  0.11290000  0.95060000  0.49110000  1.0 -0.0092492846
C  C23  1  0.87400000  0.38650000  0.46460000  1.0 0.5711447008
C  C24  1  0.12600000  0.88650000  0.53540000  1.0 0.5711447008
C  C25  1  0.96870000  0.50460000  0.51600000  1.0 -0.1398950311
C  C26  1  0.03130000  0.00460000  0.48400000  1.0 -0.1398950311
C  C27  1  0.97820000  0.56650000  0.55770000  1.0 -0.0092492846
C  C28  1  0.02180000  0.06650000  0.44230000  1.0 -0.0092492846
C  C29  1  0.06670000  0.62580000  0.56390000  1.0 0.5889865665
C  C30  1  0.93330000  0.12580000  0.43610000  1.0 0.5889865665
C  C31  1  0.90590000  0.57520000  0.58920000  1.0 -0.181655241
C  C32  1  0.09410000  0.07520000  0.41080000  1.0 -0.181655241
C  C33  1  0.56900000  0.71080000  0.87860000  1.0 -0.2305942269
C  C34  1  0.43100000  0.21080000  0.12140000  1.0 -0.2305942269
C  C35  1  0.56550000  0.72290000  0.93240000  1.0 -0.0298383635
C  C36  1  0.43450000  0.22290000  0.06760000  1.0 -0.0298383635
C  C37  1  0.62170000  0.79630000  0.95940000  1.0 0.5889865665
C  C38  1  0.37830000  0.29630000  0.04060000  1.0 0.5889865665
C  C39  1  0.50600000  0.66640000  0.95840000  1.0 -0.099277805
C  C40  1  0.49400000  0.16640000  0.04160000  1.0 -0.099277805
C  C41  1  0.44950000  0.59700000  0.93350000  1.0 -0.0404418891
C  C42  1  0.55050000  0.09700000  0.06650000  1.0 -0.0404418891
C  C43  1  0.38240000  0.54350000  0.96370000  1.0 0.5711447008
C  C44  1  0.61760000  0.04350000  0.03630000  1.0 0.5711447008
C  C45  1  0.46240000  0.58550000  0.88140000  1.0 -0.1910441609
C  C46  1  0.53760000  0.08550000  0.11860000  1.0 -0.1910441609
C  C47  1  0.51750000  0.64320000  0.85470000  1.0 0.2155599205
C  C48  1  0.48250000  0.14320000  0.14530000  1.0 0.2147402523
C  C49  1  0.57880000  0.67300000  0.77040000  1.0 -0.0644631086
C  C50  1  0.42120000  0.17300000  0.22960000  1.0 -0.0644631086
C  C51  1  0.14700000  0.73300000  0.38500000  1.0 0.5889865665
C  C52  1  0.85300000  0.23300000  0.61500000  1.0 0.5889865665
C  C53  1  0.05760000  0.77190000  0.35830000  1.0 -0.0092492846
C  C54  1  0.94240000  0.27190000  0.64170000  1.0 -0.0092492846
C  C55  1  0.04280000  0.76590000  0.30570000  1.0 -0.1604912522
C  C56  1  0.95720000  0.26590000  0.69430000  1.0 -0.1604912522
C  C57  1  0.95800000  0.79800000  0.28130000  1.0 0.0741960352
C  C58  1  0.04200000  0.29800000  0.71870000  1.0 0.0741960352
C  C59  1  0.89560000  0.84560000  0.31070000  1.0 -0.1910441609
C  C60  1  0.10440000  0.34560000  0.68930000  1.0 -0.1910441609
C  C61  1  0.90950000  0.85660000  0.36330000  1.0 0.0782037622
C  C62  1  0.09050000  0.35660000  0.63670000  1.0 0.0782037622
C  C63  1  0.99310000  0.81890000  0.38660000  1.0 -0.181655241
C  C64  1  0.00690000  0.31890000  0.61340000  1.0 -0.181655241
C  C65  1  0.94060000  0.79670000  0.22380000  1.0 -0.099277805
C  C66  1  0.05940000  0.29670000  0.77620000  1.0 -0.1062850001
C  C67  1  0.99780000  0.71940000  0.14940000  1.0 0.2638668028
C  C68  1  0.00220000  0.21940000  0.85060000  1.0 0.2638668028
C  C69  1  0.06070000  0.65420000  0.12840000  1.0 -0.181655241
C  C70  1  0.93930000  0.15420000  0.87160000  1.0 -0.181655241
C  C71  1  0.06370000  0.64550000  0.07700000  1.0 -0.0041727699
C  C72  1  0.93630000  0.14550000  0.92300000  1.0 0.0004127744
C  C73  1  0.13310000  0.57600000  0.05470000  1.0 0.5459211079
C  C74  1  0.86690000  0.07600000  0.94530000  1.0 0.5459211079
C  C75  1  0.00300000  0.69720000  0.04450000  1.0 -0.099277805
C  C76  1  0.99700000  0.19720000  0.95550000  1.0 -0.099277805
C  C77  1  0.94110000  0.75640000  0.06370000  1.0 -0.0212633776
C  C78  1  0.05890000  0.25640000  0.93630000  1.0 -0.0212633776
C  C79  1  0.87930000  0.81500000  0.02840000  1.0 0.5606324283
C  C80  1  0.12070000  0.31500000  0.97160000  1.0 0.5606324283
C  C81  1  0.93530000  0.76410000  0.11680000  1.0 -0.2514111193
C  C82  1  0.06470000  0.26410000  0.88320000  1.0 -0.2514111193
C  C83  1  0.59670000  0.83590000  0.41080000  1.0 -0.2210418673
C  C84  1  0.40330000  0.33590000  0.58920000  1.0 -0.2210418673
C  C85  1  0.52090000  0.84810000  0.44450000  1.0 -0.0041727699
C  C86  1  0.47910000  0.34810000  0.55550000  1.0 -0.0041727699
C  C87  1  0.43270000  0.79040000  0.43630000  1.0 0.5821503607
C  C88  1  0.56730000  0.29040000  0.56370000  1.0 0.5821503607
C  C89  1  0.53170000  0.90930000  0.48630000  1.0 -0.1495585235
C  C90  1  0.46830000  0.40930000  0.51370000  1.0 -0.1495585235
C  C91  1  0.61190000  0.96110000  0.49160000  1.0 -0.0212633776
C  C92  1  0.38810000  0.46110000  0.50840000  1.0 -0.0212633776
C  C93  1  0.62150000  0.02470000  0.53510000  1.0 0.5711447008
C  C94  1  0.37850000  0.52470000  0.46490000  1.0 0.5711447008
C  C95  1  0.68730000  0.95220000  0.45770000  1.0 -0.2305942269
C  C96  1  0.31270000  0.45220000  0.54230000  1.0 -0.2305942269
C  C97  1  0.67850000  0.88760000  0.41840000  1.0 0.2481438128
C  C98  1  0.32150000  0.38760000  0.58160000  1.0 0.2481438128
C  C99  1  0.84170000  0.90920000  0.39530000  1.0 -0.0876151564
C  C100  1  0.15830000  0.40920000  0.60470000  1.0 -0.0876151564
O  O1  1  0.29460000  0.72180000  0.64580000  1.0 -0.579319079
O  O2  1  0.70540000  0.22180000  0.35420000  1.0 -0.579319079
O  O3  1  0.34470000  0.67410000  0.56850000  1.0 -0.5685799512
O  O4  1  0.65530000  0.17410000  0.43150000  1.0 -0.5685799512
O  O5  1  0.80000000  0.34030000  0.46020000  1.0 -0.5859560313
O  O6  1  0.20000000  0.84030000  0.53980000  1.0 -0.5859560313
O  O7  1  0.93750000  0.38440000  0.43110000  1.0 -0.5510112437
O  O8  1  0.06250000  0.88440000  0.56890000  1.0 -0.5510112437
O  O9  1  0.12670000  0.62130000  0.52890000  1.0 -0.579319079
O  O10  1  0.87330000  0.12130000  0.47110000  1.0 -0.579319079
O  O11  1  0.07310000  0.67060000  0.60440000  1.0 -0.5510112437
O  O12  1  0.92690000  0.17060000  0.39560000  1.0 -0.5510112437
O  O13  1  0.66980000  0.84730000  0.93330000  1.0 -0.488172205
O  O14  1  0.33020000  0.34730000  0.06670000  1.0 -0.488172205
O  O15  1  0.61850000  0.79720000  0.00710000  1.0 -0.5685799512
O  O16  1  0.38150000  0.29720000  0.99290000  1.0 -0.5685799512
O  O17  1  0.37620000  0.55330000  0.01080000  1.0 -0.488172205
O  O18  1  0.62380000  0.05330000  0.98920000  1.0 -0.488172205
O  O19  1  0.33210000  0.48360000  0.93980000  1.0 -0.579319079
O  O20  1  0.66790000  0.98360000  0.06020000  1.0 -0.579319079
O  O21  1  0.15430000  0.73960000  0.43050000  1.0 -0.5077436956
O  O22  1  0.84570000  0.23960000  0.56950000  1.0 -0.5077436956
O  O23  1  0.20270000  0.69730000  0.35450000  1.0 -0.5591650547
O  O24  1  0.79730000  0.19730000  0.64550000  1.0 -0.5591650547
O  O25  1  0.18120000  0.52580000  0.08650000  1.0 -0.5357796939
O  O26  1  0.81880000  0.02580000  0.91350000  1.0 -0.5357796939
O  O27  1  0.13490000  0.56350000  0.00640000  1.0 -0.5330706628
O  O28  1  0.86510000  0.06350000  0.99360000  1.0 -0.5330706628
O  O29  1  0.89090000  0.81910000  0.98330000  1.0 -0.4551538022
O  O30  1  0.10910000  0.31910000  0.01670000  1.0 -0.4538971277
O  O31  1  0.81450000  0.86100000  0.05050000  1.0 -0.5859560313
O  O32  1  0.18550000  0.36100000  0.94950000  1.0 -0.5859560313
O  O33  1  0.42900000  0.74200000  0.39630000  1.0 -0.5685799512
O  O34  1  0.57100000  0.24200000  0.60370000  1.0 -0.5685799512
O  O35  1  0.37280000  0.79300000  0.47020000  1.0 -0.5591650547
O  O36  1  0.62720000  0.29300000  0.52980000  1.0 -0.5591650547
O  O37  1  0.56330000  0.02800000  0.57060000  1.0 -0.5330706628
O  O38  1  0.43670000  0.52800000  0.42940000  1.0 -0.5330706628
O  O39  1  0.69770000  0.07860000  0.54110000  1.0 -0.6389508041
O  O40  1  0.30230000  0.57860000  0.45890000  1.0 -0.6389508041
O  O41  1  0.75360000  0.54680000  0.61650000  1.0 -0.1910441609
O  O42  1  0.24640000  0.04680000  0.38350000  1.0 -0.1910441609
O  O43  1  0.51890000  0.62570000  0.80160000  1.0 -0.1680270189
O  O44  1  0.48110000  0.12570000  0.19840000  1.0 -0.1680270189
O  O45  1  0.00230000  0.72830000  0.20120000  1.0 -0.181655241
O  O46  1  0.99770000  0.22830000  0.79880000  1.0 -0.181655241
O  O47  1  0.74910000  0.86760000  0.38450000  1.0 -0.1910441609
O  O48  1  0.25090000  0.36760000  0.61550000  1.0 -0.1910441609
