# DDEC6 charges by PACMAN v1.1 (https://github.com/mtap-research/PACMAN-charge/)
data_BUCYAA_FSR_pacman
_symmetry_space_group_name_H-M   'P 1'
_cell_length_a   17.45890000
_cell_length_b   17.45890000
_cell_length_c   16.54080000
_cell_angle_alpha   84.52810000
_cell_angle_beta   95.47190000
_cell_angle_gamma   97.99610000
_symmetry_Int_Tables_number   1
_chemical_formula_structural   Zn7H28C18(N11O3)3
_chemical_formula_sum   'Zn28 H112 C72 N132 O36'
_cell_volume   4952.81843850
_cell_formula_units_Z   4
loop_
 _symmetry_equiv_pos_site_id
 _symmetry_equiv_pos_as_xyz
  1  'x, y, z'
loop_
 _atom_site_type_symbol
 _atom_site_label
 _atom_site_symmetry_multiplicity
 _atom_site_fract_x
 _atom_site_fract_y
 _atom_site_fract_z
 _atom_site_occupancy
 _atom_site_charge
Zn  Zn1  1  0.52079000  0.75343000  0.04291000  1.0 0.7209205997
Zn  Zn2  1  0.75343000  0.52079000  0.45709000  1.0 0.7209205997
Zn  Zn3  1  0.47921000  0.24657000  0.95709000  1.0 0.7209205997
Zn  Zn4  1  0.24657000  0.47921000  0.54291000  1.0 0.7209205997
Zn  Zn5  1  0.06379000  0.71177000  0.86283000  1.0 0.7209205997
Zn  Zn6  1  0.71177000  0.06379000  0.63717000  1.0 0.7209205997
Zn  Zn7  1  0.93621000  0.28823000  0.13717000  1.0 0.7209205997
Zn  Zn8  1  0.28823000  0.93621000  0.36283000  1.0 0.7209205997
Zn  Zn9  1  0.24494000  0.74170000  0.77429000  1.0 0.5733331315
Zn  Zn10  1  0.74170000  0.24494000  0.72571000  1.0 0.5733331315
Zn  Zn11  1  0.75506000  0.25830000  0.22571000  1.0 0.5733331315
Zn  Zn12  1  0.25830000  0.75506000  0.27429000  1.0 0.5733331315
Zn  Zn13  1  0.42252000  0.76838000  0.67950000  1.0 0.6867390744
Zn  Zn14  1  0.76838000  0.42252000  0.82050000  1.0 0.6867390744
Zn  Zn15  1  0.57748000  0.23162000  0.32050000  1.0 0.6867390744
Zn  Zn16  1  0.23162000  0.57748000  0.17950000  1.0 0.6867390744
Zn  Zn17  1  0.79340000  0.58348000  0.03905000  1.0 0.8093037702
Zn  Zn18  1  0.58348000  0.79340000  0.46095000  1.0 0.8093037702
Zn  Zn19  1  0.20660000  0.41652000  0.96095000  1.0 0.8093037702
Zn  Zn20  1  0.41652000  0.20660000  0.53905000  1.0 0.8093037702
Zn  Zn21  1  0.76221000  0.98585000  0.00802000  1.0 0.7209205997
Zn  Zn22  1  0.98585000  0.76221000  0.49198000  1.0 0.7209205997
Zn  Zn23  1  0.23779000  0.01415000  0.99198000  1.0 0.7209205997
Zn  Zn24  1  0.01415000  0.23779000  0.50802000  1.0 0.7209205997
Zn  Zn25  1  0.95685000  0.72313000  0.02842000  1.0 0.835065829
Zn  Zn26  1  0.72313000  0.95685000  0.47158000  1.0 0.835065829
Zn  Zn27  1  0.04315000  0.27687000  0.97158000  1.0 0.835065829
Zn  Zn28  1  0.27687000  0.04315000  0.52842000  1.0 0.835065829
H  H1  1  0.93420000  0.65840000  0.89970000  1.0 0.3584363334
H  H2  1  0.65840000  0.93420000  0.60030000  1.0 0.3584363334
H  H3  1  0.06580000  0.34160000  0.10030000  1.0 0.3584363334
H  H4  1  0.34160000  0.06580000  0.39970000  1.0 0.3584363334
H  H5  1  0.89700000  0.63700000  0.14030000  1.0 0.3740124575
H  H6  1  0.63700000  0.89700000  0.35970000  1.0 0.3740124575
H  H7  1  0.10300000  0.36300000  0.85970000  1.0 0.3740124575
H  H8  1  0.36300000  0.10300000  0.64030000  1.0 0.3740124575
H  H9  1  0.33480000  0.90140000  0.81880000  1.0 0.3006890855
H  H10  1  0.90140000  0.33480000  0.68120000  1.0 0.3006890855
H  H11  1  0.66520000  0.09860000  0.18120000  1.0 0.3006890855
H  H12  1  0.09860000  0.66520000  0.31880000  1.0 0.3006890855
H  H13  1  0.33240000  0.96540000  0.87160000  1.0 0.3284696586
H  H14  1  0.96540000  0.33240000  0.62840000  1.0 0.3284696586
H  H15  1  0.66760000  0.03460000  0.12840000  1.0 0.3284696586
H  H16  1  0.03460000  0.66760000  0.37160000  1.0 0.3284696586
H  H17  1  0.09970000  0.86750000  0.97050000  1.0 0.1017241993
H  H18  1  0.86750000  0.09970000  0.52950000  1.0 0.1017241993
H  H19  1  0.90030000  0.13250000  0.02950000  1.0 0.1017241993
H  H20  1  0.13250000  0.90030000  0.47050000  1.0 0.1017241993
H  H21  1  0.57810000  0.78970000  0.79600000  1.0 0.2917132623
H  H22  1  0.78970000  0.57810000  0.70400000  1.0 0.2917132623
H  H23  1  0.42190000  0.21030000  0.20400000  1.0 0.2917132623
H  H24  1  0.21030000  0.42190000  0.29600000  1.0 0.2917132623
H  H25  1  0.59890000  0.78610000  0.88560000  1.0 0.3090786285
H  H26  1  0.78610000  0.59890000  0.61440000  1.0 0.3090786285
H  H27  1  0.40110000  0.21390000  0.11440000  1.0 0.3090786285
H  H28  1  0.21390000  0.40110000  0.38560000  1.0 0.3090786285
H  H29  1  0.34860000  0.74080000  0.95650000  1.0 0.1092225293
H  H30  1  0.74080000  0.34860000  0.54350000  1.0 0.1092225293
H  H31  1  0.65140000  0.25920000  0.04350000  1.0 0.1092225293
H  H32  1  0.25920000  0.65140000  0.45650000  1.0 0.1092225293
H  H33  1  0.15420000  0.88500000  0.71450000  1.0 0.3006890855
H  H34  1  0.88500000  0.15420000  0.78550000  1.0 0.3006890855
H  H35  1  0.84580000  0.11500000  0.28550000  1.0 0.3006890855
H  H36  1  0.11500000  0.84580000  0.21450000  1.0 0.3006890855
H  H37  1  0.15380000  0.95140000  0.65090000  1.0 0.2816626619
H  H38  1  0.95140000  0.15380000  0.84910000  1.0 0.2816626619
H  H39  1  0.84620000  0.04860000  0.34910000  1.0 0.2816626619
H  H40  1  0.04860000  0.84620000  0.15090000  1.0 0.2816626619
H  H41  1  0.38530000  0.92090000  0.55780000  1.0 0.1017241993
H  H42  1  0.92090000  0.38530000  0.94220000  1.0 0.1017241993
H  H43  1  0.61470000  0.07910000  0.44220000  1.0 0.1017241993
H  H44  1  0.07910000  0.61470000  0.05780000  1.0 0.1017241993
H  H45  1  0.35910000  0.55370000  0.06660000  1.0 0.3241880409
H  H46  1  0.55370000  0.35910000  0.43340000  1.0 0.3241880409
H  H47  1  0.64090000  0.44630000  0.93340000  1.0 0.3241880409
H  H48  1  0.44630000  0.64090000  0.56660000  1.0 0.3241880409
H  H49  1  0.43280000  0.59720000  0.03900000  1.0 0.3090786285
H  H50  1  0.59720000  0.43280000  0.46100000  1.0 0.3090786285
H  H51  1  0.56720000  0.40280000  0.96100000  1.0 0.3090786285
H  H52  1  0.40280000  0.56720000  0.53900000  1.0 0.3090786285
H  H53  1  0.42370000  0.80930000  0.18130000  1.0 0.1092225293
H  H54  1  0.80930000  0.42370000  0.31870000  1.0 0.1092225293
H  H55  1  0.57630000  0.19070000  0.81870000  1.0 0.1092225293
H  H56  1  0.19070000  0.57630000  0.68130000  1.0 0.1092225293
H  H57  1  0.01960000  0.53960000  0.94030000  1.0 0.2816626619
H  H58  1  0.53960000  0.01960000  0.55970000  1.0 0.2816626619
H  H59  1  0.98040000  0.46040000  0.05970000  1.0 0.2816626619
H  H60  1  0.46040000  0.98040000  0.44030000  1.0 0.2816626619
H  H61  1  0.05940000  0.46940000  0.96260000  1.0 0.2816626619
H  H62  1  0.46940000  0.05940000  0.53740000  1.0 0.2816626619
H  H63  1  0.94060000  0.53060000  0.03740000  1.0 0.2816626619
H  H64  1  0.53060000  0.94060000  0.46260000  1.0 0.2816626619
H  H65  1  0.29400000  0.57920000  0.87650000  1.0 0.0879580578
H  H66  1  0.57920000  0.29400000  0.62350000  1.0 0.0879580578
H  H67  1  0.70600000  0.42080000  0.12350000  1.0 0.0879580578
H  H68  1  0.42080000  0.70600000  0.37650000  1.0 0.0879580578
H  H69  1  0.91050000  0.72570000  0.73700000  1.0 0.3006890855
H  H70  1  0.72570000  0.91050000  0.76300000  1.0 0.3006890855
H  H71  1  0.08950000  0.27430000  0.26300000  1.0 0.3006890855
H  H72  1  0.27430000  0.08950000  0.23700000  1.0 0.3006890855
H  H73  1  0.89360000  0.73380000  0.64680000  1.0 0.2816626619
H  H74  1  0.73380000  0.89360000  0.85320000  1.0 0.2816626619
H  H75  1  0.10640000  0.26620000  0.35320000  1.0 0.2816626619
H  H76  1  0.26620000  0.10640000  0.14680000  1.0 0.2816626619
H  H77  1  0.14640000  0.73900000  0.59010000  1.0 0.1092225293
H  H78  1  0.73900000  0.14640000  0.90990000  1.0 0.1092225293
H  H79  1  0.85360000  0.26100000  0.40990000  1.0 0.1092225293
H  H80  1  0.26100000  0.85360000  0.09010000  1.0 0.1092225293
H  H81  1  0.80140000  0.75720000  0.94540000  1.0 0.3006890855
H  H82  1  0.75720000  0.80140000  0.55460000  1.0 0.3006890855
H  H83  1  0.19860000  0.24280000  0.05460000  1.0 0.3006890855
H  H84  1  0.24280000  0.19860000  0.44540000  1.0 0.3006890855
H  H85  1  0.74900000  0.81680000  0.94960000  1.0 0.3006890855
H  H86  1  0.81680000  0.74900000  0.55040000  1.0 0.3006890855
H  H87  1  0.25100000  0.18320000  0.05040000  1.0 0.3006890855
H  H88  1  0.18320000  0.25100000  0.44960000  1.0 0.3006890855
H  H89  1  0.02130000  0.89670000  0.05810000  1.0 0.080746828
H  H90  1  0.89670000  0.02130000  0.44190000  1.0 0.080746828
H  H91  1  0.97870000  0.10330000  0.94190000  1.0 0.080746828
H  H92  1  0.10330000  0.97870000  0.55810000  1.0 0.080746828
H  H93  1  0.67580000  0.55460000  0.25130000  1.0 0.1540646339
H  H94  1  0.55460000  0.67580000  0.24870000  1.0 0.1540646339
H  H95  1  0.32420000  0.44540000  0.74870000  1.0 0.1540646339
H  H96  1  0.44540000  0.32420000  0.75130000  1.0 0.1540646339
H  H97  1  0.73870000  0.54110000  0.20150000  1.0 0.1540646339
H  H98  1  0.54110000  0.73870000  0.29850000  1.0 0.1540646339
H  H99  1  0.26130000  0.45890000  0.79850000  1.0 0.1540646339
H  H100  1  0.45890000  0.26130000  0.70150000  1.0 0.1540646339
H  H101  1  0.64770000  0.66530000  0.96460000  1.0 0.1092225293
H  H102  1  0.66530000  0.64770000  0.53540000  1.0 0.1092225293
H  H103  1  0.35230000  0.33470000  0.03540000  1.0 0.1092225293
H  H104  1  0.33470000  0.35230000  0.46460000  1.0 0.1092225293
H  H105  1  0.62780000  0.51360000  0.23260000  1.0 0.1540646339
H  H106  1  0.51360000  0.62780000  0.26740000  1.0 0.1540646339
H  H107  1  0.37220000  0.48640000  0.76740000  1.0 0.1540646339
H  H108  1  0.48640000  0.37220000  0.73260000  1.0 0.1540646339
H  H109  1  0.70500000  0.50280000  0.20740000  1.0 0.1609340667
H  H110  1  0.50280000  0.70500000  0.29260000  1.0 0.1609340667
H  H111  1  0.29500000  0.49720000  0.79260000  1.0 0.1609340667
H  H112  1  0.49720000  0.29500000  0.70740000  1.0 0.1609340667
C  C1  1  0.63370000  0.87950000  0.04250000  1.0 0.8093037702
C  C2  1  0.87950000  0.63370000  0.45750000  1.0 0.8093037702
C  C3  1  0.36630000  0.12050000  0.95750000  1.0 0.8093037702
C  C4  1  0.12050000  0.36630000  0.54250000  1.0 0.8093037702
C  C5  1  0.56910000  0.81190000  0.62330000  1.0 0.6011782758
C  C6  1  0.81190000  0.56910000  0.87670000  1.0 0.6011782758
C  C7  1  0.43090000  0.18810000  0.37670000  1.0 0.6011782758
C  C8  1  0.18810000  0.43090000  0.12330000  1.0 0.6011782758
C  C9  1  0.24310000  0.88810000  0.87660000  1.0 0.4974235169
C  C10  1  0.88810000  0.24310000  0.62340000  1.0 0.4974235169
C  C11  1  0.75690000  0.11190000  0.12340000  1.0 0.4974235169
C  C12  1  0.11190000  0.75690000  0.37660000  1.0 0.4974235169
C  C13  1  0.13890000  0.86370000  0.93730000  1.0 0.1331778936
C  C14  1  0.86370000  0.13890000  0.56270000  1.0 0.1331778936
C  C15  1  0.86110000  0.13630000  0.06270000  1.0 0.1331778936
C  C16  1  0.13630000  0.86110000  0.43730000  1.0 0.1331778936
C  C17  1  0.48750000  0.77130000  0.85810000  1.0 0.5084953182
C  C18  1  0.77130000  0.48750000  0.64190000  1.0 0.5084953182
C  C19  1  0.51250000  0.22870000  0.14190000  1.0 0.5084953182
C  C20  1  0.22870000  0.51250000  0.35810000  1.0 0.5084953182
C  C21  1  0.38340000  0.74960000  0.91640000  1.0 0.1240900181
C  C22  1  0.74960000  0.38340000  0.58360000  1.0 0.1240900181
C  C23  1  0.61660000  0.25040000  0.08360000  1.0 0.1240900181
C  C24  1  0.25040000  0.61660000  0.41640000  1.0 0.1240900181
C  C25  1  0.24220000  0.89740000  0.65110000  1.0 0.4858122937
C  C26  1  0.89740000  0.24220000  0.84890000  1.0 0.4858122937
C  C27  1  0.75780000  0.10260000  0.34890000  1.0 0.4858122937
C  C28  1  0.10260000  0.75780000  0.15110000  1.0 0.4858122937
C  C29  1  0.34600000  0.90460000  0.59230000  1.0 0.138662957
C  C30  1  0.90460000  0.34600000  0.90770000  1.0 0.138662957
C  C31  1  0.65400000  0.09540000  0.40770000  1.0 0.138662957
C  C32  1  0.09540000  0.65400000  0.09230000  1.0 0.138662957
C  C33  1  0.38650000  0.65230000  0.11460000  1.0 0.4682603948
C  C34  1  0.65230000  0.38650000  0.38540000  1.0 0.4682603948
C  C35  1  0.61350000  0.34770000  0.88540000  1.0 0.4682603948
C  C36  1  0.34770000  0.61350000  0.61460000  1.0 0.4682603948
C  C37  1  0.40270000  0.75990000  0.16750000  1.0 0.1017241993
C  C38  1  0.75990000  0.40270000  0.33250000  1.0 0.1017241993
C  C39  1  0.59730000  0.24010000  0.83250000  1.0 0.1017241993
C  C40  1  0.24010000  0.59730000  0.66750000  1.0 0.1017241993
C  C41  1  0.12680000  0.55560000  0.91340000  1.0 0.4858122937
C  C42  1  0.55560000  0.12680000  0.58660000  1.0 0.4858122937
C  C43  1  0.87320000  0.44440000  0.08660000  1.0 0.4858122937
C  C44  1  0.44440000  0.87320000  0.41340000  1.0 0.4858122937
C  C45  1  0.24240000  0.58320000  0.88300000  1.0 0.0879580578
C  C46  1  0.58320000  0.24240000  0.61700000  1.0 0.0879580578
C  C47  1  0.75760000  0.41680000  0.11700000  1.0 0.0879580578
C  C48  1  0.41680000  0.75760000  0.38300000  1.0 0.0879580578
C  C49  1  0.00210000  0.73150000  0.67930000  1.0 0.5084953182
C  C50  1  0.73150000  0.00210000  0.82070000  1.0 0.5084953182
C  C51  1  0.99790000  0.26850000  0.32070000  1.0 0.5084953182
C  C52  1  0.26850000  0.99790000  0.17930000  1.0 0.5084953182
C  C53  1  0.10960000  0.73600000  0.62780000  1.0 0.1240900181
C  C54  1  0.73600000  0.10960000  0.87220000  1.0 0.1240900181
C  C55  1  0.89040000  0.26400000  0.37220000  1.0 0.1240900181
C  C56  1  0.26400000  0.89040000  0.12780000  1.0 0.1240900181
C  C57  1  0.85340000  0.84680000  0.00210000  1.0 0.4839549534
C  C58  1  0.84680000  0.85340000  0.49790000  1.0 0.4858122937
C  C59  1  0.14660000  0.15320000  0.99790000  1.0 0.4839549534
C  C60  1  0.15320000  0.14660000  0.50210000  1.0 0.4839549534
C  C61  1  0.96800000  0.89100000  0.04510000  1.0 0.1017241993
C  C62  1  0.89100000  0.96800000  0.45490000  1.0 0.1017241993
C  C63  1  0.03200000  0.10900000  0.95490000  1.0 0.1017241993
C  C64  1  0.10900000  0.03200000  0.54510000  1.0 0.1017241993
C  C65  1  0.66450000  0.60470000  0.13940000  1.0 0.3465564124
C  C66  1  0.60470000  0.66450000  0.36060000  1.0 0.3465564124
C  C67  1  0.33550000  0.39530000  0.86060000  1.0 0.3465564124
C  C68  1  0.39530000  0.33550000  0.63940000  1.0 0.3465564124
C  C69  1  0.64380000  0.65160000  0.01990000  1.0 0.138662957
C  C70  1  0.65160000  0.64380000  0.48010000  1.0 0.138662957
C  C71  1  0.35620000  0.34840000  0.98010000  1.0 0.138662957
C  C72  1  0.34840000  0.35620000  0.51990000  1.0 0.138662957
N  N1  1  0.20292000  0.91728000  0.93080000  1.0 -0.4286823772
N  N2  1  0.91728000  0.20292000  0.56920000  1.0 -0.4286823772
N  N3  1  0.79708000  0.08272000  0.06920000  1.0 -0.4286823772
N  N4  1  0.08272000  0.79708000  0.43080000  1.0 -0.4286823772
N  N5  1  0.20662000  0.82138000  0.85090000  1.0 -0.3294427596
N  N6  1  0.82138000  0.20662000  0.64910000  1.0 -0.3294427596
N  N7  1  0.79338000  0.17862000  0.14910000  1.0 -0.3294427596
N  N8  1  0.17862000  0.79338000  0.35090000  1.0 -0.3294427596
N  N9  1  0.13829000  0.80611000  0.89200000  1.0 -0.2159229538
N  N10  1  0.80611000  0.13829000  0.60800000  1.0 -0.2159229538
N  N11  1  0.86171000  0.19389000  0.10800000  1.0 -0.2097577033
N  N12  1  0.19389000  0.86171000  0.39200000  1.0 -0.2159229538
N  N13  1  0.31150000  0.92230000  0.85280000  1.0 -0.6222953029
N  N14  1  0.92230000  0.31150000  0.64720000  1.0 -0.6222953029
N  N15  1  0.68850000  0.07770000  0.14720000  1.0 -0.6222953029
N  N16  1  0.07770000  0.68850000  0.35280000  1.0 -0.6222953029
N  N17  1  0.46096000  0.76104000  0.93300000  1.0 -0.4212232508
N  N18  1  0.76104000  0.46096000  0.56700000  1.0 -0.4212232508
N  N19  1  0.53904000  0.23896000  0.06700000  1.0 -0.4212232508
N  N20  1  0.23896000  0.53904000  0.43300000  1.0 -0.4212232508
N  N21  1  0.42996000  0.76704000  0.79970000  1.0 -0.3209591412
N  N22  1  0.76704000  0.42996000  0.70030000  1.0 -0.3209591412
N  N23  1  0.57004000  0.23296000  0.20030000  1.0 -0.3209591412
N  N24  1  0.23296000  0.57004000  0.29970000  1.0 -0.3209591412
N  N25  1  0.36172000  0.75228000  0.83810000  1.0 -0.2097577033
N  N26  1  0.75228000  0.36172000  0.66190000  1.0 -0.2097577033
N  N27  1  0.63828000  0.24772000  0.16190000  1.0 -0.2097577033
N  N28  1  0.24772000  0.63828000  0.33810000  1.0 -0.2097577033
N  N29  1  0.56430000  0.78390000  0.84490000  1.0 -0.6580210626
N  N30  1  0.78390000  0.56430000  0.65510000  1.0 -0.6506237038
N  N31  1  0.43570000  0.21610000  0.15510000  1.0 -0.6580210626
N  N32  1  0.21610000  0.43570000  0.34490000  1.0 -0.6580210626
N  N33  1  0.28215000  0.93925000  0.59150000  1.0 -0.4406326242
N  N34  1  0.93925000  0.28215000  0.90850000  1.0 -0.4406326242
N  N35  1  0.71785000  0.06075000  0.40850000  1.0 -0.4406326242
N  N36  1  0.06075000  0.71785000  0.09150000  1.0 -0.4406326242
N  N37  1  0.27875000  0.83945000  0.68560000  1.0 -0.3098150942
N  N38  1  0.83945000  0.27875000  0.81440000  1.0 -0.3098150942
N  N39  1  0.72125000  0.16055000  0.31440000  1.0 -0.3098150942
N  N40  1  0.16055000  0.72125000  0.18560000  1.0 -0.3098150942
N  N41  1  0.34705000  0.84535000  0.64660000  1.0 -0.2097577033
N  N42  1  0.84535000  0.34705000  0.85340000  1.0 -0.2097577033
N  N43  1  0.65295000  0.15465000  0.35340000  1.0 -0.2097577033
N  N44  1  0.15465000  0.65295000  0.14660000  1.0 -0.2097577033
N  N45  1  0.17540000  0.91320000  0.67500000  1.0 -0.628896269
N  N46  1  0.91320000  0.17540000  0.82500000  1.0 -0.628896269
N  N47  1  0.82460000  0.08680000  0.32500000  1.0 -0.628896269
N  N48  1  0.08680000  0.82460000  0.17500000  1.0 -0.628896269
N  N49  1  0.43470000  0.71910000  0.11670000  1.0 -0.4406326242
N  N50  1  0.71910000  0.43470000  0.38330000  1.0 -0.4406326242
N  N51  1  0.56530000  0.28090000  0.88330000  1.0 -0.4406326242
N  N52  1  0.28090000  0.56530000  0.61670000  1.0 -0.4406326242
N  N53  1  0.32788000  0.65092000  0.16000000  1.0 -0.3098150942
N  N54  1  0.65092000  0.32788000  0.34000000  1.0 -0.3098150942
N  N55  1  0.67212000  0.34908000  0.84000000  1.0 -0.3098150942
N  N56  1  0.34908000  0.67212000  0.66000000  1.0 -0.3098150942
N  N57  1  0.33868000  0.72192000  0.19490000  1.0 -0.2035006423
N  N58  1  0.72192000  0.33868000  0.30510000  1.0 -0.2035006423
N  N59  1  0.66132000  0.27808000  0.80510000  1.0 -0.2097577033
N  N60  1  0.27808000  0.66132000  0.69490000  1.0 -0.2097577033
N  N61  1  0.39380000  0.59380000  0.06760000  1.0 -0.628896269
N  N62  1  0.59380000  0.39380000  0.43240000  1.0 -0.628896269
N  N63  1  0.60620000  0.40620000  0.93240000  1.0 -0.628896269
N  N64  1  0.40620000  0.60620000  0.56760000  1.0 -0.628896269
N  N65  1  0.19319000  0.52461000  0.91680000  1.0 -0.4481688865
N  N66  1  0.52461000  0.19319000  0.58320000  1.0 -0.4481688865
N  N67  1  0.80681000  0.47539000  0.08320000  1.0 -0.4481688865
N  N68  1  0.47539000  0.80681000  0.41680000  1.0 -0.4481688865
N  N69  1  0.13380000  0.62860000  0.88100000  1.0 -0.3098150942
N  N70  1  0.62860000  0.13380000  0.61900000  1.0 -0.3098150942
N  N71  1  0.86620000  0.37140000  0.11900000  1.0 -0.3098150942
N  N72  1  0.37140000  0.86620000  0.38100000  1.0 -0.3098150942
N  N73  1  0.21010000  0.64630000  0.86050000  1.0 -0.1918352522
N  N74  1  0.64630000  0.21010000  0.63950000  1.0 -0.1918352522
N  N75  1  0.78990000  0.35370000  0.13950000  1.0 -0.1918352522
N  N76  1  0.35370000  0.78990000  0.36050000  1.0 -0.1918352522
N  N77  1  0.06050000  0.51670000  0.94230000  1.0 -0.6387741543
N  N78  1  0.51670000  0.06050000  0.55770000  1.0 -0.6387741543
N  N79  1  0.93950000  0.48330000  0.05770000  1.0 -0.6387741543
N  N80  1  0.48330000  0.93950000  0.44230000  1.0 -0.6387741543
N  N81  1  0.03197000  0.73863000  0.60630000  1.0 -0.4406326242
N  N82  1  0.73863000  0.03197000  0.89370000  1.0 -0.4406326242
N  N83  1  0.96803000  0.26137000  0.39370000  1.0 -0.4406326242
N  N84  1  0.26137000  0.96803000  0.10630000  1.0 -0.4406326242
N  N85  1  0.05630000  0.72610000  0.74150000  1.0 -0.3373961725
N  N86  1  0.72610000  0.05630000  0.75850000  1.0 -0.3373961725
N  N87  1  0.94370000  0.27390000  0.25850000  1.0 -0.3373961725
N  N88  1  0.27390000  0.94370000  0.24150000  1.0 -0.3373961725
N  N89  1  0.12652000  0.72888000  0.70710000  1.0 -0.2035006423
N  N90  1  0.72888000  0.12652000  0.79290000  1.0 -0.2035006423
N  N91  1  0.87348000  0.27112000  0.29290000  1.0 -0.2035006423
N  N92  1  0.27112000  0.87348000  0.20710000  1.0 -0.2035006423
N  N93  1  0.92620000  0.73020000  0.68890000  1.0 -0.628896269
N  N94  1  0.73020000  0.92620000  0.81110000  1.0 -0.628896269
N  N95  1  0.07380000  0.26980000  0.31110000  1.0 -0.628896269
N  N96  1  0.26980000  0.07380000  0.18890000  1.0 -0.628896269
N  N97  1  0.92230000  0.82630000  0.02020000  1.0 -0.4286823772
N  N98  1  0.82630000  0.92230000  0.47980000  1.0 -0.4286823772
N  N99  1  0.07770000  0.17370000  0.97980000  1.0 -0.4286823772
N  N100  1  0.17370000  0.07770000  0.52020000  1.0 -0.4286823772
N  N101  1  0.84849000  0.92031000  0.01540000  1.0 -0.3045753516
N  N102  1  0.92031000  0.84849000  0.48460000  1.0 -0.3045753516
N  N103  1  0.15151000  0.07969000  0.98460000  1.0 -0.3045753516
N  N104  1  0.07969000  0.15151000  0.51540000  1.0 -0.3045753516
N  N105  1  0.92150000  0.94390000  0.04710000  1.0 -0.2035006423
N  N106  1  0.94390000  0.92150000  0.45290000  1.0 -0.2035006423
N  N107  1  0.07850000  0.05610000  0.95290000  1.0 -0.2035006423
N  N108  1  0.05610000  0.07850000  0.54710000  1.0 -0.2035006423
N  N109  1  0.79370000  0.80110000  0.96040000  1.0 -0.6580210626
N  N110  1  0.80110000  0.79370000  0.53960000  1.0 -0.6580210626
N  N111  1  0.20630000  0.19890000  0.03960000  1.0 -0.6580210626
N  N112  1  0.19890000  0.20630000  0.46040000  1.0 -0.6580210626
N  N113  1  0.69340000  0.61120000  0.06520000  1.0 -0.4406326242
N  N114  1  0.61120000  0.69340000  0.43480000  1.0 -0.4406326242
N  N115  1  0.30660000  0.38880000  0.93480000  1.0 -0.4406326242
N  N116  1  0.38880000  0.30660000  0.56520000  1.0 -0.4406326242
N  N117  1  0.60140000  0.63800000  0.13930000  1.0 -0.368451988
N  N118  1  0.63800000  0.60140000  0.36070000  1.0 -0.368451988
N  N119  1  0.39860000  0.36200000  0.86070000  1.0 -0.368451988
N  N120  1  0.36200000  0.39860000  0.63930000  1.0 -0.368451988
N  N121  1  0.58930000  0.67010000  0.05920000  1.0 -0.2097577033
N  N122  1  0.67010000  0.58930000  0.44080000  1.0 -0.2097577033
N  N123  1  0.41070000  0.32990000  0.94080000  1.0 -0.2097577033
N  N124  1  0.32990000  0.41070000  0.55920000  1.0 -0.2097577033
N  N125  1  0.69720000  0.56120000  0.20590000  1.0 -0.2159229538
N  N126  1  0.56120000  0.69720000  0.29410000  1.0 -0.2159229538
N  N127  1  0.30280000  0.43880000  0.79410000  1.0 -0.2159229538
N  N128  1  0.43880000  0.30280000  0.70590000  1.0 -0.2159229538
N  N129  1  0.66600000  0.52840000  0.20310000  1.0 -0.2035006423
N  N130  1  0.52840000  0.66600000  0.29690000  1.0 -0.2035006423
N  N131  1  0.33400000  0.47160000  0.79690000  1.0 -0.2035006423
N  N132  1  0.47160000  0.33400000  0.70310000  1.0 -0.2035006423
O  O1  1  0.97550000  0.69010000  0.92390000  1.0 -0.8296587147
O  O2  1  0.69010000  0.97550000  0.57610000  1.0 -0.8296587147
O  O3  1  0.02450000  0.30990000  0.07610000  1.0 -0.8296587147
O  O4  1  0.30990000  0.02450000  0.42390000  1.0 -0.8296587147
O  O5  1  0.88555000  0.64555000  0.08430000  1.0 -0.8485551603
O  O6  1  0.64555000  0.88555000  0.41570000  1.0 -0.8485551603
O  O7  1  0.11445000  0.35445000  0.91570000  1.0 -0.8485551603
O  O8  1  0.35445000  0.11445000  0.58430000  1.0 -0.8485551603
O  O9  1  0.64997000  0.85183000  0.98000000  1.0 -0.6506237038
O  O10  1  0.85183000  0.64997000  0.52000000  1.0 -0.6506237038
O  O11  1  0.35003000  0.14817000  0.02000000  1.0 -0.6506237038
O  O12  1  0.14817000  0.35003000  0.48000000  1.0 -0.6506237038
O  O13  1  0.57568000  0.84850000  0.08360000  1.0 -0.6222953029
O  O14  1  0.84850000  0.57568000  0.41640000  1.0 -0.6222953029
O  O15  1  0.42432000  0.15150000  0.91640000  1.0 -0.6222953029
O  O16  1  0.15150000  0.42432000  0.58360000  1.0 -0.6222953029
O  O17  1  0.67532000  0.94012000  0.07000000  1.0 -0.5954058496
O  O18  1  0.94012000  0.67532000  0.43000000  1.0 -0.5954058496
O  O19  1  0.32468000  0.05988000  0.93000000  1.0 -0.5954058496
O  O20  1  0.05988000  0.32468000  0.57000000  1.0 -0.5942245253
O  O21  1  0.50621000  0.76519000  0.61390000  1.0 -0.5589095779
O  O22  1  0.76519000  0.50621000  0.88610000  1.0 -0.5589095779
O  O23  1  0.49379000  0.23481000  0.38610000  1.0 -0.5589095779
O  O24  1  0.23481000  0.49379000  0.11390000  1.0 -0.5589095779
O  O25  1  0.62090000  0.81310000  0.57180000  1.0 -0.5815394796
O  O26  1  0.81310000  0.62090000  0.92820000  1.0 -0.5815394796
O  O27  1  0.37910000  0.18690000  0.42820000  1.0 -0.5815394796
O  O28  1  0.18690000  0.37910000  0.07180000  1.0 -0.5815394796
O  O29  1  0.59340000  0.84840000  0.68530000  1.0 -0.137690229
O  O30  1  0.84840000  0.59340000  0.81470000  1.0 -0.137690229
O  O31  1  0.40660000  0.15160000  0.31470000  1.0 -0.1303667702
O  O32  1  0.15160000  0.40660000  0.18530000  1.0 -0.137690229
O  O33  1  0.55130000  0.87030000  0.66970000  1.0 -0.137690229
O  O34  1  0.87030000  0.55130000  0.83030000  1.0 -0.137690229
O  O35  1  0.44870000  0.12970000  0.33030000  1.0 -0.137690229
O  O36  1  0.12970000  0.44870000  0.16970000  1.0 -0.137690229
