# DDEC6 charges by PACMAN v1.1 (https://github.com/mtap-research/PACMAN-charge/)
data_BUFNOG_FSR_pacman
_symmetry_space_group_name_H-M   'P 1'
_cell_length_a   34.24940000
_cell_length_b   34.24940000
_cell_length_c   34.24940000
_cell_angle_alpha   60.00000000
_cell_angle_beta   60.00000000
_cell_angle_gamma   60.00000000
_symmetry_Int_Tables_number   1
_chemical_formula_structural   Cd4H104(C16O3)7
_chemical_formula_sum   'Cd24 H624 C672 O126'
_cell_volume   28408.21232267
_cell_formula_units_Z   6
loop_
 _symmetry_equiv_pos_site_id
 _symmetry_equiv_pos_as_xyz
  1  'x, y, z'
loop_
 _atom_site_type_symbol
 _atom_site_label
 _atom_site_symmetry_multiplicity
 _atom_site_fract_x
 _atom_site_fract_y
 _atom_site_fract_z
 _atom_site_occupancy
 _atom_site_charge
Cd  Cd1  1  0.42604000  0.02302000  0.97698000  1.0 1.0557748868
Cd  Cd2  1  0.97698000  0.42604000  0.02302000  1.0 1.0557748868
Cd  Cd3  1  0.02302000  0.97698000  0.42604000  1.0 1.0557748868
Cd  Cd4  1  0.07396000  0.47698000  0.92604000  1.0 1.0557748868
Cd  Cd5  1  0.52302000  0.92604000  0.47698000  1.0 1.0557748868
Cd  Cd6  1  0.92604000  0.52302000  0.07396000  1.0 1.0557748868
Cd  Cd7  1  0.52302000  0.07396000  0.92604000  1.0 1.0557748868
Cd  Cd8  1  0.92604000  0.47698000  0.52302000  1.0 1.0557748868
Cd  Cd9  1  0.47698000  0.92604000  0.07396000  1.0 1.0557748868
Cd  Cd10  1  0.47698000  0.52302000  0.92604000  1.0 1.0557748868
Cd  Cd11  1  0.07396000  0.92604000  0.52302000  1.0 1.0557748868
Cd  Cd12  1  0.92604000  0.07396000  0.47698000  1.0 1.0557748868
Cd  Cd13  1  0.02302000  0.42604000  0.57396000  1.0 1.0557748868
Cd  Cd14  1  0.97698000  0.57396000  0.42604000  1.0 1.0557748868
Cd  Cd15  1  0.57396000  0.97698000  0.02302000  1.0 1.0557748868
Cd  Cd16  1  0.57396000  0.02302000  0.42604000  1.0 1.0557748868
Cd  Cd17  1  0.42604000  0.97698000  0.57396000  1.0 1.0557748868
Cd  Cd18  1  0.02302000  0.57396000  0.97698000  1.0 1.0557748868
Cd  Cd19  1  0.42604000  0.57396000  0.02302000  1.0 1.0557748868
Cd  Cd20  1  0.57396000  0.42604000  0.97698000  1.0 1.0557748868
Cd  Cd21  1  0.97698000  0.02302000  0.57396000  1.0 1.0557748868
Cd  Cd22  1  0.47698000  0.07396000  0.52302000  1.0 1.0557748868
Cd  Cd23  1  0.07396000  0.52302000  0.47698000  1.0 1.0557748868
Cd  Cd24  1  0.52302000  0.47698000  0.07396000  1.0 1.0557748868
H  H1  1  0.44690000  0.16570000  0.95990000  1.0 0.1303874487
H  H2  1  0.95990000  0.44690000  0.16570000  1.0 0.1303874487
H  H3  1  0.16570000  0.95990000  0.44690000  1.0 0.1303874487
H  H4  1  0.05310000  0.33430000  0.07250000  1.0 0.1303874487
H  H5  1  0.54010000  0.07250000  0.33430000  1.0 0.1303874487
H  H6  1  0.07250000  0.54010000  0.05310000  1.0 0.1303874487
H  H7  1  0.54010000  0.05310000  0.07250000  1.0 0.1303874487
H  H8  1  0.07250000  0.33430000  0.54010000  1.0 0.1303874487
H  H9  1  0.33430000  0.07250000  0.05310000  1.0 0.1303874487
H  H10  1  0.33430000  0.54010000  0.07250000  1.0 0.1303874487
H  H11  1  0.05310000  0.07250000  0.54010000  1.0 0.1303874487
H  H12  1  0.07250000  0.05310000  0.33430000  1.0 0.1303874487
H  H13  1  0.16570000  0.44690000  0.42750000  1.0 0.1303874487
H  H14  1  0.95990000  0.42750000  0.44690000  1.0 0.1303874487
H  H15  1  0.42750000  0.95990000  0.16570000  1.0 0.1303874487
H  H16  1  0.42750000  0.16570000  0.44690000  1.0 0.1303874487
H  H17  1  0.44690000  0.95990000  0.42750000  1.0 0.1303874487
H  H18  1  0.16570000  0.42750000  0.95990000  1.0 0.1303874487
H  H19  1  0.44690000  0.42750000  0.16570000  1.0 0.1303874487
H  H20  1  0.42750000  0.44690000  0.95990000  1.0 0.1303874487
H  H21  1  0.95990000  0.16570000  0.42750000  1.0 0.1303874487
H  H22  1  0.33430000  0.05310000  0.54010000  1.0 0.1303874487
H  H23  1  0.05310000  0.54010000  0.33430000  1.0 0.1303874487
H  H24  1  0.54010000  0.33430000  0.05310000  1.0 0.1303874487
H  H25  1  0.55310000  0.83430000  0.04010000  1.0 0.1303874487
H  H26  1  0.04010000  0.55310000  0.83430000  1.0 0.1303874487
H  H27  1  0.83430000  0.04010000  0.55310000  1.0 0.1303874487
H  H28  1  0.94690000  0.66570000  0.92750000  1.0 0.1303874487
H  H29  1  0.45990000  0.92750000  0.66570000  1.0 0.1303874487
H  H30  1  0.92750000  0.45990000  0.94690000  1.0 0.1303874487
H  H31  1  0.45990000  0.94690000  0.92750000  1.0 0.1303874487
H  H32  1  0.92750000  0.66570000  0.45990000  1.0 0.1303874487
H  H33  1  0.66570000  0.92750000  0.94690000  1.0 0.1303874487
H  H34  1  0.66570000  0.45990000  0.92750000  1.0 0.1303874487
H  H35  1  0.94690000  0.92750000  0.45990000  1.0 0.1303874487
H  H36  1  0.92750000  0.94690000  0.66570000  1.0 0.1303874487
H  H37  1  0.83430000  0.55310000  0.57250000  1.0 0.1303874487
H  H38  1  0.04010000  0.57250000  0.55310000  1.0 0.1303874487
H  H39  1  0.57250000  0.04010000  0.83430000  1.0 0.1303874487
H  H40  1  0.57250000  0.83430000  0.55310000  1.0 0.1303874487
H  H41  1  0.55310000  0.04010000  0.57250000  1.0 0.1303874487
H  H42  1  0.83430000  0.57250000  0.04010000  1.0 0.1303874487
H  H43  1  0.55310000  0.57250000  0.83430000  1.0 0.1303874487
H  H44  1  0.57250000  0.55310000  0.04010000  1.0 0.1303874487
H  H45  1  0.04010000  0.83430000  0.57250000  1.0 0.1303874487
H  H46  1  0.66570000  0.94690000  0.45990000  1.0 0.1303874487
H  H47  1  0.94690000  0.45990000  0.66570000  1.0 0.1303874487
H  H48  1  0.45990000  0.66570000  0.94690000  1.0 0.1303874487
H  H49  1  0.29810000  0.26870000  0.93990000  1.0 0.1206621794
H  H50  1  0.93990000  0.29810000  0.26870000  1.0 0.1206621794
H  H51  1  0.26870000  0.93990000  0.29810000  1.0 0.1206621794
H  H52  1  0.20190000  0.23130000  0.00670000  1.0 0.1206621794
H  H53  1  0.56010000  0.00670000  0.23130000  1.0 0.1206621794
H  H54  1  0.00670000  0.56010000  0.20190000  1.0 0.1206621794
H  H55  1  0.56010000  0.20190000  0.00670000  1.0 0.1206621794
H  H56  1  0.00670000  0.23130000  0.56010000  1.0 0.1206621794
H  H57  1  0.23130000  0.00670000  0.20190000  1.0 0.1206621794
H  H58  1  0.23130000  0.56010000  0.00670000  1.0 0.1206621794
H  H59  1  0.20190000  0.00670000  0.56010000  1.0 0.1206621794
H  H60  1  0.00670000  0.20190000  0.23130000  1.0 0.1206621794
H  H61  1  0.26870000  0.29810000  0.49330000  1.0 0.1206621794
H  H62  1  0.93990000  0.49330000  0.29810000  1.0 0.1206621794
H  H63  1  0.49330000  0.93990000  0.26870000  1.0 0.1206621794
H  H64  1  0.49330000  0.26870000  0.29810000  1.0 0.1206621794
H  H65  1  0.29810000  0.93990000  0.49330000  1.0 0.1206621794
H  H66  1  0.26870000  0.49330000  0.93990000  1.0 0.1206621794
H  H67  1  0.29810000  0.49330000  0.26870000  1.0 0.1206621794
H  H68  1  0.49330000  0.29810000  0.93990000  1.0 0.1206621794
H  H69  1  0.93990000  0.26870000  0.49330000  1.0 0.1206621794
H  H70  1  0.23130000  0.20190000  0.56010000  1.0 0.1206621794
H  H71  1  0.20190000  0.56010000  0.23130000  1.0 0.1206621794
H  H72  1  0.56010000  0.23130000  0.20190000  1.0 0.1206621794
H  H73  1  0.70190000  0.73130000  0.06010000  1.0 0.1206621794
H  H74  1  0.06010000  0.70190000  0.73130000  1.0 0.1206621794
H  H75  1  0.73130000  0.06010000  0.70190000  1.0 0.1206621794
H  H76  1  0.79810000  0.76870000  0.99330000  1.0 0.1206621794
H  H77  1  0.43990000  0.99330000  0.76870000  1.0 0.1206621794
H  H78  1  0.99330000  0.43990000  0.79810000  1.0 0.1206621794
H  H79  1  0.43990000  0.79810000  0.99330000  1.0 0.1206621794
H  H80  1  0.99330000  0.76870000  0.43990000  1.0 0.1206621794
H  H81  1  0.76870000  0.99330000  0.79810000  1.0 0.1206621794
H  H82  1  0.76870000  0.43990000  0.99330000  1.0 0.1206621794
H  H83  1  0.79810000  0.99330000  0.43990000  1.0 0.1206621794
H  H84  1  0.99330000  0.79810000  0.76870000  1.0 0.1206621794
H  H85  1  0.73130000  0.70190000  0.50670000  1.0 0.1206621794
H  H86  1  0.06010000  0.50670000  0.70190000  1.0 0.1206621794
H  H87  1  0.50670000  0.06010000  0.73130000  1.0 0.1206621794
H  H88  1  0.50670000  0.73130000  0.70190000  1.0 0.1206621794
H  H89  1  0.70190000  0.06010000  0.50670000  1.0 0.1206621794
H  H90  1  0.73130000  0.50670000  0.06010000  1.0 0.1206621794
H  H91  1  0.70190000  0.50670000  0.73130000  1.0 0.1206621794
H  H92  1  0.50670000  0.70190000  0.06010000  1.0 0.1206621794
H  H93  1  0.06010000  0.73130000  0.50670000  1.0 0.1206621794
H  H94  1  0.76870000  0.79810000  0.43990000  1.0 0.1206621794
H  H95  1  0.79810000  0.43990000  0.76870000  1.0 0.1206621794
H  H96  1  0.43990000  0.76870000  0.79810000  1.0 0.1206621794
H  H97  1  0.32570000  0.18890000  0.94630000  1.0 0.1206621794
H  H98  1  0.94630000  0.32570000  0.18890000  1.0 0.1206621794
H  H99  1  0.18890000  0.94630000  0.32570000  1.0 0.1206621794
H  H100  1  0.17430000  0.31110000  0.96090000  1.0 0.1206621794
H  H101  1  0.55370000  0.96090000  0.31110000  1.0 0.1206621794
H  H102  1  0.96090000  0.55370000  0.17430000  1.0 0.1206621794
H  H103  1  0.55370000  0.17430000  0.96090000  1.0 0.1206621794
H  H104  1  0.96090000  0.31110000  0.55370000  1.0 0.1206621794
H  H105  1  0.31110000  0.96090000  0.17430000  1.0 0.1206621794
H  H106  1  0.31110000  0.55370000  0.96090000  1.0 0.1206621794
H  H107  1  0.17430000  0.96090000  0.55370000  1.0 0.1206621794
H  H108  1  0.96090000  0.17430000  0.31110000  1.0 0.1206621794
H  H109  1  0.18890000  0.32570000  0.53910000  1.0 0.1206621794
H  H110  1  0.94630000  0.53910000  0.32570000  1.0 0.1206621794
H  H111  1  0.53910000  0.94630000  0.18890000  1.0 0.1206621794
H  H112  1  0.53910000  0.18890000  0.32570000  1.0 0.1206621794
H  H113  1  0.32570000  0.94630000  0.53910000  1.0 0.1206621794
H  H114  1  0.18890000  0.53910000  0.94630000  1.0 0.1206621794
H  H115  1  0.32570000  0.53910000  0.18890000  1.0 0.1206621794
H  H116  1  0.53910000  0.32570000  0.94630000  1.0 0.1206621794
H  H117  1  0.94630000  0.18890000  0.53910000  1.0 0.1206621794
H  H118  1  0.31110000  0.17430000  0.55370000  1.0 0.1206621794
H  H119  1  0.17430000  0.55370000  0.31110000  1.0 0.1206621794
H  H120  1  0.55370000  0.31110000  0.17430000  1.0 0.1206621794
H  H121  1  0.67430000  0.81110000  0.05370000  1.0 0.1206621794
H  H122  1  0.05370000  0.67430000  0.81110000  1.0 0.1206621794
H  H123  1  0.81110000  0.05370000  0.67430000  1.0 0.1206621794
H  H124  1  0.82570000  0.68890000  0.03910000  1.0 0.1206621794
H  H125  1  0.44630000  0.03910000  0.68890000  1.0 0.1206621794
H  H126  1  0.03910000  0.44630000  0.82570000  1.0 0.1206621794
H  H127  1  0.44630000  0.82570000  0.03910000  1.0 0.1206621794
H  H128  1  0.03910000  0.68890000  0.44630000  1.0 0.1206621794
H  H129  1  0.68890000  0.03910000  0.82570000  1.0 0.1206621794
H  H130  1  0.68890000  0.44630000  0.03910000  1.0 0.1206621794
H  H131  1  0.82570000  0.03910000  0.44630000  1.0 0.1206621794
H  H132  1  0.03910000  0.82570000  0.68890000  1.0 0.1206621794
H  H133  1  0.81110000  0.67430000  0.46090000  1.0 0.1206621794
H  H134  1  0.05370000  0.46090000  0.67430000  1.0 0.1206621794
H  H135  1  0.46090000  0.05370000  0.81110000  1.0 0.1206621794
H  H136  1  0.46090000  0.81110000  0.67430000  1.0 0.1206621794
H  H137  1  0.67430000  0.05370000  0.46090000  1.0 0.1206621794
H  H138  1  0.81110000  0.46090000  0.05370000  1.0 0.1206621794
H  H139  1  0.67430000  0.46090000  0.81110000  1.0 0.1206621794
H  H140  1  0.46090000  0.67430000  0.05370000  1.0 0.1206621794
H  H141  1  0.05370000  0.81110000  0.46090000  1.0 0.1206621794
H  H142  1  0.68890000  0.82570000  0.44630000  1.0 0.1206621794
H  H143  1  0.82570000  0.44630000  0.68890000  1.0 0.1206621794
H  H144  1  0.44630000  0.68890000  0.82570000  1.0 0.1206621794
H  H145  1  0.45730000  0.20070000  0.00030000  1.0 0.1011842781
H  H146  1  0.00030000  0.45730000  0.20070000  1.0 0.1011842781
H  H147  1  0.20070000  0.00030000  0.45730000  1.0 0.1011842781
H  H148  1  0.04270000  0.29930000  0.15830000  1.0 0.1011842781
H  H149  1  0.49970000  0.15830000  0.29930000  1.0 0.1011842781
H  H150  1  0.15830000  0.49970000  0.04270000  1.0 0.1011842781
H  H151  1  0.49970000  0.04270000  0.15830000  1.0 0.1011842781
H  H152  1  0.15830000  0.29930000  0.49970000  1.0 0.1011842781
H  H153  1  0.29930000  0.15830000  0.04270000  1.0 0.1011842781
H  H154  1  0.29930000  0.49970000  0.15830000  1.0 0.1011842781
H  H155  1  0.04270000  0.15830000  0.49970000  1.0 0.1011842781
H  H156  1  0.15830000  0.04270000  0.29930000  1.0 0.1011842781
H  H157  1  0.20070000  0.45730000  0.34170000  1.0 0.1011842781
H  H158  1  0.00030000  0.34170000  0.45730000  1.0 0.1011842781
H  H159  1  0.34170000  0.00030000  0.20070000  1.0 0.1011842781
H  H160  1  0.34170000  0.20070000  0.45730000  1.0 0.1011842781
H  H161  1  0.45730000  0.00030000  0.34170000  1.0 0.1011842781
H  H162  1  0.20070000  0.34170000  0.00030000  1.0 0.1011842781
H  H163  1  0.45730000  0.34170000  0.20070000  1.0 0.1011842781
H  H164  1  0.34170000  0.45730000  0.00030000  1.0 0.1011842781
H  H165  1  0.00030000  0.20070000  0.34170000  1.0 0.1011842781
H  H166  1  0.29930000  0.04270000  0.49970000  1.0 0.1011842781
H  H167  1  0.04270000  0.49970000  0.29930000  1.0 0.1011842781
H  H168  1  0.49970000  0.29930000  0.04270000  1.0 0.1011842781
H  H169  1  0.54270000  0.79930000  0.99970000  1.0 0.1011842781
H  H170  1  0.99970000  0.54270000  0.79930000  1.0 0.1011842781
H  H171  1  0.79930000  0.99970000  0.54270000  1.0 0.1011842781
H  H172  1  0.95730000  0.70070000  0.84170000  1.0 0.1011842781
H  H173  1  0.50030000  0.84170000  0.70070000  1.0 0.1011842781
H  H174  1  0.84170000  0.50030000  0.95730000  1.0 0.1011842781
H  H175  1  0.50030000  0.95730000  0.84170000  1.0 0.1011842781
H  H176  1  0.84170000  0.70070000  0.50030000  1.0 0.1011842781
H  H177  1  0.70070000  0.84170000  0.95730000  1.0 0.1011842781
H  H178  1  0.70070000  0.50030000  0.84170000  1.0 0.1011842781
H  H179  1  0.95730000  0.84170000  0.50030000  1.0 0.1011842781
H  H180  1  0.84170000  0.95730000  0.70070000  1.0 0.1011842781
H  H181  1  0.79930000  0.54270000  0.65830000  1.0 0.1011842781
H  H182  1  0.99970000  0.65830000  0.54270000  1.0 0.1011842781
H  H183  1  0.65830000  0.99970000  0.79930000  1.0 0.1011842781
H  H184  1  0.65830000  0.79930000  0.54270000  1.0 0.1011842781
H  H185  1  0.54270000  0.99970000  0.65830000  1.0 0.1011842781
H  H186  1  0.79930000  0.65830000  0.99970000  1.0 0.1011842781
H  H187  1  0.54270000  0.65830000  0.79930000  1.0 0.1011842781
H  H188  1  0.65830000  0.54270000  0.99970000  1.0 0.1011842781
H  H189  1  0.99970000  0.79930000  0.65830000  1.0 0.1011842781
H  H190  1  0.70070000  0.95730000  0.50030000  1.0 0.1011842781
H  H191  1  0.95730000  0.50030000  0.70070000  1.0 0.1011842781
H  H192  1  0.50030000  0.70070000  0.95730000  1.0 0.1011842781
H  H193  1  0.45740000  0.24980000  0.99480000  1.0 0.09215891
H  H194  1  0.99480000  0.45740000  0.24980000  1.0 0.09215891
H  H195  1  0.24980000  0.99480000  0.45740000  1.0 0.09215891
H  H196  1  0.04260000  0.25020000  0.20200000  1.0 0.09215891
H  H197  1  0.50520000  0.20200000  0.25020000  1.0 0.09215891
H  H198  1  0.20200000  0.50520000  0.04260000  1.0 0.09215891
H  H199  1  0.50520000  0.04260000  0.20200000  1.0 0.09215891
H  H200  1  0.20200000  0.25020000  0.50520000  1.0 0.09215891
H  H201  1  0.25020000  0.20200000  0.04260000  1.0 0.09215891
H  H202  1  0.25020000  0.50520000  0.20200000  1.0 0.09215891
H  H203  1  0.04260000  0.20200000  0.50520000  1.0 0.09215891
H  H204  1  0.20200000  0.04260000  0.25020000  1.0 0.09215891
H  H205  1  0.24980000  0.45740000  0.29800000  1.0 0.09215891
H  H206  1  0.99480000  0.29800000  0.45740000  1.0 0.09215891
H  H207  1  0.29800000  0.99480000  0.24980000  1.0 0.09215891
H  H208  1  0.29800000  0.24980000  0.45740000  1.0 0.09215891
H  H209  1  0.45740000  0.99480000  0.29800000  1.0 0.09215891
H  H210  1  0.24980000  0.29800000  0.99480000  1.0 0.09215891
H  H211  1  0.45740000  0.29800000  0.24980000  1.0 0.09215891
H  H212  1  0.29800000  0.45740000  0.99480000  1.0 0.09215891
H  H213  1  0.99480000  0.24980000  0.29800000  1.0 0.09215891
H  H214  1  0.25020000  0.04260000  0.50520000  1.0 0.09215891
H  H215  1  0.04260000  0.50520000  0.25020000  1.0 0.09215891
H  H216  1  0.50520000  0.25020000  0.04260000  1.0 0.09215891
H  H217  1  0.54260000  0.75020000  0.00520000  1.0 0.09215891
H  H218  1  0.00520000  0.54260000  0.75020000  1.0 0.09215891
H  H219  1  0.75020000  0.00520000  0.54260000  1.0 0.09215891
H  H220  1  0.95740000  0.74980000  0.79800000  1.0 0.09215891
H  H221  1  0.49480000  0.79800000  0.74980000  1.0 0.09215891
H  H222  1  0.79800000  0.49480000  0.95740000  1.0 0.09215891
H  H223  1  0.49480000  0.95740000  0.79800000  1.0 0.09215891
H  H224  1  0.79800000  0.74980000  0.49480000  1.0 0.09215891
H  H225  1  0.74980000  0.79800000  0.95740000  1.0 0.09215891
H  H226  1  0.74980000  0.49480000  0.79800000  1.0 0.09215891
H  H227  1  0.95740000  0.79800000  0.49480000  1.0 0.09215891
H  H228  1  0.79800000  0.95740000  0.74980000  1.0 0.09215891
H  H229  1  0.75020000  0.54260000  0.70200000  1.0 0.09215891
H  H230  1  0.00520000  0.70200000  0.54260000  1.0 0.09215891
H  H231  1  0.70200000  0.00520000  0.75020000  1.0 0.09215891
H  H232  1  0.70200000  0.75020000  0.54260000  1.0 0.09215891
H  H233  1  0.54260000  0.00520000  0.70200000  1.0 0.09215891
H  H234  1  0.75020000  0.70200000  0.00520000  1.0 0.09215891
H  H235  1  0.54260000  0.70200000  0.75020000  1.0 0.09215891
H  H236  1  0.70200000  0.54260000  0.00520000  1.0 0.09215891
H  H237  1  0.00520000  0.75020000  0.70200000  1.0 0.09215891
H  H238  1  0.74980000  0.95740000  0.49480000  1.0 0.09215891
H  H239  1  0.95740000  0.49480000  0.74980000  1.0 0.09215891
H  H240  1  0.49480000  0.74980000  0.95740000  1.0 0.09215891
H  H241  1  0.37760000  0.27040000  0.04060000  1.0 0.1303874487
H  H242  1  0.04060000  0.37760000  0.27040000  1.0 0.1303874487
H  H243  1  0.27040000  0.04060000  0.37760000  1.0 0.1303874487
H  H244  1  0.12240000  0.22960000  0.18860000  1.0 0.1303874487
H  H245  1  0.45940000  0.18860000  0.22960000  1.0 0.1303874487
H  H246  1  0.18860000  0.45940000  0.12240000  1.0 0.1303874487
H  H247  1  0.45940000  0.12240000  0.18860000  1.0 0.1303874487
H  H248  1  0.18860000  0.22960000  0.45940000  1.0 0.1303874487
H  H249  1  0.22960000  0.18860000  0.12240000  1.0 0.1303874487
H  H250  1  0.22960000  0.45940000  0.18860000  1.0 0.1303874487
H  H251  1  0.12240000  0.18860000  0.45940000  1.0 0.1303874487
H  H252  1  0.18860000  0.12240000  0.22960000  1.0 0.1303874487
H  H253  1  0.27040000  0.37760000  0.31140000  1.0 0.1303874487
H  H254  1  0.04060000  0.31140000  0.37760000  1.0 0.1303874487
H  H255  1  0.31140000  0.04060000  0.27040000  1.0 0.1303874487
H  H256  1  0.31140000  0.27040000  0.37760000  1.0 0.1303874487
H  H257  1  0.37760000  0.04060000  0.31140000  1.0 0.1303874487
H  H258  1  0.27040000  0.31140000  0.04060000  1.0 0.1303874487
H  H259  1  0.37760000  0.31140000  0.27040000  1.0 0.1303874487
H  H260  1  0.31140000  0.37760000  0.04060000  1.0 0.1303874487
H  H261  1  0.04060000  0.27040000  0.31140000  1.0 0.1303874487
H  H262  1  0.22960000  0.12240000  0.45940000  1.0 0.1303874487
H  H263  1  0.12240000  0.45940000  0.22960000  1.0 0.1303874487
H  H264  1  0.45940000  0.22960000  0.12240000  1.0 0.1303874487
H  H265  1  0.62240000  0.72960000  0.95940000  1.0 0.1303874487
H  H266  1  0.95940000  0.62240000  0.72960000  1.0 0.1303874487
H  H267  1  0.72960000  0.95940000  0.62240000  1.0 0.1303874487
H  H268  1  0.87760000  0.77040000  0.81140000  1.0 0.1303874487
H  H269  1  0.54060000  0.81140000  0.77040000  1.0 0.1303874487
H  H270  1  0.81140000  0.54060000  0.87760000  1.0 0.1303874487
H  H271  1  0.54060000  0.87760000  0.81140000  1.0 0.1303874487
H  H272  1  0.81140000  0.77040000  0.54060000  1.0 0.1303874487
H  H273  1  0.77040000  0.81140000  0.87760000  1.0 0.1303874487
H  H274  1  0.77040000  0.54060000  0.81140000  1.0 0.1303874487
H  H275  1  0.87760000  0.81140000  0.54060000  1.0 0.1303874487
H  H276  1  0.81140000  0.87760000  0.77040000  1.0 0.1303874487
H  H277  1  0.72960000  0.62240000  0.68860000  1.0 0.1303874487
H  H278  1  0.95940000  0.68860000  0.62240000  1.0 0.1303874487
H  H279  1  0.68860000  0.95940000  0.72960000  1.0 0.1303874487
H  H280  1  0.68860000  0.72960000  0.62240000  1.0 0.1303874487
H  H281  1  0.62240000  0.95940000  0.68860000  1.0 0.1303874487
H  H282  1  0.72960000  0.68860000  0.95940000  1.0 0.1303874487
H  H283  1  0.62240000  0.68860000  0.72960000  1.0 0.1303874487
H  H284  1  0.68860000  0.62240000  0.95940000  1.0 0.1303874487
H  H285  1  0.95940000  0.72960000  0.68860000  1.0 0.1303874487
H  H286  1  0.77040000  0.87760000  0.54060000  1.0 0.1303874487
H  H287  1  0.87760000  0.54060000  0.77040000  1.0 0.1303874487
H  H288  1  0.54060000  0.77040000  0.87760000  1.0 0.1303874487
H  H289  1  0.40340000  0.21680000  0.06940000  1.0 0.1303874487
H  H290  1  0.06940000  0.40340000  0.21680000  1.0 0.1303874487
H  H291  1  0.21680000  0.06940000  0.40340000  1.0 0.1303874487
H  H292  1  0.09660000  0.28320000  0.18960000  1.0 0.1303874487
H  H293  1  0.43060000  0.18960000  0.28320000  1.0 0.1303874487
H  H294  1  0.18960000  0.43060000  0.09660000  1.0 0.1303874487
H  H295  1  0.43060000  0.09660000  0.18960000  1.0 0.1303874487
H  H296  1  0.18960000  0.28320000  0.43060000  1.0 0.1303874487
H  H297  1  0.28320000  0.18960000  0.09660000  1.0 0.1303874487
H  H298  1  0.28320000  0.43060000  0.18960000  1.0 0.1303874487
H  H299  1  0.09660000  0.18960000  0.43060000  1.0 0.1303874487
H  H300  1  0.18960000  0.09660000  0.28320000  1.0 0.1303874487
H  H301  1  0.21680000  0.40340000  0.31040000  1.0 0.1303874487
H  H302  1  0.06940000  0.31040000  0.40340000  1.0 0.1303874487
H  H303  1  0.31040000  0.06940000  0.21680000  1.0 0.1303874487
H  H304  1  0.31040000  0.21680000  0.40340000  1.0 0.1303874487
H  H305  1  0.40340000  0.06940000  0.31040000  1.0 0.1303874487
H  H306  1  0.21680000  0.31040000  0.06940000  1.0 0.1303874487
H  H307  1  0.40340000  0.31040000  0.21680000  1.0 0.1303874487
H  H308  1  0.31040000  0.40340000  0.06940000  1.0 0.1303874487
H  H309  1  0.06940000  0.21680000  0.31040000  1.0 0.1303874487
H  H310  1  0.28320000  0.09660000  0.43060000  1.0 0.1303874487
H  H311  1  0.09660000  0.43060000  0.28320000  1.0 0.1303874487
H  H312  1  0.43060000  0.28320000  0.09660000  1.0 0.1303874487
H  H313  1  0.59660000  0.78320000  0.93060000  1.0 0.1303874487
H  H314  1  0.93060000  0.59660000  0.78320000  1.0 0.1303874487
H  H315  1  0.78320000  0.93060000  0.59660000  1.0 0.1303874487
H  H316  1  0.90340000  0.71680000  0.81040000  1.0 0.1303874487
H  H317  1  0.56940000  0.81040000  0.71680000  1.0 0.1303874487
H  H318  1  0.81040000  0.56940000  0.90340000  1.0 0.1303874487
H  H319  1  0.56940000  0.90340000  0.81040000  1.0 0.1303874487
H  H320  1  0.81040000  0.71680000  0.56940000  1.0 0.1303874487
H  H321  1  0.71680000  0.81040000  0.90340000  1.0 0.1303874487
H  H322  1  0.71680000  0.56940000  0.81040000  1.0 0.1303874487
H  H323  1  0.90340000  0.81040000  0.56940000  1.0 0.1303874487
H  H324  1  0.81040000  0.90340000  0.71680000  1.0 0.1303874487
H  H325  1  0.78320000  0.59660000  0.68960000  1.0 0.1303874487
H  H326  1  0.93060000  0.68960000  0.59660000  1.0 0.1303874487
H  H327  1  0.68960000  0.93060000  0.78320000  1.0 0.1303874487
H  H328  1  0.68960000  0.78320000  0.59660000  1.0 0.1303874487
H  H329  1  0.59660000  0.93060000  0.68960000  1.0 0.1303874487
H  H330  1  0.78320000  0.68960000  0.93060000  1.0 0.1303874487
H  H331  1  0.59660000  0.68960000  0.78320000  1.0 0.1303874487
H  H332  1  0.68960000  0.59660000  0.93060000  1.0 0.1303874487
H  H333  1  0.93060000  0.78320000  0.68960000  1.0 0.1303874487
H  H334  1  0.71680000  0.90340000  0.56940000  1.0 0.1303874487
H  H335  1  0.90340000  0.56940000  0.71680000  1.0 0.1303874487
H  H336  1  0.56940000  0.71680000  0.90340000  1.0 0.1303874487
H  H337  1  0.37230000  0.22650000  0.04090000  1.0 0.1303874487
H  H338  1  0.04090000  0.37230000  0.22650000  1.0 0.1303874487
H  H339  1  0.22650000  0.04090000  0.37230000  1.0 0.1303874487
H  H340  1  0.12770000  0.27350000  0.13970000  1.0 0.1303874487
H  H341  1  0.45910000  0.13970000  0.27350000  1.0 0.1303874487
H  H342  1  0.13970000  0.45910000  0.12770000  1.0 0.1303874487
H  H343  1  0.45910000  0.12770000  0.13970000  1.0 0.1303874487
H  H344  1  0.13970000  0.27350000  0.45910000  1.0 0.1303874487
H  H345  1  0.27350000  0.13970000  0.12770000  1.0 0.1303874487
H  H346  1  0.27350000  0.45910000  0.13970000  1.0 0.1303874487
H  H347  1  0.12770000  0.13970000  0.45910000  1.0 0.1303874487
H  H348  1  0.13970000  0.12770000  0.27350000  1.0 0.1303874487
H  H349  1  0.22650000  0.37230000  0.36030000  1.0 0.1303874487
H  H350  1  0.04090000  0.36030000  0.37230000  1.0 0.1303874487
H  H351  1  0.36030000  0.04090000  0.22650000  1.0 0.1303874487
H  H352  1  0.36030000  0.22650000  0.37230000  1.0 0.1303874487
H  H353  1  0.37230000  0.04090000  0.36030000  1.0 0.1303874487
H  H354  1  0.22650000  0.36030000  0.04090000  1.0 0.1303874487
H  H355  1  0.37230000  0.36030000  0.22650000  1.0 0.1303874487
H  H356  1  0.36030000  0.37230000  0.04090000  1.0 0.1303874487
H  H357  1  0.04090000  0.22650000  0.36030000  1.0 0.1303874487
H  H358  1  0.27350000  0.12770000  0.45910000  1.0 0.1303874487
H  H359  1  0.12770000  0.45910000  0.27350000  1.0 0.1303874487
H  H360  1  0.45910000  0.27350000  0.12770000  1.0 0.1303874487
H  H361  1  0.62770000  0.77350000  0.95910000  1.0 0.1303874487
H  H362  1  0.95910000  0.62770000  0.77350000  1.0 0.1303874487
H  H363  1  0.77350000  0.95910000  0.62770000  1.0 0.1303874487
H  H364  1  0.87230000  0.72650000  0.86030000  1.0 0.1303874487
H  H365  1  0.54090000  0.86030000  0.72650000  1.0 0.1303874487
H  H366  1  0.86030000  0.54090000  0.87230000  1.0 0.1303874487
H  H367  1  0.54090000  0.87230000  0.86030000  1.0 0.1303874487
H  H368  1  0.86030000  0.72650000  0.54090000  1.0 0.1303874487
H  H369  1  0.72650000  0.86030000  0.87230000  1.0 0.1303874487
H  H370  1  0.72650000  0.54090000  0.86030000  1.0 0.1303874487
H  H371  1  0.87230000  0.86030000  0.54090000  1.0 0.1303874487
H  H372  1  0.86030000  0.87230000  0.72650000  1.0 0.1303874487
H  H373  1  0.77350000  0.62770000  0.63970000  1.0 0.1303874487
H  H374  1  0.95910000  0.63970000  0.62770000  1.0 0.1303874487
H  H375  1  0.63970000  0.95910000  0.77350000  1.0 0.1303874487
H  H376  1  0.63970000  0.77350000  0.62770000  1.0 0.1303874487
H  H377  1  0.62770000  0.95910000  0.63970000  1.0 0.1303874487
H  H378  1  0.77350000  0.63970000  0.95910000  1.0 0.1303874487
H  H379  1  0.62770000  0.63970000  0.77350000  1.0 0.1303874487
H  H380  1  0.63970000  0.62770000  0.95910000  1.0 0.1303874487
H  H381  1  0.95910000  0.77350000  0.63970000  1.0 0.1303874487
H  H382  1  0.72650000  0.87230000  0.54090000  1.0 0.1303874487
H  H383  1  0.87230000  0.54090000  0.72650000  1.0 0.1303874487
H  H384  1  0.54090000  0.72650000  0.87230000  1.0 0.1303874487
H  H385  1  0.49270000  0.27330000  0.89950000  1.0 0.09215891
H  H386  1  0.89950000  0.49270000  0.27330000  1.0 0.09215891
H  H387  1  0.27330000  0.89950000  0.49270000  1.0 0.09215891
H  H388  1  0.00730000  0.22670000  0.16550000  1.0 0.09215891
H  H389  1  0.60050000  0.16550000  0.22670000  1.0 0.09215891
H  H390  1  0.16550000  0.60050000  0.00730000  1.0 0.09215891
H  H391  1  0.60050000  0.00730000  0.16550000  1.0 0.09215891
H  H392  1  0.16550000  0.22670000  0.60050000  1.0 0.09215891
H  H393  1  0.22670000  0.16550000  0.00730000  1.0 0.09215891
H  H394  1  0.22670000  0.60050000  0.16550000  1.0 0.09215891
H  H395  1  0.00730000  0.16550000  0.60050000  1.0 0.09215891
H  H396  1  0.16550000  0.00730000  0.22670000  1.0 0.09215891
H  H397  1  0.27330000  0.49270000  0.33450000  1.0 0.09215891
H  H398  1  0.89950000  0.33450000  0.49270000  1.0 0.09215891
H  H399  1  0.33450000  0.89950000  0.27330000  1.0 0.09215891
H  H400  1  0.33450000  0.27330000  0.49270000  1.0 0.09215891
H  H401  1  0.49270000  0.89950000  0.33450000  1.0 0.09215891
H  H402  1  0.27330000  0.33450000  0.89950000  1.0 0.09215891
H  H403  1  0.49270000  0.33450000  0.27330000  1.0 0.09215891
H  H404  1  0.33450000  0.49270000  0.89950000  1.0 0.09215891
H  H405  1  0.89950000  0.27330000  0.33450000  1.0 0.09215891
H  H406  1  0.22670000  0.00730000  0.60050000  1.0 0.09215891
H  H407  1  0.00730000  0.60050000  0.22670000  1.0 0.09215891
H  H408  1  0.60050000  0.22670000  0.00730000  1.0 0.09215891
H  H409  1  0.50730000  0.72670000  0.10050000  1.0 0.09215891
H  H410  1  0.10050000  0.50730000  0.72670000  1.0 0.09215891
H  H411  1  0.72670000  0.10050000  0.50730000  1.0 0.09215891
H  H412  1  0.99270000  0.77330000  0.83450000  1.0 0.09215891
H  H413  1  0.39950000  0.83450000  0.77330000  1.0 0.09215891
H  H414  1  0.83450000  0.39950000  0.99270000  1.0 0.09215891
H  H415  1  0.39950000  0.99270000  0.83450000  1.0 0.09215891
H  H416  1  0.83450000  0.77330000  0.39950000  1.0 0.09215891
H  H417  1  0.77330000  0.83450000  0.99270000  1.0 0.09215891
H  H418  1  0.77330000  0.39950000  0.83450000  1.0 0.09215891
H  H419  1  0.99270000  0.83450000  0.39950000  1.0 0.09215891
H  H420  1  0.83450000  0.99270000  0.77330000  1.0 0.09215891
H  H421  1  0.72670000  0.50730000  0.66550000  1.0 0.09215891
H  H422  1  0.10050000  0.66550000  0.50730000  1.0 0.09215891
H  H423  1  0.66550000  0.10050000  0.72670000  1.0 0.09215891
H  H424  1  0.66550000  0.72670000  0.50730000  1.0 0.09215891
H  H425  1  0.50730000  0.10050000  0.66550000  1.0 0.09215891
H  H426  1  0.72670000  0.66550000  0.10050000  1.0 0.09215891
H  H427  1  0.50730000  0.66550000  0.72670000  1.0 0.09215891
H  H428  1  0.66550000  0.50730000  0.10050000  1.0 0.09215891
H  H429  1  0.10050000  0.72670000  0.66550000  1.0 0.09215891
H  H430  1  0.77330000  0.99270000  0.39950000  1.0 0.09215891
H  H431  1  0.99270000  0.39950000  0.77330000  1.0 0.09215891
H  H432  1  0.39950000  0.77330000  0.99270000  1.0 0.09215891
H  H433  1  0.49490000  0.22250000  0.90710000  1.0 0.110625804
H  H434  1  0.90710000  0.49490000  0.22250000  1.0 0.110625804
H  H435  1  0.22250000  0.90710000  0.49490000  1.0 0.110625804
H  H436  1  0.00510000  0.27750000  0.12450000  1.0 0.110625804
H  H437  1  0.59290000  0.12450000  0.27750000  1.0 0.110625804
H  H438  1  0.12450000  0.59290000  0.00510000  1.0 0.110625804
H  H439  1  0.59290000  0.00510000  0.12450000  1.0 0.110625804
H  H440  1  0.12450000  0.27750000  0.59290000  1.0 0.110625804
H  H441  1  0.27750000  0.12450000  0.00510000  1.0 0.110625804
H  H442  1  0.27750000  0.59290000  0.12450000  1.0 0.110625804
H  H443  1  0.00510000  0.12450000  0.59290000  1.0 0.110625804
H  H444  1  0.12450000  0.00510000  0.27750000  1.0 0.110625804
H  H445  1  0.22250000  0.49490000  0.37550000  1.0 0.110625804
H  H446  1  0.90710000  0.37550000  0.49490000  1.0 0.110625804
H  H447  1  0.37550000  0.90710000  0.22250000  1.0 0.110625804
H  H448  1  0.37550000  0.22250000  0.49490000  1.0 0.110625804
H  H449  1  0.49490000  0.90710000  0.37550000  1.0 0.110625804
H  H450  1  0.22250000  0.37550000  0.90710000  1.0 0.110625804
H  H451  1  0.49490000  0.37550000  0.22250000  1.0 0.110625804
H  H452  1  0.37550000  0.49490000  0.90710000  1.0 0.110625804
H  H453  1  0.90710000  0.22250000  0.37550000  1.0 0.110625804
H  H454  1  0.27750000  0.00510000  0.59290000  1.0 0.110625804
H  H455  1  0.00510000  0.59290000  0.27750000  1.0 0.110625804
H  H456  1  0.59290000  0.27750000  0.00510000  1.0 0.110625804
H  H457  1  0.50510000  0.77750000  0.09290000  1.0 0.110625804
H  H458  1  0.09290000  0.50510000  0.77750000  1.0 0.110625804
H  H459  1  0.77750000  0.09290000  0.50510000  1.0 0.110625804
H  H460  1  0.99490000  0.72250000  0.87550000  1.0 0.110625804
H  H461  1  0.40710000  0.87550000  0.72250000  1.0 0.110625804
H  H462  1  0.87550000  0.40710000  0.99490000  1.0 0.110625804
H  H463  1  0.40710000  0.99490000  0.87550000  1.0 0.110625804
H  H464  1  0.87550000  0.72250000  0.40710000  1.0 0.110625804
H  H465  1  0.72250000  0.87550000  0.99490000  1.0 0.110625804
H  H466  1  0.72250000  0.40710000  0.87550000  1.0 0.110625804
H  H467  1  0.99490000  0.87550000  0.40710000  1.0 0.110625804
H  H468  1  0.87550000  0.99490000  0.72250000  1.0 0.110625804
H  H469  1  0.77750000  0.50510000  0.62450000  1.0 0.110625804
H  H470  1  0.09290000  0.62450000  0.50510000  1.0 0.110625804
H  H471  1  0.62450000  0.09290000  0.77750000  1.0 0.110625804
H  H472  1  0.62450000  0.77750000  0.50510000  1.0 0.110625804
H  H473  1  0.50510000  0.09290000  0.62450000  1.0 0.110625804
H  H474  1  0.77750000  0.62450000  0.09290000  1.0 0.110625804
H  H475  1  0.50510000  0.62450000  0.77750000  1.0 0.110625804
H  H476  1  0.62450000  0.50510000  0.09290000  1.0 0.110625804
H  H477  1  0.09290000  0.77750000  0.62450000  1.0 0.110625804
H  H478  1  0.72250000  0.99490000  0.40710000  1.0 0.110625804
H  H479  1  0.99490000  0.40710000  0.72250000  1.0 0.110625804
H  H480  1  0.40710000  0.72250000  0.99490000  1.0 0.110625804
H  H481  1  0.44870000  0.26010000  0.85730000  1.0 0.1206621794
H  H482  1  0.85730000  0.44870000  0.26010000  1.0 0.1206621794
H  H483  1  0.26010000  0.85730000  0.44870000  1.0 0.1206621794
H  H484  1  0.05130000  0.23990000  0.06610000  1.0 0.1206621794
H  H485  1  0.64270000  0.06610000  0.23990000  1.0 0.1206621794
H  H486  1  0.06610000  0.64270000  0.05130000  1.0 0.1206621794
H  H487  1  0.64270000  0.05130000  0.06610000  1.0 0.1206621794
H  H488  1  0.06610000  0.23990000  0.64270000  1.0 0.1206621794
H  H489  1  0.23990000  0.06610000  0.05130000  1.0 0.1206621794
H  H490  1  0.23990000  0.64270000  0.06610000  1.0 0.1206621794
H  H491  1  0.05130000  0.06610000  0.64270000  1.0 0.1206621794
H  H492  1  0.06610000  0.05130000  0.23990000  1.0 0.1206621794
H  H493  1  0.26010000  0.44870000  0.43390000  1.0 0.1206621794
H  H494  1  0.85730000  0.43390000  0.44870000  1.0 0.1206621794
H  H495  1  0.43390000  0.85730000  0.26010000  1.0 0.1206621794
H  H496  1  0.43390000  0.26010000  0.44870000  1.0 0.1206621794
H  H497  1  0.44870000  0.85730000  0.43390000  1.0 0.1206621794
H  H498  1  0.26010000  0.43390000  0.85730000  1.0 0.1206621794
H  H499  1  0.44870000  0.43390000  0.26010000  1.0 0.1206621794
H  H500  1  0.43390000  0.44870000  0.85730000  1.0 0.1206621794
H  H501  1  0.85730000  0.26010000  0.43390000  1.0 0.1206621794
H  H502  1  0.23990000  0.05130000  0.64270000  1.0 0.1206621794
H  H503  1  0.05130000  0.64270000  0.23990000  1.0 0.1206621794
H  H504  1  0.64270000  0.23990000  0.05130000  1.0 0.1206621794
H  H505  1  0.55130000  0.73990000  0.14270000  1.0 0.1206621794
H  H506  1  0.14270000  0.55130000  0.73990000  1.0 0.1206621794
H  H507  1  0.73990000  0.14270000  0.55130000  1.0 0.1206621794
H  H508  1  0.94870000  0.76010000  0.93390000  1.0 0.1206621794
H  H509  1  0.35730000  0.93390000  0.76010000  1.0 0.1206621794
H  H510  1  0.93390000  0.35730000  0.94870000  1.0 0.1206621794
H  H511  1  0.35730000  0.94870000  0.93390000  1.0 0.1206621794
H  H512  1  0.93390000  0.76010000  0.35730000  1.0 0.1206621794
H  H513  1  0.76010000  0.93390000  0.94870000  1.0 0.1206621794
H  H514  1  0.76010000  0.35730000  0.93390000  1.0 0.1206621794
H  H515  1  0.94870000  0.93390000  0.35730000  1.0 0.1206621794
H  H516  1  0.93390000  0.94870000  0.76010000  1.0 0.1206621794
H  H517  1  0.73990000  0.55130000  0.56610000  1.0 0.1206621794
H  H518  1  0.14270000  0.56610000  0.55130000  1.0 0.1206621794
H  H519  1  0.56610000  0.14270000  0.73990000  1.0 0.1206621794
H  H520  1  0.56610000  0.73990000  0.55130000  1.0 0.1206621794
H  H521  1  0.55130000  0.14270000  0.56610000  1.0 0.1206621794
H  H522  1  0.73990000  0.56610000  0.14270000  1.0 0.1206621794
H  H523  1  0.55130000  0.56610000  0.73990000  1.0 0.1206621794
H  H524  1  0.56610000  0.55130000  0.14270000  1.0 0.1206621794
H  H525  1  0.14270000  0.73990000  0.56610000  1.0 0.1206621794
H  H526  1  0.76010000  0.94870000  0.35730000  1.0 0.1206621794
H  H527  1  0.94870000  0.35730000  0.76010000  1.0 0.1206621794
H  H528  1  0.35730000  0.76010000  0.94870000  1.0 0.1206621794
H  H529  1  0.49670000  0.27330000  0.82970000  1.0 0.1206621794
H  H530  1  0.82970000  0.49670000  0.27330000  1.0 0.1206621794
H  H531  1  0.27330000  0.82970000  0.49670000  1.0 0.1206621794
H  H532  1  0.00330000  0.22670000  0.09970000  1.0 0.1206621794
H  H533  1  0.67030000  0.09970000  0.22670000  1.0 0.1206621794
H  H534  1  0.09970000  0.67030000  0.00330000  1.0 0.1206621794
H  H535  1  0.67030000  0.00330000  0.09970000  1.0 0.1206621794
H  H536  1  0.09970000  0.22670000  0.67030000  1.0 0.1206621794
H  H537  1  0.22670000  0.09970000  0.00330000  1.0 0.1206621794
H  H538  1  0.22670000  0.67030000  0.09970000  1.0 0.1206621794
H  H539  1  0.00330000  0.09970000  0.67030000  1.0 0.1206621794
H  H540  1  0.09970000  0.00330000  0.22670000  1.0 0.1206621794
H  H541  1  0.27330000  0.49670000  0.40030000  1.0 0.1206621794
H  H542  1  0.82970000  0.40030000  0.49670000  1.0 0.1206621794
H  H543  1  0.40030000  0.82970000  0.27330000  1.0 0.1206621794
H  H544  1  0.40030000  0.27330000  0.49670000  1.0 0.1206621794
H  H545  1  0.49670000  0.82970000  0.40030000  1.0 0.1206621794
H  H546  1  0.27330000  0.40030000  0.82970000  1.0 0.1206621794
H  H547  1  0.49670000  0.40030000  0.27330000  1.0 0.1206621794
H  H548  1  0.40030000  0.49670000  0.82970000  1.0 0.1206621794
H  H549  1  0.82970000  0.27330000  0.40030000  1.0 0.1206621794
H  H550  1  0.22670000  0.00330000  0.67030000  1.0 0.1206621794
H  H551  1  0.00330000  0.67030000  0.22670000  1.0 0.1206621794
H  H552  1  0.67030000  0.22670000  0.00330000  1.0 0.1206621794
H  H553  1  0.50330000  0.72670000  0.17030000  1.0 0.1206621794
H  H554  1  0.17030000  0.50330000  0.72670000  1.0 0.1206621794
H  H555  1  0.72670000  0.17030000  0.50330000  1.0 0.1206621794
H  H556  1  0.99670000  0.77330000  0.90030000  1.0 0.1206621794
H  H557  1  0.32970000  0.90030000  0.77330000  1.0 0.1206621794
H  H558  1  0.90030000  0.32970000  0.99670000  1.0 0.1206621794
H  H559  1  0.32970000  0.99670000  0.90030000  1.0 0.1206621794
H  H560  1  0.90030000  0.77330000  0.32970000  1.0 0.1206621794
H  H561  1  0.77330000  0.90030000  0.99670000  1.0 0.1206621794
H  H562  1  0.77330000  0.32970000  0.90030000  1.0 0.1206621794
H  H563  1  0.99670000  0.90030000  0.32970000  1.0 0.1206621794
H  H564  1  0.90030000  0.99670000  0.77330000  1.0 0.1206621794
H  H565  1  0.72670000  0.50330000  0.59970000  1.0 0.1206621794
H  H566  1  0.17030000  0.59970000  0.50330000  1.0 0.1206621794
H  H567  1  0.59970000  0.17030000  0.72670000  1.0 0.1206621794
H  H568  1  0.59970000  0.72670000  0.50330000  1.0 0.1206621794
H  H569  1  0.50330000  0.17030000  0.59970000  1.0 0.1206621794
H  H570  1  0.72670000  0.59970000  0.17030000  1.0 0.1206621794
H  H571  1  0.50330000  0.59970000  0.72670000  1.0 0.1206621794
H  H572  1  0.59970000  0.50330000  0.17030000  1.0 0.1206621794
H  H573  1  0.17030000  0.72670000  0.59970000  1.0 0.1206621794
H  H574  1  0.77330000  0.99670000  0.32970000  1.0 0.1206621794
H  H575  1  0.99670000  0.32970000  0.77330000  1.0 0.1206621794
H  H576  1  0.32970000  0.77330000  0.99670000  1.0 0.1206621794
H  H577  1  0.44680000  0.31100000  0.84960000  1.0 0.1206621794
H  H578  1  0.84960000  0.44680000  0.31100000  1.0 0.1206621794
H  H579  1  0.31100000  0.84960000  0.44680000  1.0 0.1206621794
H  H580  1  0.05320000  0.18900000  0.10740000  1.0 0.1206621794
H  H581  1  0.65040000  0.10740000  0.18900000  1.0 0.1206621794
H  H582  1  0.10740000  0.65040000  0.05320000  1.0 0.1206621794
H  H583  1  0.65040000  0.05320000  0.10740000  1.0 0.1206621794
H  H584  1  0.10740000  0.18900000  0.65040000  1.0 0.1206621794
H  H585  1  0.18900000  0.10740000  0.05320000  1.0 0.1206621794
H  H586  1  0.18900000  0.65040000  0.10740000  1.0 0.1206621794
H  H587  1  0.05320000  0.10740000  0.65040000  1.0 0.1206621794
H  H588  1  0.10740000  0.05320000  0.18900000  1.0 0.1206621794
H  H589  1  0.31100000  0.44680000  0.39260000  1.0 0.1206621794
H  H590  1  0.84960000  0.39260000  0.44680000  1.0 0.1206621794
H  H591  1  0.39260000  0.84960000  0.31100000  1.0 0.1206621794
H  H592  1  0.39260000  0.31100000  0.44680000  1.0 0.1206621794
H  H593  1  0.44680000  0.84960000  0.39260000  1.0 0.1206621794
H  H594  1  0.31100000  0.39260000  0.84960000  1.0 0.1206621794
H  H595  1  0.44680000  0.39260000  0.31100000  1.0 0.1206621794
H  H596  1  0.39260000  0.44680000  0.84960000  1.0 0.1206621794
H  H597  1  0.84960000  0.31100000  0.39260000  1.0 0.1206621794
H  H598  1  0.18900000  0.05320000  0.65040000  1.0 0.1206621794
H  H599  1  0.05320000  0.65040000  0.18900000  1.0 0.1206621794
H  H600  1  0.65040000  0.18900000  0.05320000  1.0 0.1206621794
H  H601  1  0.55320000  0.68900000  0.15040000  1.0 0.1206621794
H  H602  1  0.15040000  0.55320000  0.68900000  1.0 0.1206621794
H  H603  1  0.68900000  0.15040000  0.55320000  1.0 0.1206621794
H  H604  1  0.94680000  0.81100000  0.89260000  1.0 0.1206621794
H  H605  1  0.34960000  0.89260000  0.81100000  1.0 0.1206621794
H  H606  1  0.89260000  0.34960000  0.94680000  1.0 0.1206621794
H  H607  1  0.34960000  0.94680000  0.89260000  1.0 0.1206621794
H  H608  1  0.89260000  0.81100000  0.34960000  1.0 0.1206621794
H  H609  1  0.81100000  0.89260000  0.94680000  1.0 0.1206621794
H  H610  1  0.81100000  0.34960000  0.89260000  1.0 0.1206621794
H  H611  1  0.94680000  0.89260000  0.34960000  1.0 0.1206621794
H  H612  1  0.89260000  0.94680000  0.81100000  1.0 0.1206621794
H  H613  1  0.68900000  0.55320000  0.60740000  1.0 0.1206621794
H  H614  1  0.15040000  0.60740000  0.55320000  1.0 0.1206621794
H  H615  1  0.60740000  0.15040000  0.68900000  1.0 0.1206621794
H  H616  1  0.60740000  0.68900000  0.55320000  1.0 0.1206621794
H  H617  1  0.55320000  0.15040000  0.60740000  1.0 0.1206621794
H  H618  1  0.68900000  0.60740000  0.15040000  1.0 0.1206621794
H  H619  1  0.55320000  0.60740000  0.68900000  1.0 0.1206621794
H  H620  1  0.60740000  0.55320000  0.15040000  1.0 0.1206621794
H  H621  1  0.15040000  0.68900000  0.60740000  1.0 0.1206621794
H  H622  1  0.81100000  0.94680000  0.34960000  1.0 0.1206621794
H  H623  1  0.94680000  0.34960000  0.81100000  1.0 0.1206621794
H  H624  1  0.34960000  0.81100000  0.94680000  1.0 0.1206621794
C  C1  1  0.40338000  0.11730000  0.96316000  1.0 0.5602365974
C  C2  1  0.96316000  0.40338000  0.11730000  1.0 0.5602365974
C  C3  1  0.11730000  0.96316000  0.40338000  1.0 0.5602365974
C  C4  1  0.09662000  0.38270000  0.98384000  1.0 0.5602365974
C  C5  1  0.53684000  0.98384000  0.38270000  1.0 0.5602365974
C  C6  1  0.98384000  0.53684000  0.09662000  1.0 0.5602365974
C  C7  1  0.53684000  0.09662000  0.98384000  1.0 0.5602365974
C  C8  1  0.98384000  0.38270000  0.53684000  1.0 0.5602365974
C  C9  1  0.38270000  0.98384000  0.09662000  1.0 0.5602365974
C  C10  1  0.38270000  0.53684000  0.98384000  1.0 0.5602365974
C  C11  1  0.09662000  0.98384000  0.53684000  1.0 0.5602365974
C  C12  1  0.98384000  0.09662000  0.38270000  1.0 0.5602365974
C  C13  1  0.11730000  0.40338000  0.51616000  1.0 0.5602365974
C  C14  1  0.96316000  0.51616000  0.40338000  1.0 0.5602365974
C  C15  1  0.51616000  0.96316000  0.11730000  1.0 0.5602365974
C  C16  1  0.51616000  0.11730000  0.40338000  1.0 0.5602365974
C  C17  1  0.40338000  0.96316000  0.51616000  1.0 0.5602365974
C  C18  1  0.11730000  0.51616000  0.96316000  1.0 0.5602365974
C  C19  1  0.40338000  0.51616000  0.11730000  1.0 0.5602365974
C  C20  1  0.51616000  0.40338000  0.96316000  1.0 0.5602365974
C  C21  1  0.96316000  0.11730000  0.51616000  1.0 0.5602365974
C  C22  1  0.38270000  0.09662000  0.53684000  1.0 0.5602365974
C  C23  1  0.09662000  0.53684000  0.38270000  1.0 0.5602365974
C  C24  1  0.53684000  0.38270000  0.09662000  1.0 0.5602365974
C  C25  1  0.59662000  0.88270000  0.03684000  1.0 0.5602365974
C  C26  1  0.03684000  0.59662000  0.88270000  1.0 0.5602365974
C  C27  1  0.88270000  0.03684000  0.59662000  1.0 0.5602365974
C  C28  1  0.90338000  0.61730000  0.01616000  1.0 0.5602365974
C  C29  1  0.46316000  0.01616000  0.61730000  1.0 0.5602365974
C  C30  1  0.01616000  0.46316000  0.90338000  1.0 0.5602365974
C  C31  1  0.46316000  0.90338000  0.01616000  1.0 0.5602365974
C  C32  1  0.01616000  0.61730000  0.46316000  1.0 0.5602365974
C  C33  1  0.61730000  0.01616000  0.90338000  1.0 0.5602365974
C  C34  1  0.61730000  0.46316000  0.01616000  1.0 0.5602365974
C  C35  1  0.90338000  0.01616000  0.46316000  1.0 0.5602365974
C  C36  1  0.01616000  0.90338000  0.61730000  1.0 0.5602365974
C  C37  1  0.88270000  0.59662000  0.48384000  1.0 0.5602365974
C  C38  1  0.03684000  0.48384000  0.59662000  1.0 0.5602365974
C  C39  1  0.48384000  0.03684000  0.88270000  1.0 0.5602365974
C  C40  1  0.48384000  0.88270000  0.59662000  1.0 0.5602365974
C  C41  1  0.59662000  0.03684000  0.48384000  1.0 0.5602365974
C  C42  1  0.88270000  0.48384000  0.03684000  1.0 0.5602365974
C  C43  1  0.59662000  0.48384000  0.88270000  1.0 0.5602365974
C  C44  1  0.48384000  0.59662000  0.03684000  1.0 0.5602365974
C  C45  1  0.03684000  0.88270000  0.48384000  1.0 0.5602365974
C  C46  1  0.61730000  0.90338000  0.46316000  1.0 0.5602365974
C  C47  1  0.90338000  0.46316000  0.61730000  1.0 0.5602365974
C  C48  1  0.46316000  0.61730000  0.90338000  1.0 0.5602365974
C  C49  1  0.38810000  0.16926000  0.95526000  1.0 -0.0220232373
C  C50  1  0.95526000  0.38810000  0.16926000  1.0 -0.0220232373
C  C51  1  0.16926000  0.95526000  0.38810000  1.0 -0.0220232373
C  C52  1  0.11190000  0.33074000  0.01262000  1.0 -0.0220232373
C  C53  1  0.54474000  0.01262000  0.33074000  1.0 -0.0220232373
C  C54  1  0.01262000  0.54474000  0.11190000  1.0 -0.0220232373
C  C55  1  0.54474000  0.11190000  0.01262000  1.0 -0.0220232373
C  C56  1  0.01262000  0.33074000  0.54474000  1.0 -0.0220232373
C  C57  1  0.33074000  0.01262000  0.11190000  1.0 -0.0220232373
C  C58  1  0.33074000  0.54474000  0.01262000  1.0 -0.0220232373
C  C59  1  0.11190000  0.01262000  0.54474000  1.0 -0.0220232373
C  C60  1  0.01262000  0.11190000  0.33074000  1.0 -0.0220232373
C  C61  1  0.16926000  0.38810000  0.48738000  1.0 -0.0220232373
C  C62  1  0.95526000  0.48738000  0.38810000  1.0 -0.0220232373
C  C63  1  0.48738000  0.95526000  0.16926000  1.0 -0.0220232373
C  C64  1  0.48738000  0.16926000  0.38810000  1.0 -0.0220232373
C  C65  1  0.38810000  0.95526000  0.48738000  1.0 -0.0220232373
C  C66  1  0.16926000  0.48738000  0.95526000  1.0 -0.0220232373
C  C67  1  0.38810000  0.48738000  0.16926000  1.0 -0.0220232373
C  C68  1  0.48738000  0.38810000  0.95526000  1.0 -0.0220232373
C  C69  1  0.95526000  0.16926000  0.48738000  1.0 -0.0220232373
C  C70  1  0.33074000  0.11190000  0.54474000  1.0 -0.0220232373
C  C71  1  0.11190000  0.54474000  0.33074000  1.0 -0.0220232373
C  C72  1  0.54474000  0.33074000  0.11190000  1.0 -0.0220232373
C  C73  1  0.61190000  0.83074000  0.04474000  1.0 -0.0220232373
C  C74  1  0.04474000  0.61190000  0.83074000  1.0 -0.0220232373
C  C75  1  0.83074000  0.04474000  0.61190000  1.0 -0.0220232373
C  C76  1  0.88810000  0.66926000  0.98738000  1.0 -0.0220232373
C  C77  1  0.45526000  0.98738000  0.66926000  1.0 -0.0220232373
C  C78  1  0.98738000  0.45526000  0.88810000  1.0 -0.0220232373
C  C79  1  0.45526000  0.88810000  0.98738000  1.0 -0.0220232373
C  C80  1  0.98738000  0.66926000  0.45526000  1.0 -0.0220232373
C  C81  1  0.66926000  0.98738000  0.88810000  1.0 -0.0220232373
C  C82  1  0.66926000  0.45526000  0.98738000  1.0 -0.0220232373
C  C83  1  0.88810000  0.98738000  0.45526000  1.0 -0.0220232373
C  C84  1  0.98738000  0.88810000  0.66926000  1.0 -0.0220232373
C  C85  1  0.83074000  0.61190000  0.51262000  1.0 -0.0220232373
C  C86  1  0.04474000  0.51262000  0.61190000  1.0 -0.0220232373
C  C87  1  0.51262000  0.04474000  0.83074000  1.0 -0.0220232373
C  C88  1  0.51262000  0.83074000  0.61190000  1.0 -0.0220232373
C  C89  1  0.61190000  0.04474000  0.51262000  1.0 -0.0220232373
C  C90  1  0.83074000  0.51262000  0.04474000  1.0 -0.0220232373
C  C91  1  0.61190000  0.51262000  0.83074000  1.0 -0.0220232373
C  C92  1  0.51262000  0.61190000  0.04474000  1.0 -0.0220232373
C  C93  1  0.04474000  0.83074000  0.51262000  1.0 -0.0220232373
C  C94  1  0.66926000  0.88810000  0.45526000  1.0 -0.0220232373
C  C95  1  0.88810000  0.45526000  0.66926000  1.0 -0.0220232373
C  C96  1  0.45526000  0.66926000  0.88810000  1.0 -0.0220232373
C  C97  1  0.41677000  0.18639000  0.95593000  1.0 -0.1481378234
C  C98  1  0.95593000  0.41677000  0.18639000  1.0 -0.1481378234
C  C99  1  0.18639000  0.95593000  0.41677000  1.0 -0.1481378234
C  C100  1  0.08323000  0.31361000  0.05909000  1.0 -0.1481378234
C  C101  1  0.54407000  0.05909000  0.31361000  1.0 -0.1481378234
C  C102  1  0.05909000  0.54407000  0.08323000  1.0 -0.1481378234
C  C103  1  0.54407000  0.08323000  0.05909000  1.0 -0.1481378234
C  C104  1  0.05909000  0.31361000  0.54407000  1.0 -0.1481378234
C  C105  1  0.31361000  0.05909000  0.08323000  1.0 -0.1481378234
C  C106  1  0.31361000  0.54407000  0.05909000  1.0 -0.1481378234
C  C107  1  0.08323000  0.05909000  0.54407000  1.0 -0.1481378234
C  C108  1  0.05909000  0.08323000  0.31361000  1.0 -0.1481378234
C  C109  1  0.18639000  0.41677000  0.44091000  1.0 -0.1481378234
C  C110  1  0.95593000  0.44091000  0.41677000  1.0 -0.1481378234
C  C111  1  0.44091000  0.95593000  0.18639000  1.0 -0.1481378234
C  C112  1  0.44091000  0.18639000  0.41677000  1.0 -0.1481378234
C  C113  1  0.41677000  0.95593000  0.44091000  1.0 -0.1481378234
C  C114  1  0.18639000  0.44091000  0.95593000  1.0 -0.1481378234
C  C115  1  0.41677000  0.44091000  0.18639000  1.0 -0.1481378234
C  C116  1  0.44091000  0.41677000  0.95593000  1.0 -0.1481378234
C  C117  1  0.95593000  0.18639000  0.44091000  1.0 -0.1481378234
C  C118  1  0.31361000  0.08323000  0.54407000  1.0 -0.1481378234
C  C119  1  0.08323000  0.54407000  0.31361000  1.0 -0.1481378234
C  C120  1  0.54407000  0.31361000  0.08323000  1.0 -0.1481378234
C  C121  1  0.58323000  0.81361000  0.04407000  1.0 -0.1481378234
C  C122  1  0.04407000  0.58323000  0.81361000  1.0 -0.1481378234
C  C123  1  0.81361000  0.04407000  0.58323000  1.0 -0.1481378234
C  C124  1  0.91677000  0.68639000  0.94091000  1.0 -0.1481378234
C  C125  1  0.45593000  0.94091000  0.68639000  1.0 -0.1481378234
C  C126  1  0.94091000  0.45593000  0.91677000  1.0 -0.1481378234
C  C127  1  0.45593000  0.91677000  0.94091000  1.0 -0.1481378234
C  C128  1  0.94091000  0.68639000  0.45593000  1.0 -0.1481378234
C  C129  1  0.68639000  0.94091000  0.91677000  1.0 -0.1481378234
C  C130  1  0.68639000  0.45593000  0.94091000  1.0 -0.1481378234
C  C131  1  0.91677000  0.94091000  0.45593000  1.0 -0.1481378234
C  C132  1  0.94091000  0.91677000  0.68639000  1.0 -0.1481378234
C  C133  1  0.81361000  0.58323000  0.55909000  1.0 -0.1481378234
C  C134  1  0.04407000  0.55909000  0.58323000  1.0 -0.1481378234
C  C135  1  0.55909000  0.04407000  0.81361000  1.0 -0.1481378234
C  C136  1  0.55909000  0.81361000  0.58323000  1.0 -0.1481378234
C  C137  1  0.58323000  0.04407000  0.55909000  1.0 -0.1481378234
C  C138  1  0.81361000  0.55909000  0.04407000  1.0 -0.1481378234
C  C139  1  0.58323000  0.55909000  0.81361000  1.0 -0.1481378234
C  C140  1  0.55909000  0.58323000  0.04407000  1.0 -0.1481378234
C  C141  1  0.04407000  0.81361000  0.55909000  1.0 -0.1481378234
C  C142  1  0.68639000  0.91677000  0.45593000  1.0 -0.1481378234
C  C143  1  0.91677000  0.45593000  0.68639000  1.0 -0.1481378234
C  C144  1  0.45593000  0.68639000  0.91677000  1.0 -0.1481378234
C  C145  1  0.40075000  0.23419000  0.95077000  1.0 0.0338374193
C  C146  1  0.95077000  0.40075000  0.23419000  1.0 0.0338374193
C  C147  1  0.23419000  0.95077000  0.40075000  1.0 0.0338374193
C  C148  1  0.09925000  0.26581000  0.08571000  1.0 0.0338374193
C  C149  1  0.54923000  0.08571000  0.26581000  1.0 0.0338374193
C  C150  1  0.08571000  0.54923000  0.09925000  1.0 0.0338374193
C  C151  1  0.54923000  0.09925000  0.08571000  1.0 0.0338374193
C  C152  1  0.08571000  0.26581000  0.54923000  1.0 0.0338374193
C  C153  1  0.26581000  0.08571000  0.09925000  1.0 0.0338374193
C  C154  1  0.26581000  0.54923000  0.08571000  1.0 0.0338374193
C  C155  1  0.09925000  0.08571000  0.54923000  1.0 0.0338374193
C  C156  1  0.08571000  0.09925000  0.26581000  1.0 0.0338374193
C  C157  1  0.23419000  0.40075000  0.41429000  1.0 0.0338374193
C  C158  1  0.95077000  0.41429000  0.40075000  1.0 0.0338374193
C  C159  1  0.41429000  0.95077000  0.23419000  1.0 0.0338374193
C  C160  1  0.41429000  0.23419000  0.40075000  1.0 0.0338374193
C  C161  1  0.40075000  0.95077000  0.41429000  1.0 0.0338374193
C  C162  1  0.23419000  0.41429000  0.95077000  1.0 0.0338374193
C  C163  1  0.40075000  0.41429000  0.23419000  1.0 0.0338374193
C  C164  1  0.41429000  0.40075000  0.95077000  1.0 0.0338374193
C  C165  1  0.95077000  0.23419000  0.41429000  1.0 0.0338374193
C  C166  1  0.26581000  0.09925000  0.54923000  1.0 0.0338374193
C  C167  1  0.09925000  0.54923000  0.26581000  1.0 0.0338374193
C  C168  1  0.54923000  0.26581000  0.09925000  1.0 0.0338374193
C  C169  1  0.59925000  0.76581000  0.04923000  1.0 0.0338374193
C  C170  1  0.04923000  0.59925000  0.76581000  1.0 0.0338374193
C  C171  1  0.76581000  0.04923000  0.59925000  1.0 0.0338374193
C  C172  1  0.90075000  0.73419000  0.91429000  1.0 0.0338374193
C  C173  1  0.45077000  0.91429000  0.73419000  1.0 0.0338374193
C  C174  1  0.91429000  0.45077000  0.90075000  1.0 0.0338374193
C  C175  1  0.45077000  0.90075000  0.91429000  1.0 0.0338374193
C  C176  1  0.91429000  0.73419000  0.45077000  1.0 0.0338374193
C  C177  1  0.73419000  0.91429000  0.90075000  1.0 0.0338374193
C  C178  1  0.73419000  0.45077000  0.91429000  1.0 0.0338374193
C  C179  1  0.90075000  0.91429000  0.45077000  1.0 0.0338374193
C  C180  1  0.91429000  0.90075000  0.73419000  1.0 0.0338374193
C  C181  1  0.76581000  0.59925000  0.58571000  1.0 0.0338374193
C  C182  1  0.04923000  0.58571000  0.59925000  1.0 0.0338374193
C  C183  1  0.58571000  0.04923000  0.76581000  1.0 0.0338374193
C  C184  1  0.58571000  0.76581000  0.59925000  1.0 0.0338374193
C  C185  1  0.59925000  0.04923000  0.58571000  1.0 0.0338374193
C  C186  1  0.76581000  0.58571000  0.04923000  1.0 0.0338374193
C  C187  1  0.59925000  0.58571000  0.76581000  1.0 0.0338374193
C  C188  1  0.58571000  0.59925000  0.04923000  1.0 0.0338374193
C  C189  1  0.04923000  0.76581000  0.58571000  1.0 0.0338374193
C  C190  1  0.73419000  0.90075000  0.45077000  1.0 0.0338374193
C  C191  1  0.90075000  0.45077000  0.73419000  1.0 0.0338374193
C  C192  1  0.45077000  0.73419000  0.90075000  1.0 0.0338374193
C  C193  1  0.35610000  0.26524000  0.94610000  1.0 0.0362940945
C  C194  1  0.94610000  0.35610000  0.26524000  1.0 0.0362940945
C  C195  1  0.26524000  0.94610000  0.35610000  1.0 0.0362940945
C  C196  1  0.14390000  0.23476000  0.06744000  1.0 0.0362940945
C  C197  1  0.55390000  0.06744000  0.23476000  1.0 0.0362940945
C  C198  1  0.06744000  0.55390000  0.14390000  1.0 0.0362940945
C  C199  1  0.55390000  0.14390000  0.06744000  1.0 0.0362940945
C  C200  1  0.06744000  0.23476000  0.55390000  1.0 0.0362940945
C  C201  1  0.23476000  0.06744000  0.14390000  1.0 0.0362940945
C  C202  1  0.23476000  0.55390000  0.06744000  1.0 0.0362940945
C  C203  1  0.14390000  0.06744000  0.55390000  1.0 0.0362940945
C  C204  1  0.06744000  0.14390000  0.23476000  1.0 0.0362940945
C  C205  1  0.26524000  0.35610000  0.43256000  1.0 0.0362940945
C  C206  1  0.94610000  0.43256000  0.35610000  1.0 0.0362940945
C  C207  1  0.43256000  0.94610000  0.26524000  1.0 0.0362940945
C  C208  1  0.43256000  0.26524000  0.35610000  1.0 0.0362940945
C  C209  1  0.35610000  0.94610000  0.43256000  1.0 0.0362940945
C  C210  1  0.26524000  0.43256000  0.94610000  1.0 0.0362940945
C  C211  1  0.35610000  0.43256000  0.26524000  1.0 0.0362940945
C  C212  1  0.43256000  0.35610000  0.94610000  1.0 0.0362940945
C  C213  1  0.94610000  0.26524000  0.43256000  1.0 0.0362940945
C  C214  1  0.23476000  0.14390000  0.55390000  1.0 0.0362940945
C  C215  1  0.14390000  0.55390000  0.23476000  1.0 0.0362940945
C  C216  1  0.55390000  0.23476000  0.14390000  1.0 0.0362940945
C  C217  1  0.64390000  0.73476000  0.05390000  1.0 0.0362940945
C  C218  1  0.05390000  0.64390000  0.73476000  1.0 0.0362940945
C  C219  1  0.73476000  0.05390000  0.64390000  1.0 0.0362940945
C  C220  1  0.85610000  0.76524000  0.93256000  1.0 0.0362940945
C  C221  1  0.44610000  0.93256000  0.76524000  1.0 0.0362940945
C  C222  1  0.93256000  0.44610000  0.85610000  1.0 0.0362940945
C  C223  1  0.44610000  0.85610000  0.93256000  1.0 0.0362940945
C  C224  1  0.93256000  0.76524000  0.44610000  1.0 0.0362940945
C  C225  1  0.76524000  0.93256000  0.85610000  1.0 0.0362940945
C  C226  1  0.76524000  0.44610000  0.93256000  1.0 0.0362940945
C  C227  1  0.85610000  0.93256000  0.44610000  1.0 0.0362940945
C  C228  1  0.93256000  0.85610000  0.76524000  1.0 0.0362940945
C  C229  1  0.73476000  0.64390000  0.56744000  1.0 0.0362940945
C  C230  1  0.05390000  0.56744000  0.64390000  1.0 0.0362940945
C  C231  1  0.56744000  0.05390000  0.73476000  1.0 0.0362940945
C  C232  1  0.56744000  0.73476000  0.64390000  1.0 0.0362940945
C  C233  1  0.64390000  0.05390000  0.56744000  1.0 0.0362940945
C  C234  1  0.73476000  0.56744000  0.05390000  1.0 0.0362940945
C  C235  1  0.64390000  0.56744000  0.73476000  1.0 0.0362940945
C  C236  1  0.56744000  0.64390000  0.05390000  1.0 0.0362940945
C  C237  1  0.05390000  0.73476000  0.56744000  1.0 0.0362940945
C  C238  1  0.76524000  0.85610000  0.44610000  1.0 0.0362940945
C  C239  1  0.85610000  0.44610000  0.76524000  1.0 0.0362940945
C  C240  1  0.44610000  0.76524000  0.85610000  1.0 0.0362940945
C  C241  1  0.32819000  0.24795000  0.94411000  1.0 -0.1682966172
C  C242  1  0.94411000  0.32819000  0.24795000  1.0 -0.1682966172
C  C243  1  0.24795000  0.94411000  0.32819000  1.0 -0.1682966172
C  C244  1  0.17181000  0.25205000  0.02025000  1.0 -0.1682966172
C  C245  1  0.55589000  0.02025000  0.25205000  1.0 -0.1682966172
C  C246  1  0.02025000  0.55589000  0.17181000  1.0 -0.1682966172
C  C247  1  0.55589000  0.17181000  0.02025000  1.0 -0.1682966172
C  C248  1  0.02025000  0.25205000  0.55589000  1.0 -0.1682966172
C  C249  1  0.25205000  0.02025000  0.17181000  1.0 -0.1682966172
C  C250  1  0.25205000  0.55589000  0.02025000  1.0 -0.1682966172
C  C251  1  0.17181000  0.02025000  0.55589000  1.0 -0.1682966172
C  C252  1  0.02025000  0.17181000  0.25205000  1.0 -0.1682966172
C  C253  1  0.24795000  0.32819000  0.47975000  1.0 -0.1682966172
C  C254  1  0.94411000  0.47975000  0.32819000  1.0 -0.1682966172
C  C255  1  0.47975000  0.94411000  0.24795000  1.0 -0.1682966172
C  C256  1  0.47975000  0.24795000  0.32819000  1.0 -0.1682966172
C  C257  1  0.32819000  0.94411000  0.47975000  1.0 -0.1682966172
C  C258  1  0.24795000  0.47975000  0.94411000  1.0 -0.1682966172
C  C259  1  0.32819000  0.47975000  0.24795000  1.0 -0.1682966172
C  C260  1  0.47975000  0.32819000  0.94411000  1.0 -0.1682966172
C  C261  1  0.94411000  0.24795000  0.47975000  1.0 -0.1682966172
C  C262  1  0.25205000  0.17181000  0.55589000  1.0 -0.1682966172
C  C263  1  0.17181000  0.55589000  0.25205000  1.0 -0.1682966172
C  C264  1  0.55589000  0.25205000  0.17181000  1.0 -0.1682966172
C  C265  1  0.67181000  0.75205000  0.05589000  1.0 -0.1682966172
C  C266  1  0.05589000  0.67181000  0.75205000  1.0 -0.1682966172
C  C267  1  0.75205000  0.05589000  0.67181000  1.0 -0.1682966172
C  C268  1  0.82819000  0.74795000  0.97975000  1.0 -0.1682966172
C  C269  1  0.44411000  0.97975000  0.74795000  1.0 -0.1682966172
C  C270  1  0.97975000  0.44411000  0.82819000  1.0 -0.1682966172
C  C271  1  0.44411000  0.82819000  0.97975000  1.0 -0.1682966172
C  C272  1  0.97975000  0.74795000  0.44411000  1.0 -0.1682966172
C  C273  1  0.74795000  0.97975000  0.82819000  1.0 -0.1682966172
C  C274  1  0.74795000  0.44411000  0.97975000  1.0 -0.1682966172
C  C275  1  0.82819000  0.97975000  0.44411000  1.0 -0.1682966172
C  C276  1  0.97975000  0.82819000  0.74795000  1.0 -0.1682966172
C  C277  1  0.75205000  0.67181000  0.52025000  1.0 -0.1682966172
C  C278  1  0.05589000  0.52025000  0.67181000  1.0 -0.1682966172
C  C279  1  0.52025000  0.05589000  0.75205000  1.0 -0.1682966172
C  C280  1  0.52025000  0.75205000  0.67181000  1.0 -0.1682966172
C  C281  1  0.67181000  0.05589000  0.52025000  1.0 -0.1682966172
C  C282  1  0.75205000  0.52025000  0.05589000  1.0 -0.1682966172
C  C283  1  0.67181000  0.52025000  0.75205000  1.0 -0.1682966172
C  C284  1  0.52025000  0.67181000  0.05589000  1.0 -0.1682966172
C  C285  1  0.05589000  0.75205000  0.52025000  1.0 -0.1682966172
C  C286  1  0.74795000  0.82819000  0.44411000  1.0 -0.1682966172
C  C287  1  0.82819000  0.44411000  0.74795000  1.0 -0.1682966172
C  C288  1  0.44411000  0.74795000  0.82819000  1.0 -0.1682966172
C  C289  1  0.34458000  0.20040000  0.94826000  1.0 -0.1002037676
C  C290  1  0.94826000  0.34458000  0.20040000  1.0 -0.1002037676
C  C291  1  0.20040000  0.94826000  0.34458000  1.0 -0.1002037676
C  C292  1  0.15542000  0.29960000  0.99324000  1.0 -0.1002037676
C  C293  1  0.55174000  0.99324000  0.29960000  1.0 -0.1002037676
C  C294  1  0.99324000  0.55174000  0.15542000  1.0 -0.1002037676
C  C295  1  0.55174000  0.15542000  0.99324000  1.0 -0.1002037676
C  C296  1  0.99324000  0.29960000  0.55174000  1.0 -0.1002037676
C  C297  1  0.29960000  0.99324000  0.15542000  1.0 -0.1002037676
C  C298  1  0.29960000  0.55174000  0.99324000  1.0 -0.1002037676
C  C299  1  0.15542000  0.99324000  0.55174000  1.0 -0.1002037676
C  C300  1  0.99324000  0.15542000  0.29960000  1.0 -0.1002037676
C  C301  1  0.20040000  0.34458000  0.50676000  1.0 -0.1002037676
C  C302  1  0.94826000  0.50676000  0.34458000  1.0 -0.1002037676
C  C303  1  0.50676000  0.94826000  0.20040000  1.0 -0.1002037676
C  C304  1  0.50676000  0.20040000  0.34458000  1.0 -0.1002037676
C  C305  1  0.34458000  0.94826000  0.50676000  1.0 -0.1002037676
C  C306  1  0.20040000  0.50676000  0.94826000  1.0 -0.1002037676
C  C307  1  0.34458000  0.50676000  0.20040000  1.0 -0.1002037676
C  C308  1  0.50676000  0.34458000  0.94826000  1.0 -0.1002037676
C  C309  1  0.94826000  0.20040000  0.50676000  1.0 -0.1002037676
C  C310  1  0.29960000  0.15542000  0.55174000  1.0 -0.1002037676
C  C311  1  0.15542000  0.55174000  0.29960000  1.0 -0.1002037676
C  C312  1  0.55174000  0.29960000  0.15542000  1.0 -0.1002037676
C  C313  1  0.65542000  0.79960000  0.05174000  1.0 -0.1002037676
C  C314  1  0.05174000  0.65542000  0.79960000  1.0 -0.1002037676
C  C315  1  0.79960000  0.05174000  0.65542000  1.0 -0.1002037676
C  C316  1  0.84458000  0.70040000  0.00676000  1.0 -0.1002037676
C  C317  1  0.44826000  0.00676000  0.70040000  1.0 -0.1002037676
C  C318  1  0.00676000  0.44826000  0.84458000  1.0 -0.1002037676
C  C319  1  0.44826000  0.84458000  0.00676000  1.0 -0.1002037676
C  C320  1  0.00676000  0.70040000  0.44826000  1.0 -0.1002037676
C  C321  1  0.70040000  0.00676000  0.84458000  1.0 -0.1002037676
C  C322  1  0.70040000  0.44826000  0.00676000  1.0 -0.1002037676
C  C323  1  0.84458000  0.00676000  0.44826000  1.0 -0.1002037676
C  C324  1  0.00676000  0.84458000  0.70040000  1.0 -0.1002037676
C  C325  1  0.79960000  0.65542000  0.49324000  1.0 -0.1002037676
C  C326  1  0.05174000  0.49324000  0.65542000  1.0 -0.1002037676
C  C327  1  0.49324000  0.05174000  0.79960000  1.0 -0.1002037676
C  C328  1  0.49324000  0.79960000  0.65542000  1.0 -0.1002037676
C  C329  1  0.65542000  0.05174000  0.49324000  1.0 -0.1002037676
C  C330  1  0.79960000  0.49324000  0.05174000  1.0 -0.1002037676
C  C331  1  0.65542000  0.49324000  0.79960000  1.0 -0.1002037676
C  C332  1  0.49324000  0.65542000  0.05174000  1.0 -0.1002037676
C  C333  1  0.05174000  0.79960000  0.49324000  1.0 -0.1002037676
C  C334  1  0.70040000  0.84458000  0.44826000  1.0 -0.1002037676
C  C335  1  0.84458000  0.44826000  0.70040000  1.0 -0.1002037676
C  C336  1  0.44826000  0.70040000  0.84458000  1.0 -0.1002037676
C  C337  1  0.42786000  0.25910000  0.94902000  1.0 0.09215891
C  C338  1  0.94902000  0.42786000  0.25910000  1.0 0.09215891
C  C339  1  0.25910000  0.94902000  0.42786000  1.0 0.09215891
C  C340  1  0.07214000  0.24090000  0.13598000  1.0 0.09215891
C  C341  1  0.55098000  0.13598000  0.24090000  1.0 0.09215891
C  C342  1  0.13598000  0.55098000  0.07214000  1.0 0.09215891
C  C343  1  0.55098000  0.07214000  0.13598000  1.0 0.09215891
C  C344  1  0.13598000  0.24090000  0.55098000  1.0 0.09215891
C  C345  1  0.24090000  0.13598000  0.07214000  1.0 0.09215891
C  C346  1  0.24090000  0.55098000  0.13598000  1.0 0.09215891
C  C347  1  0.07214000  0.13598000  0.55098000  1.0 0.09215891
C  C348  1  0.13598000  0.07214000  0.24090000  1.0 0.09215891
C  C349  1  0.25910000  0.42786000  0.36402000  1.0 0.09215891
C  C350  1  0.94902000  0.36402000  0.42786000  1.0 0.09215891
C  C351  1  0.36402000  0.94902000  0.25910000  1.0 0.09215891
C  C352  1  0.36402000  0.25910000  0.42786000  1.0 0.09215891
C  C353  1  0.42786000  0.94902000  0.36402000  1.0 0.09215891
C  C354  1  0.25910000  0.36402000  0.94902000  1.0 0.09215891
C  C355  1  0.42786000  0.36402000  0.25910000  1.0 0.09215891
C  C356  1  0.36402000  0.42786000  0.94902000  1.0 0.09215891
C  C357  1  0.94902000  0.25910000  0.36402000  1.0 0.09215891
C  C358  1  0.24090000  0.07214000  0.55098000  1.0 0.09215891
C  C359  1  0.07214000  0.55098000  0.24090000  1.0 0.09215891
C  C360  1  0.55098000  0.24090000  0.07214000  1.0 0.09215891
C  C361  1  0.57214000  0.74090000  0.05098000  1.0 0.09215891
C  C362  1  0.05098000  0.57214000  0.74090000  1.0 0.09215891
C  C363  1  0.74090000  0.05098000  0.57214000  1.0 0.09215891
C  C364  1  0.92786000  0.75910000  0.86402000  1.0 0.09215891
C  C365  1  0.44902000  0.86402000  0.75910000  1.0 0.09215891
C  C366  1  0.86402000  0.44902000  0.92786000  1.0 0.09215891
C  C367  1  0.44902000  0.92786000  0.86402000  1.0 0.09215891
C  C368  1  0.86402000  0.75910000  0.44902000  1.0 0.09215891
C  C369  1  0.75910000  0.86402000  0.92786000  1.0 0.09215891
C  C370  1  0.75910000  0.44902000  0.86402000  1.0 0.09215891
C  C371  1  0.92786000  0.86402000  0.44902000  1.0 0.09215891
C  C372  1  0.86402000  0.92786000  0.75910000  1.0 0.09215891
C  C373  1  0.74090000  0.57214000  0.63598000  1.0 0.09215891
C  C374  1  0.05098000  0.63598000  0.57214000  1.0 0.09215891
C  C375  1  0.63598000  0.05098000  0.74090000  1.0 0.09215891
C  C376  1  0.63598000  0.74090000  0.57214000  1.0 0.09215891
C  C377  1  0.57214000  0.05098000  0.63598000  1.0 0.09215891
C  C378  1  0.74090000  0.63598000  0.05098000  1.0 0.09215891
C  C379  1  0.57214000  0.63598000  0.74090000  1.0 0.09215891
C  C380  1  0.63598000  0.57214000  0.05098000  1.0 0.09215891
C  C381  1  0.05098000  0.74090000  0.63598000  1.0 0.09215891
C  C382  1  0.75910000  0.92786000  0.44902000  1.0 0.09215891
C  C383  1  0.92786000  0.44902000  0.75910000  1.0 0.09215891
C  C384  1  0.44902000  0.75910000  0.92786000  1.0 0.09215891
C  C385  1  0.39159000  0.30967000  0.94425000  1.0 -0.0094102492
C  C386  1  0.94425000  0.39159000  0.30967000  1.0 -0.0094102492
C  C387  1  0.30967000  0.94425000  0.39159000  1.0 -0.0094102492
C  C388  1  0.10841000  0.19033000  0.14551000  1.0 -0.0094102492
C  C389  1  0.55575000  0.14551000  0.19033000  1.0 -0.0094102492
C  C390  1  0.14551000  0.55575000  0.10841000  1.0 -0.0094102492
C  C391  1  0.55575000  0.10841000  0.14551000  1.0 -0.0094102492
C  C392  1  0.14551000  0.19033000  0.55575000  1.0 -0.0094102492
C  C393  1  0.19033000  0.14551000  0.10841000  1.0 -0.0094102492
C  C394  1  0.19033000  0.55575000  0.14551000  1.0 -0.0094102492
C  C395  1  0.10841000  0.14551000  0.55575000  1.0 -0.0094102492
C  C396  1  0.14551000  0.10841000  0.19033000  1.0 -0.0094102492
C  C397  1  0.30967000  0.39159000  0.35449000  1.0 -0.0094102492
C  C398  1  0.94425000  0.35449000  0.39159000  1.0 -0.0094102492
C  C399  1  0.35449000  0.94425000  0.30967000  1.0 -0.0094102492
C  C400  1  0.35449000  0.30967000  0.39159000  1.0 -0.0094102492
C  C401  1  0.39159000  0.94425000  0.35449000  1.0 -0.0094102492
C  C402  1  0.30967000  0.35449000  0.94425000  1.0 -0.0094102492
C  C403  1  0.39159000  0.35449000  0.30967000  1.0 -0.0094102492
C  C404  1  0.35449000  0.39159000  0.94425000  1.0 -0.0094102492
C  C405  1  0.94425000  0.30967000  0.35449000  1.0 -0.0094102492
C  C406  1  0.19033000  0.10841000  0.55575000  1.0 -0.0094102492
C  C407  1  0.10841000  0.55575000  0.19033000  1.0 -0.0094102492
C  C408  1  0.55575000  0.19033000  0.10841000  1.0 -0.0094102492
C  C409  1  0.60841000  0.69033000  0.05575000  1.0 -0.0094102492
C  C410  1  0.05575000  0.60841000  0.69033000  1.0 -0.0094102492
C  C411  1  0.69033000  0.05575000  0.60841000  1.0 -0.0094102492
C  C412  1  0.89159000  0.80967000  0.85449000  1.0 -0.0094102492
C  C413  1  0.44425000  0.85449000  0.80967000  1.0 -0.0094102492
C  C414  1  0.85449000  0.44425000  0.89159000  1.0 -0.0094102492
C  C415  1  0.44425000  0.89159000  0.85449000  1.0 -0.0094102492
C  C416  1  0.85449000  0.80967000  0.44425000  1.0 -0.0094102492
C  C417  1  0.80967000  0.85449000  0.89159000  1.0 -0.0094102492
C  C418  1  0.80967000  0.44425000  0.85449000  1.0 -0.0094102492
C  C419  1  0.89159000  0.85449000  0.44425000  1.0 -0.0094102492
C  C420  1  0.85449000  0.89159000  0.80967000  1.0 -0.0094102492
C  C421  1  0.69033000  0.60841000  0.64551000  1.0 -0.0094102492
C  C422  1  0.05575000  0.64551000  0.60841000  1.0 -0.0094102492
C  C423  1  0.64551000  0.05575000  0.69033000  1.0 -0.0094102492
C  C424  1  0.64551000  0.69033000  0.60841000  1.0 -0.0094102492
C  C425  1  0.60841000  0.05575000  0.64551000  1.0 -0.0094102492
C  C426  1  0.69033000  0.64551000  0.05575000  1.0 -0.0094102492
C  C427  1  0.60841000  0.64551000  0.69033000  1.0 -0.0094102492
C  C428  1  0.64551000  0.60841000  0.05575000  1.0 -0.0094102492
C  C429  1  0.05575000  0.69033000  0.64551000  1.0 -0.0094102492
C  C430  1  0.80967000  0.89159000  0.44425000  1.0 -0.0094102492
C  C431  1  0.89159000  0.44425000  0.80967000  1.0 -0.0094102492
C  C432  1  0.44425000  0.80967000  0.89159000  1.0 -0.0094102492
C  C433  1  0.34910000  0.31262000  0.94388000  1.0 -0.030383745
C  C434  1  0.94388000  0.34910000  0.31262000  1.0 -0.030383745
C  C435  1  0.31262000  0.94388000  0.34910000  1.0 -0.030383745
C  C436  1  0.15090000  0.18738000  0.10560000  1.0 -0.030383745
C  C437  1  0.55612000  0.10560000  0.18738000  1.0 -0.030383745
C  C438  1  0.10560000  0.55612000  0.15090000  1.0 -0.030383745
C  C439  1  0.55612000  0.15090000  0.10560000  1.0 -0.030383745
C  C440  1  0.10560000  0.18738000  0.55612000  1.0 -0.030383745
C  C441  1  0.18738000  0.10560000  0.15090000  1.0 -0.030383745
C  C442  1  0.18738000  0.55612000  0.10560000  1.0 -0.030383745
C  C443  1  0.15090000  0.10560000  0.55612000  1.0 -0.030383745
C  C444  1  0.10560000  0.15090000  0.18738000  1.0 -0.030383745
C  C445  1  0.31262000  0.34910000  0.39440000  1.0 -0.030383745
C  C446  1  0.94388000  0.39440000  0.34910000  1.0 -0.030383745
C  C447  1  0.39440000  0.94388000  0.31262000  1.0 -0.030383745
C  C448  1  0.39440000  0.31262000  0.34910000  1.0 -0.030383745
C  C449  1  0.34910000  0.94388000  0.39440000  1.0 -0.030383745
C  C450  1  0.31262000  0.39440000  0.94388000  1.0 -0.030383745
C  C451  1  0.34910000  0.39440000  0.31262000  1.0 -0.030383745
C  C452  1  0.39440000  0.34910000  0.94388000  1.0 -0.030383745
C  C453  1  0.94388000  0.31262000  0.39440000  1.0 -0.030383745
C  C454  1  0.18738000  0.15090000  0.55612000  1.0 -0.030383745
C  C455  1  0.15090000  0.55612000  0.18738000  1.0 -0.030383745
C  C456  1  0.55612000  0.18738000  0.15090000  1.0 -0.030383745
C  C457  1  0.65090000  0.68738000  0.05612000  1.0 -0.030383745
C  C458  1  0.05612000  0.65090000  0.68738000  1.0 -0.030383745
C  C459  1  0.68738000  0.05612000  0.65090000  1.0 -0.030383745
C  C460  1  0.84910000  0.81262000  0.89440000  1.0 -0.030383745
C  C461  1  0.44388000  0.89440000  0.81262000  1.0 -0.030383745
C  C462  1  0.89440000  0.44388000  0.84910000  1.0 -0.030383745
C  C463  1  0.44388000  0.84910000  0.89440000  1.0 -0.030383745
C  C464  1  0.89440000  0.81262000  0.44388000  1.0 -0.030383745
C  C465  1  0.81262000  0.89440000  0.84910000  1.0 -0.030383745
C  C466  1  0.81262000  0.44388000  0.89440000  1.0 -0.030383745
C  C467  1  0.84910000  0.89440000  0.44388000  1.0 -0.030383745
C  C468  1  0.89440000  0.84910000  0.81262000  1.0 -0.030383745
C  C469  1  0.68738000  0.65090000  0.60560000  1.0 -0.030383745
C  C470  1  0.05612000  0.60560000  0.65090000  1.0 -0.030383745
C  C471  1  0.60560000  0.05612000  0.68738000  1.0 -0.030383745
C  C472  1  0.60560000  0.68738000  0.65090000  1.0 -0.030383745
C  C473  1  0.65090000  0.05612000  0.60560000  1.0 -0.030383745
C  C474  1  0.68738000  0.60560000  0.05612000  1.0 -0.030383745
C  C475  1  0.65090000  0.60560000  0.68738000  1.0 -0.030383745
C  C476  1  0.60560000  0.65090000  0.05612000  1.0 -0.030383745
C  C477  1  0.05612000  0.68738000  0.60560000  1.0 -0.030383745
C  C478  1  0.81262000  0.84910000  0.44388000  1.0 -0.030383745
C  C479  1  0.84910000  0.44388000  0.81262000  1.0 -0.030383745
C  C480  1  0.44388000  0.81262000  0.84910000  1.0 -0.030383745
C  C481  1  0.43790000  0.23480000  0.99666000  1.0 -0.1622548362
C  C482  1  0.99666000  0.43790000  0.23480000  1.0 -0.1622548362
C  C483  1  0.23480000  0.99666000  0.43790000  1.0 -0.1622548362
C  C484  1  0.06210000  0.26520000  0.16936000  1.0 -0.1622548362
C  C485  1  0.50334000  0.16936000  0.26520000  1.0 -0.1622548362
C  C486  1  0.16936000  0.50334000  0.06210000  1.0 -0.1622548362
C  C487  1  0.50334000  0.06210000  0.16936000  1.0 -0.1622548362
C  C488  1  0.16936000  0.26520000  0.50334000  1.0 -0.1622548362
C  C489  1  0.26520000  0.16936000  0.06210000  1.0 -0.1622548362
C  C490  1  0.26520000  0.50334000  0.16936000  1.0 -0.1622548362
C  C491  1  0.06210000  0.16936000  0.50334000  1.0 -0.1622548362
C  C492  1  0.16936000  0.06210000  0.26520000  1.0 -0.1622548362
C  C493  1  0.23480000  0.43790000  0.33064000  1.0 -0.1622548362
C  C494  1  0.99666000  0.33064000  0.43790000  1.0 -0.1622548362
C  C495  1  0.33064000  0.99666000  0.23480000  1.0 -0.1622548362
C  C496  1  0.33064000  0.23480000  0.43790000  1.0 -0.1622548362
C  C497  1  0.43790000  0.99666000  0.33064000  1.0 -0.1622548362
C  C498  1  0.23480000  0.33064000  0.99666000  1.0 -0.1622548362
C  C499  1  0.43790000  0.33064000  0.23480000  1.0 -0.1622548362
C  C500  1  0.33064000  0.43790000  0.99666000  1.0 -0.1622548362
C  C501  1  0.99666000  0.23480000  0.33064000  1.0 -0.1622548362
C  C502  1  0.26520000  0.06210000  0.50334000  1.0 -0.1622548362
C  C503  1  0.06210000  0.50334000  0.26520000  1.0 -0.1622548362
C  C504  1  0.50334000  0.26520000  0.06210000  1.0 -0.1622548362
C  C505  1  0.56210000  0.76520000  0.00334000  1.0 -0.1622548362
C  C506  1  0.00334000  0.56210000  0.76520000  1.0 -0.1622548362
C  C507  1  0.76520000  0.00334000  0.56210000  1.0 -0.1622548362
C  C508  1  0.93790000  0.73480000  0.83064000  1.0 -0.1622548362
C  C509  1  0.49666000  0.83064000  0.73480000  1.0 -0.1622548362
C  C510  1  0.83064000  0.49666000  0.93790000  1.0 -0.1622548362
C  C511  1  0.49666000  0.93790000  0.83064000  1.0 -0.1622548362
C  C512  1  0.83064000  0.73480000  0.49666000  1.0 -0.1622548362
C  C513  1  0.73480000  0.83064000  0.93790000  1.0 -0.1622548362
C  C514  1  0.73480000  0.49666000  0.83064000  1.0 -0.1622548362
C  C515  1  0.93790000  0.83064000  0.49666000  1.0 -0.1622548362
C  C516  1  0.83064000  0.93790000  0.73480000  1.0 -0.1622548362
C  C517  1  0.76520000  0.56210000  0.66936000  1.0 -0.1622548362
C  C518  1  0.00334000  0.66936000  0.56210000  1.0 -0.1622548362
C  C519  1  0.66936000  0.00334000  0.76520000  1.0 -0.1622548362
C  C520  1  0.66936000  0.76520000  0.56210000  1.0 -0.1622548362
C  C521  1  0.56210000  0.00334000  0.66936000  1.0 -0.1622548362
C  C522  1  0.76520000  0.66936000  0.00334000  1.0 -0.1622548362
C  C523  1  0.56210000  0.66936000  0.76520000  1.0 -0.1622548362
C  C524  1  0.66936000  0.56210000  0.00334000  1.0 -0.1622548362
C  C525  1  0.00334000  0.76520000  0.66936000  1.0 -0.1622548362
C  C526  1  0.73480000  0.93790000  0.49666000  1.0 -0.1622548362
C  C527  1  0.93790000  0.49666000  0.73480000  1.0 -0.1622548362
C  C528  1  0.49666000  0.73480000  0.93790000  1.0 -0.1622548362
C  C529  1  0.39394000  0.23738000  0.04076000  1.0 -0.3757448203
C  C530  1  0.04076000  0.39394000  0.23738000  1.0 -0.3757448203
C  C531  1  0.23738000  0.04076000  0.39394000  1.0 -0.3757448203
C  C532  1  0.10606000  0.26262000  0.17208000  1.0 -0.3757448203
C  C533  1  0.45924000  0.17208000  0.26262000  1.0 -0.3757448203
C  C534  1  0.17208000  0.45924000  0.10606000  1.0 -0.3757448203
C  C535  1  0.45924000  0.10606000  0.17208000  1.0 -0.3757448203
C  C536  1  0.17208000  0.26262000  0.45924000  1.0 -0.3757448203
C  C537  1  0.26262000  0.17208000  0.10606000  1.0 -0.3757448203
C  C538  1  0.26262000  0.45924000  0.17208000  1.0 -0.3757448203
C  C539  1  0.10606000  0.17208000  0.45924000  1.0 -0.3757448203
C  C540  1  0.17208000  0.10606000  0.26262000  1.0 -0.3757448203
C  C541  1  0.23738000  0.39394000  0.32792000  1.0 -0.3757448203
C  C542  1  0.04076000  0.32792000  0.39394000  1.0 -0.3757448203
C  C543  1  0.32792000  0.04076000  0.23738000  1.0 -0.3757448203
C  C544  1  0.32792000  0.23738000  0.39394000  1.0 -0.3757448203
C  C545  1  0.39394000  0.04076000  0.32792000  1.0 -0.3757448203
C  C546  1  0.23738000  0.32792000  0.04076000  1.0 -0.3757448203
C  C547  1  0.39394000  0.32792000  0.23738000  1.0 -0.3757448203
C  C548  1  0.32792000  0.39394000  0.04076000  1.0 -0.3757448203
C  C549  1  0.04076000  0.23738000  0.32792000  1.0 -0.3757448203
C  C550  1  0.26262000  0.10606000  0.45924000  1.0 -0.3757448203
C  C551  1  0.10606000  0.45924000  0.26262000  1.0 -0.3757448203
C  C552  1  0.45924000  0.26262000  0.10606000  1.0 -0.3757448203
C  C553  1  0.60606000  0.76262000  0.95924000  1.0 -0.3757448203
C  C554  1  0.95924000  0.60606000  0.76262000  1.0 -0.3757448203
C  C555  1  0.76262000  0.95924000  0.60606000  1.0 -0.3757448203
C  C556  1  0.89394000  0.73738000  0.82792000  1.0 -0.3757448203
C  C557  1  0.54076000  0.82792000  0.73738000  1.0 -0.3757448203
C  C558  1  0.82792000  0.54076000  0.89394000  1.0 -0.3757448203
C  C559  1  0.54076000  0.89394000  0.82792000  1.0 -0.3757448203
C  C560  1  0.82792000  0.73738000  0.54076000  1.0 -0.3757448203
C  C561  1  0.73738000  0.82792000  0.89394000  1.0 -0.3757448203
C  C562  1  0.73738000  0.54076000  0.82792000  1.0 -0.3757448203
C  C563  1  0.89394000  0.82792000  0.54076000  1.0 -0.3757448203
C  C564  1  0.82792000  0.89394000  0.73738000  1.0 -0.3757448203
C  C565  1  0.76262000  0.60606000  0.67208000  1.0 -0.3757448203
C  C566  1  0.95924000  0.67208000  0.60606000  1.0 -0.3757448203
C  C567  1  0.67208000  0.95924000  0.76262000  1.0 -0.3757448203
C  C568  1  0.67208000  0.76262000  0.60606000  1.0 -0.3757448203
C  C569  1  0.60606000  0.95924000  0.67208000  1.0 -0.3757448203
C  C570  1  0.76262000  0.67208000  0.95924000  1.0 -0.3757448203
C  C571  1  0.60606000  0.67208000  0.76262000  1.0 -0.3757448203
C  C572  1  0.67208000  0.60606000  0.95924000  1.0 -0.3757448203
C  C573  1  0.95924000  0.76262000  0.67208000  1.0 -0.3757448203
C  C574  1  0.73738000  0.89394000  0.54076000  1.0 -0.3757448203
C  C575  1  0.89394000  0.54076000  0.73738000  1.0 -0.3757448203
C  C576  1  0.54076000  0.73738000  0.89394000  1.0 -0.3757448203
C  C577  1  0.47438000  0.25646000  0.90232000  1.0 -0.178126396
C  C578  1  0.90232000  0.47438000  0.25646000  1.0 -0.178126396
C  C579  1  0.25646000  0.90232000  0.47438000  1.0 -0.178126396
C  C580  1  0.02562000  0.24354000  0.13316000  1.0 -0.178126396
C  C581  1  0.59768000  0.13316000  0.24354000  1.0 -0.178126396
C  C582  1  0.13316000  0.59768000  0.02562000  1.0 -0.178126396
C  C583  1  0.59768000  0.02562000  0.13316000  1.0 -0.178126396
C  C584  1  0.13316000  0.24354000  0.59768000  1.0 -0.178126396
C  C585  1  0.24354000  0.13316000  0.02562000  1.0 -0.178126396
C  C586  1  0.24354000  0.59768000  0.13316000  1.0 -0.178126396
C  C587  1  0.02562000  0.13316000  0.59768000  1.0 -0.178126396
C  C588  1  0.13316000  0.02562000  0.24354000  1.0 -0.178126396
C  C589  1  0.25646000  0.47438000  0.36684000  1.0 -0.178126396
C  C590  1  0.90232000  0.36684000  0.47438000  1.0 -0.178126396
C  C591  1  0.36684000  0.90232000  0.25646000  1.0 -0.178126396
C  C592  1  0.36684000  0.25646000  0.47438000  1.0 -0.178126396
C  C593  1  0.47438000  0.90232000  0.36684000  1.0 -0.178126396
C  C594  1  0.25646000  0.36684000  0.90232000  1.0 -0.178126396
C  C595  1  0.47438000  0.36684000  0.25646000  1.0 -0.178126396
C  C596  1  0.36684000  0.47438000  0.90232000  1.0 -0.178126396
C  C597  1  0.90232000  0.25646000  0.36684000  1.0 -0.178126396
C  C598  1  0.24354000  0.02562000  0.59768000  1.0 -0.178126396
C  C599  1  0.02562000  0.59768000  0.24354000  1.0 -0.178126396
C  C600  1  0.59768000  0.24354000  0.02562000  1.0 -0.178126396
C  C601  1  0.52562000  0.74354000  0.09768000  1.0 -0.178126396
C  C602  1  0.09768000  0.52562000  0.74354000  1.0 -0.178126396
C  C603  1  0.74354000  0.09768000  0.52562000  1.0 -0.178126396
C  C604  1  0.97438000  0.75646000  0.86684000  1.0 -0.178126396
C  C605  1  0.40232000  0.86684000  0.75646000  1.0 -0.178126396
C  C606  1  0.86684000  0.40232000  0.97438000  1.0 -0.178126396
C  C607  1  0.40232000  0.97438000  0.86684000  1.0 -0.178126396
C  C608  1  0.86684000  0.75646000  0.40232000  1.0 -0.178126396
C  C609  1  0.75646000  0.86684000  0.97438000  1.0 -0.178126396
C  C610  1  0.75646000  0.40232000  0.86684000  1.0 -0.178126396
C  C611  1  0.97438000  0.86684000  0.40232000  1.0 -0.178126396
C  C612  1  0.86684000  0.97438000  0.75646000  1.0 -0.178126396
C  C613  1  0.74354000  0.52562000  0.63316000  1.0 -0.178126396
C  C614  1  0.09768000  0.63316000  0.52562000  1.0 -0.178126396
C  C615  1  0.63316000  0.09768000  0.74354000  1.0 -0.178126396
C  C616  1  0.63316000  0.74354000  0.52562000  1.0 -0.178126396
C  C617  1  0.52562000  0.09768000  0.63316000  1.0 -0.178126396
C  C618  1  0.74354000  0.63316000  0.09768000  1.0 -0.178126396
C  C619  1  0.52562000  0.63316000  0.74354000  1.0 -0.178126396
C  C620  1  0.63316000  0.52562000  0.09768000  1.0 -0.178126396
C  C621  1  0.09768000  0.74354000  0.63316000  1.0 -0.178126396
C  C622  1  0.75646000  0.97438000  0.40232000  1.0 -0.178126396
C  C623  1  0.97438000  0.40232000  0.75646000  1.0 -0.178126396
C  C624  1  0.40232000  0.75646000  0.97438000  1.0 -0.178126396
C  C625  1  0.46588000  0.27704000  0.85568000  1.0 -0.3378538235
C  C626  1  0.85568000  0.46588000  0.27704000  1.0 -0.3378538235
C  C627  1  0.27704000  0.85568000  0.46588000  1.0 -0.3378538235
C  C628  1  0.03412000  0.22296000  0.09860000  1.0 -0.3378538235
C  C629  1  0.64432000  0.09860000  0.22296000  1.0 -0.3378538235
C  C630  1  0.09860000  0.64432000  0.03412000  1.0 -0.3378538235
C  C631  1  0.64432000  0.03412000  0.09860000  1.0 -0.3378538235
C  C632  1  0.09860000  0.22296000  0.64432000  1.0 -0.3378538235
C  C633  1  0.22296000  0.09860000  0.03412000  1.0 -0.3378538235
C  C634  1  0.22296000  0.64432000  0.09860000  1.0 -0.3378538235
C  C635  1  0.03412000  0.09860000  0.64432000  1.0 -0.3378538235
C  C636  1  0.09860000  0.03412000  0.22296000  1.0 -0.3378538235
C  C637  1  0.27704000  0.46588000  0.40140000  1.0 -0.3378538235
C  C638  1  0.85568000  0.40140000  0.46588000  1.0 -0.3378538235
C  C639  1  0.40140000  0.85568000  0.27704000  1.0 -0.3378538235
C  C640  1  0.40140000  0.27704000  0.46588000  1.0 -0.3378538235
C  C641  1  0.46588000  0.85568000  0.40140000  1.0 -0.3378538235
C  C642  1  0.27704000  0.40140000  0.85568000  1.0 -0.3378538235
C  C643  1  0.46588000  0.40140000  0.27704000  1.0 -0.3378538235
C  C644  1  0.40140000  0.46588000  0.85568000  1.0 -0.3378538235
C  C645  1  0.85568000  0.27704000  0.40140000  1.0 -0.3378538235
C  C646  1  0.22296000  0.03412000  0.64432000  1.0 -0.3378538235
C  C647  1  0.03412000  0.64432000  0.22296000  1.0 -0.3378538235
C  C648  1  0.64432000  0.22296000  0.03412000  1.0 -0.3378538235
C  C649  1  0.53412000  0.72296000  0.14432000  1.0 -0.3378538235
C  C650  1  0.14432000  0.53412000  0.72296000  1.0 -0.3378538235
C  C651  1  0.72296000  0.14432000  0.53412000  1.0 -0.3378538235
C  C652  1  0.96588000  0.77704000  0.90140000  1.0 -0.3378538235
C  C653  1  0.35568000  0.90140000  0.77704000  1.0 -0.3378538235
C  C654  1  0.90140000  0.35568000  0.96588000  1.0 -0.3378538235
C  C655  1  0.35568000  0.96588000  0.90140000  1.0 -0.3378538235
C  C656  1  0.90140000  0.77704000  0.35568000  1.0 -0.3378538235
C  C657  1  0.77704000  0.90140000  0.96588000  1.0 -0.3378538235
C  C658  1  0.77704000  0.35568000  0.90140000  1.0 -0.3378538235
C  C659  1  0.96588000  0.90140000  0.35568000  1.0 -0.3378538235
C  C660  1  0.90140000  0.96588000  0.77704000  1.0 -0.3378538235
C  C661  1  0.72296000  0.53412000  0.59860000  1.0 -0.3378538235
C  C662  1  0.14432000  0.59860000  0.53412000  1.0 -0.3378538235
C  C663  1  0.59860000  0.14432000  0.72296000  1.0 -0.3378538235
C  C664  1  0.59860000  0.72296000  0.53412000  1.0 -0.3378538235
C  C665  1  0.53412000  0.14432000  0.59860000  1.0 -0.3378538235
C  C666  1  0.72296000  0.59860000  0.14432000  1.0 -0.3378538235
C  C667  1  0.53412000  0.59860000  0.72296000  1.0 -0.3378538235
C  C668  1  0.59860000  0.53412000  0.14432000  1.0 -0.3378538235
C  C669  1  0.14432000  0.72296000  0.59860000  1.0 -0.3378538235
C  C670  1  0.77704000  0.96588000  0.35568000  1.0 -0.3378538235
C  C671  1  0.96588000  0.35568000  0.77704000  1.0 -0.3378538235
C  C672  1  0.35568000  0.77704000  0.96588000  1.0 -0.3378538235
O  O1  1  0.37569000  0.10207000  0.96507000  1.0 -0.522759201
O  O2  1  0.96507000  0.37569000  0.10207000  1.0 -0.522759201
O  O3  1  0.10207000  0.96507000  0.37569000  1.0 -0.522759201
O  O4  1  0.12431000  0.39793000  0.94283000  1.0 -0.522759201
O  O5  1  0.53493000  0.94283000  0.39793000  1.0 -0.522759201
O  O6  1  0.94283000  0.53493000  0.12431000  1.0 -0.522759201
O  O7  1  0.53493000  0.12431000  0.94283000  1.0 -0.522759201
O  O8  1  0.94283000  0.39793000  0.53493000  1.0 -0.522759201
O  O9  1  0.39793000  0.94283000  0.12431000  1.0 -0.522759201
O  O10  1  0.39793000  0.53493000  0.94283000  1.0 -0.522759201
O  O11  1  0.12431000  0.94283000  0.53493000  1.0 -0.522759201
O  O12  1  0.94283000  0.12431000  0.39793000  1.0 -0.522759201
O  O13  1  0.10207000  0.37569000  0.55717000  1.0 -0.522759201
O  O14  1  0.96507000  0.55717000  0.37569000  1.0 -0.522759201
O  O15  1  0.55717000  0.96507000  0.10207000  1.0 -0.522759201
O  O16  1  0.55717000  0.10207000  0.37569000  1.0 -0.522759201
O  O17  1  0.37569000  0.96507000  0.55717000  1.0 -0.522759201
O  O18  1  0.10207000  0.55717000  0.96507000  1.0 -0.522759201
O  O19  1  0.37569000  0.55717000  0.10207000  1.0 -0.522759201
O  O20  1  0.55717000  0.37569000  0.96507000  1.0 -0.522759201
O  O21  1  0.96507000  0.10207000  0.55717000  1.0 -0.522759201
O  O22  1  0.39793000  0.12431000  0.53493000  1.0 -0.522759201
O  O23  1  0.12431000  0.53493000  0.39793000  1.0 -0.522759201
O  O24  1  0.53493000  0.39793000  0.12431000  1.0 -0.522759201
O  O25  1  0.62431000  0.89793000  0.03493000  1.0 -0.522759201
O  O26  1  0.03493000  0.62431000  0.89793000  1.0 -0.522759201
O  O27  1  0.89793000  0.03493000  0.62431000  1.0 -0.522759201
O  O28  1  0.87569000  0.60207000  0.05717000  1.0 -0.522759201
O  O29  1  0.46507000  0.05717000  0.60207000  1.0 -0.522759201
O  O30  1  0.05717000  0.46507000  0.87569000  1.0 -0.522759201
O  O31  1  0.46507000  0.87569000  0.05717000  1.0 -0.522759201
O  O32  1  0.05717000  0.60207000  0.46507000  1.0 -0.522759201
O  O33  1  0.60207000  0.05717000  0.87569000  1.0 -0.522759201
O  O34  1  0.60207000  0.46507000  0.05717000  1.0 -0.522759201
O  O35  1  0.87569000  0.05717000  0.46507000  1.0 -0.522759201
O  O36  1  0.05717000  0.87569000  0.60207000  1.0 -0.522759201
O  O37  1  0.89793000  0.62431000  0.44283000  1.0 -0.522759201
O  O38  1  0.03493000  0.44283000  0.62431000  1.0 -0.522759201
O  O39  1  0.44283000  0.03493000  0.89793000  1.0 -0.522759201
O  O40  1  0.44283000  0.89793000  0.62431000  1.0 -0.522759201
O  O41  1  0.62431000  0.03493000  0.44283000  1.0 -0.522759201
O  O42  1  0.89793000  0.44283000  0.03493000  1.0 -0.522759201
O  O43  1  0.62431000  0.44283000  0.89793000  1.0 -0.522759201
O  O44  1  0.44283000  0.62431000  0.03493000  1.0 -0.522759201
O  O45  1  0.03493000  0.89793000  0.44283000  1.0 -0.522759201
O  O46  1  0.60207000  0.87569000  0.46507000  1.0 -0.522759201
O  O47  1  0.87569000  0.46507000  0.60207000  1.0 -0.522759201
O  O48  1  0.46507000  0.60207000  0.87569000  1.0 -0.522759201
O  O49  1  0.44317000  0.08887000  0.96971000  1.0 -0.5513981439
O  O50  1  0.96971000  0.44317000  0.08887000  1.0 -0.5513981439
O  O51  1  0.08887000  0.96971000  0.44317000  1.0 -0.5513981439
O  O52  1  0.05683000  0.41113000  0.00175000  1.0 -0.5513981439
O  O53  1  0.53029000  0.00175000  0.41113000  1.0 -0.5513981439
O  O54  1  0.00175000  0.53029000  0.05683000  1.0 -0.5513981439
O  O55  1  0.53029000  0.05683000  0.00175000  1.0 -0.5513981439
O  O56  1  0.00175000  0.41113000  0.53029000  1.0 -0.5513981439
O  O57  1  0.41113000  0.00175000  0.05683000  1.0 -0.5513981439
O  O58  1  0.41113000  0.53029000  0.00175000  1.0 -0.5513981439
O  O59  1  0.05683000  0.00175000  0.53029000  1.0 -0.5513981439
O  O60  1  0.00175000  0.05683000  0.41113000  1.0 -0.5513981439
O  O61  1  0.08887000  0.44317000  0.49825000  1.0 -0.5513981439
O  O62  1  0.96971000  0.49825000  0.44317000  1.0 -0.5513981439
O  O63  1  0.49825000  0.96971000  0.08887000  1.0 -0.5513981439
O  O64  1  0.49825000  0.08887000  0.44317000  1.0 -0.5513981439
O  O65  1  0.44317000  0.96971000  0.49825000  1.0 -0.5513981439
O  O66  1  0.08887000  0.49825000  0.96971000  1.0 -0.5513981439
O  O67  1  0.44317000  0.49825000  0.08887000  1.0 -0.5513981439
O  O68  1  0.49825000  0.44317000  0.96971000  1.0 -0.5513981439
O  O69  1  0.96971000  0.08887000  0.49825000  1.0 -0.5513981439
O  O70  1  0.41113000  0.05683000  0.53029000  1.0 -0.5513981439
O  O71  1  0.05683000  0.53029000  0.41113000  1.0 -0.5513981439
O  O72  1  0.53029000  0.41113000  0.05683000  1.0 -0.5513981439
O  O73  1  0.55683000  0.91113000  0.03029000  1.0 -0.5513981439
O  O74  1  0.03029000  0.55683000  0.91113000  1.0 -0.5513981439
O  O75  1  0.91113000  0.03029000  0.55683000  1.0 -0.5513981439
O  O76  1  0.94317000  0.58887000  0.99825000  1.0 -0.5513981439
O  O77  1  0.46971000  0.99825000  0.58887000  1.0 -0.5513981439
O  O78  1  0.99825000  0.46971000  0.94317000  1.0 -0.5513981439
O  O79  1  0.46971000  0.94317000  0.99825000  1.0 -0.5513981439
O  O80  1  0.99825000  0.58887000  0.46971000  1.0 -0.5513981439
O  O81  1  0.58887000  0.99825000  0.94317000  1.0 -0.5513981439
O  O82  1  0.58887000  0.46971000  0.99825000  1.0 -0.5513981439
O  O83  1  0.94317000  0.99825000  0.46971000  1.0 -0.5513981439
O  O84  1  0.99825000  0.94317000  0.58887000  1.0 -0.5513981439
O  O85  1  0.91113000  0.55683000  0.50175000  1.0 -0.5513981439
O  O86  1  0.03029000  0.50175000  0.55683000  1.0 -0.5513981439
O  O87  1  0.50175000  0.03029000  0.91113000  1.0 -0.5513981439
O  O88  1  0.50175000  0.91113000  0.55683000  1.0 -0.5513981439
O  O89  1  0.55683000  0.03029000  0.50175000  1.0 -0.5513981439
O  O90  1  0.91113000  0.50175000  0.03029000  1.0 -0.5513981439
O  O91  1  0.55683000  0.50175000  0.91113000  1.0 -0.5513981439
O  O92  1  0.50175000  0.55683000  0.03029000  1.0 -0.5513981439
O  O93  1  0.03029000  0.91113000  0.50175000  1.0 -0.5513981439
O  O94  1  0.58887000  0.94317000  0.46971000  1.0 -0.5513981439
O  O95  1  0.94317000  0.46971000  0.58887000  1.0 -0.5513981439
O  O96  1  0.46971000  0.58887000  0.94317000  1.0 -0.5513981439
O  O97  1  0.50000000  0.00000000  0.00000000  1.0 -0.094001875
O  O98  1  0.00000000  0.50000000  0.00000000  1.0 -0.094001875
O  O99  1  0.00000000  0.00000000  0.50000000  1.0 -0.094001875
O  O100  1  0.50000000  0.00000000  0.50000000  1.0 -0.094001875
O  O101  1  0.00000000  0.50000000  0.50000000  1.0 -0.094001875
O  O102  1  0.50000000  0.50000000  0.00000000  1.0 -0.094001875
O  O103  1  0.36085000  0.00431000  0.99569000  1.0 -0.3043276414
O  O104  1  0.99569000  0.36085000  0.00431000  1.0 -0.3070166695
O  O105  1  0.00431000  0.99569000  0.36085000  1.0 -0.3070166695
O  O106  1  0.13915000  0.49569000  0.86085000  1.0 -0.3070166695
O  O107  1  0.50431000  0.86085000  0.49569000  1.0 -0.3070166695
O  O108  1  0.86085000  0.50431000  0.13915000  1.0 -0.3070166695
O  O109  1  0.50431000  0.13915000  0.86085000  1.0 -0.3043276414
O  O110  1  0.86085000  0.49569000  0.50431000  1.0 -0.3043276414
O  O111  1  0.49569000  0.86085000  0.13915000  1.0 -0.3070166695
O  O112  1  0.49569000  0.50431000  0.86085000  1.0 -0.3070166695
O  O113  1  0.13915000  0.86085000  0.50431000  1.0 -0.3070166695
O  O114  1  0.86085000  0.13915000  0.49569000  1.0 -0.3043276414
O  O115  1  0.00431000  0.36085000  0.63915000  1.0 -0.3070166695
O  O116  1  0.99569000  0.63915000  0.36085000  1.0 -0.3043276414
O  O117  1  0.63915000  0.99569000  0.00431000  1.0 -0.3070166695
O  O118  1  0.63915000  0.00431000  0.36085000  1.0 -0.3043276414
O  O119  1  0.36085000  0.99569000  0.63915000  1.0 -0.3070166695
O  O120  1  0.00431000  0.63915000  0.99569000  1.0 -0.3070166695
O  O121  1  0.36085000  0.63915000  0.00431000  1.0 -0.3070166695
O  O122  1  0.63915000  0.36085000  0.99569000  1.0 -0.3043276414
O  O123  1  0.99569000  0.00431000  0.63915000  1.0 -0.3043276414
O  O124  1  0.49569000  0.13915000  0.50431000  1.0 -0.3070166695
O  O125  1  0.13915000  0.50431000  0.49569000  1.0 -0.3070166695
O  O126  1  0.50431000  0.49569000  0.13915000  1.0 -0.3070166695
