# DDEC6 charges by PACMAN v1.1 (https://github.com/mtap-research/PACMAN-charge/)
data_BUFNEW_ASR_pacman
_symmetry_space_group_name_H-M   'P 1'
_cell_length_a   34.17090000
_cell_length_b   34.17090000
_cell_length_c   34.17090000
_cell_angle_alpha   60.00000000
_cell_angle_beta   60.00000000
_cell_angle_gamma   60.00000000
_symmetry_Int_Tables_number   1
_chemical_formula_structural   Cd4H104C112O17
_chemical_formula_sum   'Cd24 H624 C672 O102'
_cell_volume   28213.32389085
_cell_formula_units_Z   6
loop_
 _symmetry_equiv_pos_site_id
 _symmetry_equiv_pos_as_xyz
  1  'x, y, z'
loop_
 _atom_site_type_symbol
 _atom_site_label
 _atom_site_symmetry_multiplicity
 _atom_site_fract_x
 _atom_site_fract_y
 _atom_site_fract_z
 _atom_site_occupancy
 _atom_site_charge
Cd  Cd1  1  0.42494000  0.02196000  0.97804000  1.0 0.9887657046
Cd  Cd2  1  0.97804000  0.42494000  0.02196000  1.0 0.9887657046
Cd  Cd3  1  0.02196000  0.97804000  0.42494000  1.0 0.9887657046
Cd  Cd4  1  0.07506000  0.47804000  0.92494000  1.0 0.9887657046
Cd  Cd5  1  0.52196000  0.92494000  0.47804000  1.0 0.9887657046
Cd  Cd6  1  0.92494000  0.52196000  0.07506000  1.0 0.9887657046
Cd  Cd7  1  0.52196000  0.07506000  0.92494000  1.0 0.9887657046
Cd  Cd8  1  0.92494000  0.47804000  0.52196000  1.0 0.9887657046
Cd  Cd9  1  0.47804000  0.92494000  0.07506000  1.0 0.9887657046
Cd  Cd10  1  0.47804000  0.52196000  0.92494000  1.0 0.9887657046
Cd  Cd11  1  0.07506000  0.92494000  0.52196000  1.0 0.9887657046
Cd  Cd12  1  0.92494000  0.07506000  0.47804000  1.0 0.9887657046
Cd  Cd13  1  0.02196000  0.42494000  0.57506000  1.0 0.9887657046
Cd  Cd14  1  0.97804000  0.57506000  0.42494000  1.0 0.9887657046
Cd  Cd15  1  0.57506000  0.97804000  0.02196000  1.0 0.9887657046
Cd  Cd16  1  0.57506000  0.02196000  0.42494000  1.0 0.9887657046
Cd  Cd17  1  0.42494000  0.97804000  0.57506000  1.0 0.9887657046
Cd  Cd18  1  0.02196000  0.57506000  0.97804000  1.0 0.9887657046
Cd  Cd19  1  0.42494000  0.57506000  0.02196000  1.0 0.9887657046
Cd  Cd20  1  0.57506000  0.42494000  0.97804000  1.0 0.9887657046
Cd  Cd21  1  0.97804000  0.02196000  0.57506000  1.0 0.9887657046
Cd  Cd22  1  0.47804000  0.07506000  0.52196000  1.0 0.9887657046
Cd  Cd23  1  0.07506000  0.52196000  0.47804000  1.0 0.9887657046
Cd  Cd24  1  0.52196000  0.47804000  0.07506000  1.0 0.9887657046
H  H1  1  0.33440000  0.07140000  0.05320000  1.0 0.127649296
H  H2  1  0.05320000  0.33440000  0.07140000  1.0 0.127649296
H  H3  1  0.07140000  0.05320000  0.33440000  1.0 0.127649296
H  H4  1  0.16560000  0.42860000  0.95900000  1.0 0.127649296
H  H5  1  0.44680000  0.95900000  0.42860000  1.0 0.127649296
H  H6  1  0.95900000  0.44680000  0.16560000  1.0 0.127649296
H  H7  1  0.44680000  0.16560000  0.95900000  1.0 0.127649296
H  H8  1  0.95900000  0.42860000  0.44680000  1.0 0.127649296
H  H9  1  0.42860000  0.95900000  0.16560000  1.0 0.127649296
H  H10  1  0.42860000  0.44680000  0.95900000  1.0 0.127649296
H  H11  1  0.16560000  0.95900000  0.44680000  1.0 0.127649296
H  H12  1  0.95900000  0.16560000  0.42860000  1.0 0.127649296
H  H13  1  0.07140000  0.33440000  0.54100000  1.0 0.127649296
H  H14  1  0.05320000  0.54100000  0.33440000  1.0 0.127649296
H  H15  1  0.54100000  0.05320000  0.07140000  1.0 0.127649296
H  H16  1  0.54100000  0.07140000  0.33440000  1.0 0.127649296
H  H17  1  0.33440000  0.05320000  0.54100000  1.0 0.127649296
H  H18  1  0.07140000  0.54100000  0.05320000  1.0 0.127649296
H  H19  1  0.33440000  0.54100000  0.07140000  1.0 0.127649296
H  H20  1  0.54100000  0.33440000  0.05320000  1.0 0.127649296
H  H21  1  0.05320000  0.07140000  0.54100000  1.0 0.127649296
H  H22  1  0.42860000  0.16560000  0.44680000  1.0 0.127649296
H  H23  1  0.16560000  0.44680000  0.42860000  1.0 0.127649296
H  H24  1  0.44680000  0.42860000  0.16560000  1.0 0.127649296
H  H25  1  0.66560000  0.92860000  0.94680000  1.0 0.127649296
H  H26  1  0.94680000  0.66560000  0.92860000  1.0 0.127649296
H  H27  1  0.92860000  0.94680000  0.66560000  1.0 0.127649296
H  H28  1  0.83440000  0.57140000  0.04100000  1.0 0.127649296
H  H29  1  0.55320000  0.04100000  0.57140000  1.0 0.127649296
H  H30  1  0.04100000  0.55320000  0.83440000  1.0 0.127649296
H  H31  1  0.55320000  0.83440000  0.04100000  1.0 0.127649296
H  H32  1  0.04100000  0.57140000  0.55320000  1.0 0.127649296
H  H33  1  0.57140000  0.04100000  0.83440000  1.0 0.127649296
H  H34  1  0.57140000  0.55320000  0.04100000  1.0 0.127649296
H  H35  1  0.83440000  0.04100000  0.55320000  1.0 0.127649296
H  H36  1  0.04100000  0.83440000  0.57140000  1.0 0.127649296
H  H37  1  0.92860000  0.66560000  0.45900000  1.0 0.127649296
H  H38  1  0.94680000  0.45900000  0.66560000  1.0 0.127649296
H  H39  1  0.45900000  0.94680000  0.92860000  1.0 0.127649296
H  H40  1  0.45900000  0.92860000  0.66560000  1.0 0.127649296
H  H41  1  0.66560000  0.94680000  0.45900000  1.0 0.127649296
H  H42  1  0.92860000  0.45900000  0.94680000  1.0 0.127649296
H  H43  1  0.66560000  0.45900000  0.92860000  1.0 0.127649296
H  H44  1  0.45900000  0.66560000  0.94680000  1.0 0.127649296
H  H45  1  0.94680000  0.92860000  0.45900000  1.0 0.127649296
H  H46  1  0.57140000  0.83440000  0.55320000  1.0 0.127649296
H  H47  1  0.83440000  0.55320000  0.57140000  1.0 0.127649296
H  H48  1  0.55320000  0.57140000  0.83440000  1.0 0.127649296
H  H49  1  0.23160000  0.00600000  0.20320000  1.0 0.1130011639
H  H50  1  0.20320000  0.23160000  0.00600000  1.0 0.1130011639
H  H51  1  0.00600000  0.20320000  0.23160000  1.0 0.1130011639
H  H52  1  0.26840000  0.49400000  0.94080000  1.0 0.1130011639
H  H53  1  0.29680000  0.94080000  0.49400000  1.0 0.1130011639
H  H54  1  0.94080000  0.29680000  0.26840000  1.0 0.1130011639
H  H55  1  0.29680000  0.26840000  0.94080000  1.0 0.1130011639
H  H56  1  0.94080000  0.49400000  0.29680000  1.0 0.1130011639
H  H57  1  0.49400000  0.94080000  0.26840000  1.0 0.1130011639
H  H58  1  0.49400000  0.29680000  0.94080000  1.0 0.1130011639
H  H59  1  0.26840000  0.94080000  0.29680000  1.0 0.1130011639
H  H60  1  0.94080000  0.26840000  0.49400000  1.0 0.1130011639
H  H61  1  0.00600000  0.23160000  0.55920000  1.0 0.1130011639
H  H62  1  0.20320000  0.55920000  0.23160000  1.0 0.1130011639
H  H63  1  0.55920000  0.20320000  0.00600000  1.0 0.1130011639
H  H64  1  0.55920000  0.00600000  0.23160000  1.0 0.1130011639
H  H65  1  0.23160000  0.20320000  0.55920000  1.0 0.1130011639
H  H66  1  0.00600000  0.55920000  0.20320000  1.0 0.1130011639
H  H67  1  0.23160000  0.55920000  0.00600000  1.0 0.1130011639
H  H68  1  0.55920000  0.23160000  0.20320000  1.0 0.1130011639
H  H69  1  0.20320000  0.00600000  0.55920000  1.0 0.1130011639
H  H70  1  0.49400000  0.26840000  0.29680000  1.0 0.1130011639
H  H71  1  0.26840000  0.29680000  0.49400000  1.0 0.1130011639
H  H72  1  0.29680000  0.49400000  0.26840000  1.0 0.1130011639
H  H73  1  0.76840000  0.99400000  0.79680000  1.0 0.1130011639
H  H74  1  0.79680000  0.76840000  0.99400000  1.0 0.1130011639
H  H75  1  0.99400000  0.79680000  0.76840000  1.0 0.1130011639
H  H76  1  0.73160000  0.50600000  0.05920000  1.0 0.1130011639
H  H77  1  0.70320000  0.05920000  0.50600000  1.0 0.1130011639
H  H78  1  0.05920000  0.70320000  0.73160000  1.0 0.1130011639
H  H79  1  0.70320000  0.73160000  0.05920000  1.0 0.1130011639
H  H80  1  0.05920000  0.50600000  0.70320000  1.0 0.1130011639
H  H81  1  0.50600000  0.05920000  0.73160000  1.0 0.1130011639
H  H82  1  0.50600000  0.70320000  0.05920000  1.0 0.1130011639
H  H83  1  0.73160000  0.05920000  0.70320000  1.0 0.1130011639
H  H84  1  0.05920000  0.73160000  0.50600000  1.0 0.1130011639
H  H85  1  0.99400000  0.76840000  0.44080000  1.0 0.1130011639
H  H86  1  0.79680000  0.44080000  0.76840000  1.0 0.1130011639
H  H87  1  0.44080000  0.79680000  0.99400000  1.0 0.1130011639
H  H88  1  0.44080000  0.99400000  0.76840000  1.0 0.1130011639
H  H89  1  0.76840000  0.79680000  0.44080000  1.0 0.1130011639
H  H90  1  0.99400000  0.44080000  0.79680000  1.0 0.1130011639
H  H91  1  0.76840000  0.44080000  0.99400000  1.0 0.1130011639
H  H92  1  0.44080000  0.76840000  0.79680000  1.0 0.1130011639
H  H93  1  0.79680000  0.99400000  0.44080000  1.0 0.1130011639
H  H94  1  0.50600000  0.73160000  0.70320000  1.0 0.1130011639
H  H95  1  0.73160000  0.70320000  0.50600000  1.0 0.1130011639
H  H96  1  0.70320000  0.50600000  0.73160000  1.0 0.1130011639
H  H97  1  0.31120000  0.96040000  0.17580000  1.0 0.127649296
H  H98  1  0.17580000  0.31120000  0.96040000  1.0 0.127649296
H  H99  1  0.96040000  0.17580000  0.31120000  1.0 0.127649296
H  H100  1  0.18880000  0.53960000  0.94740000  1.0 0.127649296
H  H101  1  0.32420000  0.94740000  0.53960000  1.0 0.127649296
H  H102  1  0.94740000  0.32420000  0.18880000  1.0 0.127649296
H  H103  1  0.32420000  0.18880000  0.94740000  1.0 0.127649296
H  H104  1  0.94740000  0.53960000  0.32420000  1.0 0.127649296
H  H105  1  0.53960000  0.94740000  0.18880000  1.0 0.127649296
H  H106  1  0.53960000  0.32420000  0.94740000  1.0 0.127649296
H  H107  1  0.18880000  0.94740000  0.32420000  1.0 0.127649296
H  H108  1  0.94740000  0.18880000  0.53960000  1.0 0.127649296
H  H109  1  0.96040000  0.31120000  0.55260000  1.0 0.127649296
H  H110  1  0.17580000  0.55260000  0.31120000  1.0 0.127649296
H  H111  1  0.55260000  0.17580000  0.96040000  1.0 0.127649296
H  H112  1  0.55260000  0.96040000  0.31120000  1.0 0.127649296
H  H113  1  0.31120000  0.17580000  0.55260000  1.0 0.127649296
H  H114  1  0.96040000  0.55260000  0.17580000  1.0 0.127649296
H  H115  1  0.31120000  0.55260000  0.96040000  1.0 0.127649296
H  H116  1  0.55260000  0.31120000  0.17580000  1.0 0.127649296
H  H117  1  0.17580000  0.96040000  0.55260000  1.0 0.127649296
H  H118  1  0.53960000  0.18880000  0.32420000  1.0 0.127649296
H  H119  1  0.18880000  0.32420000  0.53960000  1.0 0.127649296
H  H120  1  0.32420000  0.53960000  0.18880000  1.0 0.127649296
H  H121  1  0.68880000  0.03960000  0.82420000  1.0 0.127649296
H  H122  1  0.82420000  0.68880000  0.03960000  1.0 0.127649296
H  H123  1  0.03960000  0.82420000  0.68880000  1.0 0.127649296
H  H124  1  0.81120000  0.46040000  0.05260000  1.0 0.127649296
H  H125  1  0.67580000  0.05260000  0.46040000  1.0 0.127649296
H  H126  1  0.05260000  0.67580000  0.81120000  1.0 0.127649296
H  H127  1  0.67580000  0.81120000  0.05260000  1.0 0.127649296
H  H128  1  0.05260000  0.46040000  0.67580000  1.0 0.127649296
H  H129  1  0.46040000  0.05260000  0.81120000  1.0 0.127649296
H  H130  1  0.46040000  0.67580000  0.05260000  1.0 0.127649296
H  H131  1  0.81120000  0.05260000  0.67580000  1.0 0.127649296
H  H132  1  0.05260000  0.81120000  0.46040000  1.0 0.127649296
H  H133  1  0.03960000  0.68880000  0.44740000  1.0 0.127649296
H  H134  1  0.82420000  0.44740000  0.68880000  1.0 0.127649296
H  H135  1  0.44740000  0.82420000  0.03960000  1.0 0.127649296
H  H136  1  0.44740000  0.03960000  0.68880000  1.0 0.127649296
H  H137  1  0.68880000  0.82420000  0.44740000  1.0 0.127649296
H  H138  1  0.03960000  0.44740000  0.82420000  1.0 0.127649296
H  H139  1  0.68880000  0.44740000  0.03960000  1.0 0.127649296
H  H140  1  0.44740000  0.68880000  0.82420000  1.0 0.127649296
H  H141  1  0.82420000  0.03960000  0.44740000  1.0 0.127649296
H  H142  1  0.46040000  0.81120000  0.67580000  1.0 0.127649296
H  H143  1  0.81120000  0.67580000  0.46040000  1.0 0.127649296
H  H144  1  0.67580000  0.46040000  0.81120000  1.0 0.127649296
H  H145  1  0.23040000  0.16760000  0.00680000  1.0 0.0901538113
H  H146  1  0.00680000  0.23040000  0.16760000  1.0 0.0901538113
H  H147  1  0.16760000  0.00680000  0.23040000  1.0 0.0901538113
H  H148  1  0.26960000  0.33240000  0.90480000  1.0 0.0901538113
H  H149  1  0.49320000  0.90480000  0.33240000  1.0 0.0901538113
H  H150  1  0.90480000  0.49320000  0.26960000  1.0 0.0901538113
H  H151  1  0.49320000  0.26960000  0.90480000  1.0 0.0901538113
H  H152  1  0.90480000  0.33240000  0.49320000  1.0 0.0901538113
H  H153  1  0.33240000  0.90480000  0.26960000  1.0 0.0901538113
H  H154  1  0.33240000  0.49320000  0.90480000  1.0 0.0901538113
H  H155  1  0.26960000  0.90480000  0.49320000  1.0 0.0901538113
H  H156  1  0.90480000  0.26960000  0.33240000  1.0 0.0901538113
H  H157  1  0.16760000  0.23040000  0.59520000  1.0 0.0901538113
H  H158  1  0.00680000  0.59520000  0.23040000  1.0 0.0901538113
H  H159  1  0.59520000  0.00680000  0.16760000  1.0 0.0901538113
H  H160  1  0.59520000  0.16760000  0.23040000  1.0 0.0901538113
H  H161  1  0.23040000  0.00680000  0.59520000  1.0 0.0901538113
H  H162  1  0.16760000  0.59520000  0.00680000  1.0 0.0901538113
H  H163  1  0.23040000  0.59520000  0.16760000  1.0 0.0901538113
H  H164  1  0.59520000  0.23040000  0.00680000  1.0 0.0901538113
H  H165  1  0.00680000  0.16760000  0.59520000  1.0 0.0901538113
H  H166  1  0.33240000  0.26960000  0.49320000  1.0 0.0901538113
H  H167  1  0.26960000  0.49320000  0.33240000  1.0 0.0901538113
H  H168  1  0.49320000  0.33240000  0.26960000  1.0 0.0901538113
H  H169  1  0.76960000  0.83240000  0.99320000  1.0 0.0901538113
H  H170  1  0.99320000  0.76960000  0.83240000  1.0 0.0901538113
H  H171  1  0.83240000  0.99320000  0.76960000  1.0 0.0901538113
H  H172  1  0.73040000  0.66760000  0.09520000  1.0 0.0901538113
H  H173  1  0.50680000  0.09520000  0.66760000  1.0 0.0901538113
H  H174  1  0.09520000  0.50680000  0.73040000  1.0 0.0901538113
H  H175  1  0.50680000  0.73040000  0.09520000  1.0 0.0901538113
H  H176  1  0.09520000  0.66760000  0.50680000  1.0 0.0901538113
H  H177  1  0.66760000  0.09520000  0.73040000  1.0 0.0901538113
H  H178  1  0.66760000  0.50680000  0.09520000  1.0 0.0901538113
H  H179  1  0.73040000  0.09520000  0.50680000  1.0 0.0901538113
H  H180  1  0.09520000  0.73040000  0.66760000  1.0 0.0901538113
H  H181  1  0.83240000  0.76960000  0.40480000  1.0 0.0901538113
H  H182  1  0.99320000  0.40480000  0.76960000  1.0 0.0901538113
H  H183  1  0.40480000  0.99320000  0.83240000  1.0 0.0901538113
H  H184  1  0.40480000  0.83240000  0.76960000  1.0 0.0901538113
H  H185  1  0.76960000  0.99320000  0.40480000  1.0 0.0901538113
H  H186  1  0.83240000  0.40480000  0.99320000  1.0 0.0901538113
H  H187  1  0.76960000  0.40480000  0.83240000  1.0 0.0901538113
H  H188  1  0.40480000  0.76960000  0.99320000  1.0 0.0901538113
H  H189  1  0.99320000  0.83240000  0.40480000  1.0 0.0901538113
H  H190  1  0.66760000  0.73040000  0.50680000  1.0 0.0901538113
H  H191  1  0.73040000  0.50680000  0.66760000  1.0 0.0901538113
H  H192  1  0.50680000  0.66760000  0.73040000  1.0 0.0901538113
H  H193  1  0.27790000  0.12190000  0.00750000  1.0 0.1032710717
H  H194  1  0.00750000  0.27790000  0.12190000  1.0 0.1032710717
H  H195  1  0.12190000  0.00750000  0.27790000  1.0 0.1032710717
H  H196  1  0.22210000  0.37810000  0.90730000  1.0 0.1032710717
H  H197  1  0.49250000  0.90730000  0.37810000  1.0 0.1032710717
H  H198  1  0.90730000  0.49250000  0.22210000  1.0 0.1032710717
H  H199  1  0.49250000  0.22210000  0.90730000  1.0 0.1032710717
H  H200  1  0.90730000  0.37810000  0.49250000  1.0 0.1032710717
H  H201  1  0.37810000  0.90730000  0.22210000  1.0 0.1032710717
H  H202  1  0.37810000  0.49250000  0.90730000  1.0 0.1032710717
H  H203  1  0.22210000  0.90730000  0.49250000  1.0 0.1032710717
H  H204  1  0.90730000  0.22210000  0.37810000  1.0 0.1032710717
H  H205  1  0.12190000  0.27790000  0.59270000  1.0 0.1032710717
H  H206  1  0.00750000  0.59270000  0.27790000  1.0 0.1032710717
H  H207  1  0.59270000  0.00750000  0.12190000  1.0 0.1032710717
H  H208  1  0.59270000  0.12190000  0.27790000  1.0 0.1032710717
H  H209  1  0.27790000  0.00750000  0.59270000  1.0 0.1032710717
H  H210  1  0.12190000  0.59270000  0.00750000  1.0 0.1032710717
H  H211  1  0.27790000  0.59270000  0.12190000  1.0 0.1032710717
H  H212  1  0.59270000  0.27790000  0.00750000  1.0 0.1032710717
H  H213  1  0.00750000  0.12190000  0.59270000  1.0 0.1032710717
H  H214  1  0.37810000  0.22210000  0.49250000  1.0 0.1032710717
H  H215  1  0.22210000  0.49250000  0.37810000  1.0 0.1032710717
H  H216  1  0.49250000  0.37810000  0.22210000  1.0 0.1032710717
H  H217  1  0.72210000  0.87810000  0.99250000  1.0 0.1032710717
H  H218  1  0.99250000  0.72210000  0.87810000  1.0 0.1032710717
H  H219  1  0.87810000  0.99250000  0.72210000  1.0 0.1032710717
H  H220  1  0.77790000  0.62190000  0.09270000  1.0 0.1032710717
H  H221  1  0.50750000  0.09270000  0.62190000  1.0 0.1032710717
H  H222  1  0.09270000  0.50750000  0.77790000  1.0 0.1032710717
H  H223  1  0.50750000  0.77790000  0.09270000  1.0 0.1032710717
H  H224  1  0.09270000  0.62190000  0.50750000  1.0 0.1032710717
H  H225  1  0.62190000  0.09270000  0.77790000  1.0 0.1032710717
H  H226  1  0.62190000  0.50750000  0.09270000  1.0 0.1032710717
H  H227  1  0.77790000  0.09270000  0.50750000  1.0 0.1032710717
H  H228  1  0.09270000  0.77790000  0.62190000  1.0 0.1032710717
H  H229  1  0.87810000  0.72210000  0.40730000  1.0 0.1032710717
H  H230  1  0.99250000  0.40730000  0.72210000  1.0 0.1032710717
H  H231  1  0.40730000  0.99250000  0.87810000  1.0 0.1032710717
H  H232  1  0.40730000  0.87810000  0.72210000  1.0 0.1032710717
H  H233  1  0.72210000  0.99250000  0.40730000  1.0 0.1032710717
H  H234  1  0.87810000  0.40730000  0.99250000  1.0 0.1032710717
H  H235  1  0.72210000  0.40730000  0.87810000  1.0 0.1032710717
H  H236  1  0.40730000  0.72210000  0.99250000  1.0 0.1032710717
H  H237  1  0.99250000  0.87810000  0.40730000  1.0 0.1032710717
H  H238  1  0.62190000  0.77790000  0.50750000  1.0 0.1032710717
H  H239  1  0.77790000  0.50750000  0.62190000  1.0 0.1032710717
H  H240  1  0.50750000  0.62190000  0.77790000  1.0 0.1032710717
H  H241  1  0.23320000  0.07000000  0.04940000  1.0 0.1203998988
H  H242  1  0.04940000  0.23320000  0.07000000  1.0 0.1203998988
H  H243  1  0.07000000  0.04940000  0.23320000  1.0 0.1203998988
H  H244  1  0.26680000  0.43000000  0.85260000  1.0 0.1203998988
H  H245  1  0.45060000  0.85260000  0.43000000  1.0 0.1203998988
H  H246  1  0.85260000  0.45060000  0.26680000  1.0 0.1203998988
H  H247  1  0.45060000  0.26680000  0.85260000  1.0 0.1203998988
H  H248  1  0.85260000  0.43000000  0.45060000  1.0 0.1203998988
H  H249  1  0.43000000  0.85260000  0.26680000  1.0 0.1203998988
H  H250  1  0.43000000  0.45060000  0.85260000  1.0 0.1203998988
H  H251  1  0.26680000  0.85260000  0.45060000  1.0 0.1203998988
H  H252  1  0.85260000  0.26680000  0.43000000  1.0 0.1203998988
H  H253  1  0.07000000  0.23320000  0.64740000  1.0 0.1203998988
H  H254  1  0.04940000  0.64740000  0.23320000  1.0 0.1203998988
H  H255  1  0.64740000  0.04940000  0.07000000  1.0 0.1203998988
H  H256  1  0.64740000  0.07000000  0.23320000  1.0 0.1203998988
H  H257  1  0.23320000  0.04940000  0.64740000  1.0 0.1203998988
H  H258  1  0.07000000  0.64740000  0.04940000  1.0 0.1203998988
H  H259  1  0.23320000  0.64740000  0.07000000  1.0 0.1203998988
H  H260  1  0.64740000  0.23320000  0.04940000  1.0 0.1203998988
H  H261  1  0.04940000  0.07000000  0.64740000  1.0 0.1203998988
H  H262  1  0.43000000  0.26680000  0.45060000  1.0 0.1203998988
H  H263  1  0.26680000  0.45060000  0.43000000  1.0 0.1203998988
H  H264  1  0.45060000  0.43000000  0.26680000  1.0 0.1203998988
H  H265  1  0.76680000  0.93000000  0.95060000  1.0 0.1203998988
H  H266  1  0.95060000  0.76680000  0.93000000  1.0 0.1203998988
H  H267  1  0.93000000  0.95060000  0.76680000  1.0 0.1203998988
H  H268  1  0.73320000  0.57000000  0.14740000  1.0 0.1203998988
H  H269  1  0.54940000  0.14740000  0.57000000  1.0 0.1203998988
H  H270  1  0.14740000  0.54940000  0.73320000  1.0 0.1203998988
H  H271  1  0.54940000  0.73320000  0.14740000  1.0 0.1203998988
H  H272  1  0.14740000  0.57000000  0.54940000  1.0 0.1203998988
H  H273  1  0.57000000  0.14740000  0.73320000  1.0 0.1203998988
H  H274  1  0.57000000  0.54940000  0.14740000  1.0 0.1203998988
H  H275  1  0.73320000  0.14740000  0.54940000  1.0 0.1203998988
H  H276  1  0.14740000  0.73320000  0.57000000  1.0 0.1203998988
H  H277  1  0.93000000  0.76680000  0.35260000  1.0 0.1203998988
H  H278  1  0.95060000  0.35260000  0.76680000  1.0 0.1203998988
H  H279  1  0.35260000  0.95060000  0.93000000  1.0 0.1203998988
H  H280  1  0.35260000  0.93000000  0.76680000  1.0 0.1203998988
H  H281  1  0.76680000  0.95060000  0.35260000  1.0 0.1203998988
H  H282  1  0.93000000  0.35260000  0.95060000  1.0 0.1203998988
H  H283  1  0.76680000  0.35260000  0.93000000  1.0 0.1203998988
H  H284  1  0.35260000  0.76680000  0.95060000  1.0 0.1203998988
H  H285  1  0.95060000  0.93000000  0.35260000  1.0 0.1203998988
H  H286  1  0.57000000  0.73320000  0.54940000  1.0 0.1203998988
H  H287  1  0.73320000  0.54940000  0.57000000  1.0 0.1203998988
H  H288  1  0.54940000  0.57000000  0.73320000  1.0 0.1203998988
H  H289  1  0.21690000  0.10890000  0.00390000  1.0 0.1203998988
H  H290  1  0.00390000  0.21690000  0.10890000  1.0 0.1203998988
H  H291  1  0.10890000  0.00390000  0.21690000  1.0 0.1203998988
H  H292  1  0.28310000  0.39110000  0.82970000  1.0 0.1203998988
H  H293  1  0.49610000  0.82970000  0.39110000  1.0 0.1203998988
H  H294  1  0.82970000  0.49610000  0.28310000  1.0 0.1203998988
H  H295  1  0.49610000  0.28310000  0.82970000  1.0 0.1203998988
H  H296  1  0.82970000  0.39110000  0.49610000  1.0 0.1203998988
H  H297  1  0.39110000  0.82970000  0.28310000  1.0 0.1203998988
H  H298  1  0.39110000  0.49610000  0.82970000  1.0 0.1203998988
H  H299  1  0.28310000  0.82970000  0.49610000  1.0 0.1203998988
H  H300  1  0.82970000  0.28310000  0.39110000  1.0 0.1203998988
H  H301  1  0.10890000  0.21690000  0.67030000  1.0 0.1203998988
H  H302  1  0.00390000  0.67030000  0.21690000  1.0 0.1203998988
H  H303  1  0.67030000  0.00390000  0.10890000  1.0 0.1203998988
H  H304  1  0.67030000  0.10890000  0.21690000  1.0 0.1203998988
H  H305  1  0.21690000  0.00390000  0.67030000  1.0 0.1203998988
H  H306  1  0.10890000  0.67030000  0.00390000  1.0 0.1203998988
H  H307  1  0.21690000  0.67030000  0.10890000  1.0 0.1203998988
H  H308  1  0.67030000  0.21690000  0.00390000  1.0 0.1203998988
H  H309  1  0.00390000  0.10890000  0.67030000  1.0 0.1203998988
H  H310  1  0.39110000  0.28310000  0.49610000  1.0 0.1203998988
H  H311  1  0.28310000  0.49610000  0.39110000  1.0 0.1203998988
H  H312  1  0.49610000  0.39110000  0.28310000  1.0 0.1203998988
H  H313  1  0.78310000  0.89110000  0.99610000  1.0 0.1203998988
H  H314  1  0.99610000  0.78310000  0.89110000  1.0 0.1203998988
H  H315  1  0.89110000  0.99610000  0.78310000  1.0 0.1203998988
H  H316  1  0.71690000  0.60890000  0.17030000  1.0 0.1203998988
H  H317  1  0.50390000  0.17030000  0.60890000  1.0 0.1203998988
H  H318  1  0.17030000  0.50390000  0.71690000  1.0 0.1203998988
H  H319  1  0.50390000  0.71690000  0.17030000  1.0 0.1203998988
H  H320  1  0.17030000  0.60890000  0.50390000  1.0 0.1203998988
H  H321  1  0.60890000  0.17030000  0.71690000  1.0 0.1203998988
H  H322  1  0.60890000  0.50390000  0.17030000  1.0 0.1203998988
H  H323  1  0.71690000  0.17030000  0.50390000  1.0 0.1203998988
H  H324  1  0.17030000  0.71690000  0.60890000  1.0 0.1203998988
H  H325  1  0.89110000  0.78310000  0.32970000  1.0 0.1203998988
H  H326  1  0.99610000  0.32970000  0.78310000  1.0 0.1203998988
H  H327  1  0.32970000  0.99610000  0.89110000  1.0 0.1203998988
H  H328  1  0.32970000  0.89110000  0.78310000  1.0 0.1203998988
H  H329  1  0.78310000  0.99610000  0.32970000  1.0 0.1203998988
H  H330  1  0.89110000  0.32970000  0.99610000  1.0 0.1203998988
H  H331  1  0.78310000  0.32970000  0.89110000  1.0 0.1203998988
H  H332  1  0.32970000  0.78310000  0.99610000  1.0 0.1203998988
H  H333  1  0.99610000  0.89110000  0.32970000  1.0 0.1203998988
H  H334  1  0.60890000  0.71690000  0.50390000  1.0 0.1203998988
H  H335  1  0.71690000  0.50390000  0.60890000  1.0 0.1203998988
H  H336  1  0.50390000  0.60890000  0.71690000  1.0 0.1203998988
H  H337  1  0.18390000  0.11370000  0.05590000  1.0 0.1130011639
H  H338  1  0.05590000  0.18390000  0.11370000  1.0 0.1130011639
H  H339  1  0.11370000  0.05590000  0.18390000  1.0 0.1130011639
H  H340  1  0.31610000  0.38630000  0.85350000  1.0 0.1130011639
H  H341  1  0.44410000  0.85350000  0.38630000  1.0 0.1130011639
H  H342  1  0.85350000  0.44410000  0.31610000  1.0 0.1130011639
H  H343  1  0.44410000  0.31610000  0.85350000  1.0 0.1130011639
H  H344  1  0.85350000  0.38630000  0.44410000  1.0 0.1130011639
H  H345  1  0.38630000  0.85350000  0.31610000  1.0 0.1130011639
H  H346  1  0.38630000  0.44410000  0.85350000  1.0 0.1130011639
H  H347  1  0.31610000  0.85350000  0.44410000  1.0 0.1130011639
H  H348  1  0.85350000  0.31610000  0.38630000  1.0 0.1130011639
H  H349  1  0.11370000  0.18390000  0.64650000  1.0 0.1130011639
H  H350  1  0.05590000  0.64650000  0.18390000  1.0 0.1130011639
H  H351  1  0.64650000  0.05590000  0.11370000  1.0 0.1130011639
H  H352  1  0.64650000  0.11370000  0.18390000  1.0 0.1130011639
H  H353  1  0.18390000  0.05590000  0.64650000  1.0 0.1130011639
H  H354  1  0.11370000  0.64650000  0.05590000  1.0 0.1130011639
H  H355  1  0.18390000  0.64650000  0.11370000  1.0 0.1130011639
H  H356  1  0.64650000  0.18390000  0.05590000  1.0 0.1130011639
H  H357  1  0.05590000  0.11370000  0.64650000  1.0 0.1130011639
H  H358  1  0.38630000  0.31610000  0.44410000  1.0 0.1130011639
H  H359  1  0.31610000  0.44410000  0.38630000  1.0 0.1130011639
H  H360  1  0.44410000  0.38630000  0.31610000  1.0 0.1130011639
H  H361  1  0.81610000  0.88630000  0.94410000  1.0 0.1130011639
H  H362  1  0.94410000  0.81610000  0.88630000  1.0 0.1130011639
H  H363  1  0.88630000  0.94410000  0.81610000  1.0 0.1130011639
H  H364  1  0.68390000  0.61370000  0.14650000  1.0 0.1130011639
H  H365  1  0.55590000  0.14650000  0.61370000  1.0 0.1130011639
H  H366  1  0.14650000  0.55590000  0.68390000  1.0 0.1130011639
H  H367  1  0.55590000  0.68390000  0.14650000  1.0 0.1130011639
H  H368  1  0.14650000  0.61370000  0.55590000  1.0 0.1130011639
H  H369  1  0.61370000  0.14650000  0.68390000  1.0 0.1130011639
H  H370  1  0.61370000  0.55590000  0.14650000  1.0 0.1130011639
H  H371  1  0.68390000  0.14650000  0.55590000  1.0 0.1130011639
H  H372  1  0.14650000  0.68390000  0.61370000  1.0 0.1130011639
H  H373  1  0.88630000  0.81610000  0.35350000  1.0 0.1130011639
H  H374  1  0.94410000  0.35350000  0.81610000  1.0 0.1130011639
H  H375  1  0.35350000  0.94410000  0.88630000  1.0 0.1130011639
H  H376  1  0.35350000  0.88630000  0.81610000  1.0 0.1130011639
H  H377  1  0.81610000  0.94410000  0.35350000  1.0 0.1130011639
H  H378  1  0.88630000  0.35350000  0.94410000  1.0 0.1130011639
H  H379  1  0.81610000  0.35350000  0.88630000  1.0 0.1130011639
H  H380  1  0.35350000  0.81610000  0.94410000  1.0 0.1130011639
H  H381  1  0.94410000  0.88630000  0.35350000  1.0 0.1130011639
H  H382  1  0.61370000  0.68390000  0.55590000  1.0 0.1130011639
H  H383  1  0.68390000  0.55590000  0.61370000  1.0 0.1130011639
H  H384  1  0.55590000  0.61370000  0.68390000  1.0 0.1130011639
H  H385  1  0.30050000  0.15750000  0.04350000  1.0 0.0901538113
H  H386  1  0.04350000  0.30050000  0.15750000  1.0 0.0901538113
H  H387  1  0.15750000  0.04350000  0.30050000  1.0 0.0901538113
H  H388  1  0.19950000  0.34250000  0.00150000  1.0 0.0901538113
H  H389  1  0.45650000  0.00150000  0.34250000  1.0 0.0901538113
H  H390  1  0.00150000  0.45650000  0.19950000  1.0 0.0901538113
H  H391  1  0.45650000  0.19950000  0.00150000  1.0 0.0901538113
H  H392  1  0.00150000  0.34250000  0.45650000  1.0 0.0901538113
H  H393  1  0.34250000  0.00150000  0.19950000  1.0 0.0901538113
H  H394  1  0.34250000  0.45650000  0.00150000  1.0 0.0901538113
H  H395  1  0.19950000  0.00150000  0.45650000  1.0 0.0901538113
H  H396  1  0.00150000  0.19950000  0.34250000  1.0 0.0901538113
H  H397  1  0.15750000  0.30050000  0.49850000  1.0 0.0901538113
H  H398  1  0.04350000  0.49850000  0.30050000  1.0 0.0901538113
H  H399  1  0.49850000  0.04350000  0.15750000  1.0 0.0901538113
H  H400  1  0.49850000  0.15750000  0.30050000  1.0 0.0901538113
H  H401  1  0.30050000  0.04350000  0.49850000  1.0 0.0901538113
H  H402  1  0.15750000  0.49850000  0.04350000  1.0 0.0901538113
H  H403  1  0.30050000  0.49850000  0.15750000  1.0 0.0901538113
H  H404  1  0.49850000  0.30050000  0.04350000  1.0 0.0901538113
H  H405  1  0.04350000  0.15750000  0.49850000  1.0 0.0901538113
H  H406  1  0.34250000  0.19950000  0.45650000  1.0 0.0901538113
H  H407  1  0.19950000  0.45650000  0.34250000  1.0 0.0901538113
H  H408  1  0.45650000  0.34250000  0.19950000  1.0 0.0901538113
H  H409  1  0.69950000  0.84250000  0.95650000  1.0 0.0901538113
H  H410  1  0.95650000  0.69950000  0.84250000  1.0 0.0901538113
H  H411  1  0.84250000  0.95650000  0.69950000  1.0 0.0901538113
H  H412  1  0.80050000  0.65750000  0.99850000  1.0 0.0901538113
H  H413  1  0.54350000  0.99850000  0.65750000  1.0 0.0901538113
H  H414  1  0.99850000  0.54350000  0.80050000  1.0 0.0901538113
H  H415  1  0.54350000  0.80050000  0.99850000  1.0 0.0901538113
H  H416  1  0.99850000  0.65750000  0.54350000  1.0 0.0901538113
H  H417  1  0.65750000  0.99850000  0.80050000  1.0 0.0901538113
H  H418  1  0.65750000  0.54350000  0.99850000  1.0 0.0901538113
H  H419  1  0.80050000  0.99850000  0.54350000  1.0 0.0901538113
H  H420  1  0.99850000  0.80050000  0.65750000  1.0 0.0901538113
H  H421  1  0.84250000  0.69950000  0.50150000  1.0 0.0901538113
H  H422  1  0.95650000  0.50150000  0.69950000  1.0 0.0901538113
H  H423  1  0.50150000  0.95650000  0.84250000  1.0 0.0901538113
H  H424  1  0.50150000  0.84250000  0.69950000  1.0 0.0901538113
H  H425  1  0.69950000  0.95650000  0.50150000  1.0 0.0901538113
H  H426  1  0.84250000  0.50150000  0.95650000  1.0 0.0901538113
H  H427  1  0.69950000  0.50150000  0.84250000  1.0 0.0901538113
H  H428  1  0.50150000  0.69950000  0.95650000  1.0 0.0901538113
H  H429  1  0.95650000  0.84250000  0.50150000  1.0 0.0901538113
H  H430  1  0.65750000  0.80050000  0.54350000  1.0 0.0901538113
H  H431  1  0.80050000  0.54350000  0.65750000  1.0 0.0901538113
H  H432  1  0.54350000  0.65750000  0.80050000  1.0 0.0901538113
H  H433  1  0.25120000  0.20140000  0.04440000  1.0 0.0901538113
H  H434  1  0.04440000  0.25120000  0.20140000  1.0 0.0901538113
H  H435  1  0.20140000  0.04440000  0.25120000  1.0 0.0901538113
H  H436  1  0.24880000  0.29860000  0.99700000  1.0 0.0901538113
H  H437  1  0.45560000  0.99700000  0.29860000  1.0 0.0901538113
H  H438  1  0.99700000  0.45560000  0.24880000  1.0 0.0901538113
H  H439  1  0.45560000  0.24880000  0.99700000  1.0 0.0901538113
H  H440  1  0.99700000  0.29860000  0.45560000  1.0 0.0901538113
H  H441  1  0.29860000  0.99700000  0.24880000  1.0 0.0901538113
H  H442  1  0.29860000  0.45560000  0.99700000  1.0 0.0901538113
H  H443  1  0.24880000  0.99700000  0.45560000  1.0 0.0901538113
H  H444  1  0.99700000  0.24880000  0.29860000  1.0 0.0901538113
H  H445  1  0.20140000  0.25120000  0.50300000  1.0 0.0901538113
H  H446  1  0.04440000  0.50300000  0.25120000  1.0 0.0901538113
H  H447  1  0.50300000  0.04440000  0.20140000  1.0 0.0901538113
H  H448  1  0.50300000  0.20140000  0.25120000  1.0 0.0901538113
H  H449  1  0.25120000  0.04440000  0.50300000  1.0 0.0901538113
H  H450  1  0.20140000  0.50300000  0.04440000  1.0 0.0901538113
H  H451  1  0.25120000  0.50300000  0.20140000  1.0 0.0901538113
H  H452  1  0.50300000  0.25120000  0.04440000  1.0 0.0901538113
H  H453  1  0.04440000  0.20140000  0.50300000  1.0 0.0901538113
H  H454  1  0.29860000  0.24880000  0.45560000  1.0 0.0901538113
H  H455  1  0.24880000  0.45560000  0.29860000  1.0 0.0901538113
H  H456  1  0.45560000  0.29860000  0.24880000  1.0 0.0901538113
H  H457  1  0.74880000  0.79860000  0.95560000  1.0 0.0901538113
H  H458  1  0.95560000  0.74880000  0.79860000  1.0 0.0901538113
H  H459  1  0.79860000  0.95560000  0.74880000  1.0 0.0901538113
H  H460  1  0.75120000  0.70140000  0.00300000  1.0 0.0901538113
H  H461  1  0.54440000  0.00300000  0.70140000  1.0 0.0901538113
H  H462  1  0.00300000  0.54440000  0.75120000  1.0 0.0901538113
H  H463  1  0.54440000  0.75120000  0.00300000  1.0 0.0901538113
H  H464  1  0.00300000  0.70140000  0.54440000  1.0 0.0901538113
H  H465  1  0.70140000  0.00300000  0.75120000  1.0 0.0901538113
H  H466  1  0.70140000  0.54440000  0.00300000  1.0 0.0901538113
H  H467  1  0.75120000  0.00300000  0.54440000  1.0 0.0901538113
H  H468  1  0.00300000  0.75120000  0.70140000  1.0 0.0901538113
H  H469  1  0.79860000  0.74880000  0.49700000  1.0 0.0901538113
H  H470  1  0.95560000  0.49700000  0.74880000  1.0 0.0901538113
H  H471  1  0.49700000  0.95560000  0.79860000  1.0 0.0901538113
H  H472  1  0.49700000  0.79860000  0.74880000  1.0 0.0901538113
H  H473  1  0.74880000  0.95560000  0.49700000  1.0 0.0901538113
H  H474  1  0.79860000  0.49700000  0.95560000  1.0 0.0901538113
H  H475  1  0.74880000  0.49700000  0.79860000  1.0 0.0901538113
H  H476  1  0.49700000  0.74880000  0.95560000  1.0 0.0901538113
H  H477  1  0.95560000  0.79860000  0.49700000  1.0 0.0901538113
H  H478  1  0.70140000  0.75120000  0.54440000  1.0 0.0901538113
H  H479  1  0.75120000  0.54440000  0.70140000  1.0 0.0901538113
H  H480  1  0.54440000  0.70140000  0.75120000  1.0 0.0901538113
H  H481  1  0.23100000  0.18360000  0.12660000  1.0 0.1203998988
H  H482  1  0.12660000  0.23100000  0.18360000  1.0 0.1203998988
H  H483  1  0.18360000  0.12660000  0.23100000  1.0 0.1203998988
H  H484  1  0.26900000  0.31640000  0.04120000  1.0 0.1203998988
H  H485  1  0.37340000  0.04120000  0.31640000  1.0 0.1203998988
H  H486  1  0.04120000  0.37340000  0.26900000  1.0 0.1203998988
H  H487  1  0.37340000  0.26900000  0.04120000  1.0 0.1203998988
H  H488  1  0.04120000  0.31640000  0.37340000  1.0 0.1203998988
H  H489  1  0.31640000  0.04120000  0.26900000  1.0 0.1203998988
H  H490  1  0.31640000  0.37340000  0.04120000  1.0 0.1203998988
H  H491  1  0.26900000  0.04120000  0.37340000  1.0 0.1203998988
H  H492  1  0.04120000  0.26900000  0.31640000  1.0 0.1203998988
H  H493  1  0.18360000  0.23100000  0.45880000  1.0 0.1203998988
H  H494  1  0.12660000  0.45880000  0.23100000  1.0 0.1203998988
H  H495  1  0.45880000  0.12660000  0.18360000  1.0 0.1203998988
H  H496  1  0.45880000  0.18360000  0.23100000  1.0 0.1203998988
H  H497  1  0.23100000  0.12660000  0.45880000  1.0 0.1203998988
H  H498  1  0.18360000  0.45880000  0.12660000  1.0 0.1203998988
H  H499  1  0.23100000  0.45880000  0.18360000  1.0 0.1203998988
H  H500  1  0.45880000  0.23100000  0.12660000  1.0 0.1203998988
H  H501  1  0.12660000  0.18360000  0.45880000  1.0 0.1203998988
H  H502  1  0.31640000  0.26900000  0.37340000  1.0 0.1203998988
H  H503  1  0.26900000  0.37340000  0.31640000  1.0 0.1203998988
H  H504  1  0.37340000  0.31640000  0.26900000  1.0 0.1203998988
H  H505  1  0.76900000  0.81640000  0.87340000  1.0 0.1203998988
H  H506  1  0.87340000  0.76900000  0.81640000  1.0 0.1203998988
H  H507  1  0.81640000  0.87340000  0.76900000  1.0 0.1203998988
H  H508  1  0.73100000  0.68360000  0.95880000  1.0 0.1203998988
H  H509  1  0.62660000  0.95880000  0.68360000  1.0 0.1203998988
H  H510  1  0.95880000  0.62660000  0.73100000  1.0 0.1203998988
H  H511  1  0.62660000  0.73100000  0.95880000  1.0 0.1203998988
H  H512  1  0.95880000  0.68360000  0.62660000  1.0 0.1203998988
H  H513  1  0.68360000  0.95880000  0.73100000  1.0 0.1203998988
H  H514  1  0.68360000  0.62660000  0.95880000  1.0 0.1203998988
H  H515  1  0.73100000  0.95880000  0.62660000  1.0 0.1203998988
H  H516  1  0.95880000  0.73100000  0.68360000  1.0 0.1203998988
H  H517  1  0.81640000  0.76900000  0.54120000  1.0 0.1203998988
H  H518  1  0.87340000  0.54120000  0.76900000  1.0 0.1203998988
H  H519  1  0.54120000  0.87340000  0.81640000  1.0 0.1203998988
H  H520  1  0.54120000  0.81640000  0.76900000  1.0 0.1203998988
H  H521  1  0.76900000  0.87340000  0.54120000  1.0 0.1203998988
H  H522  1  0.81640000  0.54120000  0.87340000  1.0 0.1203998988
H  H523  1  0.76900000  0.54120000  0.81640000  1.0 0.1203998988
H  H524  1  0.54120000  0.76900000  0.87340000  1.0 0.1203998988
H  H525  1  0.87340000  0.81640000  0.54120000  1.0 0.1203998988
H  H526  1  0.68360000  0.73100000  0.62660000  1.0 0.1203998988
H  H527  1  0.73100000  0.62660000  0.68360000  1.0 0.1203998988
H  H528  1  0.62660000  0.68360000  0.73100000  1.0 0.1203998988
H  H529  1  0.28280000  0.18940000  0.09920000  1.0 0.127649296
H  H530  1  0.09920000  0.28280000  0.18940000  1.0 0.127649296
H  H531  1  0.18940000  0.09920000  0.28280000  1.0 0.127649296
H  H532  1  0.21720000  0.31060000  0.07140000  1.0 0.127649296
H  H533  1  0.40080000  0.07140000  0.31060000  1.0 0.127649296
H  H534  1  0.07140000  0.40080000  0.21720000  1.0 0.127649296
H  H535  1  0.40080000  0.21720000  0.07140000  1.0 0.127649296
H  H536  1  0.07140000  0.31060000  0.40080000  1.0 0.127649296
H  H537  1  0.31060000  0.07140000  0.21720000  1.0 0.127649296
H  H538  1  0.31060000  0.40080000  0.07140000  1.0 0.127649296
H  H539  1  0.21720000  0.07140000  0.40080000  1.0 0.127649296
H  H540  1  0.07140000  0.21720000  0.31060000  1.0 0.127649296
H  H541  1  0.18940000  0.28280000  0.42860000  1.0 0.127649296
H  H542  1  0.09920000  0.42860000  0.28280000  1.0 0.127649296
H  H543  1  0.42860000  0.09920000  0.18940000  1.0 0.127649296
H  H544  1  0.42860000  0.18940000  0.28280000  1.0 0.127649296
H  H545  1  0.28280000  0.09920000  0.42860000  1.0 0.127649296
H  H546  1  0.18940000  0.42860000  0.09920000  1.0 0.127649296
H  H547  1  0.28280000  0.42860000  0.18940000  1.0 0.127649296
H  H548  1  0.42860000  0.28280000  0.09920000  1.0 0.127649296
H  H549  1  0.09920000  0.18940000  0.42860000  1.0 0.127649296
H  H550  1  0.31060000  0.21720000  0.40080000  1.0 0.127649296
H  H551  1  0.21720000  0.40080000  0.31060000  1.0 0.127649296
H  H552  1  0.40080000  0.31060000  0.21720000  1.0 0.127649296
H  H553  1  0.71720000  0.81060000  0.90080000  1.0 0.127649296
H  H554  1  0.90080000  0.71720000  0.81060000  1.0 0.127649296
H  H555  1  0.81060000  0.90080000  0.71720000  1.0 0.127649296
H  H556  1  0.78280000  0.68940000  0.92860000  1.0 0.127649296
H  H557  1  0.59920000  0.92860000  0.68940000  1.0 0.127649296
H  H558  1  0.92860000  0.59920000  0.78280000  1.0 0.127649296
H  H559  1  0.59920000  0.78280000  0.92860000  1.0 0.127649296
H  H560  1  0.92860000  0.68940000  0.59920000  1.0 0.127649296
H  H561  1  0.68940000  0.92860000  0.78280000  1.0 0.127649296
H  H562  1  0.68940000  0.59920000  0.92860000  1.0 0.127649296
H  H563  1  0.78280000  0.92860000  0.59920000  1.0 0.127649296
H  H564  1  0.92860000  0.78280000  0.68940000  1.0 0.127649296
H  H565  1  0.81060000  0.71720000  0.57140000  1.0 0.127649296
H  H566  1  0.90080000  0.57140000  0.71720000  1.0 0.127649296
H  H567  1  0.57140000  0.90080000  0.81060000  1.0 0.127649296
H  H568  1  0.57140000  0.81060000  0.71720000  1.0 0.127649296
H  H569  1  0.71720000  0.90080000  0.57140000  1.0 0.127649296
H  H570  1  0.81060000  0.57140000  0.90080000  1.0 0.127649296
H  H571  1  0.71720000  0.57140000  0.81060000  1.0 0.127649296
H  H572  1  0.57140000  0.71720000  0.90080000  1.0 0.127649296
H  H573  1  0.90080000  0.81060000  0.57140000  1.0 0.127649296
H  H574  1  0.68940000  0.78280000  0.59920000  1.0 0.127649296
H  H575  1  0.78280000  0.59920000  0.68940000  1.0 0.127649296
H  H576  1  0.59920000  0.68940000  0.78280000  1.0 0.127649296
H  H577  1  0.27810000  0.13710000  0.12810000  1.0 0.127649296
H  H578  1  0.12810000  0.27810000  0.13710000  1.0 0.127649296
H  H579  1  0.13710000  0.12810000  0.27810000  1.0 0.127649296
H  H580  1  0.22190000  0.36290000  0.04330000  1.0 0.127649296
H  H581  1  0.37190000  0.04330000  0.36290000  1.0 0.127649296
H  H582  1  0.04330000  0.37190000  0.22190000  1.0 0.127649296
H  H583  1  0.37190000  0.22190000  0.04330000  1.0 0.127649296
H  H584  1  0.04330000  0.36290000  0.37190000  1.0 0.127649296
H  H585  1  0.36290000  0.04330000  0.22190000  1.0 0.127649296
H  H586  1  0.36290000  0.37190000  0.04330000  1.0 0.127649296
H  H587  1  0.22190000  0.04330000  0.37190000  1.0 0.127649296
H  H588  1  0.04330000  0.22190000  0.36290000  1.0 0.127649296
H  H589  1  0.13710000  0.27810000  0.45670000  1.0 0.127649296
H  H590  1  0.12810000  0.45670000  0.27810000  1.0 0.127649296
H  H591  1  0.45670000  0.12810000  0.13710000  1.0 0.127649296
H  H592  1  0.45670000  0.13710000  0.27810000  1.0 0.127649296
H  H593  1  0.27810000  0.12810000  0.45670000  1.0 0.127649296
H  H594  1  0.13710000  0.45670000  0.12810000  1.0 0.127649296
H  H595  1  0.27810000  0.45670000  0.13710000  1.0 0.127649296
H  H596  1  0.45670000  0.27810000  0.12810000  1.0 0.127649296
H  H597  1  0.12810000  0.13710000  0.45670000  1.0 0.127649296
H  H598  1  0.36290000  0.22190000  0.37190000  1.0 0.127649296
H  H599  1  0.22190000  0.37190000  0.36290000  1.0 0.127649296
H  H600  1  0.37190000  0.36290000  0.22190000  1.0 0.127649296
H  H601  1  0.72190000  0.86290000  0.87190000  1.0 0.127649296
H  H602  1  0.87190000  0.72190000  0.86290000  1.0 0.127649296
H  H603  1  0.86290000  0.87190000  0.72190000  1.0 0.127649296
H  H604  1  0.77810000  0.63710000  0.95670000  1.0 0.127649296
H  H605  1  0.62810000  0.95670000  0.63710000  1.0 0.127649296
H  H606  1  0.95670000  0.62810000  0.77810000  1.0 0.127649296
H  H607  1  0.62810000  0.77810000  0.95670000  1.0 0.127649296
H  H608  1  0.95670000  0.63710000  0.62810000  1.0 0.127649296
H  H609  1  0.63710000  0.95670000  0.77810000  1.0 0.127649296
H  H610  1  0.63710000  0.62810000  0.95670000  1.0 0.127649296
H  H611  1  0.77810000  0.95670000  0.62810000  1.0 0.127649296
H  H612  1  0.95670000  0.77810000  0.63710000  1.0 0.127649296
H  H613  1  0.86290000  0.72190000  0.54330000  1.0 0.127649296
H  H614  1  0.87190000  0.54330000  0.72190000  1.0 0.127649296
H  H615  1  0.54330000  0.87190000  0.86290000  1.0 0.127649296
H  H616  1  0.54330000  0.86290000  0.72190000  1.0 0.127649296
H  H617  1  0.72190000  0.87190000  0.54330000  1.0 0.127649296
H  H618  1  0.86290000  0.54330000  0.87190000  1.0 0.127649296
H  H619  1  0.72190000  0.54330000  0.86290000  1.0 0.127649296
H  H620  1  0.54330000  0.72190000  0.87190000  1.0 0.127649296
H  H621  1  0.87190000  0.86290000  0.54330000  1.0 0.127649296
H  H622  1  0.63710000  0.77810000  0.62810000  1.0 0.127649296
H  H623  1  0.77810000  0.62810000  0.63710000  1.0 0.127649296
H  H624  1  0.62810000  0.63710000  0.77810000  1.0 0.127649296
C  C1  1  0.38292000  0.98204000  0.09816000  1.0 0.5566630977
C  C2  1  0.09816000  0.38292000  0.98204000  1.0 0.5566630977
C  C3  1  0.98204000  0.09816000  0.38292000  1.0 0.5566630977
C  C4  1  0.11708000  0.51796000  0.96312000  1.0 0.5566630977
C  C5  1  0.40184000  0.96312000  0.51796000  1.0 0.5566630977
C  C6  1  0.96312000  0.40184000  0.11708000  1.0 0.5566630977
C  C7  1  0.40184000  0.11708000  0.96312000  1.0 0.5566630977
C  C8  1  0.96312000  0.51796000  0.40184000  1.0 0.5566630977
C  C9  1  0.51796000  0.96312000  0.11708000  1.0 0.5566630977
C  C10  1  0.51796000  0.40184000  0.96312000  1.0 0.5566630977
C  C11  1  0.11708000  0.96312000  0.40184000  1.0 0.5566630977
C  C12  1  0.96312000  0.11708000  0.51796000  1.0 0.5566630977
C  C13  1  0.98204000  0.38292000  0.53688000  1.0 0.5566630977
C  C14  1  0.09816000  0.53688000  0.38292000  1.0 0.5566630977
C  C15  1  0.53688000  0.09816000  0.98204000  1.0 0.5566630977
C  C16  1  0.53688000  0.98204000  0.38292000  1.0 0.5566630977
C  C17  1  0.38292000  0.09816000  0.53688000  1.0 0.5566630977
C  C18  1  0.98204000  0.53688000  0.09816000  1.0 0.5566630977
C  C19  1  0.38292000  0.53688000  0.98204000  1.0 0.5566630977
C  C20  1  0.53688000  0.38292000  0.09816000  1.0 0.5566630977
C  C21  1  0.09816000  0.98204000  0.53688000  1.0 0.5566630977
C  C22  1  0.51796000  0.11708000  0.40184000  1.0 0.5566630977
C  C23  1  0.11708000  0.40184000  0.51796000  1.0 0.5566630977
C  C24  1  0.40184000  0.51796000  0.11708000  1.0 0.5566630977
C  C25  1  0.61708000  0.01796000  0.90184000  1.0 0.5566630977
C  C26  1  0.90184000  0.61708000  0.01796000  1.0 0.5566630977
C  C27  1  0.01796000  0.90184000  0.61708000  1.0 0.5566630977
C  C28  1  0.88292000  0.48204000  0.03688000  1.0 0.5566630977
C  C29  1  0.59816000  0.03688000  0.48204000  1.0 0.5566630977
C  C30  1  0.03688000  0.59816000  0.88292000  1.0 0.5566630977
C  C31  1  0.59816000  0.88292000  0.03688000  1.0 0.5566630977
C  C32  1  0.03688000  0.48204000  0.59816000  1.0 0.5566630977
C  C33  1  0.48204000  0.03688000  0.88292000  1.0 0.5566630977
C  C34  1  0.48204000  0.59816000  0.03688000  1.0 0.5566630977
C  C35  1  0.88292000  0.03688000  0.59816000  1.0 0.5566630977
C  C36  1  0.03688000  0.88292000  0.48204000  1.0 0.5566630977
C  C37  1  0.01796000  0.61708000  0.46312000  1.0 0.5566630977
C  C38  1  0.90184000  0.46312000  0.61708000  1.0 0.5566630977
C  C39  1  0.46312000  0.90184000  0.01796000  1.0 0.5566630977
C  C40  1  0.46312000  0.01796000  0.61708000  1.0 0.5566630977
C  C41  1  0.61708000  0.90184000  0.46312000  1.0 0.5566630977
C  C42  1  0.01796000  0.46312000  0.90184000  1.0 0.5566630977
C  C43  1  0.61708000  0.46312000  0.01796000  1.0 0.5566630977
C  C44  1  0.46312000  0.61708000  0.90184000  1.0 0.5566630977
C  C45  1  0.90184000  0.01796000  0.46312000  1.0 0.5566630977
C  C46  1  0.48204000  0.88292000  0.59816000  1.0 0.5566630977
C  C47  1  0.88292000  0.59816000  0.48204000  1.0 0.5566630977
C  C48  1  0.59816000  0.48204000  0.88292000  1.0 0.5566630977
C  C49  1  0.33087000  0.01155000  0.11247000  1.0 -0.0192197219
C  C50  1  0.11247000  0.33087000  0.01155000  1.0 -0.0192197219
C  C51  1  0.01155000  0.11247000  0.33087000  1.0 -0.0192197219
C  C52  1  0.16913000  0.48845000  0.95489000  1.0 -0.0192197219
C  C53  1  0.38753000  0.95489000  0.48845000  1.0 -0.0192197219
C  C54  1  0.95489000  0.38753000  0.16913000  1.0 -0.0192197219
C  C55  1  0.38753000  0.16913000  0.95489000  1.0 -0.0192197219
C  C56  1  0.95489000  0.48845000  0.38753000  1.0 -0.0192197219
C  C57  1  0.48845000  0.95489000  0.16913000  1.0 -0.0192197219
C  C58  1  0.48845000  0.38753000  0.95489000  1.0 -0.0192197219
C  C59  1  0.16913000  0.95489000  0.38753000  1.0 -0.0192197219
C  C60  1  0.95489000  0.16913000  0.48845000  1.0 -0.0192197219
C  C61  1  0.01155000  0.33087000  0.54511000  1.0 -0.0192197219
C  C62  1  0.11247000  0.54511000  0.33087000  1.0 -0.0192197219
C  C63  1  0.54511000  0.11247000  0.01155000  1.0 -0.0192197219
C  C64  1  0.54511000  0.01155000  0.33087000  1.0 -0.0192197219
C  C65  1  0.33087000  0.11247000  0.54511000  1.0 -0.0192197219
C  C66  1  0.01155000  0.54511000  0.11247000  1.0 -0.0192197219
C  C67  1  0.33087000  0.54511000  0.01155000  1.0 -0.0192197219
C  C68  1  0.54511000  0.33087000  0.11247000  1.0 -0.0192197219
C  C69  1  0.11247000  0.01155000  0.54511000  1.0 -0.0192197219
C  C70  1  0.48845000  0.16913000  0.38753000  1.0 -0.0192197219
C  C71  1  0.16913000  0.38753000  0.48845000  1.0 -0.0192197219
C  C72  1  0.38753000  0.48845000  0.16913000  1.0 -0.0192197219
C  C73  1  0.66913000  0.98845000  0.88753000  1.0 -0.0192197219
C  C74  1  0.88753000  0.66913000  0.98845000  1.0 -0.0192197219
C  C75  1  0.98845000  0.88753000  0.66913000  1.0 -0.0192197219
C  C76  1  0.83087000  0.51155000  0.04511000  1.0 -0.0192197219
C  C77  1  0.61247000  0.04511000  0.51155000  1.0 -0.0192197219
C  C78  1  0.04511000  0.61247000  0.83087000  1.0 -0.0192197219
C  C79  1  0.61247000  0.83087000  0.04511000  1.0 -0.0192197219
C  C80  1  0.04511000  0.51155000  0.61247000  1.0 -0.0192197219
C  C81  1  0.51155000  0.04511000  0.83087000  1.0 -0.0192197219
C  C82  1  0.51155000  0.61247000  0.04511000  1.0 -0.0192197219
C  C83  1  0.83087000  0.04511000  0.61247000  1.0 -0.0192197219
C  C84  1  0.04511000  0.83087000  0.51155000  1.0 -0.0192197219
C  C85  1  0.98845000  0.66913000  0.45489000  1.0 -0.0192197219
C  C86  1  0.88753000  0.45489000  0.66913000  1.0 -0.0192197219
C  C87  1  0.45489000  0.88753000  0.98845000  1.0 -0.0192197219
C  C88  1  0.45489000  0.98845000  0.66913000  1.0 -0.0192197219
C  C89  1  0.66913000  0.88753000  0.45489000  1.0 -0.0192197219
C  C90  1  0.98845000  0.45489000  0.88753000  1.0 -0.0192197219
C  C91  1  0.66913000  0.45489000  0.98845000  1.0 -0.0192197219
C  C92  1  0.45489000  0.66913000  0.88753000  1.0 -0.0192197219
C  C93  1  0.88753000  0.98845000  0.45489000  1.0 -0.0192197219
C  C94  1  0.51155000  0.83087000  0.61247000  1.0 -0.0192197219
C  C95  1  0.83087000  0.61247000  0.51155000  1.0 -0.0192197219
C  C96  1  0.61247000  0.51155000  0.83087000  1.0 -0.0192197219
C  C97  1  0.31379000  0.05817000  0.08363000  1.0 -0.1598996842
C  C98  1  0.08363000  0.31379000  0.05817000  1.0 -0.1598996842
C  C99  1  0.05817000  0.08363000  0.31379000  1.0 -0.1598996842
C  C100  1  0.18621000  0.44183000  0.95559000  1.0 -0.1598996842
C  C101  1  0.41637000  0.95559000  0.44183000  1.0 -0.1598996842
C  C102  1  0.95559000  0.41637000  0.18621000  1.0 -0.1598996842
C  C103  1  0.41637000  0.18621000  0.95559000  1.0 -0.1598996842
C  C104  1  0.95559000  0.44183000  0.41637000  1.0 -0.1598996842
C  C105  1  0.44183000  0.95559000  0.18621000  1.0 -0.1598996842
C  C106  1  0.44183000  0.41637000  0.95559000  1.0 -0.1598996842
C  C107  1  0.18621000  0.95559000  0.41637000  1.0 -0.1598996842
C  C108  1  0.95559000  0.18621000  0.44183000  1.0 -0.1598996842
C  C109  1  0.05817000  0.31379000  0.54441000  1.0 -0.1598996842
C  C110  1  0.08363000  0.54441000  0.31379000  1.0 -0.1598996842
C  C111  1  0.54441000  0.08363000  0.05817000  1.0 -0.1598996842
C  C112  1  0.54441000  0.05817000  0.31379000  1.0 -0.1598996842
C  C113  1  0.31379000  0.08363000  0.54441000  1.0 -0.1598996842
C  C114  1  0.05817000  0.54441000  0.08363000  1.0 -0.1598996842
C  C115  1  0.31379000  0.54441000  0.05817000  1.0 -0.1598996842
C  C116  1  0.54441000  0.31379000  0.08363000  1.0 -0.1598996842
C  C117  1  0.08363000  0.05817000  0.54441000  1.0 -0.1598996842
C  C118  1  0.44183000  0.18621000  0.41637000  1.0 -0.1598996842
C  C119  1  0.18621000  0.41637000  0.44183000  1.0 -0.1598996842
C  C120  1  0.41637000  0.44183000  0.18621000  1.0 -0.1598996842
C  C121  1  0.68621000  0.94183000  0.91637000  1.0 -0.1598996842
C  C122  1  0.91637000  0.68621000  0.94183000  1.0 -0.1598996842
C  C123  1  0.94183000  0.91637000  0.68621000  1.0 -0.1598996842
C  C124  1  0.81379000  0.55817000  0.04441000  1.0 -0.1598996842
C  C125  1  0.58363000  0.04441000  0.55817000  1.0 -0.1598996842
C  C126  1  0.04441000  0.58363000  0.81379000  1.0 -0.1598996842
C  C127  1  0.58363000  0.81379000  0.04441000  1.0 -0.1598996842
C  C128  1  0.04441000  0.55817000  0.58363000  1.0 -0.1598996842
C  C129  1  0.55817000  0.04441000  0.81379000  1.0 -0.1598996842
C  C130  1  0.55817000  0.58363000  0.04441000  1.0 -0.1598996842
C  C131  1  0.81379000  0.04441000  0.58363000  1.0 -0.1598996842
C  C132  1  0.04441000  0.81379000  0.55817000  1.0 -0.1598996842
C  C133  1  0.94183000  0.68621000  0.45559000  1.0 -0.1598996842
C  C134  1  0.91637000  0.45559000  0.68621000  1.0 -0.1598996842
C  C135  1  0.45559000  0.91637000  0.94183000  1.0 -0.1598996842
C  C136  1  0.45559000  0.94183000  0.68621000  1.0 -0.1598996842
C  C137  1  0.68621000  0.91637000  0.45559000  1.0 -0.1598996842
C  C138  1  0.94183000  0.45559000  0.91637000  1.0 -0.1598996842
C  C139  1  0.68621000  0.45559000  0.94183000  1.0 -0.1598996842
C  C140  1  0.45559000  0.68621000  0.91637000  1.0 -0.1598996842
C  C141  1  0.91637000  0.94183000  0.45559000  1.0 -0.1598996842
C  C142  1  0.55817000  0.81379000  0.58363000  1.0 -0.1598996842
C  C143  1  0.81379000  0.58363000  0.55817000  1.0 -0.1598996842
C  C144  1  0.58363000  0.55817000  0.81379000  1.0 -0.1598996842
C  C145  1  0.26632000  0.08492000  0.09998000  1.0 0.0321839034
C  C146  1  0.09998000  0.26632000  0.08492000  1.0 0.0321839034
C  C147  1  0.08492000  0.09998000  0.26632000  1.0 0.0321839034
C  C148  1  0.23368000  0.41508000  0.95122000  1.0 0.0321839034
C  C149  1  0.40002000  0.95122000  0.41508000  1.0 0.0321839034
C  C150  1  0.95122000  0.40002000  0.23368000  1.0 0.0321839034
C  C151  1  0.40002000  0.23368000  0.95122000  1.0 0.0321839034
C  C152  1  0.95122000  0.41508000  0.40002000  1.0 0.0321839034
C  C153  1  0.41508000  0.95122000  0.23368000  1.0 0.0321839034
C  C154  1  0.41508000  0.40002000  0.95122000  1.0 0.0321839034
C  C155  1  0.23368000  0.95122000  0.40002000  1.0 0.0321839034
C  C156  1  0.95122000  0.23368000  0.41508000  1.0 0.0321839034
C  C157  1  0.08492000  0.26632000  0.54878000  1.0 0.0321839034
C  C158  1  0.09998000  0.54878000  0.26632000  1.0 0.0321839034
C  C159  1  0.54878000  0.09998000  0.08492000  1.0 0.0321839034
C  C160  1  0.54878000  0.08492000  0.26632000  1.0 0.0321839034
C  C161  1  0.26632000  0.09998000  0.54878000  1.0 0.0321839034
C  C162  1  0.08492000  0.54878000  0.09998000  1.0 0.0321839034
C  C163  1  0.26632000  0.54878000  0.08492000  1.0 0.0321839034
C  C164  1  0.54878000  0.26632000  0.09998000  1.0 0.0321839034
C  C165  1  0.09998000  0.08492000  0.54878000  1.0 0.0321839034
C  C166  1  0.41508000  0.23368000  0.40002000  1.0 0.0321839034
C  C167  1  0.23368000  0.40002000  0.41508000  1.0 0.0321839034
C  C168  1  0.40002000  0.41508000  0.23368000  1.0 0.0321839034
C  C169  1  0.73368000  0.91508000  0.90002000  1.0 0.0321839034
C  C170  1  0.90002000  0.73368000  0.91508000  1.0 0.0321839034
C  C171  1  0.91508000  0.90002000  0.73368000  1.0 0.0321839034
C  C172  1  0.76632000  0.58492000  0.04878000  1.0 0.0321839034
C  C173  1  0.59998000  0.04878000  0.58492000  1.0 0.0321839034
C  C174  1  0.04878000  0.59998000  0.76632000  1.0 0.0321839034
C  C175  1  0.59998000  0.76632000  0.04878000  1.0 0.0321839034
C  C176  1  0.04878000  0.58492000  0.59998000  1.0 0.0321839034
C  C177  1  0.58492000  0.04878000  0.76632000  1.0 0.0321839034
C  C178  1  0.58492000  0.59998000  0.04878000  1.0 0.0321839034
C  C179  1  0.76632000  0.04878000  0.59998000  1.0 0.0321839034
C  C180  1  0.04878000  0.76632000  0.58492000  1.0 0.0321839034
C  C181  1  0.91508000  0.73368000  0.45122000  1.0 0.0321839034
C  C182  1  0.90002000  0.45122000  0.73368000  1.0 0.0321839034
C  C183  1  0.45122000  0.90002000  0.91508000  1.0 0.0321839034
C  C184  1  0.45122000  0.91508000  0.73368000  1.0 0.0321839034
C  C185  1  0.73368000  0.90002000  0.45122000  1.0 0.0321839034
C  C186  1  0.91508000  0.45122000  0.90002000  1.0 0.0321839034
C  C187  1  0.73368000  0.45122000  0.91508000  1.0 0.0321839034
C  C188  1  0.45122000  0.73368000  0.90002000  1.0 0.0321839034
C  C189  1  0.90002000  0.91508000  0.45122000  1.0 0.0321839034
C  C190  1  0.58492000  0.76632000  0.59998000  1.0 0.0321839034
C  C191  1  0.76632000  0.59998000  0.58492000  1.0 0.0321839034
C  C192  1  0.59998000  0.58492000  0.76632000  1.0 0.0321839034
C  C193  1  0.23497000  0.06709000  0.14451000  1.0 0.0381095636
C  C194  1  0.14451000  0.23497000  0.06709000  1.0 0.0381095636
C  C195  1  0.06709000  0.14451000  0.23497000  1.0 0.0381095636
C  C196  1  0.26503000  0.43291000  0.94657000  1.0 0.0381095636
C  C197  1  0.35549000  0.94657000  0.43291000  1.0 0.0381095636
C  C198  1  0.94657000  0.35549000  0.26503000  1.0 0.0381095636
C  C199  1  0.35549000  0.26503000  0.94657000  1.0 0.0381095636
C  C200  1  0.94657000  0.43291000  0.35549000  1.0 0.0381095636
C  C201  1  0.43291000  0.94657000  0.26503000  1.0 0.0381095636
C  C202  1  0.43291000  0.35549000  0.94657000  1.0 0.0381095636
C  C203  1  0.26503000  0.94657000  0.35549000  1.0 0.0381095636
C  C204  1  0.94657000  0.26503000  0.43291000  1.0 0.0381095636
C  C205  1  0.06709000  0.23497000  0.55343000  1.0 0.0381095636
C  C206  1  0.14451000  0.55343000  0.23497000  1.0 0.0381095636
C  C207  1  0.55343000  0.14451000  0.06709000  1.0 0.0381095636
C  C208  1  0.55343000  0.06709000  0.23497000  1.0 0.0381095636
C  C209  1  0.23497000  0.14451000  0.55343000  1.0 0.0381095636
C  C210  1  0.06709000  0.55343000  0.14451000  1.0 0.0381095636
C  C211  1  0.23497000  0.55343000  0.06709000  1.0 0.0381095636
C  C212  1  0.55343000  0.23497000  0.14451000  1.0 0.0381095636
C  C213  1  0.14451000  0.06709000  0.55343000  1.0 0.0381095636
C  C214  1  0.43291000  0.26503000  0.35549000  1.0 0.0381095636
C  C215  1  0.26503000  0.35549000  0.43291000  1.0 0.0381095636
C  C216  1  0.35549000  0.43291000  0.26503000  1.0 0.0381095636
C  C217  1  0.76503000  0.93291000  0.85549000  1.0 0.0381095636
C  C218  1  0.85549000  0.76503000  0.93291000  1.0 0.0381095636
C  C219  1  0.93291000  0.85549000  0.76503000  1.0 0.0381095636
C  C220  1  0.73497000  0.56709000  0.05343000  1.0 0.0381095636
C  C221  1  0.64451000  0.05343000  0.56709000  1.0 0.0381095636
C  C222  1  0.05343000  0.64451000  0.73497000  1.0 0.0381095636
C  C223  1  0.64451000  0.73497000  0.05343000  1.0 0.0381095636
C  C224  1  0.05343000  0.56709000  0.64451000  1.0 0.0381095636
C  C225  1  0.56709000  0.05343000  0.73497000  1.0 0.0381095636
C  C226  1  0.56709000  0.64451000  0.05343000  1.0 0.0381095636
C  C227  1  0.73497000  0.05343000  0.64451000  1.0 0.0381095636
C  C228  1  0.05343000  0.73497000  0.56709000  1.0 0.0381095636
C  C229  1  0.93291000  0.76503000  0.44657000  1.0 0.0381095636
C  C230  1  0.85549000  0.44657000  0.76503000  1.0 0.0381095636
C  C231  1  0.44657000  0.85549000  0.93291000  1.0 0.0381095636
C  C232  1  0.44657000  0.93291000  0.76503000  1.0 0.0381095636
C  C233  1  0.76503000  0.85549000  0.44657000  1.0 0.0381095636
C  C234  1  0.93291000  0.44657000  0.85549000  1.0 0.0381095636
C  C235  1  0.76503000  0.44657000  0.93291000  1.0 0.0381095636
C  C236  1  0.44657000  0.76503000  0.85549000  1.0 0.0381095636
C  C237  1  0.85549000  0.93291000  0.44657000  1.0 0.0381095636
C  C238  1  0.56709000  0.73497000  0.64451000  1.0 0.0381095636
C  C239  1  0.73497000  0.64451000  0.56709000  1.0 0.0381095636
C  C240  1  0.64451000  0.56709000  0.73497000  1.0 0.0381095636
C  C241  1  0.25233000  0.01947000  0.17297000  1.0 -0.1598996842
C  C242  1  0.17297000  0.25233000  0.01947000  1.0 -0.1598996842
C  C243  1  0.01947000  0.17297000  0.25233000  1.0 -0.1598996842
C  C244  1  0.24767000  0.48053000  0.94477000  1.0 -0.1598996842
C  C245  1  0.32703000  0.94477000  0.48053000  1.0 -0.1598996842
C  C246  1  0.94477000  0.32703000  0.24767000  1.0 -0.1598996842
C  C247  1  0.32703000  0.24767000  0.94477000  1.0 -0.1598996842
C  C248  1  0.94477000  0.48053000  0.32703000  1.0 -0.1598996842
C  C249  1  0.48053000  0.94477000  0.24767000  1.0 -0.1598996842
C  C250  1  0.48053000  0.32703000  0.94477000  1.0 -0.1598996842
C  C251  1  0.24767000  0.94477000  0.32703000  1.0 -0.1598996842
C  C252  1  0.94477000  0.24767000  0.48053000  1.0 -0.1598996842
C  C253  1  0.01947000  0.25233000  0.55523000  1.0 -0.1598996842
C  C254  1  0.17297000  0.55523000  0.25233000  1.0 -0.1598996842
C  C255  1  0.55523000  0.17297000  0.01947000  1.0 -0.1598996842
C  C256  1  0.55523000  0.01947000  0.25233000  1.0 -0.1598996842
C  C257  1  0.25233000  0.17297000  0.55523000  1.0 -0.1598996842
C  C258  1  0.01947000  0.55523000  0.17297000  1.0 -0.1598996842
C  C259  1  0.25233000  0.55523000  0.01947000  1.0 -0.1598996842
C  C260  1  0.55523000  0.25233000  0.17297000  1.0 -0.1598996842
C  C261  1  0.17297000  0.01947000  0.55523000  1.0 -0.1598996842
C  C262  1  0.48053000  0.24767000  0.32703000  1.0 -0.1598996842
C  C263  1  0.24767000  0.32703000  0.48053000  1.0 -0.1598996842
C  C264  1  0.32703000  0.48053000  0.24767000  1.0 -0.1598996842
C  C265  1  0.74767000  0.98053000  0.82703000  1.0 -0.1598996842
C  C266  1  0.82703000  0.74767000  0.98053000  1.0 -0.1598996842
C  C267  1  0.98053000  0.82703000  0.74767000  1.0 -0.1598996842
C  C268  1  0.75233000  0.51947000  0.05523000  1.0 -0.1598996842
C  C269  1  0.67297000  0.05523000  0.51947000  1.0 -0.1598996842
C  C270  1  0.05523000  0.67297000  0.75233000  1.0 -0.1598996842
C  C271  1  0.67297000  0.75233000  0.05523000  1.0 -0.1598996842
C  C272  1  0.05523000  0.51947000  0.67297000  1.0 -0.1598996842
C  C273  1  0.51947000  0.05523000  0.75233000  1.0 -0.1598996842
C  C274  1  0.51947000  0.67297000  0.05523000  1.0 -0.1598996842
C  C275  1  0.75233000  0.05523000  0.67297000  1.0 -0.1598996842
C  C276  1  0.05523000  0.75233000  0.51947000  1.0 -0.1598996842
C  C277  1  0.98053000  0.74767000  0.44477000  1.0 -0.1598996842
C  C278  1  0.82703000  0.44477000  0.74767000  1.0 -0.1598996842
C  C279  1  0.44477000  0.82703000  0.98053000  1.0 -0.1598996842
C  C280  1  0.44477000  0.98053000  0.74767000  1.0 -0.1598996842
C  C281  1  0.74767000  0.82703000  0.44477000  1.0 -0.1598996842
C  C282  1  0.98053000  0.44477000  0.82703000  1.0 -0.1598996842
C  C283  1  0.74767000  0.44477000  0.98053000  1.0 -0.1598996842
C  C284  1  0.44477000  0.74767000  0.82703000  1.0 -0.1598996842
C  C285  1  0.82703000  0.98053000  0.44477000  1.0 -0.1598996842
C  C286  1  0.51947000  0.75233000  0.67297000  1.0 -0.1598996842
C  C287  1  0.75233000  0.67297000  0.51947000  1.0 -0.1598996842
C  C288  1  0.67297000  0.51947000  0.75233000  1.0 -0.1598996842
C  C289  1  0.29957000  0.99265000  0.15659000  1.0 -0.1107317388
C  C290  1  0.15659000  0.29957000  0.99265000  1.0 -0.1107317388
C  C291  1  0.99265000  0.15659000  0.29957000  1.0 -0.1107317388
C  C292  1  0.20043000  0.50735000  0.94881000  1.0 -0.1107317388
C  C293  1  0.34341000  0.94881000  0.50735000  1.0 -0.1107317388
C  C294  1  0.94881000  0.34341000  0.20043000  1.0 -0.1107317388
C  C295  1  0.34341000  0.20043000  0.94881000  1.0 -0.1107317388
C  C296  1  0.94881000  0.50735000  0.34341000  1.0 -0.1107317388
C  C297  1  0.50735000  0.94881000  0.20043000  1.0 -0.1107317388
C  C298  1  0.50735000  0.34341000  0.94881000  1.0 -0.1107317388
C  C299  1  0.20043000  0.94881000  0.34341000  1.0 -0.1107317388
C  C300  1  0.94881000  0.20043000  0.50735000  1.0 -0.1107317388
C  C301  1  0.99265000  0.29957000  0.55119000  1.0 -0.1107317388
C  C302  1  0.15659000  0.55119000  0.29957000  1.0 -0.1107317388
C  C303  1  0.55119000  0.15659000  0.99265000  1.0 -0.1107317388
C  C304  1  0.55119000  0.99265000  0.29957000  1.0 -0.1107317388
C  C305  1  0.29957000  0.15659000  0.55119000  1.0 -0.1107317388
C  C306  1  0.99265000  0.55119000  0.15659000  1.0 -0.1107317388
C  C307  1  0.29957000  0.55119000  0.99265000  1.0 -0.1107317388
C  C308  1  0.55119000  0.29957000  0.15659000  1.0 -0.1107317388
C  C309  1  0.15659000  0.99265000  0.55119000  1.0 -0.1107317388
C  C310  1  0.50735000  0.20043000  0.34341000  1.0 -0.1107317388
C  C311  1  0.20043000  0.34341000  0.50735000  1.0 -0.1107317388
C  C312  1  0.34341000  0.50735000  0.20043000  1.0 -0.1107317388
C  C313  1  0.70043000  0.00735000  0.84341000  1.0 -0.1107317388
C  C314  1  0.84341000  0.70043000  0.00735000  1.0 -0.1107317388
C  C315  1  0.00735000  0.84341000  0.70043000  1.0 -0.1107317388
C  C316  1  0.79957000  0.49265000  0.05119000  1.0 -0.1107317388
C  C317  1  0.65659000  0.05119000  0.49265000  1.0 -0.1107317388
C  C318  1  0.05119000  0.65659000  0.79957000  1.0 -0.1107317388
C  C319  1  0.65659000  0.79957000  0.05119000  1.0 -0.1107317388
C  C320  1  0.05119000  0.49265000  0.65659000  1.0 -0.1107317388
C  C321  1  0.49265000  0.05119000  0.79957000  1.0 -0.1107317388
C  C322  1  0.49265000  0.65659000  0.05119000  1.0 -0.1107317388
C  C323  1  0.79957000  0.05119000  0.65659000  1.0 -0.1107317388
C  C324  1  0.05119000  0.79957000  0.49265000  1.0 -0.1107317388
C  C325  1  0.00735000  0.70043000  0.44881000  1.0 -0.1107317388
C  C326  1  0.84341000  0.44881000  0.70043000  1.0 -0.1107317388
C  C327  1  0.44881000  0.84341000  0.00735000  1.0 -0.1107317388
C  C328  1  0.44881000  0.00735000  0.70043000  1.0 -0.1107317388
C  C329  1  0.70043000  0.84341000  0.44881000  1.0 -0.1107317388
C  C330  1  0.00735000  0.44881000  0.84341000  1.0 -0.1107317388
C  C331  1  0.70043000  0.44881000  0.00735000  1.0 -0.1107317388
C  C332  1  0.44881000  0.70043000  0.84341000  1.0 -0.1107317388
C  C333  1  0.84341000  0.00735000  0.44881000  1.0 -0.1107317388
C  C334  1  0.49265000  0.79957000  0.65659000  1.0 -0.1107317388
C  C335  1  0.79957000  0.65659000  0.49265000  1.0 -0.1107317388
C  C336  1  0.65659000  0.49265000  0.79957000  1.0 -0.1107317388
C  C337  1  0.24159000  0.13547000  0.07287000  1.0 0.0901538113
C  C338  1  0.07287000  0.24159000  0.13547000  1.0 0.0901538113
C  C339  1  0.13547000  0.07287000  0.24159000  1.0 0.0901538113
C  C340  1  0.25841000  0.36453000  0.94993000  1.0 0.0901538113
C  C341  1  0.42713000  0.94993000  0.36453000  1.0 0.0901538113
C  C342  1  0.94993000  0.42713000  0.25841000  1.0 0.0901538113
C  C343  1  0.42713000  0.25841000  0.94993000  1.0 0.0901538113
C  C344  1  0.94993000  0.36453000  0.42713000  1.0 0.0901538113
C  C345  1  0.36453000  0.94993000  0.25841000  1.0 0.0901538113
C  C346  1  0.36453000  0.42713000  0.94993000  1.0 0.0901538113
C  C347  1  0.25841000  0.94993000  0.42713000  1.0 0.0901538113
C  C348  1  0.94993000  0.25841000  0.36453000  1.0 0.0901538113
C  C349  1  0.13547000  0.24159000  0.55007000  1.0 0.0901538113
C  C350  1  0.07287000  0.55007000  0.24159000  1.0 0.0901538113
C  C351  1  0.55007000  0.07287000  0.13547000  1.0 0.0901538113
C  C352  1  0.55007000  0.13547000  0.24159000  1.0 0.0901538113
C  C353  1  0.24159000  0.07287000  0.55007000  1.0 0.0901538113
C  C354  1  0.13547000  0.55007000  0.07287000  1.0 0.0901538113
C  C355  1  0.24159000  0.55007000  0.13547000  1.0 0.0901538113
C  C356  1  0.55007000  0.24159000  0.07287000  1.0 0.0901538113
C  C357  1  0.07287000  0.13547000  0.55007000  1.0 0.0901538113
C  C358  1  0.36453000  0.25841000  0.42713000  1.0 0.0901538113
C  C359  1  0.25841000  0.42713000  0.36453000  1.0 0.0901538113
C  C360  1  0.42713000  0.36453000  0.25841000  1.0 0.0901538113
C  C361  1  0.75841000  0.86453000  0.92713000  1.0 0.0901538113
C  C362  1  0.92713000  0.75841000  0.86453000  1.0 0.0901538113
C  C363  1  0.86453000  0.92713000  0.75841000  1.0 0.0901538113
C  C364  1  0.74159000  0.63547000  0.05007000  1.0 0.0901538113
C  C365  1  0.57287000  0.05007000  0.63547000  1.0 0.0901538113
C  C366  1  0.05007000  0.57287000  0.74159000  1.0 0.0901538113
C  C367  1  0.57287000  0.74159000  0.05007000  1.0 0.0901538113
C  C368  1  0.05007000  0.63547000  0.57287000  1.0 0.0901538113
C  C369  1  0.63547000  0.05007000  0.74159000  1.0 0.0901538113
C  C370  1  0.63547000  0.57287000  0.05007000  1.0 0.0901538113
C  C371  1  0.74159000  0.05007000  0.57287000  1.0 0.0901538113
C  C372  1  0.05007000  0.74159000  0.63547000  1.0 0.0901538113
C  C373  1  0.86453000  0.75841000  0.44993000  1.0 0.0901538113
C  C374  1  0.92713000  0.44993000  0.75841000  1.0 0.0901538113
C  C375  1  0.44993000  0.92713000  0.86453000  1.0 0.0901538113
C  C376  1  0.44993000  0.86453000  0.75841000  1.0 0.0901538113
C  C377  1  0.75841000  0.92713000  0.44993000  1.0 0.0901538113
C  C378  1  0.86453000  0.44993000  0.92713000  1.0 0.0901538113
C  C379  1  0.75841000  0.44993000  0.86453000  1.0 0.0901538113
C  C380  1  0.44993000  0.75841000  0.92713000  1.0 0.0901538113
C  C381  1  0.92713000  0.86453000  0.44993000  1.0 0.0901538113
C  C382  1  0.63547000  0.74159000  0.57287000  1.0 0.0901538113
C  C383  1  0.74159000  0.57287000  0.63547000  1.0 0.0901538113
C  C384  1  0.57287000  0.63547000  0.74159000  1.0 0.0901538113
C  C385  1  0.18735000  0.10543000  0.15149000  1.0 -0.0353285639
C  C386  1  0.15149000  0.18735000  0.10543000  1.0 -0.0353285639
C  C387  1  0.10543000  0.15149000  0.18735000  1.0 -0.0353285639
C  C388  1  0.31265000  0.39457000  0.94427000  1.0 -0.0353285639
C  C389  1  0.34851000  0.94427000  0.39457000  1.0 -0.0353285639
C  C390  1  0.94427000  0.34851000  0.31265000  1.0 -0.0353285639
C  C391  1  0.34851000  0.31265000  0.94427000  1.0 -0.0353285639
C  C392  1  0.94427000  0.39457000  0.34851000  1.0 -0.0342003575
C  C393  1  0.39457000  0.94427000  0.31265000  1.0 -0.0353285639
C  C394  1  0.39457000  0.34851000  0.94427000  1.0 -0.0353285639
C  C395  1  0.31265000  0.94427000  0.34851000  1.0 -0.0353285639
C  C396  1  0.94427000  0.31265000  0.39457000  1.0 -0.0342003575
C  C397  1  0.10543000  0.18735000  0.55573000  1.0 -0.0353285639
C  C398  1  0.15149000  0.55573000  0.18735000  1.0 -0.0353285639
C  C399  1  0.55573000  0.15149000  0.10543000  1.0 -0.0342003575
C  C400  1  0.55573000  0.10543000  0.18735000  1.0 -0.0353285639
C  C401  1  0.18735000  0.15149000  0.55573000  1.0 -0.0353285639
C  C402  1  0.10543000  0.55573000  0.15149000  1.0 -0.0353285639
C  C403  1  0.18735000  0.55573000  0.10543000  1.0 -0.0353285639
C  C404  1  0.55573000  0.18735000  0.15149000  1.0 -0.0353285639
C  C405  1  0.15149000  0.10543000  0.55573000  1.0 -0.0353285639
C  C406  1  0.39457000  0.31265000  0.34851000  1.0 -0.0353285639
C  C407  1  0.31265000  0.34851000  0.39457000  1.0 -0.0353285639
C  C408  1  0.34851000  0.39457000  0.31265000  1.0 -0.0353285639
C  C409  1  0.81265000  0.89457000  0.84851000  1.0 -0.0353285639
C  C410  1  0.84851000  0.81265000  0.89457000  1.0 -0.0353285639
C  C411  1  0.89457000  0.84851000  0.81265000  1.0 -0.0353285639
C  C412  1  0.68735000  0.60543000  0.05573000  1.0 -0.0353285639
C  C413  1  0.65149000  0.05573000  0.60543000  1.0 -0.0353285639
C  C414  1  0.05573000  0.65149000  0.68735000  1.0 -0.0353285639
C  C415  1  0.65149000  0.68735000  0.05573000  1.0 -0.0353285639
C  C416  1  0.05573000  0.60543000  0.65149000  1.0 -0.0353285639
C  C417  1  0.60543000  0.05573000  0.68735000  1.0 -0.0353285639
C  C418  1  0.60543000  0.65149000  0.05573000  1.0 -0.0353285639
C  C419  1  0.68735000  0.05573000  0.65149000  1.0 -0.0353285639
C  C420  1  0.05573000  0.68735000  0.60543000  1.0 -0.0353285639
C  C421  1  0.89457000  0.81265000  0.44427000  1.0 -0.0353285639
C  C422  1  0.84851000  0.44427000  0.81265000  1.0 -0.0353285639
C  C423  1  0.44427000  0.84851000  0.89457000  1.0 -0.0353285639
C  C424  1  0.44427000  0.89457000  0.81265000  1.0 -0.0353285639
C  C425  1  0.81265000  0.84851000  0.44427000  1.0 -0.0353285639
C  C426  1  0.89457000  0.44427000  0.84851000  1.0 -0.0353285639
C  C427  1  0.81265000  0.44427000  0.89457000  1.0 -0.0353285639
C  C428  1  0.44427000  0.81265000  0.84851000  1.0 -0.0353285639
C  C429  1  0.84851000  0.89457000  0.44427000  1.0 -0.0353285639
C  C430  1  0.60543000  0.68735000  0.65149000  1.0 -0.0353285639
C  C431  1  0.68735000  0.65149000  0.60543000  1.0 -0.0353285639
C  C432  1  0.65149000  0.60543000  0.68735000  1.0 -0.0353285639
C  C433  1  0.19069000  0.14575000  0.10863000  1.0 -0.0192197219
C  C434  1  0.10863000  0.19069000  0.14575000  1.0 -0.0192197219
C  C435  1  0.14575000  0.10863000  0.19069000  1.0 -0.0192197219
C  C436  1  0.30931000  0.35425000  0.94507000  1.0 -0.0192197219
C  C437  1  0.39137000  0.94507000  0.35425000  1.0 -0.0192197219
C  C438  1  0.94507000  0.39137000  0.30931000  1.0 -0.0192197219
C  C439  1  0.39137000  0.30931000  0.94507000  1.0 -0.0192197219
C  C440  1  0.94507000  0.35425000  0.39137000  1.0 -0.0192197219
C  C441  1  0.35425000  0.94507000  0.30931000  1.0 -0.0192197219
C  C442  1  0.35425000  0.39137000  0.94507000  1.0 -0.0192197219
C  C443  1  0.30931000  0.94507000  0.39137000  1.0 -0.0192197219
C  C444  1  0.94507000  0.30931000  0.35425000  1.0 -0.0192197219
C  C445  1  0.14575000  0.19069000  0.55493000  1.0 -0.0192197219
C  C446  1  0.10863000  0.55493000  0.19069000  1.0 -0.0192197219
C  C447  1  0.55493000  0.10863000  0.14575000  1.0 -0.0192197219
C  C448  1  0.55493000  0.14575000  0.19069000  1.0 -0.0192197219
C  C449  1  0.19069000  0.10863000  0.55493000  1.0 -0.0192197219
C  C450  1  0.14575000  0.55493000  0.10863000  1.0 -0.0192197219
C  C451  1  0.19069000  0.55493000  0.14575000  1.0 -0.0192197219
C  C452  1  0.55493000  0.19069000  0.10863000  1.0 -0.0192197219
C  C453  1  0.10863000  0.14575000  0.55493000  1.0 -0.0192197219
C  C454  1  0.35425000  0.30931000  0.39137000  1.0 -0.0192197219
C  C455  1  0.30931000  0.39137000  0.35425000  1.0 -0.0192197219
C  C456  1  0.39137000  0.35425000  0.30931000  1.0 -0.0192197219
C  C457  1  0.80931000  0.85425000  0.89137000  1.0 -0.0192197219
C  C458  1  0.89137000  0.80931000  0.85425000  1.0 -0.0192197219
C  C459  1  0.85425000  0.89137000  0.80931000  1.0 -0.0192197219
C  C460  1  0.69069000  0.64575000  0.05493000  1.0 -0.0192197219
C  C461  1  0.60863000  0.05493000  0.64575000  1.0 -0.0192197219
C  C462  1  0.05493000  0.60863000  0.69069000  1.0 -0.0192197219
C  C463  1  0.60863000  0.69069000  0.05493000  1.0 -0.0192197219
C  C464  1  0.05493000  0.64575000  0.60863000  1.0 -0.0192197219
C  C465  1  0.64575000  0.05493000  0.69069000  1.0 -0.0192197219
C  C466  1  0.64575000  0.60863000  0.05493000  1.0 -0.0192197219
C  C467  1  0.69069000  0.05493000  0.60863000  1.0 -0.0192197219
C  C468  1  0.05493000  0.69069000  0.64575000  1.0 -0.0192197219
C  C469  1  0.85425000  0.80931000  0.44507000  1.0 -0.0192197219
C  C470  1  0.89137000  0.44507000  0.80931000  1.0 -0.0192197219
C  C471  1  0.44507000  0.89137000  0.85425000  1.0 -0.0192197219
C  C472  1  0.44507000  0.85425000  0.80931000  1.0 -0.0192197219
C  C473  1  0.80931000  0.89137000  0.44507000  1.0 -0.0192197219
C  C474  1  0.85425000  0.44507000  0.89137000  1.0 -0.0192197219
C  C475  1  0.80931000  0.44507000  0.85425000  1.0 -0.0192197219
C  C476  1  0.44507000  0.80931000  0.89137000  1.0 -0.0192197219
C  C477  1  0.89137000  0.85425000  0.44507000  1.0 -0.0192197219
C  C478  1  0.64575000  0.69069000  0.60863000  1.0 -0.0192197219
C  C479  1  0.69069000  0.60863000  0.64575000  1.0 -0.0192197219
C  C480  1  0.60863000  0.64575000  0.69069000  1.0 -0.0192197219
C  C481  1  0.24383000  0.13437000  0.02641000  1.0 -0.1878718906
C  C482  1  0.02641000  0.24383000  0.13437000  1.0 -0.1878718906
C  C483  1  0.13437000  0.02641000  0.24383000  1.0 -0.1878718906
C  C484  1  0.25617000  0.36563000  0.90461000  1.0 -0.1878718906
C  C485  1  0.47359000  0.90461000  0.36563000  1.0 -0.1878718906
C  C486  1  0.90461000  0.47359000  0.25617000  1.0 -0.1878718906
C  C487  1  0.47359000  0.25617000  0.90461000  1.0 -0.1878718906
C  C488  1  0.90461000  0.36563000  0.47359000  1.0 -0.1878718906
C  C489  1  0.36563000  0.90461000  0.25617000  1.0 -0.1878718906
C  C490  1  0.36563000  0.47359000  0.90461000  1.0 -0.1878718906
C  C491  1  0.25617000  0.90461000  0.47359000  1.0 -0.1878718906
C  C492  1  0.90461000  0.25617000  0.36563000  1.0 -0.1878718906
C  C493  1  0.13437000  0.24383000  0.59539000  1.0 -0.1878718906
C  C494  1  0.02641000  0.59539000  0.24383000  1.0 -0.1878718906
C  C495  1  0.59539000  0.02641000  0.13437000  1.0 -0.1878718906
C  C496  1  0.59539000  0.13437000  0.24383000  1.0 -0.1878718906
C  C497  1  0.24383000  0.02641000  0.59539000  1.0 -0.1878718906
C  C498  1  0.13437000  0.59539000  0.02641000  1.0 -0.1878718906
C  C499  1  0.24383000  0.59539000  0.13437000  1.0 -0.1878718906
C  C500  1  0.59539000  0.24383000  0.02641000  1.0 -0.1878718906
C  C501  1  0.02641000  0.13437000  0.59539000  1.0 -0.1878718906
C  C502  1  0.36563000  0.25617000  0.47359000  1.0 -0.1878718906
C  C503  1  0.25617000  0.47359000  0.36563000  1.0 -0.1878718906
C  C504  1  0.47359000  0.36563000  0.25617000  1.0 -0.1878718906
C  C505  1  0.75617000  0.86563000  0.97359000  1.0 -0.1878718906
C  C506  1  0.97359000  0.75617000  0.86563000  1.0 -0.1878718906
C  C507  1  0.86563000  0.97359000  0.75617000  1.0 -0.1878718906
C  C508  1  0.74383000  0.63437000  0.09539000  1.0 -0.1878718906
C  C509  1  0.52641000  0.09539000  0.63437000  1.0 -0.1878718906
C  C510  1  0.09539000  0.52641000  0.74383000  1.0 -0.1878718906
C  C511  1  0.52641000  0.74383000  0.09539000  1.0 -0.1878718906
C  C512  1  0.09539000  0.63437000  0.52641000  1.0 -0.1878718906
C  C513  1  0.63437000  0.09539000  0.74383000  1.0 -0.1878718906
C  C514  1  0.63437000  0.52641000  0.09539000  1.0 -0.1878718906
C  C515  1  0.74383000  0.09539000  0.52641000  1.0 -0.1878718906
C  C516  1  0.09539000  0.74383000  0.63437000  1.0 -0.1878718906
C  C517  1  0.86563000  0.75617000  0.40461000  1.0 -0.1878718906
C  C518  1  0.97359000  0.40461000  0.75617000  1.0 -0.1878718906
C  C519  1  0.40461000  0.97359000  0.86563000  1.0 -0.1878718906
C  C520  1  0.40461000  0.86563000  0.75617000  1.0 -0.1878718906
C  C521  1  0.75617000  0.97359000  0.40461000  1.0 -0.1878718906
C  C522  1  0.86563000  0.40461000  0.97359000  1.0 -0.1878718906
C  C523  1  0.75617000  0.40461000  0.86563000  1.0 -0.1878718906
C  C524  1  0.40461000  0.75617000  0.97359000  1.0 -0.1878718906
C  C525  1  0.97359000  0.86563000  0.40461000  1.0 -0.1878718906
C  C526  1  0.63437000  0.74383000  0.52641000  1.0 -0.1878718906
C  C527  1  0.74383000  0.52641000  0.63437000  1.0 -0.1878718906
C  C528  1  0.52641000  0.63437000  0.74383000  1.0 -0.1878718906
C  C529  1  0.21690000  0.10390000  0.03470000  1.0 -0.3480965317
C  C530  1  0.03470000  0.21690000  0.10390000  1.0 -0.3480965317
C  C531  1  0.10390000  0.03470000  0.21690000  1.0 -0.3480965317
C  C532  1  0.28310000  0.39610000  0.85550000  1.0 -0.3480965317
C  C533  1  0.46530000  0.85550000  0.39610000  1.0 -0.3480965317
C  C534  1  0.85550000  0.46530000  0.28310000  1.0 -0.3480965317
C  C535  1  0.46530000  0.28310000  0.85550000  1.0 -0.3480965317
C  C536  1  0.85550000  0.39610000  0.46530000  1.0 -0.3480965317
C  C537  1  0.39610000  0.85550000  0.28310000  1.0 -0.3480965317
C  C538  1  0.39610000  0.46530000  0.85550000  1.0 -0.3480965317
C  C539  1  0.28310000  0.85550000  0.46530000  1.0 -0.3480965317
C  C540  1  0.85550000  0.28310000  0.39610000  1.0 -0.3480965317
C  C541  1  0.10390000  0.21690000  0.64450000  1.0 -0.3480965317
C  C542  1  0.03470000  0.64450000  0.21690000  1.0 -0.3480965317
C  C543  1  0.64450000  0.03470000  0.10390000  1.0 -0.3480965317
C  C544  1  0.64450000  0.10390000  0.21690000  1.0 -0.3480965317
C  C545  1  0.21690000  0.03470000  0.64450000  1.0 -0.3480965317
C  C546  1  0.10390000  0.64450000  0.03470000  1.0 -0.3480965317
C  C547  1  0.21690000  0.64450000  0.10390000  1.0 -0.3480965317
C  C548  1  0.64450000  0.21690000  0.03470000  1.0 -0.3480965317
C  C549  1  0.03470000  0.10390000  0.64450000  1.0 -0.3480965317
C  C550  1  0.39610000  0.28310000  0.46530000  1.0 -0.3480965317
C  C551  1  0.28310000  0.46530000  0.39610000  1.0 -0.3480965317
C  C552  1  0.46530000  0.39610000  0.28310000  1.0 -0.3480965317
C  C553  1  0.78310000  0.89610000  0.96530000  1.0 -0.3480965317
C  C554  1  0.96530000  0.78310000  0.89610000  1.0 -0.3480965317
C  C555  1  0.89610000  0.96530000  0.78310000  1.0 -0.3480965317
C  C556  1  0.71690000  0.60390000  0.14450000  1.0 -0.3480965317
C  C557  1  0.53470000  0.14450000  0.60390000  1.0 -0.3480965317
C  C558  1  0.14450000  0.53470000  0.71690000  1.0 -0.3480965317
C  C559  1  0.53470000  0.71690000  0.14450000  1.0 -0.3480965317
C  C560  1  0.14450000  0.60390000  0.53470000  1.0 -0.3480965317
C  C561  1  0.60390000  0.14450000  0.71690000  1.0 -0.3480965317
C  C562  1  0.60390000  0.53470000  0.14450000  1.0 -0.3480965317
C  C563  1  0.71690000  0.14450000  0.53470000  1.0 -0.3480965317
C  C564  1  0.14450000  0.71690000  0.60390000  1.0 -0.3480965317
C  C565  1  0.89610000  0.78310000  0.35550000  1.0 -0.3480965317
C  C566  1  0.96530000  0.35550000  0.78310000  1.0 -0.3480965317
C  C567  1  0.35550000  0.96530000  0.89610000  1.0 -0.3480965317
C  C568  1  0.35550000  0.89610000  0.78310000  1.0 -0.3480965317
C  C569  1  0.78310000  0.96530000  0.35550000  1.0 -0.3480965317
C  C570  1  0.89610000  0.35550000  0.96530000  1.0 -0.3480965317
C  C571  1  0.78310000  0.35550000  0.89610000  1.0 -0.3480965317
C  C572  1  0.35550000  0.78310000  0.96530000  1.0 -0.3480965317
C  C573  1  0.96530000  0.89610000  0.35550000  1.0 -0.3480965317
C  C574  1  0.60390000  0.71690000  0.53470000  1.0 -0.3480965317
C  C575  1  0.71690000  0.53470000  0.60390000  1.0 -0.3480965317
C  C576  1  0.53470000  0.60390000  0.71690000  1.0 -0.3480965317
C  C577  1  0.26643000  0.16845000  0.06329000  1.0 -0.1811541004
C  C578  1  0.06329000  0.26643000  0.16845000  1.0 -0.1811541004
C  C579  1  0.16845000  0.06329000  0.26643000  1.0 -0.1811541004
C  C580  1  0.23357000  0.33155000  0.99817000  1.0 -0.1811541004
C  C581  1  0.43671000  0.99817000  0.33155000  1.0 -0.1811541004
C  C582  1  0.99817000  0.43671000  0.23357000  1.0 -0.1811541004
C  C583  1  0.43671000  0.23357000  0.99817000  1.0 -0.1811541004
C  C584  1  0.99817000  0.33155000  0.43671000  1.0 -0.1811541004
C  C585  1  0.33155000  0.99817000  0.23357000  1.0 -0.1811541004
C  C586  1  0.33155000  0.43671000  0.99817000  1.0 -0.1811541004
C  C587  1  0.23357000  0.99817000  0.43671000  1.0 -0.1811541004
C  C588  1  0.99817000  0.23357000  0.33155000  1.0 -0.1811541004
C  C589  1  0.16845000  0.26643000  0.50183000  1.0 -0.1811541004
C  C590  1  0.06329000  0.50183000  0.26643000  1.0 -0.1811541004
C  C591  1  0.50183000  0.06329000  0.16845000  1.0 -0.1811541004
C  C592  1  0.50183000  0.16845000  0.26643000  1.0 -0.1811541004
C  C593  1  0.26643000  0.06329000  0.50183000  1.0 -0.1811541004
C  C594  1  0.16845000  0.50183000  0.06329000  1.0 -0.1811541004
C  C595  1  0.26643000  0.50183000  0.16845000  1.0 -0.1811541004
C  C596  1  0.50183000  0.26643000  0.06329000  1.0 -0.1811541004
C  C597  1  0.06329000  0.16845000  0.50183000  1.0 -0.1811541004
C  C598  1  0.33155000  0.23357000  0.43671000  1.0 -0.1811541004
C  C599  1  0.23357000  0.43671000  0.33155000  1.0 -0.1811541004
C  C600  1  0.43671000  0.33155000  0.23357000  1.0 -0.1811541004
C  C601  1  0.73357000  0.83155000  0.93671000  1.0 -0.1811541004
C  C602  1  0.93671000  0.73357000  0.83155000  1.0 -0.1811541004
C  C603  1  0.83155000  0.93671000  0.73357000  1.0 -0.1811541004
C  C604  1  0.76643000  0.66845000  0.00183000  1.0 -0.1811541004
C  C605  1  0.56329000  0.00183000  0.66845000  1.0 -0.1811541004
C  C606  1  0.00183000  0.56329000  0.76643000  1.0 -0.1811541004
C  C607  1  0.56329000  0.76643000  0.00183000  1.0 -0.1811541004
C  C608  1  0.00183000  0.66845000  0.56329000  1.0 -0.1811541004
C  C609  1  0.66845000  0.00183000  0.76643000  1.0 -0.1811541004
C  C610  1  0.66845000  0.56329000  0.00183000  1.0 -0.1811541004
C  C611  1  0.76643000  0.00183000  0.56329000  1.0 -0.1811541004
C  C612  1  0.00183000  0.76643000  0.66845000  1.0 -0.1811541004
C  C613  1  0.83155000  0.73357000  0.49817000  1.0 -0.1811541004
C  C614  1  0.93671000  0.49817000  0.73357000  1.0 -0.1811541004
C  C615  1  0.49817000  0.93671000  0.83155000  1.0 -0.1811541004
C  C616  1  0.49817000  0.83155000  0.73357000  1.0 -0.1811541004
C  C617  1  0.73357000  0.93671000  0.49817000  1.0 -0.1811541004
C  C618  1  0.83155000  0.49817000  0.93671000  1.0 -0.1811541004
C  C619  1  0.73357000  0.49817000  0.83155000  1.0 -0.1811541004
C  C620  1  0.49817000  0.73357000  0.93671000  1.0 -0.1811541004
C  C621  1  0.93671000  0.83155000  0.49817000  1.0 -0.1811541004
C  C622  1  0.66845000  0.76643000  0.56329000  1.0 -0.1811541004
C  C623  1  0.76643000  0.56329000  0.66845000  1.0 -0.1811541004
C  C624  1  0.56329000  0.66845000  0.76643000  1.0 -0.1811541004
C  C625  1  0.26443000  0.16977000  0.10837000  1.0 -0.379364536
C  C626  1  0.10837000  0.26443000  0.16977000  1.0 -0.379364536
C  C627  1  0.16977000  0.10837000  0.26443000  1.0 -0.379364536
C  C628  1  0.23557000  0.33023000  0.04257000  1.0 -0.379364536
C  C629  1  0.39163000  0.04257000  0.33023000  1.0 -0.379364536
C  C630  1  0.04257000  0.39163000  0.23557000  1.0 -0.379364536
C  C631  1  0.39163000  0.23557000  0.04257000  1.0 -0.379364536
C  C632  1  0.04257000  0.33023000  0.39163000  1.0 -0.379364536
C  C633  1  0.33023000  0.04257000  0.23557000  1.0 -0.379364536
C  C634  1  0.33023000  0.39163000  0.04257000  1.0 -0.379364536
C  C635  1  0.23557000  0.04257000  0.39163000  1.0 -0.379364536
C  C636  1  0.04257000  0.23557000  0.33023000  1.0 -0.379364536
C  C637  1  0.16977000  0.26443000  0.45743000  1.0 -0.379364536
C  C638  1  0.10837000  0.45743000  0.26443000  1.0 -0.379364536
C  C639  1  0.45743000  0.10837000  0.16977000  1.0 -0.379364536
C  C640  1  0.45743000  0.16977000  0.26443000  1.0 -0.379364536
C  C641  1  0.26443000  0.10837000  0.45743000  1.0 -0.379364536
C  C642  1  0.16977000  0.45743000  0.10837000  1.0 -0.379364536
C  C643  1  0.26443000  0.45743000  0.16977000  1.0 -0.379364536
C  C644  1  0.45743000  0.26443000  0.10837000  1.0 -0.379364536
C  C645  1  0.10837000  0.16977000  0.45743000  1.0 -0.379364536
C  C646  1  0.33023000  0.23557000  0.39163000  1.0 -0.379364536
C  C647  1  0.23557000  0.39163000  0.33023000  1.0 -0.379364536
C  C648  1  0.39163000  0.33023000  0.23557000  1.0 -0.379364536
C  C649  1  0.73557000  0.83023000  0.89163000  1.0 -0.379364536
C  C650  1  0.89163000  0.73557000  0.83023000  1.0 -0.379364536
C  C651  1  0.83023000  0.89163000  0.73557000  1.0 -0.379364536
C  C652  1  0.76443000  0.66977000  0.95743000  1.0 -0.379364536
C  C653  1  0.60837000  0.95743000  0.66977000  1.0 -0.379364536
C  C654  1  0.95743000  0.60837000  0.76443000  1.0 -0.379364536
C  C655  1  0.60837000  0.76443000  0.95743000  1.0 -0.379364536
C  C656  1  0.95743000  0.66977000  0.60837000  1.0 -0.379364536
C  C657  1  0.66977000  0.95743000  0.76443000  1.0 -0.379364536
C  C658  1  0.66977000  0.60837000  0.95743000  1.0 -0.379364536
C  C659  1  0.76443000  0.95743000  0.60837000  1.0 -0.379364536
C  C660  1  0.95743000  0.76443000  0.66977000  1.0 -0.379364536
C  C661  1  0.83023000  0.73557000  0.54257000  1.0 -0.379364536
C  C662  1  0.89163000  0.54257000  0.73557000  1.0 -0.379364536
C  C663  1  0.54257000  0.89163000  0.83023000  1.0 -0.379364536
C  C664  1  0.54257000  0.83023000  0.73557000  1.0 -0.379364536
C  C665  1  0.73557000  0.89163000  0.54257000  1.0 -0.379364536
C  C666  1  0.83023000  0.54257000  0.89163000  1.0 -0.379364536
C  C667  1  0.73557000  0.54257000  0.83023000  1.0 -0.379364536
C  C668  1  0.54257000  0.73557000  0.89163000  1.0 -0.379364536
C  C669  1  0.89163000  0.83023000  0.54257000  1.0 -0.379364536
C  C670  1  0.66977000  0.76443000  0.60837000  1.0 -0.379364536
C  C671  1  0.76443000  0.60837000  0.66977000  1.0 -0.379364536
C  C672  1  0.60837000  0.66977000  0.76443000  1.0 -0.379364536
O  O1  1  0.41153000  0.00117000  0.05819000  1.0 -0.5702742272
O  O2  1  0.05819000  0.41153000  0.00117000  1.0 -0.5702742272
O  O3  1  0.00117000  0.05819000  0.41153000  1.0 -0.5702742272
O  O4  1  0.08847000  0.49883000  0.97089000  1.0 -0.5702742272
O  O5  1  0.44181000  0.97089000  0.49883000  1.0 -0.5702742272
O  O6  1  0.97089000  0.44181000  0.08847000  1.0 -0.5702742272
O  O7  1  0.44181000  0.08847000  0.97089000  1.0 -0.5702742272
O  O8  1  0.97089000  0.49883000  0.44181000  1.0 -0.5702742272
O  O9  1  0.49883000  0.97089000  0.08847000  1.0 -0.5702742272
O  O10  1  0.49883000  0.44181000  0.97089000  1.0 -0.5702742272
O  O11  1  0.08847000  0.97089000  0.44181000  1.0 -0.5702742272
O  O12  1  0.97089000  0.08847000  0.49883000  1.0 -0.5702742272
O  O13  1  0.00117000  0.41153000  0.52911000  1.0 -0.5702742272
O  O14  1  0.05819000  0.52911000  0.41153000  1.0 -0.5702742272
O  O15  1  0.52911000  0.05819000  0.00117000  1.0 -0.5702742272
O  O16  1  0.52911000  0.00117000  0.41153000  1.0 -0.5702742272
O  O17  1  0.41153000  0.05819000  0.52911000  1.0 -0.5702742272
O  O18  1  0.00117000  0.52911000  0.05819000  1.0 -0.5702742272
O  O19  1  0.41153000  0.52911000  0.00117000  1.0 -0.5702742272
O  O20  1  0.52911000  0.41153000  0.05819000  1.0 -0.5702742272
O  O21  1  0.05819000  0.00117000  0.52911000  1.0 -0.5702742272
O  O22  1  0.49883000  0.08847000  0.44181000  1.0 -0.5702742272
O  O23  1  0.08847000  0.44181000  0.49883000  1.0 -0.5702742272
O  O24  1  0.44181000  0.49883000  0.08847000  1.0 -0.5702742272
O  O25  1  0.58847000  0.99883000  0.94181000  1.0 -0.5702742272
O  O26  1  0.94181000  0.58847000  0.99883000  1.0 -0.5702742272
O  O27  1  0.99883000  0.94181000  0.58847000  1.0 -0.5702742272
O  O28  1  0.91153000  0.50117000  0.02911000  1.0 -0.5702742272
O  O29  1  0.55819000  0.02911000  0.50117000  1.0 -0.5702742272
O  O30  1  0.02911000  0.55819000  0.91153000  1.0 -0.5702742272
O  O31  1  0.55819000  0.91153000  0.02911000  1.0 -0.5702742272
O  O32  1  0.02911000  0.50117000  0.55819000  1.0 -0.5702742272
O  O33  1  0.50117000  0.02911000  0.91153000  1.0 -0.5702742272
O  O34  1  0.50117000  0.55819000  0.02911000  1.0 -0.5702742272
O  O35  1  0.91153000  0.02911000  0.55819000  1.0 -0.5702742272
O  O36  1  0.02911000  0.91153000  0.50117000  1.0 -0.5702742272
O  O37  1  0.99883000  0.58847000  0.47089000  1.0 -0.5702742272
O  O38  1  0.94181000  0.47089000  0.58847000  1.0 -0.5702742272
O  O39  1  0.47089000  0.94181000  0.99883000  1.0 -0.5702742272
O  O40  1  0.47089000  0.99883000  0.58847000  1.0 -0.5702742272
O  O41  1  0.58847000  0.94181000  0.47089000  1.0 -0.5702742272
O  O42  1  0.99883000  0.47089000  0.94181000  1.0 -0.5702742272
O  O43  1  0.58847000  0.47089000  0.99883000  1.0 -0.5702742272
O  O44  1  0.47089000  0.58847000  0.94181000  1.0 -0.5702742272
O  O45  1  0.94181000  0.99883000  0.47089000  1.0 -0.5702742272
O  O46  1  0.50117000  0.91153000  0.55819000  1.0 -0.5702742272
O  O47  1  0.91153000  0.55819000  0.50117000  1.0 -0.5702742272
O  O48  1  0.55819000  0.50117000  0.91153000  1.0 -0.5702742272
O  O49  1  0.44135000  0.03575000  0.89809000  1.0 -0.520612222
O  O50  1  0.89809000  0.44135000  0.03575000  1.0 -0.520612222
O  O51  1  0.03575000  0.89809000  0.44135000  1.0 -0.520612222
O  O52  1  0.05865000  0.46425000  0.87519000  1.0 -0.520612222
O  O53  1  0.60191000  0.87519000  0.46425000  1.0 -0.520612222
O  O54  1  0.87519000  0.60191000  0.05865000  1.0 -0.520612222
O  O55  1  0.60191000  0.05865000  0.87519000  1.0 -0.520612222
O  O56  1  0.87519000  0.46425000  0.60191000  1.0 -0.520612222
O  O57  1  0.46425000  0.87519000  0.05865000  1.0 -0.520612222
O  O58  1  0.46425000  0.60191000  0.87519000  1.0 -0.520612222
O  O59  1  0.05865000  0.87519000  0.60191000  1.0 -0.520612222
O  O60  1  0.87519000  0.05865000  0.46425000  1.0 -0.520612222
O  O61  1  0.03575000  0.44135000  0.62481000  1.0 -0.520612222
O  O62  1  0.89809000  0.62481000  0.44135000  1.0 -0.520612222
O  O63  1  0.62481000  0.89809000  0.03575000  1.0 -0.520612222
O  O64  1  0.62481000  0.03575000  0.44135000  1.0 -0.520612222
O  O65  1  0.44135000  0.89809000  0.62481000  1.0 -0.520612222
O  O66  1  0.03575000  0.62481000  0.89809000  1.0 -0.520612222
O  O67  1  0.44135000  0.62481000  0.03575000  1.0 -0.520612222
O  O68  1  0.62481000  0.44135000  0.89809000  1.0 -0.520612222
O  O69  1  0.89809000  0.03575000  0.62481000  1.0 -0.520612222
O  O70  1  0.46425000  0.05865000  0.60191000  1.0 -0.520612222
O  O71  1  0.05865000  0.60191000  0.46425000  1.0 -0.520612222
O  O72  1  0.60191000  0.46425000  0.05865000  1.0 -0.520612222
O  O73  1  0.55865000  0.96425000  0.10191000  1.0 -0.520612222
O  O74  1  0.10191000  0.55865000  0.96425000  1.0 -0.520612222
O  O75  1  0.96425000  0.10191000  0.55865000  1.0 -0.520612222
O  O76  1  0.94135000  0.53575000  0.12481000  1.0 -0.520612222
O  O77  1  0.39809000  0.12481000  0.53575000  1.0 -0.520612222
O  O78  1  0.12481000  0.39809000  0.94135000  1.0 -0.520612222
O  O79  1  0.39809000  0.94135000  0.12481000  1.0 -0.520612222
O  O80  1  0.12481000  0.53575000  0.39809000  1.0 -0.520612222
O  O81  1  0.53575000  0.12481000  0.94135000  1.0 -0.520612222
O  O82  1  0.53575000  0.39809000  0.12481000  1.0 -0.520612222
O  O83  1  0.94135000  0.12481000  0.39809000  1.0 -0.520612222
O  O84  1  0.12481000  0.94135000  0.53575000  1.0 -0.520612222
O  O85  1  0.96425000  0.55865000  0.37519000  1.0 -0.520612222
O  O86  1  0.10191000  0.37519000  0.55865000  1.0 -0.520612222
O  O87  1  0.37519000  0.10191000  0.96425000  1.0 -0.520612222
O  O88  1  0.37519000  0.96425000  0.55865000  1.0 -0.520612222
O  O89  1  0.55865000  0.10191000  0.37519000  1.0 -0.520612222
O  O90  1  0.96425000  0.37519000  0.10191000  1.0 -0.520612222
O  O91  1  0.55865000  0.37519000  0.96425000  1.0 -0.520612222
O  O92  1  0.37519000  0.55865000  0.10191000  1.0 -0.520612222
O  O93  1  0.10191000  0.96425000  0.37519000  1.0 -0.520612222
O  O94  1  0.53575000  0.94135000  0.39809000  1.0 -0.520612222
O  O95  1  0.94135000  0.39809000  0.53575000  1.0 -0.520612222
O  O96  1  0.39809000  0.53575000  0.94135000  1.0 -0.520612222
O  O97  1  0.50000000  0.00000000  0.00000000  1.0 0.0711019559
O  O98  1  0.00000000  0.50000000  0.00000000  1.0 0.0711019559
O  O99  1  0.00000000  0.00000000  0.50000000  1.0 0.0711019559
O  O100  1  0.50000000  0.00000000  0.50000000  1.0 0.0636481213
O  O101  1  0.00000000  0.50000000  0.50000000  1.0 0.0636481213
O  O102  1  0.50000000  0.50000000  0.00000000  1.0 0.0711019559
