# DDEC6 charges by PACMAN v1.1 (https://github.com/mtap-research/PACMAN-charge/)
data_BUFPAU_FSR_pacman
_symmetry_space_group_name_H-M   'P 1'
_cell_length_a   34.61080000
_cell_length_b   34.61080000
_cell_length_c   34.61080000
_cell_angle_alpha   60.00000000
_cell_angle_beta   60.00000000
_cell_angle_gamma   60.00000000
_symmetry_Int_Tables_number   1
_chemical_formula_structural   Cd4H104Pb8C112O25
_chemical_formula_sum   'Cd24 H624 Pb48 C672 O150'
_cell_volume   29317.02622263
_cell_formula_units_Z   6
loop_
 _symmetry_equiv_pos_site_id
 _symmetry_equiv_pos_as_xyz
  1  'x, y, z'
loop_
 _atom_site_type_symbol
 _atom_site_label
 _atom_site_symmetry_multiplicity
 _atom_site_fract_x
 _atom_site_fract_y
 _atom_site_fract_z
 _atom_site_occupancy
 _atom_site_charge
Cd  Cd1  1  0.47681000  0.92935000  0.52319000  1.0 0.1624930234
Cd  Cd2  1  0.52319000  0.47681000  0.92935000  1.0 0.1624930234
Cd  Cd3  1  0.92935000  0.52319000  0.47681000  1.0 0.1624930234
Cd  Cd4  1  0.02319000  0.57065000  0.42935000  1.0 0.1624930234
Cd  Cd5  1  0.97681000  0.42935000  0.57065000  1.0 0.1624930234
Cd  Cd6  1  0.42935000  0.97681000  0.02319000  1.0 0.1624930234
Cd  Cd7  1  0.97681000  0.02319000  0.42935000  1.0 0.1624930234
Cd  Cd8  1  0.42935000  0.57065000  0.97681000  1.0 0.1624930234
Cd  Cd9  1  0.57065000  0.42935000  0.02319000  1.0 0.1624930234
Cd  Cd10  1  0.57065000  0.97681000  0.42935000  1.0 0.1624930234
Cd  Cd11  1  0.02319000  0.42935000  0.97681000  1.0 0.1624930234
Cd  Cd12  1  0.42935000  0.02319000  0.57065000  1.0 0.1624930234
Cd  Cd13  1  0.92935000  0.47681000  0.07065000  1.0 0.1624930234
Cd  Cd14  1  0.52319000  0.07065000  0.47681000  1.0 0.1624930234
Cd  Cd15  1  0.07065000  0.52319000  0.92935000  1.0 0.1624930234
Cd  Cd16  1  0.07065000  0.92935000  0.47681000  1.0 0.1624930234
Cd  Cd17  1  0.47681000  0.52319000  0.07065000  1.0 0.1624930234
Cd  Cd18  1  0.92935000  0.07065000  0.52319000  1.0 0.1624930234
Cd  Cd19  1  0.47681000  0.07065000  0.92935000  1.0 0.1624930234
Cd  Cd20  1  0.07065000  0.47681000  0.52319000  1.0 0.1624930234
Cd  Cd21  1  0.52319000  0.92935000  0.07065000  1.0 0.1624930234
Cd  Cd22  1  0.57065000  0.02319000  0.97681000  1.0 0.1624930234
Cd  Cd23  1  0.02319000  0.97681000  0.57065000  1.0 0.1624930234
Cd  Cd24  1  0.97681000  0.57065000  0.02319000  1.0 0.1624930234
H  H1  1  0.33450000  0.06490000  0.53650000  1.0 0.1310206836
H  H2  1  0.53650000  0.33450000  0.06490000  1.0 0.1310206836
H  H3  1  0.06490000  0.53650000  0.33450000  1.0 0.1310206836
H  H4  1  0.16550000  0.43510000  0.43590000  1.0 0.1310206836
H  H5  1  0.96350000  0.43590000  0.43510000  1.0 0.1310206836
H  H6  1  0.43590000  0.96350000  0.16550000  1.0 0.1310206836
H  H7  1  0.96350000  0.16550000  0.43590000  1.0 0.1310206836
H  H8  1  0.43590000  0.43510000  0.96350000  1.0 0.1310206836
H  H9  1  0.43510000  0.43590000  0.16550000  1.0 0.1310206836
H  H10  1  0.43510000  0.96350000  0.43590000  1.0 0.1310206836
H  H11  1  0.16550000  0.43590000  0.96350000  1.0 0.1310206836
H  H12  1  0.43590000  0.16550000  0.43510000  1.0 0.1310206836
H  H13  1  0.06490000  0.33450000  0.06410000  1.0 0.1310206836
H  H14  1  0.53650000  0.06410000  0.33450000  1.0 0.1310206836
H  H15  1  0.06410000  0.53650000  0.06490000  1.0 0.1310206836
H  H16  1  0.06410000  0.06490000  0.33450000  1.0 0.1310206836
H  H17  1  0.33450000  0.53650000  0.06410000  1.0 0.1310206836
H  H18  1  0.06490000  0.06410000  0.53650000  1.0 0.1310206836
H  H19  1  0.33450000  0.06410000  0.06490000  1.0 0.1310206836
H  H20  1  0.06410000  0.33450000  0.53650000  1.0 0.1310206836
H  H21  1  0.53650000  0.06490000  0.06410000  1.0 0.1310206836
H  H22  1  0.43510000  0.16550000  0.96350000  1.0 0.1310206836
H  H23  1  0.16550000  0.96350000  0.43510000  1.0 0.1310206836
H  H24  1  0.96350000  0.43510000  0.16550000  1.0 0.1310206836
H  H25  1  0.66550000  0.93510000  0.46350000  1.0 0.1310206836
H  H26  1  0.46350000  0.66550000  0.93510000  1.0 0.1310206836
H  H27  1  0.93510000  0.46350000  0.66550000  1.0 0.1310206836
H  H28  1  0.83450000  0.56490000  0.56410000  1.0 0.1310206836
H  H29  1  0.03650000  0.56410000  0.56490000  1.0 0.1310206836
H  H30  1  0.56410000  0.03650000  0.83450000  1.0 0.1310206836
H  H31  1  0.03650000  0.83450000  0.56410000  1.0 0.1310206836
H  H32  1  0.56410000  0.56490000  0.03650000  1.0 0.1310206836
H  H33  1  0.56490000  0.56410000  0.83450000  1.0 0.1310206836
H  H34  1  0.56490000  0.03650000  0.56410000  1.0 0.1310206836
H  H35  1  0.83450000  0.56410000  0.03650000  1.0 0.1310206836
H  H36  1  0.56410000  0.83450000  0.56490000  1.0 0.1310206836
H  H37  1  0.93510000  0.66550000  0.93590000  1.0 0.1310206836
H  H38  1  0.46350000  0.93590000  0.66550000  1.0 0.1310206836
H  H39  1  0.93590000  0.46350000  0.93510000  1.0 0.1310206836
H  H40  1  0.93590000  0.93510000  0.66550000  1.0 0.1310206836
H  H41  1  0.66550000  0.46350000  0.93590000  1.0 0.1310206836
H  H42  1  0.93510000  0.93590000  0.46350000  1.0 0.1310206836
H  H43  1  0.66550000  0.93590000  0.93510000  1.0 0.1310206836
H  H44  1  0.93590000  0.66550000  0.46350000  1.0 0.1310206836
H  H45  1  0.46350000  0.93510000  0.93590000  1.0 0.1310206836
H  H46  1  0.56490000  0.83450000  0.03650000  1.0 0.1310206836
H  H47  1  0.83450000  0.03650000  0.56490000  1.0 0.1310206836
H  H48  1  0.03650000  0.56490000  0.83450000  1.0 0.1310206836
H  H49  1  0.22630000  0.00930000  0.55350000  1.0 0.1087300064
H  H50  1  0.55350000  0.22630000  0.00930000  1.0 0.1087300064
H  H51  1  0.00930000  0.55350000  0.22630000  1.0 0.1087300064
H  H52  1  0.27370000  0.49070000  0.28910000  1.0 0.1087300064
H  H53  1  0.94650000  0.28910000  0.49070000  1.0 0.1087300064
H  H54  1  0.28910000  0.94650000  0.27370000  1.0 0.1087300064
H  H55  1  0.94650000  0.27370000  0.28910000  1.0 0.1087300064
H  H56  1  0.28910000  0.49070000  0.94650000  1.0 0.1087300064
H  H57  1  0.49070000  0.28910000  0.27370000  1.0 0.1087300064
H  H58  1  0.49070000  0.94650000  0.28910000  1.0 0.1087300064
H  H59  1  0.27370000  0.28910000  0.94650000  1.0 0.1087300064
H  H60  1  0.28910000  0.27370000  0.49070000  1.0 0.1087300064
H  H61  1  0.00930000  0.22630000  0.21090000  1.0 0.1087300064
H  H62  1  0.55350000  0.21090000  0.22630000  1.0 0.1087300064
H  H63  1  0.21090000  0.55350000  0.00930000  1.0 0.1087300064
H  H64  1  0.21090000  0.00930000  0.22630000  1.0 0.1087300064
H  H65  1  0.22630000  0.55350000  0.21090000  1.0 0.1087300064
H  H66  1  0.00930000  0.21090000  0.55350000  1.0 0.1087300064
H  H67  1  0.22630000  0.21090000  0.00930000  1.0 0.1087300064
H  H68  1  0.21090000  0.22630000  0.55350000  1.0 0.1087300064
H  H69  1  0.55350000  0.00930000  0.21090000  1.0 0.1087300064
H  H70  1  0.49070000  0.27370000  0.94650000  1.0 0.1087300064
H  H71  1  0.27370000  0.94650000  0.49070000  1.0 0.1087300064
H  H72  1  0.94650000  0.49070000  0.27370000  1.0 0.1087300064
H  H73  1  0.77370000  0.99070000  0.44650000  1.0 0.1087300064
H  H74  1  0.44650000  0.77370000  0.99070000  1.0 0.1087300064
H  H75  1  0.99070000  0.44650000  0.77370000  1.0 0.1087300064
H  H76  1  0.72630000  0.50930000  0.71090000  1.0 0.1087300064
H  H77  1  0.05350000  0.71090000  0.50930000  1.0 0.1087300064
H  H78  1  0.71090000  0.05350000  0.72630000  1.0 0.1087300064
H  H79  1  0.05350000  0.72630000  0.71090000  1.0 0.1087300064
H  H80  1  0.71090000  0.50930000  0.05350000  1.0 0.1087300064
H  H81  1  0.50930000  0.71090000  0.72630000  1.0 0.1087300064
H  H82  1  0.50930000  0.05350000  0.71090000  1.0 0.1087300064
H  H83  1  0.72630000  0.71090000  0.05350000  1.0 0.1087300064
H  H84  1  0.71090000  0.72630000  0.50930000  1.0 0.1087300064
H  H85  1  0.99070000  0.77370000  0.78910000  1.0 0.1087300064
H  H86  1  0.44650000  0.78910000  0.77370000  1.0 0.1087300064
H  H87  1  0.78910000  0.44650000  0.99070000  1.0 0.1087300064
H  H88  1  0.78910000  0.99070000  0.77370000  1.0 0.1087300064
H  H89  1  0.77370000  0.44650000  0.78910000  1.0 0.1087300064
H  H90  1  0.99070000  0.78910000  0.44650000  1.0 0.1087300064
H  H91  1  0.77370000  0.78910000  0.99070000  1.0 0.1087300064
H  H92  1  0.78910000  0.77370000  0.44650000  1.0 0.1087300064
H  H93  1  0.44650000  0.99070000  0.78910000  1.0 0.1087300064
H  H94  1  0.50930000  0.72630000  0.05350000  1.0 0.1087300064
H  H95  1  0.72630000  0.05350000  0.50930000  1.0 0.1087300064
H  H96  1  0.05350000  0.50930000  0.72630000  1.0 0.1087300064
H  H97  1  0.30390000  0.96050000  0.54910000  1.0 0.1222679157
H  H98  1  0.54910000  0.30390000  0.96050000  1.0 0.1222679157
H  H99  1  0.96050000  0.54910000  0.30390000  1.0 0.1222679157
H  H100  1  0.19610000  0.53950000  0.31350000  1.0 0.1222679157
H  H101  1  0.95090000  0.31350000  0.53950000  1.0 0.1222679157
H  H102  1  0.31350000  0.95090000  0.19610000  1.0 0.1222679157
H  H103  1  0.95090000  0.19610000  0.31350000  1.0 0.1222679157
H  H104  1  0.31350000  0.53950000  0.95090000  1.0 0.1222679157
H  H105  1  0.53950000  0.31350000  0.19610000  1.0 0.1222679157
H  H106  1  0.53950000  0.95090000  0.31350000  1.0 0.1222679157
H  H107  1  0.19610000  0.31350000  0.95090000  1.0 0.1222679157
H  H108  1  0.31350000  0.19610000  0.53950000  1.0 0.1222679157
H  H109  1  0.96050000  0.30390000  0.18650000  1.0 0.1222679157
H  H110  1  0.54910000  0.18650000  0.30390000  1.0 0.1222679157
H  H111  1  0.18650000  0.54910000  0.96050000  1.0 0.1222679157
H  H112  1  0.18650000  0.96050000  0.30390000  1.0 0.1222679157
H  H113  1  0.30390000  0.54910000  0.18650000  1.0 0.1222679157
H  H114  1  0.96050000  0.18650000  0.54910000  1.0 0.1222679157
H  H115  1  0.30390000  0.18650000  0.96050000  1.0 0.1222679157
H  H116  1  0.18650000  0.30390000  0.54910000  1.0 0.1222679157
H  H117  1  0.54910000  0.96050000  0.18650000  1.0 0.1222679157
H  H118  1  0.53950000  0.19610000  0.95090000  1.0 0.1222679157
H  H119  1  0.19610000  0.95090000  0.53950000  1.0 0.1222679157
H  H120  1  0.95090000  0.53950000  0.19610000  1.0 0.1222679157
H  H121  1  0.69610000  0.03950000  0.45090000  1.0 0.1222679157
H  H122  1  0.45090000  0.69610000  0.03950000  1.0 0.1222679157
H  H123  1  0.03950000  0.45090000  0.69610000  1.0 0.1222679157
H  H124  1  0.80390000  0.46050000  0.68650000  1.0 0.1222679157
H  H125  1  0.04910000  0.68650000  0.46050000  1.0 0.1222679157
H  H126  1  0.68650000  0.04910000  0.80390000  1.0 0.1222679157
H  H127  1  0.04910000  0.80390000  0.68650000  1.0 0.1222679157
H  H128  1  0.68650000  0.46050000  0.04910000  1.0 0.1222679157
H  H129  1  0.46050000  0.68650000  0.80390000  1.0 0.1222679157
H  H130  1  0.46050000  0.04910000  0.68650000  1.0 0.1222679157
H  H131  1  0.80390000  0.68650000  0.04910000  1.0 0.1222679157
H  H132  1  0.68650000  0.80390000  0.46050000  1.0 0.1222679157
H  H133  1  0.03950000  0.69610000  0.81350000  1.0 0.1222679157
H  H134  1  0.45090000  0.81350000  0.69610000  1.0 0.1222679157
H  H135  1  0.81350000  0.45090000  0.03950000  1.0 0.1222679157
H  H136  1  0.81350000  0.03950000  0.69610000  1.0 0.1222679157
H  H137  1  0.69610000  0.45090000  0.81350000  1.0 0.1222679157
H  H138  1  0.03950000  0.81350000  0.45090000  1.0 0.1222679157
H  H139  1  0.69610000  0.81350000  0.03950000  1.0 0.1222679157
H  H140  1  0.81350000  0.69610000  0.45090000  1.0 0.1222679157
H  H141  1  0.45090000  0.03950000  0.81350000  1.0 0.1222679157
H  H142  1  0.46050000  0.80390000  0.04910000  1.0 0.1222679157
H  H143  1  0.80390000  0.04910000  0.46050000  1.0 0.1222679157
H  H144  1  0.04910000  0.46050000  0.80390000  1.0 0.1222679157
H  H145  1  0.23110000  0.16350000  0.59150000  1.0 0.0878666894
H  H146  1  0.59150000  0.23110000  0.16350000  1.0 0.0878666894
H  H147  1  0.16350000  0.59150000  0.23110000  1.0 0.0878666894
H  H148  1  0.26890000  0.33650000  0.48610000  1.0 0.0878666894
H  H149  1  0.90850000  0.48610000  0.33650000  1.0 0.0878666894
H  H150  1  0.48610000  0.90850000  0.26890000  1.0 0.0878666894
H  H151  1  0.90850000  0.26890000  0.48610000  1.0 0.0878666894
H  H152  1  0.48610000  0.33650000  0.90850000  1.0 0.0878666894
H  H153  1  0.33650000  0.48610000  0.26890000  1.0 0.0878666894
H  H154  1  0.33650000  0.90850000  0.48610000  1.0 0.0878666894
H  H155  1  0.26890000  0.48610000  0.90850000  1.0 0.0878666894
H  H156  1  0.48610000  0.26890000  0.33650000  1.0 0.0878666894
H  H157  1  0.16350000  0.23110000  0.01390000  1.0 0.0878666894
H  H158  1  0.59150000  0.01390000  0.23110000  1.0 0.0878666894
H  H159  1  0.01390000  0.59150000  0.16350000  1.0 0.0878666894
H  H160  1  0.01390000  0.16350000  0.23110000  1.0 0.0878666894
H  H161  1  0.23110000  0.59150000  0.01390000  1.0 0.0878666894
H  H162  1  0.16350000  0.01390000  0.59150000  1.0 0.0878666894
H  H163  1  0.23110000  0.01390000  0.16350000  1.0 0.0878666894
H  H164  1  0.01390000  0.23110000  0.59150000  1.0 0.0878666894
H  H165  1  0.59150000  0.16350000  0.01390000  1.0 0.0878666894
H  H166  1  0.33650000  0.26890000  0.90850000  1.0 0.0878666894
H  H167  1  0.26890000  0.90850000  0.33650000  1.0 0.0878666894
H  H168  1  0.90850000  0.33650000  0.26890000  1.0 0.0878666894
H  H169  1  0.76890000  0.83650000  0.40850000  1.0 0.0878666894
H  H170  1  0.40850000  0.76890000  0.83650000  1.0 0.0878666894
H  H171  1  0.83650000  0.40850000  0.76890000  1.0 0.0878666894
H  H172  1  0.73110000  0.66350000  0.51390000  1.0 0.0878666894
H  H173  1  0.09150000  0.51390000  0.66350000  1.0 0.0878666894
H  H174  1  0.51390000  0.09150000  0.73110000  1.0 0.0878666894
H  H175  1  0.09150000  0.73110000  0.51390000  1.0 0.0878666894
H  H176  1  0.51390000  0.66350000  0.09150000  1.0 0.0878666894
H  H177  1  0.66350000  0.51390000  0.73110000  1.0 0.0878666894
H  H178  1  0.66350000  0.09150000  0.51390000  1.0 0.0878666894
H  H179  1  0.73110000  0.51390000  0.09150000  1.0 0.0878666894
H  H180  1  0.51390000  0.73110000  0.66350000  1.0 0.0878666894
H  H181  1  0.83650000  0.76890000  0.98610000  1.0 0.0878666894
H  H182  1  0.40850000  0.98610000  0.76890000  1.0 0.0878666894
H  H183  1  0.98610000  0.40850000  0.83650000  1.0 0.0878666894
H  H184  1  0.98610000  0.83650000  0.76890000  1.0 0.0878666894
H  H185  1  0.76890000  0.40850000  0.98610000  1.0 0.0878666894
H  H186  1  0.83650000  0.98610000  0.40850000  1.0 0.0878666894
H  H187  1  0.76890000  0.98610000  0.83650000  1.0 0.0878666894
H  H188  1  0.98610000  0.76890000  0.40850000  1.0 0.0878666894
H  H189  1  0.40850000  0.83650000  0.98610000  1.0 0.0878666894
H  H190  1  0.66350000  0.73110000  0.09150000  1.0 0.0878666894
H  H191  1  0.73110000  0.09150000  0.66350000  1.0 0.0878666894
H  H192  1  0.09150000  0.66350000  0.73110000  1.0 0.0878666894
H  H193  1  0.27840000  0.11880000  0.58820000  1.0 0.1005223334
H  H194  1  0.58820000  0.27840000  0.11880000  1.0 0.1005223334
H  H195  1  0.11880000  0.58820000  0.27840000  1.0 0.1005223334
H  H196  1  0.22160000  0.38120000  0.48540000  1.0 0.1005223334
H  H197  1  0.91180000  0.48540000  0.38120000  1.0 0.1005223334
H  H198  1  0.48540000  0.91180000  0.22160000  1.0 0.1005223334
H  H199  1  0.91180000  0.22160000  0.48540000  1.0 0.1005223334
H  H200  1  0.48540000  0.38120000  0.91180000  1.0 0.1005223334
H  H201  1  0.38120000  0.48540000  0.22160000  1.0 0.1005223334
H  H202  1  0.38120000  0.91180000  0.48540000  1.0 0.1005223334
H  H203  1  0.22160000  0.48540000  0.91180000  1.0 0.1005223334
H  H204  1  0.48540000  0.22160000  0.38120000  1.0 0.1005223334
H  H205  1  0.11880000  0.27840000  0.01460000  1.0 0.1005223334
H  H206  1  0.58820000  0.01460000  0.27840000  1.0 0.1005223334
H  H207  1  0.01460000  0.58820000  0.11880000  1.0 0.1005223334
H  H208  1  0.01460000  0.11880000  0.27840000  1.0 0.1005223334
H  H209  1  0.27840000  0.58820000  0.01460000  1.0 0.1005223334
H  H210  1  0.11880000  0.01460000  0.58820000  1.0 0.1005223334
H  H211  1  0.27840000  0.01460000  0.11880000  1.0 0.1005223334
H  H212  1  0.01460000  0.27840000  0.58820000  1.0 0.1005223334
H  H213  1  0.58820000  0.11880000  0.01460000  1.0 0.1005223334
H  H214  1  0.38120000  0.22160000  0.91180000  1.0 0.1005223334
H  H215  1  0.22160000  0.91180000  0.38120000  1.0 0.1005223334
H  H216  1  0.91180000  0.38120000  0.22160000  1.0 0.1005223334
H  H217  1  0.72160000  0.88120000  0.41180000  1.0 0.1005223334
H  H218  1  0.41180000  0.72160000  0.88120000  1.0 0.1005223334
H  H219  1  0.88120000  0.41180000  0.72160000  1.0 0.1005223334
H  H220  1  0.77840000  0.61880000  0.51460000  1.0 0.1005223334
H  H221  1  0.08820000  0.51460000  0.61880000  1.0 0.1005223334
H  H222  1  0.51460000  0.08820000  0.77840000  1.0 0.1005223334
H  H223  1  0.08820000  0.77840000  0.51460000  1.0 0.1005223334
H  H224  1  0.51460000  0.61880000  0.08820000  1.0 0.1005223334
H  H225  1  0.61880000  0.51460000  0.77840000  1.0 0.1005223334
H  H226  1  0.61880000  0.08820000  0.51460000  1.0 0.1005223334
H  H227  1  0.77840000  0.51460000  0.08820000  1.0 0.1005223334
H  H228  1  0.51460000  0.77840000  0.61880000  1.0 0.1005223334
H  H229  1  0.88120000  0.72160000  0.98540000  1.0 0.1005223334
H  H230  1  0.41180000  0.98540000  0.72160000  1.0 0.1005223334
H  H231  1  0.98540000  0.41180000  0.88120000  1.0 0.1005223334
H  H232  1  0.98540000  0.88120000  0.72160000  1.0 0.1005223334
H  H233  1  0.72160000  0.41180000  0.98540000  1.0 0.1005223334
H  H234  1  0.88120000  0.98540000  0.41180000  1.0 0.1005223334
H  H235  1  0.72160000  0.98540000  0.88120000  1.0 0.1005223334
H  H236  1  0.98540000  0.72160000  0.41180000  1.0 0.1005223334
H  H237  1  0.41180000  0.88120000  0.98540000  1.0 0.1005223334
H  H238  1  0.61880000  0.77840000  0.08820000  1.0 0.1005223334
H  H239  1  0.77840000  0.08820000  0.61880000  1.0 0.1005223334
H  H240  1  0.08820000  0.61880000  0.77840000  1.0 0.1005223334
H  H241  1  0.18350000  0.10950000  0.64290000  1.0 0.1087300064
H  H242  1  0.64290000  0.18350000  0.10950000  1.0 0.1087300064
H  H243  1  0.10950000  0.64290000  0.18350000  1.0 0.1087300064
H  H244  1  0.31650000  0.39050000  0.43590000  1.0 0.1087300064
H  H245  1  0.85710000  0.43590000  0.39050000  1.0 0.1087300064
H  H246  1  0.43590000  0.85710000  0.31650000  1.0 0.1087300064
H  H247  1  0.85710000  0.31650000  0.43590000  1.0 0.1087300064
H  H248  1  0.43590000  0.39050000  0.85710000  1.0 0.1087300064
H  H249  1  0.39050000  0.43590000  0.31650000  1.0 0.1087300064
H  H250  1  0.39050000  0.85710000  0.43590000  1.0 0.1087300064
H  H251  1  0.31650000  0.43590000  0.85710000  1.0 0.1087300064
H  H252  1  0.43590000  0.31650000  0.39050000  1.0 0.1087300064
H  H253  1  0.10950000  0.18350000  0.06410000  1.0 0.1087300064
H  H254  1  0.64290000  0.06410000  0.18350000  1.0 0.1087300064
H  H255  1  0.06410000  0.64290000  0.10950000  1.0 0.1087300064
H  H256  1  0.06410000  0.10950000  0.18350000  1.0 0.1087300064
H  H257  1  0.18350000  0.64290000  0.06410000  1.0 0.1087300064
H  H258  1  0.10950000  0.06410000  0.64290000  1.0 0.1087300064
H  H259  1  0.18350000  0.06410000  0.10950000  1.0 0.1087300064
H  H260  1  0.06410000  0.18350000  0.64290000  1.0 0.1087300064
H  H261  1  0.64290000  0.10950000  0.06410000  1.0 0.1087300064
H  H262  1  0.39050000  0.31650000  0.85710000  1.0 0.1087300064
H  H263  1  0.31650000  0.85710000  0.39050000  1.0 0.1087300064
H  H264  1  0.85710000  0.39050000  0.31650000  1.0 0.1087300064
H  H265  1  0.81650000  0.89050000  0.35710000  1.0 0.1087300064
H  H266  1  0.35710000  0.81650000  0.89050000  1.0 0.1087300064
H  H267  1  0.89050000  0.35710000  0.81650000  1.0 0.1087300064
H  H268  1  0.68350000  0.60950000  0.56410000  1.0 0.1087300064
H  H269  1  0.14290000  0.56410000  0.60950000  1.0 0.1087300064
H  H270  1  0.56410000  0.14290000  0.68350000  1.0 0.1087300064
H  H271  1  0.14290000  0.68350000  0.56410000  1.0 0.1087300064
H  H272  1  0.56410000  0.60950000  0.14290000  1.0 0.1087300064
H  H273  1  0.60950000  0.56410000  0.68350000  1.0 0.1087300064
H  H274  1  0.60950000  0.14290000  0.56410000  1.0 0.1087300064
H  H275  1  0.68350000  0.56410000  0.14290000  1.0 0.1087300064
H  H276  1  0.56410000  0.68350000  0.60950000  1.0 0.1087300064
H  H277  1  0.89050000  0.81650000  0.93590000  1.0 0.1087300064
H  H278  1  0.35710000  0.93590000  0.81650000  1.0 0.1087300064
H  H279  1  0.93590000  0.35710000  0.89050000  1.0 0.1087300064
H  H280  1  0.93590000  0.89050000  0.81650000  1.0 0.1087300064
H  H281  1  0.81650000  0.35710000  0.93590000  1.0 0.1087300064
H  H282  1  0.89050000  0.93590000  0.35710000  1.0 0.1087300064
H  H283  1  0.81650000  0.93590000  0.89050000  1.0 0.1087300064
H  H284  1  0.93590000  0.81650000  0.35710000  1.0 0.1087300064
H  H285  1  0.35710000  0.89050000  0.93590000  1.0 0.1087300064
H  H286  1  0.60950000  0.68350000  0.14290000  1.0 0.1087300064
H  H287  1  0.68350000  0.14290000  0.60950000  1.0 0.1087300064
H  H288  1  0.14290000  0.60950000  0.68350000  1.0 0.1087300064
H  H289  1  0.21880000  0.09860000  0.66700000  1.0 0.1310206836
H  H290  1  0.66700000  0.21880000  0.09860000  1.0 0.1310206836
H  H291  1  0.09860000  0.66700000  0.21880000  1.0 0.1310206836
H  H292  1  0.28120000  0.40140000  0.48440000  1.0 0.1310206836
H  H293  1  0.83300000  0.48440000  0.40140000  1.0 0.1310206836
H  H294  1  0.48440000  0.83300000  0.28120000  1.0 0.1310206836
H  H295  1  0.83300000  0.28120000  0.48440000  1.0 0.1310206836
H  H296  1  0.48440000  0.40140000  0.83300000  1.0 0.1310206836
H  H297  1  0.40140000  0.48440000  0.28120000  1.0 0.1310206836
H  H298  1  0.40140000  0.83300000  0.48440000  1.0 0.1310206836
H  H299  1  0.28120000  0.48440000  0.83300000  1.0 0.1310206836
H  H300  1  0.48440000  0.28120000  0.40140000  1.0 0.1310206836
H  H301  1  0.09860000  0.21880000  0.01560000  1.0 0.1310206836
H  H302  1  0.66700000  0.01560000  0.21880000  1.0 0.1310206836
H  H303  1  0.01560000  0.66700000  0.09860000  1.0 0.1310206836
H  H304  1  0.01560000  0.09860000  0.21880000  1.0 0.1310206836
H  H305  1  0.21880000  0.66700000  0.01560000  1.0 0.1310206836
H  H306  1  0.09860000  0.01560000  0.66700000  1.0 0.1310206836
H  H307  1  0.21880000  0.01560000  0.09860000  1.0 0.1310206836
H  H308  1  0.01560000  0.21880000  0.66700000  1.0 0.1310206836
H  H309  1  0.66700000  0.09860000  0.01560000  1.0 0.1310206836
H  H310  1  0.40140000  0.28120000  0.83300000  1.0 0.1310206836
H  H311  1  0.28120000  0.83300000  0.40140000  1.0 0.1310206836
H  H312  1  0.83300000  0.40140000  0.28120000  1.0 0.1310206836
H  H313  1  0.78120000  0.90140000  0.33300000  1.0 0.1310206836
H  H314  1  0.33300000  0.78120000  0.90140000  1.0 0.1310206836
H  H315  1  0.90140000  0.33300000  0.78120000  1.0 0.1310206836
H  H316  1  0.71880000  0.59860000  0.51560000  1.0 0.1310206836
H  H317  1  0.16700000  0.51560000  0.59860000  1.0 0.1310206836
H  H318  1  0.51560000  0.16700000  0.71880000  1.0 0.1310206836
H  H319  1  0.16700000  0.71880000  0.51560000  1.0 0.1310206836
H  H320  1  0.51560000  0.59860000  0.16700000  1.0 0.1310206836
H  H321  1  0.59860000  0.51560000  0.71880000  1.0 0.1310206836
H  H322  1  0.59860000  0.16700000  0.51560000  1.0 0.1310206836
H  H323  1  0.71880000  0.51560000  0.16700000  1.0 0.1310206836
H  H324  1  0.51560000  0.71880000  0.59860000  1.0 0.1310206836
H  H325  1  0.90140000  0.78120000  0.98440000  1.0 0.1310206836
H  H326  1  0.33300000  0.98440000  0.78120000  1.0 0.1310206836
H  H327  1  0.98440000  0.33300000  0.90140000  1.0 0.1310206836
H  H328  1  0.98440000  0.90140000  0.78120000  1.0 0.1310206836
H  H329  1  0.78120000  0.33300000  0.98440000  1.0 0.1310206836
H  H330  1  0.90140000  0.98440000  0.33300000  1.0 0.1310206836
H  H331  1  0.78120000  0.98440000  0.90140000  1.0 0.1310206836
H  H332  1  0.98440000  0.78120000  0.33300000  1.0 0.1310206836
H  H333  1  0.33300000  0.90140000  0.98440000  1.0 0.1310206836
H  H334  1  0.59860000  0.71880000  0.16700000  1.0 0.1310206836
H  H335  1  0.71880000  0.16700000  0.59860000  1.0 0.1310206836
H  H336  1  0.16700000  0.59860000  0.71880000  1.0 0.1310206836
H  H337  1  0.23140000  0.06500000  0.64040000  1.0 0.1222679157
H  H338  1  0.64040000  0.23140000  0.06500000  1.0 0.1222679157
H  H339  1  0.06500000  0.64040000  0.23140000  1.0 0.1222679157
H  H340  1  0.26860000  0.43500000  0.43680000  1.0 0.1222679157
H  H341  1  0.85960000  0.43680000  0.43500000  1.0 0.1222679157
H  H342  1  0.43680000  0.85960000  0.26860000  1.0 0.1222679157
H  H343  1  0.85960000  0.26860000  0.43680000  1.0 0.1222679157
H  H344  1  0.43680000  0.43500000  0.85960000  1.0 0.1222679157
H  H345  1  0.43500000  0.43680000  0.26860000  1.0 0.1222679157
H  H346  1  0.43500000  0.85960000  0.43680000  1.0 0.1222679157
H  H347  1  0.26860000  0.43680000  0.85960000  1.0 0.1222679157
H  H348  1  0.43680000  0.26860000  0.43500000  1.0 0.1222679157
H  H349  1  0.06500000  0.23140000  0.06320000  1.0 0.1222679157
H  H350  1  0.64040000  0.06320000  0.23140000  1.0 0.1222679157
H  H351  1  0.06320000  0.64040000  0.06500000  1.0 0.1222679157
H  H352  1  0.06320000  0.06500000  0.23140000  1.0 0.1222679157
H  H353  1  0.23140000  0.64040000  0.06320000  1.0 0.1222679157
H  H354  1  0.06500000  0.06320000  0.64040000  1.0 0.1222679157
H  H355  1  0.23140000  0.06320000  0.06500000  1.0 0.1222679157
H  H356  1  0.06320000  0.23140000  0.64040000  1.0 0.1222679157
H  H357  1  0.64040000  0.06500000  0.06320000  1.0 0.1222679157
H  H358  1  0.43500000  0.26860000  0.85960000  1.0 0.1222679157
H  H359  1  0.26860000  0.85960000  0.43500000  1.0 0.1222679157
H  H360  1  0.85960000  0.43500000  0.26860000  1.0 0.1222679157
H  H361  1  0.76860000  0.93500000  0.35960000  1.0 0.1222679157
H  H362  1  0.35960000  0.76860000  0.93500000  1.0 0.1222679157
H  H363  1  0.93500000  0.35960000  0.76860000  1.0 0.1222679157
H  H364  1  0.73140000  0.56500000  0.56320000  1.0 0.1222679157
H  H365  1  0.14040000  0.56320000  0.56500000  1.0 0.1222679157
H  H366  1  0.56320000  0.14040000  0.73140000  1.0 0.1222679157
H  H367  1  0.14040000  0.73140000  0.56320000  1.0 0.1222679157
H  H368  1  0.56320000  0.56500000  0.14040000  1.0 0.1222679157
H  H369  1  0.56500000  0.56320000  0.73140000  1.0 0.1222679157
H  H370  1  0.56500000  0.14040000  0.56320000  1.0 0.1222679157
H  H371  1  0.73140000  0.56320000  0.14040000  1.0 0.1222679157
H  H372  1  0.56320000  0.73140000  0.56500000  1.0 0.1222679157
H  H373  1  0.93500000  0.76860000  0.93680000  1.0 0.1222679157
H  H374  1  0.35960000  0.93680000  0.76860000  1.0 0.1222679157
H  H375  1  0.93680000  0.35960000  0.93500000  1.0 0.1222679157
H  H376  1  0.93680000  0.93500000  0.76860000  1.0 0.1222679157
H  H377  1  0.76860000  0.35960000  0.93680000  1.0 0.1222679157
H  H378  1  0.93500000  0.93680000  0.35960000  1.0 0.1222679157
H  H379  1  0.76860000  0.93680000  0.93500000  1.0 0.1222679157
H  H380  1  0.93680000  0.76860000  0.35960000  1.0 0.1222679157
H  H381  1  0.35960000  0.93500000  0.93680000  1.0 0.1222679157
H  H382  1  0.56500000  0.73140000  0.14040000  1.0 0.1222679157
H  H383  1  0.73140000  0.14040000  0.56500000  1.0 0.1222679157
H  H384  1  0.14040000  0.56500000  0.73140000  1.0 0.1222679157
H  H385  1  0.25670000  0.19810000  0.49690000  1.0 0.0878666894
H  H386  1  0.49690000  0.25670000  0.19810000  1.0 0.0878666894
H  H387  1  0.19810000  0.49690000  0.25670000  1.0 0.0878666894
H  H388  1  0.24330000  0.30190000  0.45170000  1.0 0.0878666894
H  H389  1  0.00310000  0.45170000  0.30190000  1.0 0.0878666894
H  H390  1  0.45170000  0.00310000  0.24330000  1.0 0.0878666894
H  H391  1  0.00310000  0.24330000  0.45170000  1.0 0.0878666894
H  H392  1  0.45170000  0.30190000  0.00310000  1.0 0.0878666894
H  H393  1  0.30190000  0.45170000  0.24330000  1.0 0.0878666894
H  H394  1  0.30190000  0.00310000  0.45170000  1.0 0.0878666894
H  H395  1  0.24330000  0.45170000  0.00310000  1.0 0.0878666894
H  H396  1  0.45170000  0.24330000  0.30190000  1.0 0.0878666894
H  H397  1  0.19810000  0.25670000  0.04830000  1.0 0.0878666894
H  H398  1  0.49690000  0.04830000  0.25670000  1.0 0.0878666894
H  H399  1  0.04830000  0.49690000  0.19810000  1.0 0.0878666894
H  H400  1  0.04830000  0.19810000  0.25670000  1.0 0.0878666894
H  H401  1  0.25670000  0.49690000  0.04830000  1.0 0.0878666894
H  H402  1  0.19810000  0.04830000  0.49690000  1.0 0.0878666894
H  H403  1  0.25670000  0.04830000  0.19810000  1.0 0.0878666894
H  H404  1  0.04830000  0.25670000  0.49690000  1.0 0.0878666894
H  H405  1  0.49690000  0.19810000  0.04830000  1.0 0.0878666894
H  H406  1  0.30190000  0.24330000  0.00310000  1.0 0.0878666894
H  H407  1  0.24330000  0.00310000  0.30190000  1.0 0.0878666894
H  H408  1  0.00310000  0.30190000  0.24330000  1.0 0.0878666894
H  H409  1  0.74330000  0.80190000  0.50310000  1.0 0.0878666894
H  H410  1  0.50310000  0.74330000  0.80190000  1.0 0.0878666894
H  H411  1  0.80190000  0.50310000  0.74330000  1.0 0.0878666894
H  H412  1  0.75670000  0.69810000  0.54830000  1.0 0.0878666894
H  H413  1  0.99690000  0.54830000  0.69810000  1.0 0.0878666894
H  H414  1  0.54830000  0.99690000  0.75670000  1.0 0.0878666894
H  H415  1  0.99690000  0.75670000  0.54830000  1.0 0.0878666894
H  H416  1  0.54830000  0.69810000  0.99690000  1.0 0.0878666894
H  H417  1  0.69810000  0.54830000  0.75670000  1.0 0.0878666894
H  H418  1  0.69810000  0.99690000  0.54830000  1.0 0.0878666894
H  H419  1  0.75670000  0.54830000  0.99690000  1.0 0.0878666894
H  H420  1  0.54830000  0.75670000  0.69810000  1.0 0.0878666894
H  H421  1  0.80190000  0.74330000  0.95170000  1.0 0.0878666894
H  H422  1  0.50310000  0.95170000  0.74330000  1.0 0.0878666894
H  H423  1  0.95170000  0.50310000  0.80190000  1.0 0.0878666894
H  H424  1  0.95170000  0.80190000  0.74330000  1.0 0.0878666894
H  H425  1  0.74330000  0.50310000  0.95170000  1.0 0.0878666894
H  H426  1  0.80190000  0.95170000  0.50310000  1.0 0.0878666894
H  H427  1  0.74330000  0.95170000  0.80190000  1.0 0.0878666894
H  H428  1  0.95170000  0.74330000  0.50310000  1.0 0.0878666894
H  H429  1  0.50310000  0.80190000  0.95170000  1.0 0.0878666894
H  H430  1  0.69810000  0.75670000  0.99690000  1.0 0.0878666894
H  H431  1  0.75670000  0.99690000  0.69810000  1.0 0.0878666894
H  H432  1  0.99690000  0.69810000  0.75670000  1.0 0.0878666894
H  H433  1  0.30410000  0.15330000  0.49390000  1.0 0.1005223334
H  H434  1  0.49390000  0.30410000  0.15330000  1.0 0.1005223334
H  H435  1  0.15330000  0.49390000  0.30410000  1.0 0.1005223334
H  H436  1  0.19590000  0.34670000  0.45130000  1.0 0.1005223334
H  H437  1  0.00610000  0.45130000  0.34670000  1.0 0.1005223334
H  H438  1  0.45130000  0.00610000  0.19590000  1.0 0.1005223334
H  H439  1  0.00610000  0.19590000  0.45130000  1.0 0.1005223334
H  H440  1  0.45130000  0.34670000  0.00610000  1.0 0.1005223334
H  H441  1  0.34670000  0.45130000  0.19590000  1.0 0.1005223334
H  H442  1  0.34670000  0.00610000  0.45130000  1.0 0.1005223334
H  H443  1  0.19590000  0.45130000  0.00610000  1.0 0.1005223334
H  H444  1  0.45130000  0.19590000  0.34670000  1.0 0.1005223334
H  H445  1  0.15330000  0.30410000  0.04870000  1.0 0.1005223334
H  H446  1  0.49390000  0.04870000  0.30410000  1.0 0.1005223334
H  H447  1  0.04870000  0.49390000  0.15330000  1.0 0.1005223334
H  H448  1  0.04870000  0.15330000  0.30410000  1.0 0.1005223334
H  H449  1  0.30410000  0.49390000  0.04870000  1.0 0.1005223334
H  H450  1  0.15330000  0.04870000  0.49390000  1.0 0.1005223334
H  H451  1  0.30410000  0.04870000  0.15330000  1.0 0.1005223334
H  H452  1  0.04870000  0.30410000  0.49390000  1.0 0.1005223334
H  H453  1  0.49390000  0.15330000  0.04870000  1.0 0.1005223334
H  H454  1  0.34670000  0.19590000  0.00610000  1.0 0.1005223334
H  H455  1  0.19590000  0.00610000  0.34670000  1.0 0.1005223334
H  H456  1  0.00610000  0.34670000  0.19590000  1.0 0.1005223334
H  H457  1  0.69590000  0.84670000  0.50610000  1.0 0.1005223334
H  H458  1  0.50610000  0.69590000  0.84670000  1.0 0.1005223334
H  H459  1  0.84670000  0.50610000  0.69590000  1.0 0.1005223334
H  H460  1  0.80410000  0.65330000  0.54870000  1.0 0.1005223334
H  H461  1  0.99390000  0.54870000  0.65330000  1.0 0.1005223334
H  H462  1  0.54870000  0.99390000  0.80410000  1.0 0.1005223334
H  H463  1  0.99390000  0.80410000  0.54870000  1.0 0.1005223334
H  H464  1  0.54870000  0.65330000  0.99390000  1.0 0.1005223334
H  H465  1  0.65330000  0.54870000  0.80410000  1.0 0.1005223334
H  H466  1  0.65330000  0.99390000  0.54870000  1.0 0.1005223334
H  H467  1  0.80410000  0.54870000  0.99390000  1.0 0.1005223334
H  H468  1  0.54870000  0.80410000  0.65330000  1.0 0.1005223334
H  H469  1  0.84670000  0.69590000  0.95130000  1.0 0.1005223334
H  H470  1  0.50610000  0.95130000  0.69590000  1.0 0.1005223334
H  H471  1  0.95130000  0.50610000  0.84670000  1.0 0.1005223334
H  H472  1  0.95130000  0.84670000  0.69590000  1.0 0.1005223334
H  H473  1  0.69590000  0.50610000  0.95130000  1.0 0.1005223334
H  H474  1  0.84670000  0.95130000  0.50610000  1.0 0.1005223334
H  H475  1  0.69590000  0.95130000  0.84670000  1.0 0.1005223334
H  H476  1  0.95130000  0.69590000  0.50610000  1.0 0.1005223334
H  H477  1  0.50610000  0.84670000  0.95130000  1.0 0.1005223334
H  H478  1  0.65330000  0.80410000  0.99390000  1.0 0.1005223334
H  H479  1  0.80410000  0.99390000  0.65330000  1.0 0.1005223334
H  H480  1  0.99390000  0.65330000  0.80410000  1.0 0.1005223334
H  H481  1  0.27790000  0.13370000  0.45850000  1.0 0.1222679157
H  H482  1  0.45850000  0.27790000  0.13370000  1.0 0.1222679157
H  H483  1  0.13370000  0.45850000  0.27790000  1.0 0.1222679157
H  H484  1  0.22210000  0.36630000  0.37010000  1.0 0.1222679157
H  H485  1  0.04150000  0.37010000  0.36630000  1.0 0.1222679157
H  H486  1  0.37010000  0.04150000  0.22210000  1.0 0.1222679157
H  H487  1  0.04150000  0.22210000  0.37010000  1.0 0.1222679157
H  H488  1  0.37010000  0.36630000  0.04150000  1.0 0.1222679157
H  H489  1  0.36630000  0.37010000  0.22210000  1.0 0.1222679157
H  H490  1  0.36630000  0.04150000  0.37010000  1.0 0.1222679157
H  H491  1  0.22210000  0.37010000  0.04150000  1.0 0.1222679157
H  H492  1  0.37010000  0.22210000  0.36630000  1.0 0.1222679157
H  H493  1  0.13370000  0.27790000  0.12990000  1.0 0.1222679157
H  H494  1  0.45850000  0.12990000  0.27790000  1.0 0.1222679157
H  H495  1  0.12990000  0.45850000  0.13370000  1.0 0.1222679157
H  H496  1  0.12990000  0.13370000  0.27790000  1.0 0.1222679157
H  H497  1  0.27790000  0.45850000  0.12990000  1.0 0.1222679157
H  H498  1  0.13370000  0.12990000  0.45850000  1.0 0.1222679157
H  H499  1  0.27790000  0.12990000  0.13370000  1.0 0.1222679157
H  H500  1  0.12990000  0.27790000  0.45850000  1.0 0.1222679157
H  H501  1  0.45850000  0.13370000  0.12990000  1.0 0.1222679157
H  H502  1  0.36630000  0.22210000  0.04150000  1.0 0.1222679157
H  H503  1  0.22210000  0.04150000  0.36630000  1.0 0.1222679157
H  H504  1  0.04150000  0.36630000  0.22210000  1.0 0.1222679157
H  H505  1  0.72210000  0.86630000  0.54150000  1.0 0.1222679157
H  H506  1  0.54150000  0.72210000  0.86630000  1.0 0.1222679157
H  H507  1  0.86630000  0.54150000  0.72210000  1.0 0.1222679157
H  H508  1  0.77790000  0.63370000  0.62990000  1.0 0.1222679157
H  H509  1  0.95850000  0.62990000  0.63370000  1.0 0.1222679157
H  H510  1  0.62990000  0.95850000  0.77790000  1.0 0.1222679157
H  H511  1  0.95850000  0.77790000  0.62990000  1.0 0.1222679157
H  H512  1  0.62990000  0.63370000  0.95850000  1.0 0.1222679157
H  H513  1  0.63370000  0.62990000  0.77790000  1.0 0.1222679157
H  H514  1  0.63370000  0.95850000  0.62990000  1.0 0.1222679157
H  H515  1  0.77790000  0.62990000  0.95850000  1.0 0.1222679157
H  H516  1  0.62990000  0.77790000  0.63370000  1.0 0.1222679157
H  H517  1  0.86630000  0.72210000  0.87010000  1.0 0.1222679157
H  H518  1  0.54150000  0.87010000  0.72210000  1.0 0.1222679157
H  H519  1  0.87010000  0.54150000  0.86630000  1.0 0.1222679157
H  H520  1  0.87010000  0.86630000  0.72210000  1.0 0.1222679157
H  H521  1  0.72210000  0.54150000  0.87010000  1.0 0.1222679157
H  H522  1  0.86630000  0.87010000  0.54150000  1.0 0.1222679157
H  H523  1  0.72210000  0.87010000  0.86630000  1.0 0.1222679157
H  H524  1  0.87010000  0.72210000  0.54150000  1.0 0.1222679157
H  H525  1  0.54150000  0.86630000  0.87010000  1.0 0.1222679157
H  H526  1  0.63370000  0.77790000  0.95850000  1.0 0.1222679157
H  H527  1  0.77790000  0.95850000  0.63370000  1.0 0.1222679157
H  H528  1  0.95850000  0.63370000  0.77790000  1.0 0.1222679157
H  H529  1  0.28960000  0.18200000  0.42800000  1.0 0.1222679157
H  H530  1  0.42800000  0.28960000  0.18200000  1.0 0.1222679157
H  H531  1  0.18200000  0.42800000  0.28960000  1.0 0.1222679157
H  H532  1  0.21040000  0.31800000  0.39960000  1.0 0.1222679157
H  H533  1  0.07200000  0.39960000  0.31800000  1.0 0.1222679157
H  H534  1  0.39960000  0.07200000  0.21040000  1.0 0.1222679157
H  H535  1  0.07200000  0.21040000  0.39960000  1.0 0.1222679157
H  H536  1  0.39960000  0.31800000  0.07200000  1.0 0.1222679157
H  H537  1  0.31800000  0.39960000  0.21040000  1.0 0.1222679157
H  H538  1  0.31800000  0.07200000  0.39960000  1.0 0.1222679157
H  H539  1  0.21040000  0.39960000  0.07200000  1.0 0.1222679157
H  H540  1  0.39960000  0.21040000  0.31800000  1.0 0.1222679157
H  H541  1  0.18200000  0.28960000  0.10040000  1.0 0.1222679157
H  H542  1  0.42800000  0.10040000  0.28960000  1.0 0.1222679157
H  H543  1  0.10040000  0.42800000  0.18200000  1.0 0.1222679157
H  H544  1  0.10040000  0.18200000  0.28960000  1.0 0.1222679157
H  H545  1  0.28960000  0.42800000  0.10040000  1.0 0.1222679157
H  H546  1  0.18200000  0.10040000  0.42800000  1.0 0.1222679157
H  H547  1  0.28960000  0.10040000  0.18200000  1.0 0.1222679157
H  H548  1  0.10040000  0.28960000  0.42800000  1.0 0.1222679157
H  H549  1  0.42800000  0.18200000  0.10040000  1.0 0.1222679157
H  H550  1  0.31800000  0.21040000  0.07200000  1.0 0.1222679157
H  H551  1  0.21040000  0.07200000  0.31800000  1.0 0.1222679157
H  H552  1  0.07200000  0.31800000  0.21040000  1.0 0.1222679157
H  H553  1  0.71040000  0.81800000  0.57200000  1.0 0.1222679157
H  H554  1  0.57200000  0.71040000  0.81800000  1.0 0.1222679157
H  H555  1  0.81800000  0.57200000  0.71040000  1.0 0.1222679157
H  H556  1  0.78960000  0.68200000  0.60040000  1.0 0.1222679157
H  H557  1  0.92800000  0.60040000  0.68200000  1.0 0.1222679157
H  H558  1  0.60040000  0.92800000  0.78960000  1.0 0.1222679157
H  H559  1  0.92800000  0.78960000  0.60040000  1.0 0.1222679157
H  H560  1  0.60040000  0.68200000  0.92800000  1.0 0.1222679157
H  H561  1  0.68200000  0.60040000  0.78960000  1.0 0.1222679157
H  H562  1  0.68200000  0.92800000  0.60040000  1.0 0.1222679157
H  H563  1  0.78960000  0.60040000  0.92800000  1.0 0.1222679157
H  H564  1  0.60040000  0.78960000  0.68200000  1.0 0.1222679157
H  H565  1  0.81800000  0.71040000  0.89960000  1.0 0.1222679157
H  H566  1  0.57200000  0.89960000  0.71040000  1.0 0.1222679157
H  H567  1  0.89960000  0.57200000  0.81800000  1.0 0.1222679157
H  H568  1  0.89960000  0.81800000  0.71040000  1.0 0.1222679157
H  H569  1  0.71040000  0.57200000  0.89960000  1.0 0.1222679157
H  H570  1  0.81800000  0.89960000  0.57200000  1.0 0.1222679157
H  H571  1  0.71040000  0.89960000  0.81800000  1.0 0.1222679157
H  H572  1  0.89960000  0.71040000  0.57200000  1.0 0.1222679157
H  H573  1  0.57200000  0.81800000  0.89960000  1.0 0.1222679157
H  H574  1  0.68200000  0.78960000  0.92800000  1.0 0.1222679157
H  H575  1  0.78960000  0.92800000  0.68200000  1.0 0.1222679157
H  H576  1  0.92800000  0.68200000  0.78960000  1.0 0.1222679157
H  H577  1  0.23580000  0.18340000  0.45620000  1.0 0.1222679157
H  H578  1  0.45620000  0.23580000  0.18340000  1.0 0.1222679157
H  H579  1  0.18340000  0.45620000  0.23580000  1.0 0.1222679157
H  H580  1  0.26420000  0.31660000  0.37540000  1.0 0.1222679157
H  H581  1  0.04380000  0.37540000  0.31660000  1.0 0.1222679157
H  H582  1  0.37540000  0.04380000  0.26420000  1.0 0.1222679157
H  H583  1  0.04380000  0.26420000  0.37540000  1.0 0.1222679157
H  H584  1  0.37540000  0.31660000  0.04380000  1.0 0.1222679157
H  H585  1  0.31660000  0.37540000  0.26420000  1.0 0.1222679157
H  H586  1  0.31660000  0.04380000  0.37540000  1.0 0.1222679157
H  H587  1  0.26420000  0.37540000  0.04380000  1.0 0.1222679157
H  H588  1  0.37540000  0.26420000  0.31660000  1.0 0.1222679157
H  H589  1  0.18340000  0.23580000  0.12460000  1.0 0.1222679157
H  H590  1  0.45620000  0.12460000  0.23580000  1.0 0.1222679157
H  H591  1  0.12460000  0.45620000  0.18340000  1.0 0.1222679157
H  H592  1  0.12460000  0.18340000  0.23580000  1.0 0.1222679157
H  H593  1  0.23580000  0.45620000  0.12460000  1.0 0.1222679157
H  H594  1  0.18340000  0.12460000  0.45620000  1.0 0.1222679157
H  H595  1  0.23580000  0.12460000  0.18340000  1.0 0.1222679157
H  H596  1  0.12460000  0.23580000  0.45620000  1.0 0.1222679157
H  H597  1  0.45620000  0.18340000  0.12460000  1.0 0.1222679157
H  H598  1  0.31660000  0.26420000  0.04380000  1.0 0.1222679157
H  H599  1  0.26420000  0.04380000  0.31660000  1.0 0.1222679157
H  H600  1  0.04380000  0.31660000  0.26420000  1.0 0.1222679157
H  H601  1  0.76420000  0.81660000  0.54380000  1.0 0.1222679157
H  H602  1  0.54380000  0.76420000  0.81660000  1.0 0.1222679157
H  H603  1  0.81660000  0.54380000  0.76420000  1.0 0.1222679157
H  H604  1  0.73580000  0.68340000  0.62460000  1.0 0.1222679157
H  H605  1  0.95620000  0.62460000  0.68340000  1.0 0.1222679157
H  H606  1  0.62460000  0.95620000  0.73580000  1.0 0.1222679157
H  H607  1  0.95620000  0.73580000  0.62460000  1.0 0.1222679157
H  H608  1  0.62460000  0.68340000  0.95620000  1.0 0.1222679157
H  H609  1  0.68340000  0.62460000  0.73580000  1.0 0.1222679157
H  H610  1  0.68340000  0.95620000  0.62460000  1.0 0.1222679157
H  H611  1  0.73580000  0.62460000  0.95620000  1.0 0.1222679157
H  H612  1  0.62460000  0.73580000  0.68340000  1.0 0.1222679157
H  H613  1  0.81660000  0.76420000  0.87540000  1.0 0.1222679157
H  H614  1  0.54380000  0.87540000  0.76420000  1.0 0.1222679157
H  H615  1  0.87540000  0.54380000  0.81660000  1.0 0.1222679157
H  H616  1  0.87540000  0.81660000  0.76420000  1.0 0.1222679157
H  H617  1  0.76420000  0.54380000  0.87540000  1.0 0.1222679157
H  H618  1  0.81660000  0.87540000  0.54380000  1.0 0.1222679157
H  H619  1  0.76420000  0.87540000  0.81660000  1.0 0.1222679157
H  H620  1  0.87540000  0.76420000  0.54380000  1.0 0.1222679157
H  H621  1  0.54380000  0.81660000  0.87540000  1.0 0.1222679157
H  H622  1  0.68340000  0.73580000  0.95620000  1.0 0.1222679157
H  H623  1  0.73580000  0.95620000  0.68340000  1.0 0.1222679157
H  H624  1  0.95620000  0.68340000  0.73580000  1.0 0.1222679157
Pb  Pb1  1  0.47268000  0.91468000  0.52732000  1.0 0.2522171556
Pb  Pb2  1  0.52732000  0.47268000  0.91468000  1.0 0.2522171556
Pb  Pb3  1  0.91468000  0.52732000  0.47268000  1.0 0.2522171556
Pb  Pb4  1  0.02732000  0.58532000  0.41468000  1.0 0.2522171556
Pb  Pb5  1  0.97268000  0.41468000  0.58532000  1.0 0.2522171556
Pb  Pb6  1  0.41468000  0.97268000  0.02732000  1.0 0.2522171556
Pb  Pb7  1  0.97268000  0.02732000  0.41468000  1.0 0.2522171556
Pb  Pb8  1  0.41468000  0.58532000  0.97268000  1.0 0.2522171556
Pb  Pb9  1  0.58532000  0.41468000  0.02732000  1.0 0.2522171556
Pb  Pb10  1  0.58532000  0.97268000  0.41468000  1.0 0.2522171556
Pb  Pb11  1  0.02732000  0.41468000  0.97268000  1.0 0.2522171556
Pb  Pb12  1  0.41468000  0.02732000  0.58532000  1.0 0.2522171556
Pb  Pb13  1  0.91468000  0.47268000  0.08532000  1.0 0.2522171556
Pb  Pb14  1  0.52732000  0.08532000  0.47268000  1.0 0.2522171556
Pb  Pb15  1  0.08532000  0.52732000  0.91468000  1.0 0.2522171556
Pb  Pb16  1  0.08532000  0.91468000  0.47268000  1.0 0.2522171556
Pb  Pb17  1  0.47268000  0.52732000  0.08532000  1.0 0.2522171556
Pb  Pb18  1  0.91468000  0.08532000  0.52732000  1.0 0.2522171556
Pb  Pb19  1  0.47268000  0.08532000  0.91468000  1.0 0.2522171556
Pb  Pb20  1  0.08532000  0.47268000  0.52732000  1.0 0.2522171556
Pb  Pb21  1  0.52732000  0.91468000  0.08532000  1.0 0.2522171556
Pb  Pb22  1  0.58532000  0.02732000  0.97268000  1.0 0.2522171556
Pb  Pb23  1  0.02732000  0.97268000  0.58532000  1.0 0.2522171556
Pb  Pb24  1  0.97268000  0.58532000  0.02732000  1.0 0.2522171556
Pb  Pb25  1  0.46756000  0.89810000  0.53244000  1.0 0.2278640997
Pb  Pb26  1  0.53244000  0.46756000  0.89810000  1.0 0.2278640997
Pb  Pb27  1  0.89810000  0.53244000  0.46756000  1.0 0.2278640997
Pb  Pb28  1  0.03244000  0.60190000  0.39810000  1.0 0.2278640997
Pb  Pb29  1  0.96756000  0.39810000  0.60190000  1.0 0.2278640997
Pb  Pb30  1  0.39810000  0.96756000  0.03244000  1.0 0.2278640997
Pb  Pb31  1  0.96756000  0.03244000  0.39810000  1.0 0.2278640997
Pb  Pb32  1  0.39810000  0.60190000  0.96756000  1.0 0.2278640997
Pb  Pb33  1  0.60190000  0.39810000  0.03244000  1.0 0.2278640997
Pb  Pb34  1  0.60190000  0.96756000  0.39810000  1.0 0.2278640997
Pb  Pb35  1  0.03244000  0.39810000  0.96756000  1.0 0.2278640997
Pb  Pb36  1  0.39810000  0.03244000  0.60190000  1.0 0.2278640997
Pb  Pb37  1  0.89810000  0.46756000  0.10190000  1.0 0.2278640997
Pb  Pb38  1  0.53244000  0.10190000  0.46756000  1.0 0.2278640997
Pb  Pb39  1  0.10190000  0.53244000  0.89810000  1.0 0.2278640997
Pb  Pb40  1  0.10190000  0.89810000  0.46756000  1.0 0.2278640997
Pb  Pb41  1  0.46756000  0.53244000  0.10190000  1.0 0.2278640997
Pb  Pb42  1  0.89810000  0.10190000  0.53244000  1.0 0.2278640997
Pb  Pb43  1  0.46756000  0.10190000  0.89810000  1.0 0.2278640997
Pb  Pb44  1  0.10190000  0.46756000  0.53244000  1.0 0.2278640997
Pb  Pb45  1  0.53244000  0.89810000  0.10190000  1.0 0.2278640997
Pb  Pb46  1  0.60190000  0.03244000  0.96756000  1.0 0.2278640997
Pb  Pb47  1  0.03244000  0.96756000  0.60190000  1.0 0.2278640997
Pb  Pb48  1  0.96756000  0.60190000  0.03244000  1.0 0.2278640997
C  C1  1  0.37563000  0.97617000  0.54075000  1.0 0.4159977989
C  C2  1  0.54075000  0.37563000  0.97617000  1.0 0.4159977989
C  C3  1  0.97617000  0.54075000  0.37563000  1.0 0.4159977989
C  C4  1  0.12437000  0.52383000  0.39255000  1.0 0.4159977989
C  C5  1  0.95925000  0.39255000  0.52383000  1.0 0.4159977989
C  C6  1  0.39255000  0.95925000  0.12437000  1.0 0.4159977989
C  C7  1  0.95925000  0.12437000  0.39255000  1.0 0.4159977989
C  C8  1  0.39255000  0.52383000  0.95925000  1.0 0.4159977989
C  C9  1  0.52383000  0.39255000  0.12437000  1.0 0.4159977989
C  C10  1  0.52383000  0.95925000  0.39255000  1.0 0.4159977989
C  C11  1  0.12437000  0.39255000  0.95925000  1.0 0.4159977989
C  C12  1  0.39255000  0.12437000  0.52383000  1.0 0.4159977989
C  C13  1  0.97617000  0.37563000  0.10745000  1.0 0.4159977989
C  C14  1  0.54075000  0.10745000  0.37563000  1.0 0.4159977989
C  C15  1  0.10745000  0.54075000  0.97617000  1.0 0.4159977989
C  C16  1  0.10745000  0.97617000  0.37563000  1.0 0.4159977989
C  C17  1  0.37563000  0.54075000  0.10745000  1.0 0.4159977989
C  C18  1  0.97617000  0.10745000  0.54075000  1.0 0.4159977989
C  C19  1  0.37563000  0.10745000  0.97617000  1.0 0.4159977989
C  C20  1  0.10745000  0.37563000  0.54075000  1.0 0.4159977989
C  C21  1  0.54075000  0.97617000  0.10745000  1.0 0.4159977989
C  C22  1  0.52383000  0.12437000  0.95925000  1.0 0.4159977989
C  C23  1  0.12437000  0.95925000  0.52383000  1.0 0.4159977989
C  C24  1  0.95925000  0.52383000  0.12437000  1.0 0.4159977989
C  C25  1  0.62437000  0.02383000  0.45925000  1.0 0.4159977989
C  C26  1  0.45925000  0.62437000  0.02383000  1.0 0.4159977989
C  C27  1  0.02383000  0.45925000  0.62437000  1.0 0.4159977989
C  C28  1  0.87563000  0.47617000  0.60745000  1.0 0.4159977989
C  C29  1  0.04075000  0.60745000  0.47617000  1.0 0.4159977989
C  C30  1  0.60745000  0.04075000  0.87563000  1.0 0.4159977989
C  C31  1  0.04075000  0.87563000  0.60745000  1.0 0.4159977989
C  C32  1  0.60745000  0.47617000  0.04075000  1.0 0.4159977989
C  C33  1  0.47617000  0.60745000  0.87563000  1.0 0.4159977989
C  C34  1  0.47617000  0.04075000  0.60745000  1.0 0.4159977989
C  C35  1  0.87563000  0.60745000  0.04075000  1.0 0.4159977989
C  C36  1  0.60745000  0.87563000  0.47617000  1.0 0.4159977989
C  C37  1  0.02383000  0.62437000  0.89255000  1.0 0.4159977989
C  C38  1  0.45925000  0.89255000  0.62437000  1.0 0.4159977989
C  C39  1  0.89255000  0.45925000  0.02383000  1.0 0.4159977989
C  C40  1  0.89255000  0.02383000  0.62437000  1.0 0.4159977989
C  C41  1  0.62437000  0.45925000  0.89255000  1.0 0.4159977989
C  C42  1  0.02383000  0.89255000  0.45925000  1.0 0.4159977989
C  C43  1  0.62437000  0.89255000  0.02383000  1.0 0.4159977989
C  C44  1  0.89255000  0.62437000  0.45925000  1.0 0.4159977989
C  C45  1  0.45925000  0.02383000  0.89255000  1.0 0.4159977989
C  C46  1  0.47617000  0.87563000  0.04075000  1.0 0.4159977989
C  C47  1  0.87563000  0.04075000  0.47617000  1.0 0.4159977989
C  C48  1  0.04075000  0.47617000  0.87563000  1.0 0.4159977989
C  C49  1  0.32575000  0.00699000  0.54487000  1.0 -0.0271333711
C  C50  1  0.54487000  0.32575000  0.00699000  1.0 -0.0271333711
C  C51  1  0.00699000  0.54487000  0.32575000  1.0 -0.0271333711
C  C52  1  0.17425000  0.49301000  0.37761000  1.0 -0.0271333711
C  C53  1  0.95513000  0.37761000  0.49301000  1.0 -0.0271333711
C  C54  1  0.37761000  0.95513000  0.17425000  1.0 -0.0271333711
C  C55  1  0.95513000  0.17425000  0.37761000  1.0 -0.0271333711
C  C56  1  0.37761000  0.49301000  0.95513000  1.0 -0.0271333711
C  C57  1  0.49301000  0.37761000  0.17425000  1.0 -0.0271333711
C  C58  1  0.49301000  0.95513000  0.37761000  1.0 -0.0271333711
C  C59  1  0.17425000  0.37761000  0.95513000  1.0 -0.0271333711
C  C60  1  0.37761000  0.17425000  0.49301000  1.0 -0.0271333711
C  C61  1  0.00699000  0.32575000  0.12239000  1.0 -0.0271333711
C  C62  1  0.54487000  0.12239000  0.32575000  1.0 -0.0271333711
C  C63  1  0.12239000  0.54487000  0.00699000  1.0 -0.0271333711
C  C64  1  0.12239000  0.00699000  0.32575000  1.0 -0.0271333711
C  C65  1  0.32575000  0.54487000  0.12239000  1.0 -0.0271333711
C  C66  1  0.00699000  0.12239000  0.54487000  1.0 -0.0271333711
C  C67  1  0.32575000  0.12239000  0.00699000  1.0 -0.0271333711
C  C68  1  0.12239000  0.32575000  0.54487000  1.0 -0.0271333711
C  C69  1  0.54487000  0.00699000  0.12239000  1.0 -0.0271333711
C  C70  1  0.49301000  0.17425000  0.95513000  1.0 -0.0271333711
C  C71  1  0.17425000  0.95513000  0.49301000  1.0 -0.0271333711
C  C72  1  0.95513000  0.49301000  0.17425000  1.0 -0.0271333711
C  C73  1  0.67425000  0.99301000  0.45513000  1.0 -0.0271333711
C  C74  1  0.45513000  0.67425000  0.99301000  1.0 -0.0271333711
C  C75  1  0.99301000  0.45513000  0.67425000  1.0 -0.0271333711
C  C76  1  0.82575000  0.50699000  0.62239000  1.0 -0.0271333711
C  C77  1  0.04487000  0.62239000  0.50699000  1.0 -0.0271333711
C  C78  1  0.62239000  0.04487000  0.82575000  1.0 -0.0271333711
C  C79  1  0.04487000  0.82575000  0.62239000  1.0 -0.0271333711
C  C80  1  0.62239000  0.50699000  0.04487000  1.0 -0.0271333711
C  C81  1  0.50699000  0.62239000  0.82575000  1.0 -0.0271333711
C  C82  1  0.50699000  0.04487000  0.62239000  1.0 -0.0271333711
C  C83  1  0.82575000  0.62239000  0.04487000  1.0 -0.0271333711
C  C84  1  0.62239000  0.82575000  0.50699000  1.0 -0.0271333711
C  C85  1  0.99301000  0.67425000  0.87761000  1.0 -0.0271333711
C  C86  1  0.45513000  0.87761000  0.67425000  1.0 -0.0271333711
C  C87  1  0.87761000  0.45513000  0.99301000  1.0 -0.0271333711
C  C88  1  0.87761000  0.99301000  0.67425000  1.0 -0.0271333711
C  C89  1  0.67425000  0.45513000  0.87761000  1.0 -0.0271333711
C  C90  1  0.99301000  0.87761000  0.45513000  1.0 -0.0271333711
C  C91  1  0.67425000  0.87761000  0.99301000  1.0 -0.0271333711
C  C92  1  0.87761000  0.67425000  0.45513000  1.0 -0.0271333711
C  C93  1  0.45513000  0.99301000  0.87761000  1.0 -0.0271333711
C  C94  1  0.50699000  0.82575000  0.04487000  1.0 -0.0271333711
C  C95  1  0.82575000  0.04487000  0.50699000  1.0 -0.0271333711
C  C96  1  0.04487000  0.50699000  0.82575000  1.0 -0.0271333711
C  C97  1  0.31211000  0.05329000  0.54131000  1.0 -0.1221101723
C  C98  1  0.54131000  0.31211000  0.05329000  1.0 -0.1221101723
C  C99  1  0.05329000  0.54131000  0.31211000  1.0 -0.1221101723
C  C100  1  0.18789000  0.44671000  0.40671000  1.0 -0.1221101723
C  C101  1  0.95869000  0.40671000  0.44671000  1.0 -0.1221101723
C  C102  1  0.40671000  0.95869000  0.18789000  1.0 -0.1221101723
C  C103  1  0.95869000  0.18789000  0.40671000  1.0 -0.1221101723
C  C104  1  0.40671000  0.44671000  0.95869000  1.0 -0.1221101723
C  C105  1  0.44671000  0.40671000  0.18789000  1.0 -0.1221101723
C  C106  1  0.44671000  0.95869000  0.40671000  1.0 -0.1221101723
C  C107  1  0.18789000  0.40671000  0.95869000  1.0 -0.1221101723
C  C108  1  0.40671000  0.18789000  0.44671000  1.0 -0.1221101723
C  C109  1  0.05329000  0.31211000  0.09329000  1.0 -0.1221101723
C  C110  1  0.54131000  0.09329000  0.31211000  1.0 -0.1221101723
C  C111  1  0.09329000  0.54131000  0.05329000  1.0 -0.1221101723
C  C112  1  0.09329000  0.05329000  0.31211000  1.0 -0.1221101723
C  C113  1  0.31211000  0.54131000  0.09329000  1.0 -0.1221101723
C  C114  1  0.05329000  0.09329000  0.54131000  1.0 -0.1221101723
C  C115  1  0.31211000  0.09329000  0.05329000  1.0 -0.1221101723
C  C116  1  0.09329000  0.31211000  0.54131000  1.0 -0.1221101723
C  C117  1  0.54131000  0.05329000  0.09329000  1.0 -0.1221101723
C  C118  1  0.44671000  0.18789000  0.95869000  1.0 -0.1221101723
C  C119  1  0.18789000  0.95869000  0.44671000  1.0 -0.1221101723
C  C120  1  0.95869000  0.44671000  0.18789000  1.0 -0.1221101723
C  C121  1  0.68789000  0.94671000  0.45869000  1.0 -0.1221101723
C  C122  1  0.45869000  0.68789000  0.94671000  1.0 -0.1221101723
C  C123  1  0.94671000  0.45869000  0.68789000  1.0 -0.1221101723
C  C124  1  0.81211000  0.55329000  0.59329000  1.0 -0.1221101723
C  C125  1  0.04131000  0.59329000  0.55329000  1.0 -0.1221101723
C  C126  1  0.59329000  0.04131000  0.81211000  1.0 -0.1221101723
C  C127  1  0.04131000  0.81211000  0.59329000  1.0 -0.1221101723
C  C128  1  0.59329000  0.55329000  0.04131000  1.0 -0.1221101723
C  C129  1  0.55329000  0.59329000  0.81211000  1.0 -0.1221101723
C  C130  1  0.55329000  0.04131000  0.59329000  1.0 -0.1221101723
C  C131  1  0.81211000  0.59329000  0.04131000  1.0 -0.1221101723
C  C132  1  0.59329000  0.81211000  0.55329000  1.0 -0.1221101723
C  C133  1  0.94671000  0.68789000  0.90671000  1.0 -0.1221101723
C  C134  1  0.45869000  0.90671000  0.68789000  1.0 -0.1221101723
C  C135  1  0.90671000  0.45869000  0.94671000  1.0 -0.1221101723
C  C136  1  0.90671000  0.94671000  0.68789000  1.0 -0.1221101723
C  C137  1  0.68789000  0.45869000  0.90671000  1.0 -0.1221101723
C  C138  1  0.94671000  0.90671000  0.45869000  1.0 -0.1221101723
C  C139  1  0.68789000  0.90671000  0.94671000  1.0 -0.1221101723
C  C140  1  0.90671000  0.68789000  0.45869000  1.0 -0.1221101723
C  C141  1  0.45869000  0.94671000  0.90671000  1.0 -0.1221101723
C  C142  1  0.55329000  0.81211000  0.04131000  1.0 -0.1221101723
C  C143  1  0.81211000  0.04131000  0.55329000  1.0 -0.1221101723
C  C144  1  0.04131000  0.55329000  0.81211000  1.0 -0.1221101723
C  C145  1  0.26531000  0.08309000  0.54489000  1.0 0.0227558035
C  C146  1  0.54489000  0.26531000  0.08309000  1.0 0.0227558035
C  C147  1  0.08309000  0.54489000  0.26531000  1.0 0.0227558035
C  C148  1  0.23469000  0.41691000  0.39329000  1.0 0.0227558035
C  C149  1  0.95511000  0.39329000  0.41691000  1.0 0.0227558035
C  C150  1  0.39329000  0.95511000  0.23469000  1.0 0.0227558035
C  C151  1  0.95511000  0.23469000  0.39329000  1.0 0.0227558035
C  C152  1  0.39329000  0.41691000  0.95511000  1.0 0.0227558035
C  C153  1  0.41691000  0.39329000  0.23469000  1.0 0.0227558035
C  C154  1  0.41691000  0.95511000  0.39329000  1.0 0.0227558035
C  C155  1  0.23469000  0.39329000  0.95511000  1.0 0.0227558035
C  C156  1  0.39329000  0.23469000  0.41691000  1.0 0.0227558035
C  C157  1  0.08309000  0.26531000  0.10671000  1.0 0.0227558035
C  C158  1  0.54489000  0.10671000  0.26531000  1.0 0.0227558035
C  C159  1  0.10671000  0.54489000  0.08309000  1.0 0.0227558035
C  C160  1  0.10671000  0.08309000  0.26531000  1.0 0.0227558035
C  C161  1  0.26531000  0.54489000  0.10671000  1.0 0.0227558035
C  C162  1  0.08309000  0.10671000  0.54489000  1.0 0.0227558035
C  C163  1  0.26531000  0.10671000  0.08309000  1.0 0.0227558035
C  C164  1  0.10671000  0.26531000  0.54489000  1.0 0.0227558035
C  C165  1  0.54489000  0.08309000  0.10671000  1.0 0.0227558035
C  C166  1  0.41691000  0.23469000  0.95511000  1.0 0.0227558035
C  C167  1  0.23469000  0.95511000  0.41691000  1.0 0.0227558035
C  C168  1  0.95511000  0.41691000  0.23469000  1.0 0.0227558035
C  C169  1  0.73469000  0.91691000  0.45511000  1.0 0.0227558035
C  C170  1  0.45511000  0.73469000  0.91691000  1.0 0.0227558035
C  C171  1  0.91691000  0.45511000  0.73469000  1.0 0.0227558035
C  C172  1  0.76531000  0.58309000  0.60671000  1.0 0.0227558035
C  C173  1  0.04489000  0.60671000  0.58309000  1.0 0.0227558035
C  C174  1  0.60671000  0.04489000  0.76531000  1.0 0.0227558035
C  C175  1  0.04489000  0.76531000  0.60671000  1.0 0.0227558035
C  C176  1  0.60671000  0.58309000  0.04489000  1.0 0.0227558035
C  C177  1  0.58309000  0.60671000  0.76531000  1.0 0.0227558035
C  C178  1  0.58309000  0.04489000  0.60671000  1.0 0.0227558035
C  C179  1  0.76531000  0.60671000  0.04489000  1.0 0.0227558035
C  C180  1  0.60671000  0.76531000  0.58309000  1.0 0.0227558035
C  C181  1  0.91691000  0.73469000  0.89329000  1.0 0.0227558035
C  C182  1  0.45511000  0.89329000  0.73469000  1.0 0.0227558035
C  C183  1  0.89329000  0.45511000  0.91691000  1.0 0.0227558035
C  C184  1  0.89329000  0.91691000  0.73469000  1.0 0.0227558035
C  C185  1  0.73469000  0.45511000  0.89329000  1.0 0.0227558035
C  C186  1  0.91691000  0.89329000  0.45511000  1.0 0.0227558035
C  C187  1  0.73469000  0.89329000  0.91691000  1.0 0.0227558035
C  C188  1  0.89329000  0.73469000  0.45511000  1.0 0.0227558035
C  C189  1  0.45511000  0.91691000  0.89329000  1.0 0.0227558035
C  C190  1  0.58309000  0.76531000  0.04489000  1.0 0.0227558035
C  C191  1  0.76531000  0.04489000  0.58309000  1.0 0.0227558035
C  C192  1  0.04489000  0.58309000  0.76531000  1.0 0.0227558035
C  C193  1  0.23366000  0.06820000  0.54774000  1.0 0.0303508968
C  C194  1  0.54774000  0.23366000  0.06820000  1.0 0.0303508968
C  C195  1  0.06820000  0.54774000  0.23366000  1.0 0.0303508968
C  C196  1  0.26634000  0.43180000  0.34960000  1.0 0.0303508968
C  C197  1  0.95226000  0.34960000  0.43180000  1.0 0.0303508968
C  C198  1  0.34960000  0.95226000  0.26634000  1.0 0.0303508968
C  C199  1  0.95226000  0.26634000  0.34960000  1.0 0.0303508968
C  C200  1  0.34960000  0.43180000  0.95226000  1.0 0.0303508968
C  C201  1  0.43180000  0.34960000  0.26634000  1.0 0.0303508968
C  C202  1  0.43180000  0.95226000  0.34960000  1.0 0.0303508968
C  C203  1  0.26634000  0.34960000  0.95226000  1.0 0.0303508968
C  C204  1  0.34960000  0.26634000  0.43180000  1.0 0.0303508968
C  C205  1  0.06820000  0.23366000  0.15040000  1.0 0.0303508968
C  C206  1  0.54774000  0.15040000  0.23366000  1.0 0.0303508968
C  C207  1  0.15040000  0.54774000  0.06820000  1.0 0.0303508968
C  C208  1  0.15040000  0.06820000  0.23366000  1.0 0.0303508968
C  C209  1  0.23366000  0.54774000  0.15040000  1.0 0.0303508968
C  C210  1  0.06820000  0.15040000  0.54774000  1.0 0.0303508968
C  C211  1  0.23366000  0.15040000  0.06820000  1.0 0.0303508968
C  C212  1  0.15040000  0.23366000  0.54774000  1.0 0.0303508968
C  C213  1  0.54774000  0.06820000  0.15040000  1.0 0.0303508968
C  C214  1  0.43180000  0.26634000  0.95226000  1.0 0.0303508968
C  C215  1  0.26634000  0.95226000  0.43180000  1.0 0.0303508968
C  C216  1  0.95226000  0.43180000  0.26634000  1.0 0.0303508968
C  C217  1  0.76634000  0.93180000  0.45226000  1.0 0.0303508968
C  C218  1  0.45226000  0.76634000  0.93180000  1.0 0.0303508968
C  C219  1  0.93180000  0.45226000  0.76634000  1.0 0.0303508968
C  C220  1  0.73366000  0.56820000  0.65040000  1.0 0.0303508968
C  C221  1  0.04774000  0.65040000  0.56820000  1.0 0.0303508968
C  C222  1  0.65040000  0.04774000  0.73366000  1.0 0.0303508968
C  C223  1  0.04774000  0.73366000  0.65040000  1.0 0.0303508968
C  C224  1  0.65040000  0.56820000  0.04774000  1.0 0.0303508968
C  C225  1  0.56820000  0.65040000  0.73366000  1.0 0.0303508968
C  C226  1  0.56820000  0.04774000  0.65040000  1.0 0.0303508968
C  C227  1  0.73366000  0.65040000  0.04774000  1.0 0.0303508968
C  C228  1  0.65040000  0.73366000  0.56820000  1.0 0.0303508968
C  C229  1  0.93180000  0.76634000  0.84960000  1.0 0.0303508968
C  C230  1  0.45226000  0.84960000  0.76634000  1.0 0.0303508968
C  C231  1  0.84960000  0.45226000  0.93180000  1.0 0.0303508968
C  C232  1  0.84960000  0.93180000  0.76634000  1.0 0.0303508968
C  C233  1  0.76634000  0.45226000  0.84960000  1.0 0.0303508968
C  C234  1  0.93180000  0.84960000  0.45226000  1.0 0.0303508968
C  C235  1  0.76634000  0.84960000  0.93180000  1.0 0.0303508968
C  C236  1  0.84960000  0.76634000  0.45226000  1.0 0.0303508968
C  C237  1  0.45226000  0.93180000  0.84960000  1.0 0.0303508968
C  C238  1  0.56820000  0.73366000  0.04774000  1.0 0.0303508968
C  C239  1  0.73366000  0.04774000  0.56820000  1.0 0.0303508968
C  C240  1  0.04774000  0.56820000  0.73366000  1.0 0.0303508968
C  C241  1  0.24793000  0.02073000  0.55037000  1.0 -0.152203123
C  C242  1  0.55037000  0.24793000  0.02073000  1.0 -0.152203123
C  C243  1  0.02073000  0.55037000  0.24793000  1.0 -0.152203123
C  C244  1  0.25207000  0.47927000  0.31903000  1.0 -0.152203123
C  C245  1  0.94963000  0.31903000  0.47927000  1.0 -0.152203123
C  C246  1  0.31903000  0.94963000  0.25207000  1.0 -0.152203123
C  C247  1  0.94963000  0.25207000  0.31903000  1.0 -0.152203123
C  C248  1  0.31903000  0.47927000  0.94963000  1.0 -0.152203123
C  C249  1  0.47927000  0.31903000  0.25207000  1.0 -0.152203123
C  C250  1  0.47927000  0.94963000  0.31903000  1.0 -0.152203123
C  C251  1  0.25207000  0.31903000  0.94963000  1.0 -0.152203123
C  C252  1  0.31903000  0.25207000  0.47927000  1.0 -0.152203123
C  C253  1  0.02073000  0.24793000  0.18097000  1.0 -0.152203123
C  C254  1  0.55037000  0.18097000  0.24793000  1.0 -0.152203123
C  C255  1  0.18097000  0.55037000  0.02073000  1.0 -0.152203123
C  C256  1  0.18097000  0.02073000  0.24793000  1.0 -0.152203123
C  C257  1  0.24793000  0.55037000  0.18097000  1.0 -0.152203123
C  C258  1  0.02073000  0.18097000  0.55037000  1.0 -0.152203123
C  C259  1  0.24793000  0.18097000  0.02073000  1.0 -0.152203123
C  C260  1  0.18097000  0.24793000  0.55037000  1.0 -0.152203123
C  C261  1  0.55037000  0.02073000  0.18097000  1.0 -0.152203123
C  C262  1  0.47927000  0.25207000  0.94963000  1.0 -0.152203123
C  C263  1  0.25207000  0.94963000  0.47927000  1.0 -0.152203123
C  C264  1  0.94963000  0.47927000  0.25207000  1.0 -0.152203123
C  C265  1  0.75207000  0.97927000  0.44963000  1.0 -0.152203123
C  C266  1  0.44963000  0.75207000  0.97927000  1.0 -0.152203123
C  C267  1  0.97927000  0.44963000  0.75207000  1.0 -0.152203123
C  C268  1  0.74793000  0.52073000  0.68097000  1.0 -0.152203123
C  C269  1  0.05037000  0.68097000  0.52073000  1.0 -0.152203123
C  C270  1  0.68097000  0.05037000  0.74793000  1.0 -0.152203123
C  C271  1  0.05037000  0.74793000  0.68097000  1.0 -0.152203123
C  C272  1  0.68097000  0.52073000  0.05037000  1.0 -0.152203123
C  C273  1  0.52073000  0.68097000  0.74793000  1.0 -0.152203123
C  C274  1  0.52073000  0.05037000  0.68097000  1.0 -0.152203123
C  C275  1  0.74793000  0.68097000  0.05037000  1.0 -0.152203123
C  C276  1  0.68097000  0.74793000  0.52073000  1.0 -0.152203123
C  C277  1  0.97927000  0.75207000  0.81903000  1.0 -0.152203123
C  C278  1  0.44963000  0.81903000  0.75207000  1.0 -0.152203123
C  C279  1  0.81903000  0.44963000  0.97927000  1.0 -0.152203123
C  C280  1  0.81903000  0.97927000  0.75207000  1.0 -0.152203123
C  C281  1  0.75207000  0.44963000  0.81903000  1.0 -0.152203123
C  C282  1  0.97927000  0.81903000  0.44963000  1.0 -0.152203123
C  C283  1  0.75207000  0.81903000  0.97927000  1.0 -0.152203123
C  C284  1  0.81903000  0.75207000  0.44963000  1.0 -0.152203123
C  C285  1  0.44963000  0.97927000  0.81903000  1.0 -0.152203123
C  C286  1  0.52073000  0.74793000  0.05037000  1.0 -0.152203123
C  C287  1  0.74793000  0.05037000  0.52073000  1.0 -0.152203123
C  C288  1  0.05037000  0.52073000  0.74793000  1.0 -0.152203123
C  C289  1  0.29392000  0.99196000  0.54824000  1.0 -0.0975199348
C  C290  1  0.54824000  0.29392000  0.99196000  1.0 -0.0975199348
C  C291  1  0.99196000  0.54824000  0.29392000  1.0 -0.0975199348
C  C292  1  0.20608000  0.50804000  0.33412000  1.0 -0.0975199348
C  C293  1  0.95176000  0.33412000  0.50804000  1.0 -0.0975199348
C  C294  1  0.33412000  0.95176000  0.20608000  1.0 -0.0975199348
C  C295  1  0.95176000  0.20608000  0.33412000  1.0 -0.0975199348
C  C296  1  0.33412000  0.50804000  0.95176000  1.0 -0.0975199348
C  C297  1  0.50804000  0.33412000  0.20608000  1.0 -0.0975199348
C  C298  1  0.50804000  0.95176000  0.33412000  1.0 -0.0975199348
C  C299  1  0.20608000  0.33412000  0.95176000  1.0 -0.0975199348
C  C300  1  0.33412000  0.20608000  0.50804000  1.0 -0.0975199348
C  C301  1  0.99196000  0.29392000  0.16588000  1.0 -0.0975199348
C  C302  1  0.54824000  0.16588000  0.29392000  1.0 -0.0975199348
C  C303  1  0.16588000  0.54824000  0.99196000  1.0 -0.0975199348
C  C304  1  0.16588000  0.99196000  0.29392000  1.0 -0.0975199348
C  C305  1  0.29392000  0.54824000  0.16588000  1.0 -0.0975199348
C  C306  1  0.99196000  0.16588000  0.54824000  1.0 -0.0975199348
C  C307  1  0.29392000  0.16588000  0.99196000  1.0 -0.0975199348
C  C308  1  0.16588000  0.29392000  0.54824000  1.0 -0.0975199348
C  C309  1  0.54824000  0.99196000  0.16588000  1.0 -0.0975199348
C  C310  1  0.50804000  0.20608000  0.95176000  1.0 -0.0975199348
C  C311  1  0.20608000  0.95176000  0.50804000  1.0 -0.0975199348
C  C312  1  0.95176000  0.50804000  0.20608000  1.0 -0.0975199348
C  C313  1  0.70608000  0.00804000  0.45176000  1.0 -0.0975199348
C  C314  1  0.45176000  0.70608000  0.00804000  1.0 -0.0975199348
C  C315  1  0.00804000  0.45176000  0.70608000  1.0 -0.0975199348
C  C316  1  0.79392000  0.49196000  0.66588000  1.0 -0.0975199348
C  C317  1  0.04824000  0.66588000  0.49196000  1.0 -0.0975199348
C  C318  1  0.66588000  0.04824000  0.79392000  1.0 -0.0975199348
C  C319  1  0.04824000  0.79392000  0.66588000  1.0 -0.0975199348
C  C320  1  0.66588000  0.49196000  0.04824000  1.0 -0.0975199348
C  C321  1  0.49196000  0.66588000  0.79392000  1.0 -0.0975199348
C  C322  1  0.49196000  0.04824000  0.66588000  1.0 -0.0975199348
C  C323  1  0.79392000  0.66588000  0.04824000  1.0 -0.0975199348
C  C324  1  0.66588000  0.79392000  0.49196000  1.0 -0.0975199348
C  C325  1  0.00804000  0.70608000  0.83412000  1.0 -0.0975199348
C  C326  1  0.45176000  0.83412000  0.70608000  1.0 -0.0975199348
C  C327  1  0.83412000  0.45176000  0.00804000  1.0 -0.0975199348
C  C328  1  0.83412000  0.00804000  0.70608000  1.0 -0.0975199348
C  C329  1  0.70608000  0.45176000  0.83412000  1.0 -0.0975199348
C  C330  1  0.00804000  0.83412000  0.45176000  1.0 -0.0975199348
C  C331  1  0.70608000  0.83412000  0.00804000  1.0 -0.0975199348
C  C332  1  0.83412000  0.70608000  0.45176000  1.0 -0.0975199348
C  C333  1  0.45176000  0.00804000  0.83412000  1.0 -0.0975199348
C  C334  1  0.49196000  0.79392000  0.04824000  1.0 -0.0975199348
C  C335  1  0.79392000  0.04824000  0.49196000  1.0 -0.0975199348
C  C336  1  0.04824000  0.49196000  0.79392000  1.0 -0.0975199348
C  C337  1  0.24311000  0.13309000  0.54555000  1.0 0.1005223334
C  C338  1  0.54555000  0.24311000  0.13309000  1.0 0.1005223334
C  C339  1  0.13309000  0.54555000  0.24311000  1.0 0.1005223334
C  C340  1  0.25689000  0.36691000  0.42175000  1.0 0.1005223334
C  C341  1  0.95445000  0.42175000  0.36691000  1.0 0.1005223334
C  C342  1  0.42175000  0.95445000  0.25689000  1.0 0.1005223334
C  C343  1  0.95445000  0.25689000  0.42175000  1.0 0.1005223334
C  C344  1  0.42175000  0.36691000  0.95445000  1.0 0.1005223334
C  C345  1  0.36691000  0.42175000  0.25689000  1.0 0.1005223334
C  C346  1  0.36691000  0.95445000  0.42175000  1.0 0.1005223334
C  C347  1  0.25689000  0.42175000  0.95445000  1.0 0.1005223334
C  C348  1  0.42175000  0.25689000  0.36691000  1.0 0.1005223334
C  C349  1  0.13309000  0.24311000  0.07825000  1.0 0.1005223334
C  C350  1  0.54555000  0.07825000  0.24311000  1.0 0.1005223334
C  C351  1  0.07825000  0.54555000  0.13309000  1.0 0.1005223334
C  C352  1  0.07825000  0.13309000  0.24311000  1.0 0.1005223334
C  C353  1  0.24311000  0.54555000  0.07825000  1.0 0.1005223334
C  C354  1  0.13309000  0.07825000  0.54555000  1.0 0.1005223334
C  C355  1  0.24311000  0.07825000  0.13309000  1.0 0.1005223334
C  C356  1  0.07825000  0.24311000  0.54555000  1.0 0.1005223334
C  C357  1  0.54555000  0.13309000  0.07825000  1.0 0.1005223334
C  C358  1  0.36691000  0.25689000  0.95445000  1.0 0.1005223334
C  C359  1  0.25689000  0.95445000  0.36691000  1.0 0.1005223334
C  C360  1  0.95445000  0.36691000  0.25689000  1.0 0.1005223334
C  C361  1  0.75689000  0.86691000  0.45445000  1.0 0.1005223334
C  C362  1  0.45445000  0.75689000  0.86691000  1.0 0.1005223334
C  C363  1  0.86691000  0.45445000  0.75689000  1.0 0.1005223334
C  C364  1  0.74311000  0.63309000  0.57825000  1.0 0.1005223334
C  C365  1  0.04555000  0.57825000  0.63309000  1.0 0.1005223334
C  C366  1  0.57825000  0.04555000  0.74311000  1.0 0.1005223334
C  C367  1  0.04555000  0.74311000  0.57825000  1.0 0.1005223334
C  C368  1  0.57825000  0.63309000  0.04555000  1.0 0.1005223334
C  C369  1  0.63309000  0.57825000  0.74311000  1.0 0.1005223334
C  C370  1  0.63309000  0.04555000  0.57825000  1.0 0.1005223334
C  C371  1  0.74311000  0.57825000  0.04555000  1.0 0.1005223334
C  C372  1  0.57825000  0.74311000  0.63309000  1.0 0.1005223334
C  C373  1  0.86691000  0.75689000  0.92175000  1.0 0.1005223334
C  C374  1  0.45445000  0.92175000  0.75689000  1.0 0.1005223334
C  C375  1  0.92175000  0.45445000  0.86691000  1.0 0.1005223334
C  C376  1  0.92175000  0.86691000  0.75689000  1.0 0.1005223334
C  C377  1  0.75689000  0.45445000  0.92175000  1.0 0.1005223334
C  C378  1  0.86691000  0.92175000  0.45445000  1.0 0.1005223334
C  C379  1  0.75689000  0.92175000  0.86691000  1.0 0.1005223334
C  C380  1  0.92175000  0.75689000  0.45445000  1.0 0.1005223334
C  C381  1  0.45445000  0.86691000  0.92175000  1.0 0.1005223334
C  C382  1  0.63309000  0.74311000  0.04555000  1.0 0.1005223334
C  C383  1  0.74311000  0.04555000  0.63309000  1.0 0.1005223334
C  C384  1  0.04555000  0.63309000  0.74311000  1.0 0.1005223334
C  C385  1  0.19362000  0.14508000  0.54832000  1.0 -0.0271333711
C  C386  1  0.54832000  0.19362000  0.14508000  1.0 -0.0271333711
C  C387  1  0.14508000  0.54832000  0.19362000  1.0 -0.0271333711
C  C388  1  0.30638000  0.35492000  0.38702000  1.0 -0.0271333711
C  C389  1  0.95168000  0.38702000  0.35492000  1.0 -0.0271333711
C  C390  1  0.38702000  0.95168000  0.30638000  1.0 -0.0271333711
C  C391  1  0.95168000  0.30638000  0.38702000  1.0 -0.0271333711
C  C392  1  0.38702000  0.35492000  0.95168000  1.0 -0.0271333711
C  C393  1  0.35492000  0.38702000  0.30638000  1.0 -0.0271333711
C  C394  1  0.35492000  0.95168000  0.38702000  1.0 -0.0271333711
C  C395  1  0.30638000  0.38702000  0.95168000  1.0 -0.0271333711
C  C396  1  0.38702000  0.30638000  0.35492000  1.0 -0.0271333711
C  C397  1  0.14508000  0.19362000  0.11298000  1.0 -0.0271333711
C  C398  1  0.54832000  0.11298000  0.19362000  1.0 -0.0271333711
C  C399  1  0.11298000  0.54832000  0.14508000  1.0 -0.0271333711
C  C400  1  0.11298000  0.14508000  0.19362000  1.0 -0.0271333711
C  C401  1  0.19362000  0.54832000  0.11298000  1.0 -0.0271333711
C  C402  1  0.14508000  0.11298000  0.54832000  1.0 -0.0271333711
C  C403  1  0.19362000  0.11298000  0.14508000  1.0 -0.0271333711
C  C404  1  0.11298000  0.19362000  0.54832000  1.0 -0.0271333711
C  C405  1  0.54832000  0.14508000  0.11298000  1.0 -0.0271333711
C  C406  1  0.35492000  0.30638000  0.95168000  1.0 -0.0271333711
C  C407  1  0.30638000  0.95168000  0.35492000  1.0 -0.0271333711
C  C408  1  0.95168000  0.35492000  0.30638000  1.0 -0.0271333711
C  C409  1  0.80638000  0.85492000  0.45168000  1.0 -0.0271333711
C  C410  1  0.45168000  0.80638000  0.85492000  1.0 -0.0271333711
C  C411  1  0.85492000  0.45168000  0.80638000  1.0 -0.0271333711
C  C412  1  0.69362000  0.64508000  0.61298000  1.0 -0.0271333711
C  C413  1  0.04832000  0.61298000  0.64508000  1.0 -0.0271333711
C  C414  1  0.61298000  0.04832000  0.69362000  1.0 -0.0271333711
C  C415  1  0.04832000  0.69362000  0.61298000  1.0 -0.0271333711
C  C416  1  0.61298000  0.64508000  0.04832000  1.0 -0.0271333711
C  C417  1  0.64508000  0.61298000  0.69362000  1.0 -0.0271333711
C  C418  1  0.64508000  0.04832000  0.61298000  1.0 -0.0271333711
C  C419  1  0.69362000  0.61298000  0.04832000  1.0 -0.0271333711
C  C420  1  0.61298000  0.69362000  0.64508000  1.0 -0.0271333711
C  C421  1  0.85492000  0.80638000  0.88702000  1.0 -0.0271333711
C  C422  1  0.45168000  0.88702000  0.80638000  1.0 -0.0271333711
C  C423  1  0.88702000  0.45168000  0.85492000  1.0 -0.0271333711
C  C424  1  0.88702000  0.85492000  0.80638000  1.0 -0.0271333711
C  C425  1  0.80638000  0.45168000  0.88702000  1.0 -0.0271333711
C  C426  1  0.85492000  0.88702000  0.45168000  1.0 -0.0271333711
C  C427  1  0.80638000  0.88702000  0.85492000  1.0 -0.0271333711
C  C428  1  0.88702000  0.80638000  0.45168000  1.0 -0.0271333711
C  C429  1  0.45168000  0.85492000  0.88702000  1.0 -0.0271333711
C  C430  1  0.64508000  0.69362000  0.04832000  1.0 -0.0271333711
C  C431  1  0.69362000  0.04832000  0.64508000  1.0 -0.0271333711
C  C432  1  0.04832000  0.64508000  0.69362000  1.0 -0.0271333711
C  C433  1  0.18830000  0.10830000  0.54808000  1.0 -0.0271333711
C  C434  1  0.54808000  0.18830000  0.10830000  1.0 -0.0271333711
C  C435  1  0.10830000  0.54808000  0.18830000  1.0 -0.0271333711
C  C436  1  0.31170000  0.39170000  0.34468000  1.0 -0.0271333711
C  C437  1  0.95192000  0.34468000  0.39170000  1.0 -0.0271333711
C  C438  1  0.34468000  0.95192000  0.31170000  1.0 -0.0271333711
C  C439  1  0.95192000  0.31170000  0.34468000  1.0 -0.0271333711
C  C440  1  0.34468000  0.39170000  0.95192000  1.0 -0.0271333711
C  C441  1  0.39170000  0.34468000  0.31170000  1.0 -0.0271333711
C  C442  1  0.39170000  0.95192000  0.34468000  1.0 -0.0271333711
C  C443  1  0.31170000  0.34468000  0.95192000  1.0 -0.0271333711
C  C444  1  0.34468000  0.31170000  0.39170000  1.0 -0.0271333711
C  C445  1  0.10830000  0.18830000  0.15532000  1.0 -0.0271333711
C  C446  1  0.54808000  0.15532000  0.18830000  1.0 -0.0271333711
C  C447  1  0.15532000  0.54808000  0.10830000  1.0 -0.0271333711
C  C448  1  0.15532000  0.10830000  0.18830000  1.0 -0.0271333711
C  C449  1  0.18830000  0.54808000  0.15532000  1.0 -0.0271333711
C  C450  1  0.10830000  0.15532000  0.54808000  1.0 -0.0271333711
C  C451  1  0.18830000  0.15532000  0.10830000  1.0 -0.0271333711
C  C452  1  0.15532000  0.18830000  0.54808000  1.0 -0.0271333711
C  C453  1  0.54808000  0.10830000  0.15532000  1.0 -0.0271333711
C  C454  1  0.39170000  0.31170000  0.95192000  1.0 -0.0271333711
C  C455  1  0.31170000  0.95192000  0.39170000  1.0 -0.0271333711
C  C456  1  0.95192000  0.39170000  0.31170000  1.0 -0.0271333711
C  C457  1  0.81170000  0.89170000  0.45192000  1.0 -0.0271333711
C  C458  1  0.45192000  0.81170000  0.89170000  1.0 -0.0271333711
C  C459  1  0.89170000  0.45192000  0.81170000  1.0 -0.0271333711
C  C460  1  0.68830000  0.60830000  0.65532000  1.0 -0.0271333711
C  C461  1  0.04808000  0.65532000  0.60830000  1.0 -0.0271333711
C  C462  1  0.65532000  0.04808000  0.68830000  1.0 -0.0271333711
C  C463  1  0.04808000  0.68830000  0.65532000  1.0 -0.0271333711
C  C464  1  0.65532000  0.60830000  0.04808000  1.0 -0.0271333711
C  C465  1  0.60830000  0.65532000  0.68830000  1.0 -0.0271333711
C  C466  1  0.60830000  0.04808000  0.65532000  1.0 -0.0271333711
C  C467  1  0.68830000  0.65532000  0.04808000  1.0 -0.0271333711
C  C468  1  0.65532000  0.68830000  0.60830000  1.0 -0.0271333711
C  C469  1  0.89170000  0.81170000  0.84468000  1.0 -0.0271333711
C  C470  1  0.45192000  0.84468000  0.81170000  1.0 -0.0271333711
C  C471  1  0.84468000  0.45192000  0.89170000  1.0 -0.0271333711
C  C472  1  0.84468000  0.89170000  0.81170000  1.0 -0.0271333711
C  C473  1  0.81170000  0.45192000  0.84468000  1.0 -0.0271333711
C  C474  1  0.89170000  0.84468000  0.45192000  1.0 -0.0271333711
C  C475  1  0.81170000  0.84468000  0.89170000  1.0 -0.0271333711
C  C476  1  0.84468000  0.81170000  0.45192000  1.0 -0.0271333711
C  C477  1  0.45192000  0.89170000  0.84468000  1.0 -0.0271333711
C  C478  1  0.60830000  0.68830000  0.04808000  1.0 -0.0271333711
C  C479  1  0.68830000  0.04808000  0.60830000  1.0 -0.0271333711
C  C480  1  0.04808000  0.60830000  0.68830000  1.0 -0.0271333711
C  C481  1  0.24490000  0.13090000  0.59070000  1.0 -0.1878611601
C  C482  1  0.59070000  0.24490000  0.13090000  1.0 -0.1878611601
C  C483  1  0.13090000  0.59070000  0.24490000  1.0 -0.1878611601
C  C484  1  0.25510000  0.36910000  0.46650000  1.0 -0.1878611601
C  C485  1  0.90930000  0.46650000  0.36910000  1.0 -0.1878611601
C  C486  1  0.46650000  0.90930000  0.25510000  1.0 -0.1878611601
C  C487  1  0.90930000  0.25510000  0.46650000  1.0 -0.1878611601
C  C488  1  0.46650000  0.36910000  0.90930000  1.0 -0.1878611601
C  C489  1  0.36910000  0.46650000  0.25510000  1.0 -0.1878611601
C  C490  1  0.36910000  0.90930000  0.46650000  1.0 -0.1878611601
C  C491  1  0.25510000  0.46650000  0.90930000  1.0 -0.1878611601
C  C492  1  0.46650000  0.25510000  0.36910000  1.0 -0.1878611601
C  C493  1  0.13090000  0.24490000  0.03350000  1.0 -0.1878611601
C  C494  1  0.59070000  0.03350000  0.24490000  1.0 -0.1878611601
C  C495  1  0.03350000  0.59070000  0.13090000  1.0 -0.1878611601
C  C496  1  0.03350000  0.13090000  0.24490000  1.0 -0.1878611601
C  C497  1  0.24490000  0.59070000  0.03350000  1.0 -0.1878611601
C  C498  1  0.13090000  0.03350000  0.59070000  1.0 -0.1878611601
C  C499  1  0.24490000  0.03350000  0.13090000  1.0 -0.1878611601
C  C500  1  0.03350000  0.24490000  0.59070000  1.0 -0.1878611601
C  C501  1  0.59070000  0.13090000  0.03350000  1.0 -0.1878611601
C  C502  1  0.36910000  0.25510000  0.90930000  1.0 -0.1878611601
C  C503  1  0.25510000  0.90930000  0.36910000  1.0 -0.1878611601
C  C504  1  0.90930000  0.36910000  0.25510000  1.0 -0.1878611601
C  C505  1  0.75510000  0.86910000  0.40930000  1.0 -0.1878611601
C  C506  1  0.40930000  0.75510000  0.86910000  1.0 -0.1878611601
C  C507  1  0.86910000  0.40930000  0.75510000  1.0 -0.1878611601
C  C508  1  0.74490000  0.63090000  0.53350000  1.0 -0.1878611601
C  C509  1  0.09070000  0.53350000  0.63090000  1.0 -0.1878611601
C  C510  1  0.53350000  0.09070000  0.74490000  1.0 -0.1878611601
C  C511  1  0.09070000  0.74490000  0.53350000  1.0 -0.1878611601
C  C512  1  0.53350000  0.63090000  0.09070000  1.0 -0.1878611601
C  C513  1  0.63090000  0.53350000  0.74490000  1.0 -0.1878611601
C  C514  1  0.63090000  0.09070000  0.53350000  1.0 -0.1878611601
C  C515  1  0.74490000  0.53350000  0.09070000  1.0 -0.1878611601
C  C516  1  0.53350000  0.74490000  0.63090000  1.0 -0.1878611601
C  C517  1  0.86910000  0.75510000  0.96650000  1.0 -0.1878611601
C  C518  1  0.40930000  0.96650000  0.75510000  1.0 -0.1878611601
C  C519  1  0.96650000  0.40930000  0.86910000  1.0 -0.1878611601
C  C520  1  0.96650000  0.86910000  0.75510000  1.0 -0.1878611601
C  C521  1  0.75510000  0.40930000  0.96650000  1.0 -0.1878611601
C  C522  1  0.86910000  0.96650000  0.40930000  1.0 -0.1878611601
C  C523  1  0.75510000  0.96650000  0.86910000  1.0 -0.1878611601
C  C524  1  0.96650000  0.75510000  0.40930000  1.0 -0.1878611601
C  C525  1  0.40930000  0.86910000  0.96650000  1.0 -0.1878611601
C  C526  1  0.63090000  0.74490000  0.09070000  1.0 -0.1878611601
C  C527  1  0.74490000  0.09070000  0.63090000  1.0 -0.1878611601
C  C528  1  0.09070000  0.63090000  0.74490000  1.0 -0.1878611601
C  C529  1  0.21680000  0.09780000  0.64020000  1.0 -0.3522795445
C  C530  1  0.64020000  0.21680000  0.09780000  1.0 -0.3522795445
C  C531  1  0.09780000  0.64020000  0.21680000  1.0 -0.3522795445
C  C532  1  0.28320000  0.40220000  0.45480000  1.0 -0.3522795445
C  C533  1  0.85980000  0.45480000  0.40220000  1.0 -0.3522795445
C  C534  1  0.45480000  0.85980000  0.28320000  1.0 -0.3522795445
C  C535  1  0.85980000  0.28320000  0.45480000  1.0 -0.3522795445
C  C536  1  0.45480000  0.40220000  0.85980000  1.0 -0.3522795445
C  C537  1  0.40220000  0.45480000  0.28320000  1.0 -0.3522795445
C  C538  1  0.40220000  0.85980000  0.45480000  1.0 -0.3522795445
C  C539  1  0.28320000  0.45480000  0.85980000  1.0 -0.3522795445
C  C540  1  0.45480000  0.28320000  0.40220000  1.0 -0.3522795445
C  C541  1  0.09780000  0.21680000  0.04520000  1.0 -0.3522795445
C  C542  1  0.64020000  0.04520000  0.21680000  1.0 -0.3522795445
C  C543  1  0.04520000  0.64020000  0.09780000  1.0 -0.3522795445
C  C544  1  0.04520000  0.09780000  0.21680000  1.0 -0.3522795445
C  C545  1  0.21680000  0.64020000  0.04520000  1.0 -0.3522795445
C  C546  1  0.09780000  0.04520000  0.64020000  1.0 -0.3522795445
C  C547  1  0.21680000  0.04520000  0.09780000  1.0 -0.3522795445
C  C548  1  0.04520000  0.21680000  0.64020000  1.0 -0.3522795445
C  C549  1  0.64020000  0.09780000  0.04520000  1.0 -0.3522795445
C  C550  1  0.40220000  0.28320000  0.85980000  1.0 -0.3522795445
C  C551  1  0.28320000  0.85980000  0.40220000  1.0 -0.3522795445
C  C552  1  0.85980000  0.40220000  0.28320000  1.0 -0.3522795445
C  C553  1  0.78320000  0.90220000  0.35980000  1.0 -0.3522795445
C  C554  1  0.35980000  0.78320000  0.90220000  1.0 -0.3522795445
C  C555  1  0.90220000  0.35980000  0.78320000  1.0 -0.3522795445
C  C556  1  0.71680000  0.59780000  0.54520000  1.0 -0.3522795445
C  C557  1  0.14020000  0.54520000  0.59780000  1.0 -0.3522795445
C  C558  1  0.54520000  0.14020000  0.71680000  1.0 -0.3522795445
C  C559  1  0.14020000  0.71680000  0.54520000  1.0 -0.3522795445
C  C560  1  0.54520000  0.59780000  0.14020000  1.0 -0.3522795445
C  C561  1  0.59780000  0.54520000  0.71680000  1.0 -0.3522795445
C  C562  1  0.59780000  0.14020000  0.54520000  1.0 -0.3522795445
C  C563  1  0.71680000  0.54520000  0.14020000  1.0 -0.3522795445
C  C564  1  0.54520000  0.71680000  0.59780000  1.0 -0.3522795445
C  C565  1  0.90220000  0.78320000  0.95480000  1.0 -0.3522795445
C  C566  1  0.35980000  0.95480000  0.78320000  1.0 -0.3522795445
C  C567  1  0.95480000  0.35980000  0.90220000  1.0 -0.3522795445
C  C568  1  0.95480000  0.90220000  0.78320000  1.0 -0.3522795445
C  C569  1  0.78320000  0.35980000  0.95480000  1.0 -0.3522795445
C  C570  1  0.90220000  0.95480000  0.35980000  1.0 -0.3522795445
C  C571  1  0.78320000  0.95480000  0.90220000  1.0 -0.3522795445
C  C572  1  0.95480000  0.78320000  0.35980000  1.0 -0.3522795445
C  C573  1  0.35980000  0.90220000  0.95480000  1.0 -0.3522795445
C  C574  1  0.59780000  0.71680000  0.14020000  1.0 -0.3522795445
C  C575  1  0.71680000  0.14020000  0.59780000  1.0 -0.3522795445
C  C576  1  0.14020000  0.59780000  0.71680000  1.0 -0.3522795445
C  C577  1  0.27050000  0.16530000  0.49650000  1.0 -0.16283916
C  C578  1  0.49650000  0.27050000  0.16530000  1.0 -0.16283916
C  C579  1  0.16530000  0.49650000  0.27050000  1.0 -0.16283916
C  C580  1  0.22950000  0.33470000  0.43230000  1.0 -0.16283916
C  C581  1  0.00350000  0.43230000  0.33470000  1.0 -0.16283916
C  C582  1  0.43230000  0.00350000  0.22950000  1.0 -0.16283916
C  C583  1  0.00350000  0.22950000  0.43230000  1.0 -0.16283916
C  C584  1  0.43230000  0.33470000  0.00350000  1.0 -0.16283916
C  C585  1  0.33470000  0.43230000  0.22950000  1.0 -0.16283916
C  C586  1  0.33470000  0.00350000  0.43230000  1.0 -0.16283916
C  C587  1  0.22950000  0.43230000  0.00350000  1.0 -0.16283916
C  C588  1  0.43230000  0.22950000  0.33470000  1.0 -0.16283916
C  C589  1  0.16530000  0.27050000  0.06770000  1.0 -0.16283916
C  C590  1  0.49650000  0.06770000  0.27050000  1.0 -0.16283916
C  C591  1  0.06770000  0.49650000  0.16530000  1.0 -0.16283916
C  C592  1  0.06770000  0.16530000  0.27050000  1.0 -0.16283916
C  C593  1  0.27050000  0.49650000  0.06770000  1.0 -0.16283916
C  C594  1  0.16530000  0.06770000  0.49650000  1.0 -0.16283916
C  C595  1  0.27050000  0.06770000  0.16530000  1.0 -0.16283916
C  C596  1  0.06770000  0.27050000  0.49650000  1.0 -0.16283916
C  C597  1  0.49650000  0.16530000  0.06770000  1.0 -0.16283916
C  C598  1  0.33470000  0.22950000  0.00350000  1.0 -0.16283916
C  C599  1  0.22950000  0.00350000  0.33470000  1.0 -0.16283916
C  C600  1  0.00350000  0.33470000  0.22950000  1.0 -0.16283916
C  C601  1  0.72950000  0.83470000  0.50350000  1.0 -0.16283916
C  C602  1  0.50350000  0.72950000  0.83470000  1.0 -0.16283916
C  C603  1  0.83470000  0.50350000  0.72950000  1.0 -0.16283916
C  C604  1  0.77050000  0.66530000  0.56770000  1.0 -0.16283916
C  C605  1  0.99650000  0.56770000  0.66530000  1.0 -0.16283916
C  C606  1  0.56770000  0.99650000  0.77050000  1.0 -0.16283916
C  C607  1  0.99650000  0.77050000  0.56770000  1.0 -0.16283916
C  C608  1  0.56770000  0.66530000  0.99650000  1.0 -0.16283916
C  C609  1  0.66530000  0.56770000  0.77050000  1.0 -0.16283916
C  C610  1  0.66530000  0.99650000  0.56770000  1.0 -0.16283916
C  C611  1  0.77050000  0.56770000  0.99650000  1.0 -0.16283916
C  C612  1  0.56770000  0.77050000  0.66530000  1.0 -0.16283916
C  C613  1  0.83470000  0.72950000  0.93230000  1.0 -0.16283916
C  C614  1  0.50350000  0.93230000  0.72950000  1.0 -0.16283916
C  C615  1  0.93230000  0.50350000  0.83470000  1.0 -0.16283916
C  C616  1  0.93230000  0.83470000  0.72950000  1.0 -0.16283916
C  C617  1  0.72950000  0.50350000  0.93230000  1.0 -0.16283916
C  C618  1  0.83470000  0.93230000  0.50350000  1.0 -0.16283916
C  C619  1  0.72950000  0.93230000  0.83470000  1.0 -0.16283916
C  C620  1  0.93230000  0.72950000  0.50350000  1.0 -0.16283916
C  C621  1  0.50350000  0.83470000  0.93230000  1.0 -0.16283916
C  C622  1  0.66530000  0.77050000  0.99650000  1.0 -0.16283916
C  C623  1  0.77050000  0.99650000  0.66530000  1.0 -0.16283916
C  C624  1  0.99650000  0.66530000  0.77050000  1.0 -0.16283916
C  C625  1  0.26830000  0.16610000  0.45690000  1.0 -0.3640139407
C  C626  1  0.45690000  0.26830000  0.16610000  1.0 -0.3640139407
C  C627  1  0.16610000  0.45690000  0.26830000  1.0 -0.3640139407
C  C628  1  0.23170000  0.33390000  0.39130000  1.0 -0.3640139407
C  C629  1  0.04310000  0.39130000  0.33390000  1.0 -0.3640139407
C  C630  1  0.39130000  0.04310000  0.23170000  1.0 -0.3640139407
C  C631  1  0.04310000  0.23170000  0.39130000  1.0 -0.3640139407
C  C632  1  0.39130000  0.33390000  0.04310000  1.0 -0.3640139407
C  C633  1  0.33390000  0.39130000  0.23170000  1.0 -0.3640139407
C  C634  1  0.33390000  0.04310000  0.39130000  1.0 -0.3640139407
C  C635  1  0.23170000  0.39130000  0.04310000  1.0 -0.3640139407
C  C636  1  0.39130000  0.23170000  0.33390000  1.0 -0.3640139407
C  C637  1  0.16610000  0.26830000  0.10870000  1.0 -0.3640139407
C  C638  1  0.45690000  0.10870000  0.26830000  1.0 -0.3640139407
C  C639  1  0.10870000  0.45690000  0.16610000  1.0 -0.3640139407
C  C640  1  0.10870000  0.16610000  0.26830000  1.0 -0.3640139407
C  C641  1  0.26830000  0.45690000  0.10870000  1.0 -0.3640139407
C  C642  1  0.16610000  0.10870000  0.45690000  1.0 -0.3640139407
C  C643  1  0.26830000  0.10870000  0.16610000  1.0 -0.3640139407
C  C644  1  0.10870000  0.26830000  0.45690000  1.0 -0.3640139407
C  C645  1  0.45690000  0.16610000  0.10870000  1.0 -0.3640139407
C  C646  1  0.33390000  0.23170000  0.04310000  1.0 -0.3640139407
C  C647  1  0.23170000  0.04310000  0.33390000  1.0 -0.3640139407
C  C648  1  0.04310000  0.33390000  0.23170000  1.0 -0.3640139407
C  C649  1  0.73170000  0.83390000  0.54310000  1.0 -0.3640139407
C  C650  1  0.54310000  0.73170000  0.83390000  1.0 -0.3640139407
C  C651  1  0.83390000  0.54310000  0.73170000  1.0 -0.3640139407
C  C652  1  0.76830000  0.66610000  0.60870000  1.0 -0.3640139407
C  C653  1  0.95690000  0.60870000  0.66610000  1.0 -0.3640139407
C  C654  1  0.60870000  0.95690000  0.76830000  1.0 -0.3640139407
C  C655  1  0.95690000  0.76830000  0.60870000  1.0 -0.3640139407
C  C656  1  0.60870000  0.66610000  0.95690000  1.0 -0.3640139407
C  C657  1  0.66610000  0.60870000  0.76830000  1.0 -0.3640139407
C  C658  1  0.66610000  0.95690000  0.60870000  1.0 -0.3640139407
C  C659  1  0.76830000  0.60870000  0.95690000  1.0 -0.3640139407
C  C660  1  0.60870000  0.76830000  0.66610000  1.0 -0.3640139407
C  C661  1  0.83390000  0.73170000  0.89130000  1.0 -0.3640139407
C  C662  1  0.54310000  0.89130000  0.73170000  1.0 -0.3640139407
C  C663  1  0.89130000  0.54310000  0.83390000  1.0 -0.3640139407
C  C664  1  0.89130000  0.83390000  0.73170000  1.0 -0.3640139407
C  C665  1  0.73170000  0.54310000  0.89130000  1.0 -0.3640139407
C  C666  1  0.83390000  0.89130000  0.54310000  1.0 -0.3640139407
C  C667  1  0.73170000  0.89130000  0.83390000  1.0 -0.3640139407
C  C668  1  0.89130000  0.73170000  0.54310000  1.0 -0.3640139407
C  C669  1  0.54310000  0.83390000  0.89130000  1.0 -0.3640139407
C  C670  1  0.66610000  0.76830000  0.95690000  1.0 -0.3640139407
C  C671  1  0.76830000  0.95690000  0.66610000  1.0 -0.3640139407
C  C672  1  0.95690000  0.66610000  0.76830000  1.0 -0.3640139407
O  O1  1  0.40571000  0.99255000  0.53143000  1.0 -0.4253034151
O  O2  1  0.53143000  0.40571000  0.99255000  1.0 -0.4253034151
O  O3  1  0.99255000  0.53143000  0.40571000  1.0 -0.4253034151
O  O4  1  0.09429000  0.50745000  0.42969000  1.0 -0.4253034151
O  O5  1  0.96857000  0.42969000  0.50745000  1.0 -0.4253034151
O  O6  1  0.42969000  0.96857000  0.09429000  1.0 -0.4253034151
O  O7  1  0.96857000  0.09429000  0.42969000  1.0 -0.4253034151
O  O8  1  0.42969000  0.50745000  0.96857000  1.0 -0.4253034151
O  O9  1  0.50745000  0.42969000  0.09429000  1.0 -0.4253034151
O  O10  1  0.50745000  0.96857000  0.42969000  1.0 -0.4253034151
O  O11  1  0.09429000  0.42969000  0.96857000  1.0 -0.4253034151
O  O12  1  0.42969000  0.09429000  0.50745000  1.0 -0.4253034151
O  O13  1  0.99255000  0.40571000  0.07031000  1.0 -0.4253034151
O  O14  1  0.53143000  0.07031000  0.40571000  1.0 -0.4253034151
O  O15  1  0.07031000  0.53143000  0.99255000  1.0 -0.4253034151
O  O16  1  0.07031000  0.99255000  0.40571000  1.0 -0.4253034151
O  O17  1  0.40571000  0.53143000  0.07031000  1.0 -0.4253034151
O  O18  1  0.99255000  0.07031000  0.53143000  1.0 -0.4253034151
O  O19  1  0.40571000  0.07031000  0.99255000  1.0 -0.4253034151
O  O20  1  0.07031000  0.40571000  0.53143000  1.0 -0.4253034151
O  O21  1  0.53143000  0.99255000  0.07031000  1.0 -0.4253034151
O  O22  1  0.50745000  0.09429000  0.96857000  1.0 -0.4243247217
O  O23  1  0.09429000  0.96857000  0.50745000  1.0 -0.4253034151
O  O24  1  0.96857000  0.50745000  0.09429000  1.0 -0.4253034151
O  O25  1  0.59429000  0.00745000  0.46857000  1.0 -0.4253034151
O  O26  1  0.46857000  0.59429000  0.00745000  1.0 -0.4253034151
O  O27  1  0.00745000  0.46857000  0.59429000  1.0 -0.4253034151
O  O28  1  0.90571000  0.49255000  0.57031000  1.0 -0.4253034151
O  O29  1  0.03143000  0.57031000  0.49255000  1.0 -0.4253034151
O  O30  1  0.57031000  0.03143000  0.90571000  1.0 -0.4243247217
O  O31  1  0.03143000  0.90571000  0.57031000  1.0 -0.4253034151
O  O32  1  0.57031000  0.49255000  0.03143000  1.0 -0.4253034151
O  O33  1  0.49255000  0.57031000  0.90571000  1.0 -0.4253034151
O  O34  1  0.49255000  0.03143000  0.57031000  1.0 -0.4253034151
O  O35  1  0.90571000  0.57031000  0.03143000  1.0 -0.4253034151
O  O36  1  0.57031000  0.90571000  0.49255000  1.0 -0.4253034151
O  O37  1  0.00745000  0.59429000  0.92969000  1.0 -0.4253034151
O  O38  1  0.46857000  0.92969000  0.59429000  1.0 -0.4253034151
O  O39  1  0.92969000  0.46857000  0.00745000  1.0 -0.4253034151
O  O40  1  0.92969000  0.00745000  0.59429000  1.0 -0.4253034151
O  O41  1  0.59429000  0.46857000  0.92969000  1.0 -0.4253034151
O  O42  1  0.00745000  0.92969000  0.46857000  1.0 -0.4253034151
O  O43  1  0.59429000  0.92969000  0.00745000  1.0 -0.4253034151
O  O44  1  0.92969000  0.59429000  0.46857000  1.0 -0.4253034151
O  O45  1  0.46857000  0.00745000  0.92969000  1.0 -0.4253034151
O  O46  1  0.49255000  0.90571000  0.03143000  1.0 -0.4253034151
O  O47  1  0.90571000  0.03143000  0.49255000  1.0 -0.4253034151
O  O48  1  0.03143000  0.49255000  0.90571000  1.0 -0.4253034151
O  O49  1  0.38878000  0.93462000  0.54376000  1.0 -0.3156323439
O  O50  1  0.54376000  0.38878000  0.93462000  1.0 -0.3156323439
O  O51  1  0.93462000  0.54376000  0.38878000  1.0 -0.3156323439
O  O52  1  0.11122000  0.56538000  0.36716000  1.0 -0.3156323439
O  O53  1  0.95624000  0.36716000  0.56538000  1.0 -0.3156323439
O  O54  1  0.36716000  0.95624000  0.11122000  1.0 -0.3156323439
O  O55  1  0.95624000  0.11122000  0.36716000  1.0 -0.3156323439
O  O56  1  0.36716000  0.56538000  0.95624000  1.0 -0.3156323439
O  O57  1  0.56538000  0.36716000  0.11122000  1.0 -0.3156323439
O  O58  1  0.56538000  0.95624000  0.36716000  1.0 -0.3156323439
O  O59  1  0.11122000  0.36716000  0.95624000  1.0 -0.3156323439
O  O60  1  0.36716000  0.11122000  0.56538000  1.0 -0.3156323439
O  O61  1  0.93462000  0.38878000  0.13284000  1.0 -0.3156323439
O  O62  1  0.54376000  0.13284000  0.38878000  1.0 -0.3156323439
O  O63  1  0.13284000  0.54376000  0.93462000  1.0 -0.3156323439
O  O64  1  0.13284000  0.93462000  0.38878000  1.0 -0.3156323439
O  O65  1  0.38878000  0.54376000  0.13284000  1.0 -0.3156323439
O  O66  1  0.93462000  0.13284000  0.54376000  1.0 -0.3156323439
O  O67  1  0.38878000  0.13284000  0.93462000  1.0 -0.3156323439
O  O68  1  0.13284000  0.38878000  0.54376000  1.0 -0.3156323439
O  O69  1  0.54376000  0.93462000  0.13284000  1.0 -0.3156323439
O  O70  1  0.56538000  0.11122000  0.95624000  1.0 -0.3156323439
O  O71  1  0.11122000  0.95624000  0.56538000  1.0 -0.3156323439
O  O72  1  0.95624000  0.56538000  0.11122000  1.0 -0.3156323439
O  O73  1  0.61122000  0.06538000  0.45624000  1.0 -0.3156323439
O  O74  1  0.45624000  0.61122000  0.06538000  1.0 -0.3156323439
O  O75  1  0.06538000  0.45624000  0.61122000  1.0 -0.3156323439
O  O76  1  0.88878000  0.43462000  0.63284000  1.0 -0.3156323439
O  O77  1  0.04376000  0.63284000  0.43462000  1.0 -0.3156323439
O  O78  1  0.63284000  0.04376000  0.88878000  1.0 -0.3156323439
O  O79  1  0.04376000  0.88878000  0.63284000  1.0 -0.3156323439
O  O80  1  0.63284000  0.43462000  0.04376000  1.0 -0.3156323439
O  O81  1  0.43462000  0.63284000  0.88878000  1.0 -0.3156323439
O  O82  1  0.43462000  0.04376000  0.63284000  1.0 -0.3156323439
O  O83  1  0.88878000  0.63284000  0.04376000  1.0 -0.3156323439
O  O84  1  0.63284000  0.88878000  0.43462000  1.0 -0.3156323439
O  O85  1  0.06538000  0.61122000  0.86716000  1.0 -0.3156323439
O  O86  1  0.45624000  0.86716000  0.61122000  1.0 -0.3156323439
O  O87  1  0.86716000  0.45624000  0.06538000  1.0 -0.3156323439
O  O88  1  0.86716000  0.06538000  0.61122000  1.0 -0.3156323439
O  O89  1  0.61122000  0.45624000  0.86716000  1.0 -0.3156323439
O  O90  1  0.06538000  0.86716000  0.45624000  1.0 -0.3156323439
O  O91  1  0.61122000  0.86716000  0.06538000  1.0 -0.3156323439
O  O92  1  0.86716000  0.61122000  0.45624000  1.0 -0.3156323439
O  O93  1  0.45624000  0.06538000  0.86716000  1.0 -0.3156323439
O  O94  1  0.43462000  0.88878000  0.04376000  1.0 -0.3156323439
O  O95  1  0.88878000  0.04376000  0.43462000  1.0 -0.3156323439
O  O96  1  0.04376000  0.43462000  0.88878000  1.0 -0.3156323439
O  O97  1  0.50000000  0.00000000  0.50000000  1.0 -0.2239141172
O  O98  1  0.50000000  0.50000000  0.00000000  1.0 -0.2265391803
O  O99  1  0.00000000  0.50000000  0.50000000  1.0 -0.2239141172
O  O100  1  0.50000000  0.00000000  0.00000000  1.0 -0.2265391803
O  O101  1  0.00000000  0.00000000  0.50000000  1.0 -0.2239141172
O  O102  1  0.00000000  0.50000000  0.00000000  1.0 -0.2265391803
O  O103  1  0.48550000  0.84810000  0.51450000  1.0 -0.1444199663
O  O104  1  0.51450000  0.48550000  0.84810000  1.0 -0.1444199663
O  O105  1  0.84810000  0.51450000  0.48550000  1.0 -0.1444199663
O  O106  1  0.01450000  0.65190000  0.34810000  1.0 -0.1444199663
O  O107  1  0.98550000  0.34810000  0.65190000  1.0 -0.1444199663
O  O108  1  0.34810000  0.98550000  0.01450000  1.0 -0.1444199663
O  O109  1  0.98550000  0.01450000  0.34810000  1.0 -0.1444199663
O  O110  1  0.34810000  0.65190000  0.98550000  1.0 -0.1444199663
O  O111  1  0.65190000  0.34810000  0.01450000  1.0 -0.1444199663
O  O112  1  0.65190000  0.98550000  0.34810000  1.0 -0.1444199663
O  O113  1  0.01450000  0.34810000  0.98550000  1.0 -0.1444199663
O  O114  1  0.34810000  0.01450000  0.65190000  1.0 -0.1444199663
O  O115  1  0.84810000  0.48550000  0.15190000  1.0 -0.1444199663
O  O116  1  0.51450000  0.15190000  0.48550000  1.0 -0.1444199663
O  O117  1  0.15190000  0.51450000  0.84810000  1.0 -0.1444199663
O  O118  1  0.15190000  0.84810000  0.48550000  1.0 -0.1444199663
O  O119  1  0.48550000  0.51450000  0.15190000  1.0 -0.1444199663
O  O120  1  0.84810000  0.15190000  0.51450000  1.0 -0.1444199663
O  O121  1  0.48550000  0.15190000  0.84810000  1.0 -0.1444199663
O  O122  1  0.15190000  0.48550000  0.51450000  1.0 -0.1444199663
O  O123  1  0.51450000  0.84810000  0.15190000  1.0 -0.1444199663
O  O124  1  0.65190000  0.01450000  0.98550000  1.0 -0.1444199663
O  O125  1  0.01450000  0.98550000  0.65190000  1.0 -0.1444199663
O  O126  1  0.98550000  0.65190000  0.01450000  1.0 -0.1444199663
O  O127  1  0.46460000  0.83360000  0.53540000  1.0 0.005904935
O  O128  1  0.53540000  0.46460000  0.83360000  1.0 0.005904935
O  O129  1  0.83360000  0.53540000  0.46460000  1.0 0.005904935
O  O130  1  0.03540000  0.66640000  0.33360000  1.0 0.005904935
O  O131  1  0.96460000  0.33360000  0.66640000  1.0 0.005904935
O  O132  1  0.33360000  0.96460000  0.03540000  1.0 0.005904935
O  O133  1  0.96460000  0.03540000  0.33360000  1.0 0.005904935
O  O134  1  0.33360000  0.66640000  0.96460000  1.0 0.005904935
O  O135  1  0.66640000  0.33360000  0.03540000  1.0 0.005904935
O  O136  1  0.66640000  0.96460000  0.33360000  1.0 0.005904935
O  O137  1  0.03540000  0.33360000  0.96460000  1.0 0.005904935
O  O138  1  0.33360000  0.03540000  0.66640000  1.0 0.005904935
O  O139  1  0.83360000  0.46460000  0.16640000  1.0 0.005904935
O  O140  1  0.53540000  0.16640000  0.46460000  1.0 0.005904935
O  O141  1  0.16640000  0.53540000  0.83360000  1.0 0.005904935
O  O142  1  0.16640000  0.83360000  0.46460000  1.0 0.005904935
O  O143  1  0.46460000  0.53540000  0.16640000  1.0 0.005904935
O  O144  1  0.83360000  0.16640000  0.53540000  1.0 0.005904935
O  O145  1  0.46460000  0.16640000  0.83360000  1.0 0.005904935
O  O146  1  0.16640000  0.46460000  0.53540000  1.0 0.005904935
O  O147  1  0.53540000  0.83360000  0.16640000  1.0 0.005904935
O  O148  1  0.66640000  0.03540000  0.96460000  1.0 0.005904935
O  O149  1  0.03540000  0.96460000  0.66640000  1.0 0.005904935
O  O150  1  0.96460000  0.66640000  0.03540000  1.0 0.005904935
