# DDEC6 charges by PACMAN v1.1 (https://github.com/mtap-research/PACMAN-charge/)
data_BUFPIC_ASR_pacman
_symmetry_space_group_name_H-M   'P 1'
_cell_length_a   20.43720000
_cell_length_b   20.43720000
_cell_length_c   20.43720000
_cell_angle_alpha   53.36830000
_cell_angle_beta   53.36830000
_cell_angle_gamma   53.36830000
_symmetry_Int_Tables_number   1
_chemical_formula_structural   CuH31C39O4
_chemical_formula_sum   'Cu6 H186 C234 O24'
_cell_volume   5098.92479451
_cell_formula_units_Z   6
loop_
 _symmetry_equiv_pos_site_id
 _symmetry_equiv_pos_as_xyz
  1  'x, y, z'
loop_
 _atom_site_type_symbol
 _atom_site_label
 _atom_site_symmetry_multiplicity
 _atom_site_fract_x
 _atom_site_fract_y
 _atom_site_fract_z
 _atom_site_occupancy
 _atom_site_charge
Cu  Cu1  1  0.42980000  0.00440000  0.00440000  1.0 0.8858010288
Cu  Cu2  1  0.00440000  0.00440000  0.42980000  1.0 0.8858010288
Cu  Cu3  1  0.00440000  0.42980000  0.00440000  1.0 0.8858010288
Cu  Cu4  1  0.57020000  0.99560000  0.99560000  1.0 0.8858010288
Cu  Cu5  1  0.99560000  0.57020000  0.99560000  1.0 0.8858010288
Cu  Cu6  1  0.99560000  0.99560000  0.57020000  1.0 0.8858010288
H  H1  1  0.72645000  0.72645000  0.03460000  1.0 0.1362089332
H  H2  1  0.72645000  0.03460000  0.72645000  1.0 0.1362089332
H  H3  1  0.03460000  0.72645000  0.72645000  1.0 0.1362089332
H  H4  1  0.27355000  0.96540000  0.27355000  1.0 0.1362089332
H  H5  1  0.27355000  0.27355000  0.96540000  1.0 0.1362089332
H  H6  1  0.96540000  0.27355000  0.27355000  1.0 0.1362089332
H  H7  1  0.52020000  0.74030000  0.03530000  1.0 0.1081296352
H  H8  1  0.74030000  0.03530000  0.52020000  1.0 0.1081296352
H  H9  1  0.03530000  0.52020000  0.74030000  1.0 0.1081296352
H  H10  1  0.47980000  0.96470000  0.25970000  1.0 0.1081296352
H  H11  1  0.25970000  0.47980000  0.96470000  1.0 0.1081296352
H  H12  1  0.96470000  0.25970000  0.47980000  1.0 0.1081296352
H  H13  1  0.47980000  0.25970000  0.96470000  1.0 0.1081296352
H  H14  1  0.25970000  0.96470000  0.47980000  1.0 0.1081296352
H  H15  1  0.96470000  0.47980000  0.25970000  1.0 0.1081296352
H  H16  1  0.52020000  0.03530000  0.74030000  1.0 0.1081296352
H  H17  1  0.74030000  0.52020000  0.03530000  1.0 0.1081296352
H  H18  1  0.03530000  0.74030000  0.52020000  1.0 0.1081296352
H  H19  1  0.61100000  0.46100000  0.13470000  1.0 0.0710498648
H  H20  1  0.46100000  0.13470000  0.61100000  1.0 0.0710498648
H  H21  1  0.13470000  0.61100000  0.46100000  1.0 0.0710498648
H  H22  1  0.38900000  0.86530000  0.53900000  1.0 0.0710498648
H  H23  1  0.53900000  0.38900000  0.86530000  1.0 0.0710498648
H  H24  1  0.86530000  0.53900000  0.38900000  1.0 0.0710498648
H  H25  1  0.38900000  0.53900000  0.86530000  1.0 0.0710498648
H  H26  1  0.53900000  0.86530000  0.38900000  1.0 0.0710498648
H  H27  1  0.86530000  0.38900000  0.53900000  1.0 0.0710498648
H  H28  1  0.61100000  0.13470000  0.46100000  1.0 0.0710498648
H  H29  1  0.46100000  0.61100000  0.13470000  1.0 0.0710498648
H  H30  1  0.13470000  0.46100000  0.61100000  1.0 0.0710498648
H  H31  1  0.50170000  0.70180000  0.97080000  1.0 0.0710498648
H  H32  1  0.70180000  0.97080000  0.50170000  1.0 0.0710498648
H  H33  1  0.97080000  0.50170000  0.70180000  1.0 0.0710498648
H  H34  1  0.49830000  0.02920000  0.29820000  1.0 0.0710498648
H  H35  1  0.29820000  0.49830000  0.02920000  1.0 0.0710498648
H  H36  1  0.02920000  0.29820000  0.49830000  1.0 0.0710498648
H  H37  1  0.49830000  0.29820000  0.02920000  1.0 0.0710498648
H  H38  1  0.29820000  0.02920000  0.49830000  1.0 0.0710498648
H  H39  1  0.02920000  0.49830000  0.29820000  1.0 0.0710498648
H  H40  1  0.50170000  0.97080000  0.70180000  1.0 0.0710498648
H  H41  1  0.70180000  0.50170000  0.97080000  1.0 0.0710498648
H  H42  1  0.97080000  0.70180000  0.50170000  1.0 0.0710498648
H  H43  1  0.44590000  0.64790000  0.94700000  1.0 0.0607722368
H  H44  1  0.64790000  0.94700000  0.44590000  1.0 0.0607722368
H  H45  1  0.94700000  0.44590000  0.64790000  1.0 0.0607722368
H  H46  1  0.55410000  0.05300000  0.35210000  1.0 0.0607722368
H  H47  1  0.35210000  0.55410000  0.05300000  1.0 0.0607722368
H  H48  1  0.05300000  0.35210000  0.55410000  1.0 0.0607722368
H  H49  1  0.55410000  0.35210000  0.05300000  1.0 0.0607722368
H  H50  1  0.35210000  0.05300000  0.55410000  1.0 0.0607722368
H  H51  1  0.05300000  0.55410000  0.35210000  1.0 0.0607722368
H  H52  1  0.44590000  0.94700000  0.64790000  1.0 0.0607722368
H  H53  1  0.64790000  0.44590000  0.94700000  1.0 0.0607722368
H  H54  1  0.94700000  0.64790000  0.44590000  1.0 0.0607722368
H  H55  1  0.62820000  0.33990000  0.11230000  1.0 0.0710498648
H  H56  1  0.33990000  0.11230000  0.62820000  1.0 0.0710498648
H  H57  1  0.11230000  0.62820000  0.33990000  1.0 0.0710498648
H  H58  1  0.37180000  0.88770000  0.66010000  1.0 0.0710498648
H  H59  1  0.66010000  0.37180000  0.88770000  1.0 0.0710498648
H  H60  1  0.88770000  0.66010000  0.37180000  1.0 0.0710498648
H  H61  1  0.37180000  0.66010000  0.88770000  1.0 0.0710498648
H  H62  1  0.66010000  0.88770000  0.37180000  1.0 0.0710498648
H  H63  1  0.88770000  0.37180000  0.66010000  1.0 0.0710498648
H  H64  1  0.62820000  0.11230000  0.33990000  1.0 0.0710498648
H  H65  1  0.33990000  0.62820000  0.11230000  1.0 0.0710498648
H  H66  1  0.11230000  0.33990000  0.62820000  1.0 0.0710498648
H  H67  1  0.53970000  0.35760000  0.19420000  1.0 0.0710498648
H  H68  1  0.35760000  0.19420000  0.53970000  1.0 0.0710498648
H  H69  1  0.19420000  0.53970000  0.35760000  1.0 0.0710498648
H  H70  1  0.46030000  0.80580000  0.64240000  1.0 0.0710498648
H  H71  1  0.64240000  0.46030000  0.80580000  1.0 0.0710498648
H  H72  1  0.80580000  0.64240000  0.46030000  1.0 0.0710498648
H  H73  1  0.46030000  0.64240000  0.80580000  1.0 0.0710498648
H  H74  1  0.64240000  0.80580000  0.46030000  1.0 0.0710498648
H  H75  1  0.80580000  0.46030000  0.64240000  1.0 0.0710498648
H  H76  1  0.53970000  0.19420000  0.35760000  1.0 0.0710498648
H  H77  1  0.35760000  0.53970000  0.19420000  1.0 0.0710498648
H  H78  1  0.19420000  0.35760000  0.53970000  1.0 0.0710498648
H  H79  1  0.45020000  0.72760000  0.84590000  1.0 0.0710498648
H  H80  1  0.72760000  0.84590000  0.45020000  1.0 0.0710498648
H  H81  1  0.84590000  0.45020000  0.72760000  1.0 0.0710498648
H  H82  1  0.54980000  0.15410000  0.27240000  1.0 0.0710498648
H  H83  1  0.27240000  0.54980000  0.15410000  1.0 0.0710498648
H  H84  1  0.15410000  0.27240000  0.54980000  1.0 0.0710498648
H  H85  1  0.54980000  0.27240000  0.15410000  1.0 0.0710498648
H  H86  1  0.27240000  0.15410000  0.54980000  1.0 0.0710498648
H  H87  1  0.15410000  0.54980000  0.27240000  1.0 0.0710498648
H  H88  1  0.45020000  0.84590000  0.72760000  1.0 0.0710498648
H  H89  1  0.72760000  0.45020000  0.84590000  1.0 0.0710498648
H  H90  1  0.84590000  0.72760000  0.45020000  1.0 0.0710498648
H  H91  1  0.53030000  0.63860000  0.86020000  1.0 0.0710498648
H  H92  1  0.63860000  0.86020000  0.53030000  1.0 0.0710498648
H  H93  1  0.86020000  0.53030000  0.63860000  1.0 0.0710498648
H  H94  1  0.46970000  0.13980000  0.36140000  1.0 0.0710498648
H  H95  1  0.36140000  0.46970000  0.13980000  1.0 0.0710498648
H  H96  1  0.13980000  0.36140000  0.46970000  1.0 0.0710498648
H  H97  1  0.46970000  0.36140000  0.13980000  1.0 0.0710498648
H  H98  1  0.36140000  0.13980000  0.46970000  1.0 0.0710498648
H  H99  1  0.13980000  0.46970000  0.36140000  1.0 0.0710498648
H  H100  1  0.53030000  0.86020000  0.63860000  1.0 0.0710498648
H  H101  1  0.63860000  0.53030000  0.86020000  1.0 0.0710498648
H  H102  1  0.86020000  0.63860000  0.53030000  1.0 0.0710498648
H  H103  1  0.35560000  0.91220000  0.53380000  1.0 0.0710498648
H  H104  1  0.91220000  0.53380000  0.35560000  1.0 0.0710498648
H  H105  1  0.53380000  0.35560000  0.91220000  1.0 0.0710498648
H  H106  1  0.64440000  0.46620000  0.08780000  1.0 0.0710498648
H  H107  1  0.08780000  0.64440000  0.46620000  1.0 0.0710498648
H  H108  1  0.46620000  0.08780000  0.64440000  1.0 0.0710498648
H  H109  1  0.64440000  0.08780000  0.46620000  1.0 0.0710498648
H  H110  1  0.08780000  0.46620000  0.64440000  1.0 0.0710498648
H  H111  1  0.46620000  0.64440000  0.08780000  1.0 0.0710498648
H  H112  1  0.35560000  0.53380000  0.91220000  1.0 0.0710498648
H  H113  1  0.91220000  0.35560000  0.53380000  1.0 0.0710498648
H  H114  1  0.53380000  0.91220000  0.35560000  1.0 0.0710498648
H  H115  1  0.46470000  0.07460000  0.29140000  1.0 0.0607722368
H  H116  1  0.07460000  0.29140000  0.46470000  1.0 0.0607722368
H  H117  1  0.29140000  0.46470000  0.07460000  1.0 0.0607722368
H  H118  1  0.53530000  0.70860000  0.92540000  1.0 0.0607722368
H  H119  1  0.92540000  0.53530000  0.70860000  1.0 0.0607722368
H  H120  1  0.70860000  0.92540000  0.53530000  1.0 0.0607722368
H  H121  1  0.53530000  0.92540000  0.70860000  1.0 0.0607722368
H  H122  1  0.92540000  0.70860000  0.53530000  1.0 0.0607722368
H  H123  1  0.70860000  0.53530000  0.92540000  1.0 0.0607722368
H  H124  1  0.46470000  0.29140000  0.07460000  1.0 0.0607722368
H  H125  1  0.07460000  0.46470000  0.29140000  1.0 0.0607722368
H  H126  1  0.29140000  0.07460000  0.46470000  1.0 0.0607722368
H  H127  1  0.51080000  0.09110000  0.36020000  1.0 0.0710498648
H  H128  1  0.09110000  0.36020000  0.51080000  1.0 0.0710498648
H  H129  1  0.36020000  0.51080000  0.09110000  1.0 0.0710498648
H  H130  1  0.48920000  0.63980000  0.90890000  1.0 0.0710498648
H  H131  1  0.90890000  0.48920000  0.63980000  1.0 0.0710498648
H  H132  1  0.63980000  0.90890000  0.48920000  1.0 0.0710498648
H  H133  1  0.48920000  0.90890000  0.63980000  1.0 0.0710498648
H  H134  1  0.90890000  0.63980000  0.48920000  1.0 0.0710498648
H  H135  1  0.63980000  0.48920000  0.90890000  1.0 0.0710498648
H  H136  1  0.51080000  0.36020000  0.09110000  1.0 0.0710498648
H  H137  1  0.09110000  0.51080000  0.36020000  1.0 0.0710498648
H  H138  1  0.36020000  0.09110000  0.51080000  1.0 0.0710498648
H  H139  1  0.33850000  0.93780000  0.65220000  1.0 0.0533599189
H  H140  1  0.93780000  0.65220000  0.33850000  1.0 0.0533599189
H  H141  1  0.65220000  0.33850000  0.93780000  1.0 0.0533599189
H  H142  1  0.66150000  0.34780000  0.06220000  1.0 0.0533599189
H  H143  1  0.06220000  0.66150000  0.34780000  1.0 0.0533599189
H  H144  1  0.34780000  0.06220000  0.66150000  1.0 0.0533599189
H  H145  1  0.66150000  0.06220000  0.34780000  1.0 0.0533599189
H  H146  1  0.06220000  0.34780000  0.66150000  1.0 0.0533599189
H  H147  1  0.34780000  0.66150000  0.06220000  1.0 0.0533599189
H  H148  1  0.33850000  0.65220000  0.93780000  1.0 0.0533599189
H  H149  1  0.93780000  0.33850000  0.65220000  1.0 0.0533599189
H  H150  1  0.65220000  0.93780000  0.33850000  1.0 0.0533599189
H  H151  1  0.42480000  0.85850000  0.63650000  1.0 0.0607722368
H  H152  1  0.85850000  0.63650000  0.42480000  1.0 0.0607722368
H  H153  1  0.63650000  0.42480000  0.85850000  1.0 0.0607722368
H  H154  1  0.57520000  0.36350000  0.14150000  1.0 0.0607722368
H  H155  1  0.14150000  0.57520000  0.36350000  1.0 0.0607722368
H  H156  1  0.36350000  0.14150000  0.57520000  1.0 0.0607722368
H  H157  1  0.57520000  0.14150000  0.36350000  1.0 0.0607722368
H  H158  1  0.14150000  0.36350000  0.57520000  1.0 0.0607722368
H  H159  1  0.36350000  0.57520000  0.14150000  1.0 0.0607722368
H  H160  1  0.42480000  0.63650000  0.85850000  1.0 0.0607722368
H  H161  1  0.85850000  0.42480000  0.63650000  1.0 0.0607722368
H  H162  1  0.63650000  0.85850000  0.42480000  1.0 0.0607722368
H  H163  1  0.41370000  0.90010000  0.72030000  1.0 0.0710498648
H  H164  1  0.90010000  0.72030000  0.41370000  1.0 0.0710498648
H  H165  1  0.72030000  0.41370000  0.90010000  1.0 0.0710498648
H  H166  1  0.58630000  0.27970000  0.09990000  1.0 0.0710498648
H  H167  1  0.09990000  0.58630000  0.27970000  1.0 0.0710498648
H  H168  1  0.27970000  0.09990000  0.58630000  1.0 0.0710498648
H  H169  1  0.58630000  0.09990000  0.27970000  1.0 0.0710498648
H  H170  1  0.09990000  0.27970000  0.58630000  1.0 0.0710498648
H  H171  1  0.27970000  0.58630000  0.09990000  1.0 0.0710498648
H  H172  1  0.41370000  0.72030000  0.90010000  1.0 0.0710498648
H  H173  1  0.90010000  0.41370000  0.72030000  1.0 0.0710498648
H  H174  1  0.72030000  0.90010000  0.41370000  1.0 0.0710498648
H  H175  1  0.40610000  0.99460000  0.64750000  1.0 0.0533599189
H  H176  1  0.99460000  0.64750000  0.40610000  1.0 0.0533599189
H  H177  1  0.64750000  0.40610000  0.99460000  1.0 0.0533599189
H  H178  1  0.59390000  0.35250000  0.00540000  1.0 0.0533599189
H  H179  1  0.00540000  0.59390000  0.35250000  1.0 0.0533599189
H  H180  1  0.35250000  0.00540000  0.59390000  1.0 0.0533599189
H  H181  1  0.59390000  0.00540000  0.35250000  1.0 0.0533599189
H  H182  1  0.00540000  0.35250000  0.59390000  1.0 0.0533599189
H  H183  1  0.35250000  0.59390000  0.00540000  1.0 0.0533599189
H  H184  1  0.40610000  0.64750000  0.99460000  1.0 0.0533599189
H  H185  1  0.99460000  0.40610000  0.64750000  1.0 0.0533599189
H  H186  1  0.64750000  0.99460000  0.40610000  1.0 0.0533599189
C  C1  1  0.56941000  0.83821000  0.02891000  1.0 0.5839735683
C  C2  1  0.83821000  0.02891000  0.56941000  1.0 0.5839735683
C  C3  1  0.02891000  0.56941000  0.83821000  1.0 0.5839735683
C  C4  1  0.43059000  0.97109000  0.16179000  1.0 0.5839735683
C  C5  1  0.16179000  0.43059000  0.97109000  1.0 0.5839735683
C  C6  1  0.97109000  0.16179000  0.43059000  1.0 0.5839735683
C  C7  1  0.43059000  0.16179000  0.97109000  1.0 0.5839735683
C  C8  1  0.16179000  0.97109000  0.43059000  1.0 0.5839735683
C  C9  1  0.97109000  0.43059000  0.16179000  1.0 0.5839735683
C  C10  1  0.56941000  0.02891000  0.83821000  1.0 0.5839735683
C  C11  1  0.83821000  0.56941000  0.02891000  1.0 0.5839735683
C  C12  1  0.02891000  0.83821000  0.56941000  1.0 0.5839735683
C  C13  1  0.62436000  0.62436000  0.03406000  1.0 0.080724457
C  C14  1  0.62436000  0.03406000  0.62436000  1.0 0.080724457
C  C15  1  0.03406000  0.62436000  0.62436000  1.0 0.080724457
C  C16  1  0.37564000  0.96594000  0.37564000  1.0 0.080724457
C  C17  1  0.37564000  0.37564000  0.96594000  1.0 0.080724457
C  C18  1  0.96594000  0.37564000  0.37564000  1.0 0.080724457
C  C19  1  0.70019000  0.70019000  0.03549000  1.0 -0.0975868985
C  C20  1  0.70019000  0.03549000  0.70019000  1.0 -0.0975868985
C  C21  1  0.03549000  0.70019000  0.70019000  1.0 -0.0975868985
C  C22  1  0.29981000  0.96451000  0.29981000  1.0 -0.0975868985
C  C23  1  0.29981000  0.29981000  0.96451000  1.0 -0.0975868985
C  C24  1  0.96451000  0.29981000  0.29981000  1.0 -0.0975868985
C  C25  1  0.57812000  0.70832000  0.03522000  1.0 -0.26751758
C  C26  1  0.70832000  0.03522000  0.57812000  1.0 -0.26751758
C  C27  1  0.03522000  0.57812000  0.70832000  1.0 -0.26751758
C  C28  1  0.42188000  0.96478000  0.29168000  1.0 -0.26751758
C  C29  1  0.29168000  0.42188000  0.96478000  1.0 -0.26751758
C  C30  1  0.96478000  0.29168000  0.42188000  1.0 -0.26751758
C  C31  1  0.42188000  0.29168000  0.96478000  1.0 -0.26751758
C  C32  1  0.29168000  0.96478000  0.42188000  1.0 -0.26751758
C  C33  1  0.96478000  0.42188000  0.29168000  1.0 -0.26751758
C  C34  1  0.57812000  0.03522000  0.70832000  1.0 -0.26751758
C  C35  1  0.70832000  0.57812000  0.03522000  1.0 -0.26751758
C  C36  1  0.03522000  0.70832000  0.57812000  1.0 -0.26751758
C  C37  1  0.61539000  0.74639000  0.03629000  1.0 -0.01784163
C  C38  1  0.74639000  0.03629000  0.61539000  1.0 -0.01784163
C  C39  1  0.03629000  0.61539000  0.74639000  1.0 -0.01784163
C  C40  1  0.38461000  0.96371000  0.25361000  1.0 -0.01784163
C  C41  1  0.25361000  0.38461000  0.96371000  1.0 -0.01784163
C  C42  1  0.96371000  0.25361000  0.38461000  1.0 -0.01784163
C  C43  1  0.38461000  0.25361000  0.96371000  1.0 -0.01784163
C  C44  1  0.25361000  0.96371000  0.38461000  1.0 -0.01784163
C  C45  1  0.96371000  0.38461000  0.25361000  1.0 -0.01784163
C  C46  1  0.61539000  0.03629000  0.74639000  1.0 -0.01784163
C  C47  1  0.74639000  0.61539000  0.03629000  1.0 -0.01784163
C  C48  1  0.03629000  0.74639000  0.61539000  1.0 -0.01784163
C  C49  1  0.57801000  0.49751000  0.09761000  1.0 -0.075334376
C  C50  1  0.49751000  0.09761000  0.57801000  1.0 -0.075334376
C  C51  1  0.09761000  0.57801000  0.49751000  1.0 -0.075334376
C  C52  1  0.42199000  0.90239000  0.50249000  1.0 -0.075334376
C  C53  1  0.50249000  0.42199000  0.90239000  1.0 -0.075334376
C  C54  1  0.90239000  0.50249000  0.42199000  1.0 -0.075334376
C  C55  1  0.42199000  0.50249000  0.90239000  1.0 -0.075334376
C  C56  1  0.50249000  0.90239000  0.42199000  1.0 -0.075334376
C  C57  1  0.90239000  0.42199000  0.50249000  1.0 -0.075334376
C  C58  1  0.57801000  0.09761000  0.49751000  1.0 -0.075334376
C  C59  1  0.49751000  0.57801000  0.09761000  1.0 -0.075334376
C  C60  1  0.09761000  0.49751000  0.57801000  1.0 -0.075334376
C  C61  1  0.56126000  0.58706000  0.05436000  1.0 0.0366864576
C  C62  1  0.58706000  0.05436000  0.56126000  1.0 0.0366864576
C  C63  1  0.05436000  0.56126000  0.58706000  1.0 0.0366864576
C  C64  1  0.43874000  0.94564000  0.41294000  1.0 0.0366864576
C  C65  1  0.41294000  0.43874000  0.94564000  1.0 0.0366864576
C  C66  1  0.94564000  0.41294000  0.43874000  1.0 0.0366864576
C  C67  1  0.43874000  0.41294000  0.94564000  1.0 0.0366864576
C  C68  1  0.41294000  0.94564000  0.43874000  1.0 0.0366864576
C  C69  1  0.94564000  0.43874000  0.41294000  1.0 0.0366864576
C  C70  1  0.56126000  0.05436000  0.58706000  1.0 0.0366864576
C  C71  1  0.58706000  0.56126000  0.05436000  1.0 0.0366864576
C  C72  1  0.05436000  0.58706000  0.56126000  1.0 0.0366864576
C  C73  1  0.51333000  0.63993000  0.00073000  1.0 -0.0254493278
C  C74  1  0.63993000  0.00073000  0.51333000  1.0 -0.0254493278
C  C75  1  0.00073000  0.51333000  0.63993000  1.0 -0.0254493278
C  C76  1  0.48667000  0.99927000  0.36007000  1.0 -0.0254493278
C  C77  1  0.36007000  0.48667000  0.99927000  1.0 -0.0254493278
C  C78  1  0.99927000  0.36007000  0.48667000  1.0 -0.0254493278
C  C79  1  0.48667000  0.36007000  0.99927000  1.0 -0.0254493278
C  C80  1  0.36007000  0.99927000  0.48667000  1.0 -0.0254493278
C  C81  1  0.99927000  0.48667000  0.36007000  1.0 -0.0254493278
C  C82  1  0.51333000  0.00073000  0.63993000  1.0 -0.0254493278
C  C83  1  0.63993000  0.51333000  0.00073000  1.0 -0.0254493278
C  C84  1  0.00073000  0.63993000  0.51333000  1.0 -0.0254493278
C  C85  1  0.48227000  0.60317000  0.99037000  1.0 0.002210818
C  C86  1  0.60317000  0.99037000  0.48227000  1.0 0.002210818
C  C87  1  0.99037000  0.48227000  0.60317000  1.0 0.002210818
C  C88  1  0.51773000  0.00963000  0.39683000  1.0 0.002210818
C  C89  1  0.39683000  0.51773000  0.00963000  1.0 0.002210818
C  C90  1  0.00963000  0.39683000  0.51773000  1.0 0.002210818
C  C91  1  0.51773000  0.39683000  0.00963000  1.0 0.002210818
C  C92  1  0.39683000  0.00963000  0.51773000  1.0 0.002210818
C  C93  1  0.00963000  0.51773000  0.39683000  1.0 0.002210818
C  C94  1  0.48227000  0.99037000  0.60317000  1.0 0.002210818
C  C95  1  0.60317000  0.48227000  0.99037000  1.0 0.002210818
C  C96  1  0.99037000  0.60317000  0.48227000  1.0 0.002210818
C  C97  1  0.49902000  0.51362000  0.03362000  1.0 0.0226867475
C  C98  1  0.51362000  0.03362000  0.49902000  1.0 0.0226867475
C  C99  1  0.03362000  0.49902000  0.51362000  1.0 0.0226867475
C  C100  1  0.50098000  0.96638000  0.48638000  1.0 0.0226867475
C  C101  1  0.48638000  0.50098000  0.96638000  1.0 0.0226867475
C  C102  1  0.96638000  0.48638000  0.50098000  1.0 0.0226867475
C  C103  1  0.50098000  0.48638000  0.96638000  1.0 0.0226867475
C  C104  1  0.48638000  0.96638000  0.50098000  1.0 0.0226867475
C  C105  1  0.96638000  0.50098000  0.48638000  1.0 0.0226867475
C  C106  1  0.49902000  0.03362000  0.51362000  1.0 0.0226867475
C  C107  1  0.51362000  0.49902000  0.03362000  1.0 0.0226867475
C  C108  1  0.03362000  0.51362000  0.49902000  1.0 0.0226867475
C  C109  1  0.54694000  0.46074000  0.08724000  1.0 -0.0041066343
C  C110  1  0.46074000  0.08724000  0.54694000  1.0 -0.0053331775
C  C111  1  0.08724000  0.54694000  0.46074000  1.0 -0.0053331775
C  C112  1  0.45306000  0.91276000  0.53926000  1.0 -0.0053331775
C  C113  1  0.53926000  0.45306000  0.91276000  1.0 -0.0053331775
C  C114  1  0.91276000  0.53926000  0.45306000  1.0 -0.0041066343
C  C115  1  0.45306000  0.53926000  0.91276000  1.0 -0.0053331775
C  C116  1  0.53926000  0.91276000  0.45306000  1.0 -0.0053331775
C  C117  1  0.91276000  0.45306000  0.53926000  1.0 -0.0041066343
C  C118  1  0.54694000  0.08724000  0.46074000  1.0 -0.0041066343
C  C119  1  0.46074000  0.54694000  0.08724000  1.0 -0.0053331775
C  C120  1  0.08724000  0.46074000  0.54694000  1.0 -0.0053331775
C  C121  1  0.56370000  0.37120000  0.13050000  1.0 -0.1636671259
C  C122  1  0.37120000  0.13050000  0.56370000  1.0 -0.1636671259
C  C123  1  0.13050000  0.56370000  0.37120000  1.0 -0.1636671259
C  C124  1  0.43630000  0.86950000  0.62880000  1.0 -0.1636671259
C  C125  1  0.62880000  0.43630000  0.86950000  1.0 -0.1636671259
C  C126  1  0.86950000  0.62880000  0.43630000  1.0 -0.1636671259
C  C127  1  0.43630000  0.62880000  0.86950000  1.0 -0.1636671259
C  C128  1  0.62880000  0.86950000  0.43630000  1.0 -0.1636671259
C  C129  1  0.86950000  0.43630000  0.62880000  1.0 -0.1636671259
C  C130  1  0.56370000  0.13050000  0.37120000  1.0 -0.1636671259
C  C131  1  0.37120000  0.56370000  0.13050000  1.0 -0.1636671259
C  C132  1  0.13050000  0.37120000  0.56370000  1.0 -0.1636671259
C  C133  1  0.46737000  0.66557000  0.87987000  1.0 -0.1884801881
C  C134  1  0.66557000  0.87987000  0.46737000  1.0 -0.1884801881
C  C135  1  0.87987000  0.46737000  0.66557000  1.0 -0.1884801881
C  C136  1  0.53263000  0.12013000  0.33443000  1.0 -0.1884801881
C  C137  1  0.33443000  0.53263000  0.12013000  1.0 -0.1884801881
C  C138  1  0.12013000  0.33443000  0.53263000  1.0 -0.1884801881
C  C139  1  0.53263000  0.33443000  0.12013000  1.0 -0.1884801881
C  C140  1  0.33443000  0.12013000  0.53263000  1.0 -0.1884801881
C  C141  1  0.12013000  0.53263000  0.33443000  1.0 -0.1884801881
C  C142  1  0.46737000  0.87987000  0.66557000  1.0 -0.1884801881
C  C143  1  0.66557000  0.46737000  0.87987000  1.0 -0.1884801881
C  C144  1  0.87987000  0.66557000  0.46737000  1.0 -0.1884801881
C  C145  1  0.38842000  0.94952000  0.49672000  1.0 -0.0041066343
C  C146  1  0.94952000  0.49672000  0.38842000  1.0 -0.0041066343
C  C147  1  0.49672000  0.38842000  0.94952000  1.0 -0.0041066343
C  C148  1  0.61158000  0.50328000  0.05048000  1.0 -0.0041066343
C  C149  1  0.05048000  0.61158000  0.50328000  1.0 -0.0041066343
C  C150  1  0.50328000  0.05048000  0.61158000  1.0 -0.0041066343
C  C151  1  0.61158000  0.05048000  0.50328000  1.0 -0.0041066343
C  C152  1  0.05048000  0.50328000  0.61158000  1.0 -0.0041066343
C  C153  1  0.50328000  0.61158000  0.05048000  1.0 -0.0041066343
C  C154  1  0.38842000  0.49672000  0.94952000  1.0 -0.0041066343
C  C155  1  0.94952000  0.38842000  0.49672000  1.0 -0.0041066343
C  C156  1  0.49672000  0.94952000  0.38842000  1.0 -0.0041066343
C  C157  1  0.40635000  0.99130000  0.40635000  1.0 0.0366864576
C  C158  1  0.99130000  0.40635000  0.40635000  1.0 0.0366864576
C  C159  1  0.40635000  0.40635000  0.99130000  1.0 0.0366864576
C  C160  1  0.59365000  0.59365000  0.00870000  1.0 0.0366864576
C  C161  1  0.00870000  0.59365000  0.59365000  1.0 0.0366864576
C  C162  1  0.59365000  0.00870000  0.59365000  1.0 0.0366864576
C  C163  1  0.45295000  0.04565000  0.35325000  1.0 -0.1311535968
C  C164  1  0.04565000  0.35325000  0.45295000  1.0 -0.1311535968
C  C165  1  0.35325000  0.45295000  0.04565000  1.0 -0.1311535968
C  C166  1  0.54705000  0.64675000  0.95435000  1.0 -0.1311535968
C  C167  1  0.95435000  0.54705000  0.64675000  1.0 -0.1311535968
C  C168  1  0.64675000  0.95435000  0.54705000  1.0 -0.1311535968
C  C169  1  0.54705000  0.95435000  0.64675000  1.0 -0.1311535968
C  C170  1  0.95435000  0.64675000  0.54705000  1.0 -0.1311535968
C  C171  1  0.64675000  0.54705000  0.95435000  1.0 -0.1311535968
C  C172  1  0.45295000  0.35325000  0.04565000  1.0 -0.1311535968
C  C173  1  0.04565000  0.45295000  0.35325000  1.0 -0.1311535968
C  C174  1  0.35325000  0.04565000  0.45295000  1.0 -0.1311535968
C  C175  1  0.48292000  0.05832000  0.38912000  1.0 -0.0466912457
C  C176  1  0.05832000  0.38912000  0.48292000  1.0 -0.0466912457
C  C177  1  0.38912000  0.48292000  0.05832000  1.0 -0.0466912457
C  C178  1  0.51708000  0.61088000  0.94168000  1.0 -0.0466912457
C  C179  1  0.94168000  0.51708000  0.61088000  1.0 -0.0466912457
C  C180  1  0.61088000  0.94168000  0.51708000  1.0 -0.0466912457
C  C181  1  0.51708000  0.94168000  0.61088000  1.0 -0.0466912457
C  C182  1  0.94168000  0.61088000  0.51708000  1.0 -0.0466912457
C  C183  1  0.61088000  0.51708000  0.94168000  1.0 -0.0466912457
C  C184  1  0.48292000  0.38912000  0.05832000  1.0 -0.0466912457
C  C185  1  0.05832000  0.48292000  0.38912000  1.0 -0.0466912457
C  C186  1  0.38912000  0.05832000  0.48292000  1.0 -0.0466912457
C  C187  1  0.46555000  0.01665000  0.47885000  1.0 0.0324234699
C  C188  1  0.01665000  0.47885000  0.46555000  1.0 0.0324234699
C  C189  1  0.47885000  0.46555000  0.01665000  1.0 0.0324234699
C  C190  1  0.53445000  0.52115000  0.98335000  1.0 0.0324234699
C  C191  1  0.98335000  0.53445000  0.52115000  1.0 0.0324234699
C  C192  1  0.52115000  0.98335000  0.53445000  1.0 0.0324234699
C  C193  1  0.53445000  0.98335000  0.52115000  1.0 0.0324234699
C  C194  1  0.98335000  0.52115000  0.53445000  1.0 0.0324234699
C  C195  1  0.52115000  0.53445000  0.98335000  1.0 0.0324234699
C  C196  1  0.46555000  0.47885000  0.01665000  1.0 0.0324234699
C  C197  1  0.01665000  0.46555000  0.47885000  1.0 0.0324234699
C  C198  1  0.47885000  0.01665000  0.46555000  1.0 0.0324234699
C  C199  1  0.41830000  0.96230000  0.53260000  1.0 0.0226867475
C  C200  1  0.96230000  0.53260000  0.41830000  1.0 0.0226867475
C  C201  1  0.53260000  0.41830000  0.96230000  1.0 0.0226867475
C  C202  1  0.58170000  0.46740000  0.03770000  1.0 0.0226867475
C  C203  1  0.03770000  0.58170000  0.46740000  1.0 0.0226867475
C  C204  1  0.46740000  0.03770000  0.58170000  1.0 0.0226867475
C  C205  1  0.58170000  0.03770000  0.46740000  1.0 0.0226867475
C  C206  1  0.03770000  0.46740000  0.58170000  1.0 0.0226867475
C  C207  1  0.46740000  0.58170000  0.03770000  1.0 0.0226867475
C  C208  1  0.41830000  0.53260000  0.96230000  1.0 0.0226867475
C  C209  1  0.96230000  0.41830000  0.53260000  1.0 0.0226867475
C  C210  1  0.53260000  0.96230000  0.41830000  1.0 0.0226867475
C  C211  1  0.40113000  0.92053000  0.62223000  1.0 -0.1248932763
C  C212  1  0.92053000  0.62223000  0.40113000  1.0 -0.1248932763
C  C213  1  0.62223000  0.40113000  0.92053000  1.0 -0.1248932763
C  C214  1  0.59887000  0.37777000  0.07947000  1.0 -0.1248932763
C  C215  1  0.07947000  0.59887000  0.37777000  1.0 -0.1248932763
C  C216  1  0.37777000  0.07947000  0.59887000  1.0 -0.1248932763
C  C217  1  0.59887000  0.07947000  0.37777000  1.0 -0.1248932763
C  C218  1  0.07947000  0.37777000  0.59887000  1.0 -0.1248932763
C  C219  1  0.37777000  0.59887000  0.07947000  1.0 -0.1248932763
C  C220  1  0.40113000  0.62223000  0.92053000  1.0 -0.1248932763
C  C221  1  0.92053000  0.40113000  0.62223000  1.0 -0.1248932763
C  C222  1  0.62223000  0.92053000  0.40113000  1.0 -0.1248932763
C  C223  1  0.43100000  0.93330000  0.65810000  1.0 -0.1437943525
C  C224  1  0.93330000  0.65810000  0.43100000  1.0 -0.1437943525
C  C225  1  0.65810000  0.43100000  0.93330000  1.0 -0.1437943525
C  C226  1  0.56900000  0.34190000  0.06670000  1.0 -0.1437943525
C  C227  1  0.06670000  0.56900000  0.34190000  1.0 -0.1437943525
C  C228  1  0.34190000  0.06670000  0.56900000  1.0 -0.1437943525
C  C229  1  0.56900000  0.06670000  0.34190000  1.0 -0.1437943525
C  C230  1  0.06670000  0.34190000  0.56900000  1.0 -0.1437943525
C  C231  1  0.34190000  0.56900000  0.06670000  1.0 -0.1437943525
C  C232  1  0.43100000  0.65810000  0.93330000  1.0 -0.1437943525
C  C233  1  0.93330000  0.43100000  0.65810000  1.0 -0.1437943525
C  C234  1  0.65810000  0.93330000  0.43100000  1.0 -0.1437943525
O  O1  1  0.49326000  0.87996000  0.02626000  1.0 -0.5321730509
O  O2  1  0.87996000  0.02626000  0.49326000  1.0 -0.5321730509
O  O3  1  0.02626000  0.49326000  0.87996000  1.0 -0.5321730509
O  O4  1  0.50674000  0.97374000  0.12004000  1.0 -0.5321730509
O  O5  1  0.12004000  0.50674000  0.97374000  1.0 -0.5321730509
O  O6  1  0.97374000  0.12004000  0.50674000  1.0 -0.5321730509
O  O7  1  0.50674000  0.12004000  0.97374000  1.0 -0.5321730509
O  O8  1  0.12004000  0.97374000  0.50674000  1.0 -0.5321730509
O  O9  1  0.97374000  0.50674000  0.12004000  1.0 -0.5321730509
O  O10  1  0.49326000  0.02626000  0.87996000  1.0 -0.5321730509
O  O11  1  0.87996000  0.49326000  0.02626000  1.0 -0.5321730509
O  O12  1  0.02626000  0.87996000  0.49326000  1.0 -0.5321730509
O  O13  1  0.61064000  0.87224000  0.02064000  1.0 -0.5321730509
O  O14  1  0.87224000  0.02064000  0.61064000  1.0 -0.5321730509
O  O15  1  0.02064000  0.61064000  0.87224000  1.0 -0.5321730509
O  O16  1  0.38936000  0.97936000  0.12776000  1.0 -0.5321730509
O  O17  1  0.12776000  0.38936000  0.97936000  1.0 -0.5321730509
O  O18  1  0.97936000  0.12776000  0.38936000  1.0 -0.5321730509
O  O19  1  0.38936000  0.12776000  0.97936000  1.0 -0.5321730509
O  O20  1  0.12776000  0.97936000  0.38936000  1.0 -0.5321730509
O  O21  1  0.97936000  0.38936000  0.12776000  1.0 -0.5321730509
O  O22  1  0.61064000  0.02064000  0.87224000  1.0 -0.5321730509
O  O23  1  0.87224000  0.61064000  0.02064000  1.0 -0.5321730509
O  O24  1  0.02064000  0.87224000  0.61064000  1.0 -0.5321730509
