# DDEC6 charges by PACMAN v1.1 (https://github.com/mtap-research/PACMAN-charge/)
data_BUFPAU01_FSR_pacman
_symmetry_space_group_name_H-M   'P 1'
_cell_length_a   34.52730000
_cell_length_b   34.52730000
_cell_length_c   34.52730000
_cell_angle_alpha   60.00000000
_cell_angle_beta   60.00000000
_cell_angle_gamma   60.00000000
_symmetry_Int_Tables_number   1
_chemical_formula_structural   Cd4H104Pb8C112O25
_chemical_formula_sum   'Cd24 H624 Pb48 C672 O150'
_cell_volume   29105.35206846
_cell_formula_units_Z   6
loop_
 _symmetry_equiv_pos_site_id
 _symmetry_equiv_pos_as_xyz
  1  'x, y, z'
loop_
 _atom_site_type_symbol
 _atom_site_label
 _atom_site_symmetry_multiplicity
 _atom_site_fract_x
 _atom_site_fract_y
 _atom_site_fract_z
 _atom_site_occupancy
 _atom_site_charge
Cd  Cd1  1  0.97801000  0.43123000  0.02199000  1.0 0.1521844691
Cd  Cd2  1  0.02199000  0.97801000  0.43123000  1.0 0.1521844691
Cd  Cd3  1  0.43123000  0.02199000  0.97801000  1.0 0.1640071349
Cd  Cd4  1  0.52199000  0.06877000  0.93123000  1.0 0.1640071349
Cd  Cd5  1  0.47801000  0.93123000  0.06877000  1.0 0.1640071349
Cd  Cd6  1  0.93123000  0.47801000  0.52199000  1.0 0.1662092006
Cd  Cd7  1  0.47801000  0.52199000  0.93123000  1.0 0.1662092006
Cd  Cd8  1  0.93123000  0.06877000  0.47801000  1.0 0.1640071349
Cd  Cd9  1  0.06877000  0.93123000  0.52199000  1.0 0.1521844691
Cd  Cd10  1  0.06877000  0.47801000  0.93123000  1.0 0.1521844691
Cd  Cd11  1  0.52199000  0.93123000  0.47801000  1.0 0.1662092006
Cd  Cd12  1  0.93123000  0.52199000  0.06877000  1.0 0.1521844691
Cd  Cd13  1  0.43123000  0.97801000  0.56877000  1.0 0.1662092006
Cd  Cd14  1  0.02199000  0.56877000  0.97801000  1.0 0.1640071349
Cd  Cd15  1  0.56877000  0.02199000  0.43123000  1.0 0.1640071349
Cd  Cd16  1  0.56877000  0.43123000  0.97801000  1.0 0.1662092006
Cd  Cd17  1  0.97801000  0.02199000  0.56877000  1.0 0.1640071349
Cd  Cd18  1  0.43123000  0.56877000  0.02199000  1.0 0.1640071349
Cd  Cd19  1  0.97801000  0.56877000  0.43123000  1.0 0.1521844691
Cd  Cd20  1  0.56877000  0.97801000  0.02199000  1.0 0.1640071349
Cd  Cd21  1  0.02199000  0.43123000  0.56877000  1.0 0.1640071349
Cd  Cd22  1  0.06877000  0.52199000  0.47801000  1.0 0.1640071349
Cd  Cd23  1  0.52199000  0.47801000  0.06877000  1.0 0.1521844691
Cd  Cd24  1  0.47801000  0.06877000  0.52199000  1.0 0.1640071349
H  H1  1  0.83390000  0.56490000  0.03850000  1.0 0.1295859062
H  H2  1  0.03850000  0.83390000  0.56490000  1.0 0.1295859062
H  H3  1  0.56490000  0.03850000  0.83390000  1.0 0.1295859062
H  H4  1  0.66610000  0.93510000  0.93730000  1.0 0.1295859062
H  H5  1  0.46150000  0.93730000  0.93510000  1.0 0.1295859062
H  H6  1  0.93730000  0.46150000  0.66610000  1.0 0.1295859062
H  H7  1  0.46150000  0.66610000  0.93730000  1.0 0.1295859062
H  H8  1  0.93730000  0.93510000  0.46150000  1.0 0.1295859062
H  H9  1  0.93510000  0.93730000  0.66610000  1.0 0.1295859062
H  H10  1  0.93510000  0.46150000  0.93730000  1.0 0.1295859062
H  H11  1  0.66610000  0.93730000  0.46150000  1.0 0.1295859062
H  H12  1  0.93730000  0.66610000  0.93510000  1.0 0.1295859062
H  H13  1  0.56490000  0.83390000  0.56270000  1.0 0.1295859062
H  H14  1  0.03850000  0.56270000  0.83390000  1.0 0.1295859062
H  H15  1  0.56270000  0.03850000  0.56490000  1.0 0.1295859062
H  H16  1  0.56270000  0.56490000  0.83390000  1.0 0.1295859062
H  H17  1  0.83390000  0.03850000  0.56270000  1.0 0.1295859062
H  H18  1  0.56490000  0.56270000  0.03850000  1.0 0.1295859062
H  H19  1  0.83390000  0.56270000  0.56490000  1.0 0.1295859062
H  H20  1  0.56270000  0.83390000  0.03850000  1.0 0.1295859062
H  H21  1  0.03850000  0.56490000  0.56270000  1.0 0.1295859062
H  H22  1  0.93510000  0.66610000  0.46150000  1.0 0.1295859062
H  H23  1  0.66610000  0.46150000  0.93510000  1.0 0.1295859062
H  H24  1  0.46150000  0.93510000  0.66610000  1.0 0.1295859062
H  H25  1  0.16610000  0.43510000  0.96150000  1.0 0.1295859062
H  H26  1  0.96150000  0.16610000  0.43510000  1.0 0.1295859062
H  H27  1  0.43510000  0.96150000  0.16610000  1.0 0.1295859062
H  H28  1  0.33390000  0.06490000  0.06270000  1.0 0.1295859062
H  H29  1  0.53850000  0.06270000  0.06490000  1.0 0.1295859062
H  H30  1  0.06270000  0.53850000  0.33390000  1.0 0.1295859062
H  H31  1  0.53850000  0.33390000  0.06270000  1.0 0.1295859062
H  H32  1  0.06270000  0.06490000  0.53850000  1.0 0.1295859062
H  H33  1  0.06490000  0.06270000  0.33390000  1.0 0.1295859062
H  H34  1  0.06490000  0.53850000  0.06270000  1.0 0.1295859062
H  H35  1  0.33390000  0.06270000  0.53850000  1.0 0.1295859062
H  H36  1  0.06270000  0.33390000  0.06490000  1.0 0.1295859062
H  H37  1  0.43510000  0.16610000  0.43730000  1.0 0.1295859062
H  H38  1  0.96150000  0.43730000  0.16610000  1.0 0.1295859062
H  H39  1  0.43730000  0.96150000  0.43510000  1.0 0.1295859062
H  H40  1  0.43730000  0.43510000  0.16610000  1.0 0.1295859062
H  H41  1  0.16610000  0.96150000  0.43730000  1.0 0.1295859062
H  H42  1  0.43510000  0.43730000  0.96150000  1.0 0.1295859062
H  H43  1  0.16610000  0.43730000  0.43510000  1.0 0.1295859062
H  H44  1  0.43730000  0.16610000  0.96150000  1.0 0.1295859062
H  H45  1  0.96150000  0.43510000  0.43730000  1.0 0.1295859062
H  H46  1  0.06490000  0.33390000  0.53850000  1.0 0.1295859062
H  H47  1  0.33390000  0.53850000  0.06490000  1.0 0.1295859062
H  H48  1  0.53850000  0.06490000  0.33390000  1.0 0.1295859062
H  H49  1  0.72740000  0.50980000  0.05160000  1.0 0.1107500653
H  H50  1  0.05160000  0.72740000  0.50980000  1.0 0.1107500653
H  H51  1  0.50980000  0.05160000  0.72740000  1.0 0.1107500653
H  H52  1  0.77260000  0.99020000  0.78880000  1.0 0.1107500653
H  H53  1  0.44840000  0.78880000  0.99020000  1.0 0.1107500653
H  H54  1  0.78880000  0.44840000  0.77260000  1.0 0.1107500653
H  H55  1  0.44840000  0.77260000  0.78880000  1.0 0.1107500653
H  H56  1  0.78880000  0.99020000  0.44840000  1.0 0.1107500653
H  H57  1  0.99020000  0.78880000  0.77260000  1.0 0.1107500653
H  H58  1  0.99020000  0.44840000  0.78880000  1.0 0.1107500653
H  H59  1  0.77260000  0.78880000  0.44840000  1.0 0.1107500653
H  H60  1  0.78880000  0.77260000  0.99020000  1.0 0.1107500653
H  H61  1  0.50980000  0.72740000  0.71120000  1.0 0.1107500653
H  H62  1  0.05160000  0.71120000  0.72740000  1.0 0.1107500653
H  H63  1  0.71120000  0.05160000  0.50980000  1.0 0.1107500653
H  H64  1  0.71120000  0.50980000  0.72740000  1.0 0.1107500653
H  H65  1  0.72740000  0.05160000  0.71120000  1.0 0.1107500653
H  H66  1  0.50980000  0.71120000  0.05160000  1.0 0.1107500653
H  H67  1  0.72740000  0.71120000  0.50980000  1.0 0.1107500653
H  H68  1  0.71120000  0.72740000  0.05160000  1.0 0.1107500653
H  H69  1  0.05160000  0.50980000  0.71120000  1.0 0.1107500653
H  H70  1  0.99020000  0.77260000  0.44840000  1.0 0.1107500653
H  H71  1  0.77260000  0.44840000  0.99020000  1.0 0.1107500653
H  H72  1  0.44840000  0.99020000  0.77260000  1.0 0.1107500653
H  H73  1  0.27260000  0.49020000  0.94840000  1.0 0.1107500653
H  H74  1  0.94840000  0.27260000  0.49020000  1.0 0.1107500653
H  H75  1  0.49020000  0.94840000  0.27260000  1.0 0.1107500653
H  H76  1  0.22740000  0.00980000  0.21120000  1.0 0.1107500653
H  H77  1  0.55160000  0.21120000  0.00980000  1.0 0.1107500653
H  H78  1  0.21120000  0.55160000  0.22740000  1.0 0.1107500653
H  H79  1  0.55160000  0.22740000  0.21120000  1.0 0.1107500653
H  H80  1  0.21120000  0.00980000  0.55160000  1.0 0.1107500653
H  H81  1  0.00980000  0.21120000  0.22740000  1.0 0.1107500653
H  H82  1  0.00980000  0.55160000  0.21120000  1.0 0.1107500653
H  H83  1  0.22740000  0.21120000  0.55160000  1.0 0.1107500653
H  H84  1  0.21120000  0.22740000  0.00980000  1.0 0.1107500653
H  H85  1  0.49020000  0.27260000  0.28880000  1.0 0.1107500653
H  H86  1  0.94840000  0.28880000  0.27260000  1.0 0.1107500653
H  H87  1  0.28880000  0.94840000  0.49020000  1.0 0.1107500653
H  H88  1  0.28880000  0.49020000  0.27260000  1.0 0.1107500653
H  H89  1  0.27260000  0.94840000  0.28880000  1.0 0.1107500653
H  H90  1  0.49020000  0.28880000  0.94840000  1.0 0.1107500653
H  H91  1  0.27260000  0.28880000  0.49020000  1.0 0.1107500653
H  H92  1  0.28880000  0.27260000  0.94840000  1.0 0.1107500653
H  H93  1  0.94840000  0.49020000  0.28880000  1.0 0.1107500653
H  H94  1  0.00980000  0.22740000  0.55160000  1.0 0.1107500653
H  H95  1  0.22740000  0.55160000  0.00980000  1.0 0.1107500653
H  H96  1  0.55160000  0.00980000  0.22740000  1.0 0.1107500653
H  H97  1  0.80280000  0.46000000  0.05140000  1.0 0.1218459403
H  H98  1  0.05140000  0.80280000  0.46000000  1.0 0.1218459403
H  H99  1  0.46000000  0.05140000  0.80280000  1.0 0.1218459403
H  H100  1  0.69720000  0.04000000  0.81420000  1.0 0.1218459403
H  H101  1  0.44860000  0.81420000  0.04000000  1.0 0.1218459403
H  H102  1  0.81420000  0.44860000  0.69720000  1.0 0.1218459403
H  H103  1  0.44860000  0.69720000  0.81420000  1.0 0.1218459403
H  H104  1  0.81420000  0.04000000  0.44860000  1.0 0.1218459403
H  H105  1  0.04000000  0.81420000  0.69720000  1.0 0.1218459403
H  H106  1  0.04000000  0.44860000  0.81420000  1.0 0.1218459403
H  H107  1  0.69720000  0.81420000  0.44860000  1.0 0.1218459403
H  H108  1  0.81420000  0.69720000  0.04000000  1.0 0.1218459403
H  H109  1  0.46000000  0.80280000  0.68580000  1.0 0.1218459403
H  H110  1  0.05140000  0.68580000  0.80280000  1.0 0.1218459403
H  H111  1  0.68580000  0.05140000  0.46000000  1.0 0.1218459403
H  H112  1  0.68580000  0.46000000  0.80280000  1.0 0.1218459403
H  H113  1  0.80280000  0.05140000  0.68580000  1.0 0.1218459403
H  H114  1  0.46000000  0.68580000  0.05140000  1.0 0.1218459403
H  H115  1  0.80280000  0.68580000  0.46000000  1.0 0.1218459403
H  H116  1  0.68580000  0.80280000  0.05140000  1.0 0.1218459403
H  H117  1  0.05140000  0.46000000  0.68580000  1.0 0.1218459403
H  H118  1  0.04000000  0.69720000  0.44860000  1.0 0.1218459403
H  H119  1  0.69720000  0.44860000  0.04000000  1.0 0.1218459403
H  H120  1  0.44860000  0.04000000  0.69720000  1.0 0.1218459403
H  H121  1  0.19720000  0.54000000  0.94860000  1.0 0.1218459403
H  H122  1  0.94860000  0.19720000  0.54000000  1.0 0.1218459403
H  H123  1  0.54000000  0.94860000  0.19720000  1.0 0.1218459403
H  H124  1  0.30280000  0.96000000  0.18580000  1.0 0.1218459403
H  H125  1  0.55140000  0.18580000  0.96000000  1.0 0.1218459403
H  H126  1  0.18580000  0.55140000  0.30280000  1.0 0.1218459403
H  H127  1  0.55140000  0.30280000  0.18580000  1.0 0.1218459403
H  H128  1  0.18580000  0.96000000  0.55140000  1.0 0.1218459403
H  H129  1  0.96000000  0.18580000  0.30280000  1.0 0.1218459403
H  H130  1  0.96000000  0.55140000  0.18580000  1.0 0.1218459403
H  H131  1  0.30280000  0.18580000  0.55140000  1.0 0.1218459403
H  H132  1  0.18580000  0.30280000  0.96000000  1.0 0.1218459403
H  H133  1  0.54000000  0.19720000  0.31420000  1.0 0.1218459403
H  H134  1  0.94860000  0.31420000  0.19720000  1.0 0.1218459403
H  H135  1  0.31420000  0.94860000  0.54000000  1.0 0.1218459403
H  H136  1  0.31420000  0.54000000  0.19720000  1.0 0.1218459403
H  H137  1  0.19720000  0.94860000  0.31420000  1.0 0.1218459403
H  H138  1  0.54000000  0.31420000  0.94860000  1.0 0.1218459403
H  H139  1  0.19720000  0.31420000  0.54000000  1.0 0.1218459403
H  H140  1  0.31420000  0.19720000  0.94860000  1.0 0.1218459403
H  H141  1  0.94860000  0.54000000  0.31420000  1.0 0.1218459403
H  H142  1  0.96000000  0.30280000  0.55140000  1.0 0.1218459403
H  H143  1  0.30280000  0.55140000  0.96000000  1.0 0.1218459403
H  H144  1  0.55140000  0.96000000  0.30280000  1.0 0.1218459403
H  H145  1  0.77740000  0.61700000  0.09240000  1.0 0.098815377
H  H146  1  0.09240000  0.77740000  0.61700000  1.0 0.098815377
H  H147  1  0.61700000  0.09240000  0.77740000  1.0 0.098815377
H  H148  1  0.72260000  0.88300000  0.98680000  1.0 0.098815377
H  H149  1  0.40760000  0.98680000  0.88300000  1.0 0.098815377
H  H150  1  0.98680000  0.40760000  0.72260000  1.0 0.098815377
H  H151  1  0.40760000  0.72260000  0.98680000  1.0 0.098815377
H  H152  1  0.98680000  0.88300000  0.40760000  1.0 0.098815377
H  H153  1  0.88300000  0.98680000  0.72260000  1.0 0.098815377
H  H154  1  0.88300000  0.40760000  0.98680000  1.0 0.098815377
H  H155  1  0.72260000  0.98680000  0.40760000  1.0 0.098815377
H  H156  1  0.98680000  0.72260000  0.88300000  1.0 0.098815377
H  H157  1  0.61700000  0.77740000  0.51320000  1.0 0.098815377
H  H158  1  0.09240000  0.51320000  0.77740000  1.0 0.098815377
H  H159  1  0.51320000  0.09240000  0.61700000  1.0 0.098815377
H  H160  1  0.51320000  0.61700000  0.77740000  1.0 0.098815377
H  H161  1  0.77740000  0.09240000  0.51320000  1.0 0.098815377
H  H162  1  0.61700000  0.51320000  0.09240000  1.0 0.098815377
H  H163  1  0.77740000  0.51320000  0.61700000  1.0 0.098815377
H  H164  1  0.51320000  0.77740000  0.09240000  1.0 0.098815377
H  H165  1  0.09240000  0.61700000  0.51320000  1.0 0.098815377
H  H166  1  0.88300000  0.72260000  0.40760000  1.0 0.098815377
H  H167  1  0.72260000  0.40760000  0.88300000  1.0 0.098815377
H  H168  1  0.40760000  0.88300000  0.72260000  1.0 0.098815377
H  H169  1  0.22260000  0.38300000  0.90760000  1.0 0.098815377
H  H170  1  0.90760000  0.22260000  0.38300000  1.0 0.098815377
H  H171  1  0.38300000  0.90760000  0.22260000  1.0 0.098815377
H  H172  1  0.27740000  0.11700000  0.01320000  1.0 0.098815377
H  H173  1  0.59240000  0.01320000  0.11700000  1.0 0.098815377
H  H174  1  0.01320000  0.59240000  0.27740000  1.0 0.098815377
H  H175  1  0.59240000  0.27740000  0.01320000  1.0 0.098815377
H  H176  1  0.01320000  0.11700000  0.59240000  1.0 0.098815377
H  H177  1  0.11700000  0.01320000  0.27740000  1.0 0.098815377
H  H178  1  0.11700000  0.59240000  0.01320000  1.0 0.098815377
H  H179  1  0.27740000  0.01320000  0.59240000  1.0 0.098815377
H  H180  1  0.01320000  0.27740000  0.11700000  1.0 0.098815377
H  H181  1  0.38300000  0.22260000  0.48680000  1.0 0.098815377
H  H182  1  0.90760000  0.48680000  0.22260000  1.0 0.098815377
H  H183  1  0.48680000  0.90760000  0.38300000  1.0 0.098815377
H  H184  1  0.48680000  0.38300000  0.22260000  1.0 0.098815377
H  H185  1  0.22260000  0.90760000  0.48680000  1.0 0.098815377
H  H186  1  0.38300000  0.48680000  0.90760000  1.0 0.098815377
H  H187  1  0.22260000  0.48680000  0.38300000  1.0 0.098815377
H  H188  1  0.48680000  0.22260000  0.90760000  1.0 0.098815377
H  H189  1  0.90760000  0.38300000  0.48680000  1.0 0.098815377
H  H190  1  0.11700000  0.27740000  0.59240000  1.0 0.098815377
H  H191  1  0.27740000  0.59240000  0.11700000  1.0 0.098815377
H  H192  1  0.59240000  0.11700000  0.27740000  1.0 0.098815377
H  H193  1  0.73020000  0.66220000  0.09500000  1.0 0.082265209
H  H194  1  0.09500000  0.73020000  0.66220000  1.0 0.082265209
H  H195  1  0.66220000  0.09500000  0.73020000  1.0 0.082265209
H  H196  1  0.76980000  0.83780000  0.98740000  1.0 0.082265209
H  H197  1  0.40500000  0.98740000  0.83780000  1.0 0.082265209
H  H198  1  0.98740000  0.40500000  0.76980000  1.0 0.082265209
H  H199  1  0.40500000  0.76980000  0.98740000  1.0 0.082265209
H  H200  1  0.98740000  0.83780000  0.40500000  1.0 0.082265209
H  H201  1  0.83780000  0.98740000  0.76980000  1.0 0.082265209
H  H202  1  0.83780000  0.40500000  0.98740000  1.0 0.082265209
H  H203  1  0.76980000  0.98740000  0.40500000  1.0 0.082265209
H  H204  1  0.98740000  0.76980000  0.83780000  1.0 0.082265209
H  H205  1  0.66220000  0.73020000  0.51260000  1.0 0.082265209
H  H206  1  0.09500000  0.51260000  0.73020000  1.0 0.082265209
H  H207  1  0.51260000  0.09500000  0.66220000  1.0 0.082265209
H  H208  1  0.51260000  0.66220000  0.73020000  1.0 0.082265209
H  H209  1  0.73020000  0.09500000  0.51260000  1.0 0.082265209
H  H210  1  0.66220000  0.51260000  0.09500000  1.0 0.082265209
H  H211  1  0.73020000  0.51260000  0.66220000  1.0 0.082265209
H  H212  1  0.51260000  0.73020000  0.09500000  1.0 0.082265209
H  H213  1  0.09500000  0.66220000  0.51260000  1.0 0.082265209
H  H214  1  0.83780000  0.76980000  0.40500000  1.0 0.082265209
H  H215  1  0.76980000  0.40500000  0.83780000  1.0 0.082265209
H  H216  1  0.40500000  0.83780000  0.76980000  1.0 0.082265209
H  H217  1  0.26980000  0.33780000  0.90500000  1.0 0.082265209
H  H218  1  0.90500000  0.26980000  0.33780000  1.0 0.082265209
H  H219  1  0.33780000  0.90500000  0.26980000  1.0 0.082265209
H  H220  1  0.23020000  0.16220000  0.01260000  1.0 0.082265209
H  H221  1  0.59500000  0.01260000  0.16220000  1.0 0.082265209
H  H222  1  0.01260000  0.59500000  0.23020000  1.0 0.082265209
H  H223  1  0.59500000  0.23020000  0.01260000  1.0 0.082265209
H  H224  1  0.01260000  0.16220000  0.59500000  1.0 0.082265209
H  H225  1  0.16220000  0.01260000  0.23020000  1.0 0.082265209
H  H226  1  0.16220000  0.59500000  0.01260000  1.0 0.082265209
H  H227  1  0.23020000  0.01260000  0.59500000  1.0 0.082265209
H  H228  1  0.01260000  0.23020000  0.16220000  1.0 0.082265209
H  H229  1  0.33780000  0.26980000  0.48740000  1.0 0.082265209
H  H230  1  0.90500000  0.48740000  0.26980000  1.0 0.082265209
H  H231  1  0.48740000  0.90500000  0.33780000  1.0 0.082265209
H  H232  1  0.48740000  0.33780000  0.26980000  1.0 0.082265209
H  H233  1  0.26980000  0.90500000  0.48740000  1.0 0.082265209
H  H234  1  0.33780000  0.48740000  0.90500000  1.0 0.082265209
H  H235  1  0.26980000  0.48740000  0.33780000  1.0 0.082265209
H  H236  1  0.48740000  0.26980000  0.90500000  1.0 0.082265209
H  H237  1  0.90500000  0.33780000  0.48740000  1.0 0.082265209
H  H238  1  0.16220000  0.23020000  0.59500000  1.0 0.082265209
H  H239  1  0.23020000  0.59500000  0.16220000  1.0 0.082265209
H  H240  1  0.59500000  0.16220000  0.23020000  1.0 0.082265209
H  H241  1  0.68280000  0.61120000  0.14340000  1.0 0.1107500653
H  H242  1  0.14340000  0.68280000  0.61120000  1.0 0.1107500653
H  H243  1  0.61120000  0.14340000  0.68280000  1.0 0.1107500653
H  H244  1  0.81720000  0.88880000  0.93740000  1.0 0.1107500653
H  H245  1  0.35660000  0.93740000  0.88880000  1.0 0.1107500653
H  H246  1  0.93740000  0.35660000  0.81720000  1.0 0.1107500653
H  H247  1  0.35660000  0.81720000  0.93740000  1.0 0.1107500653
H  H248  1  0.93740000  0.88880000  0.35660000  1.0 0.1107500653
H  H249  1  0.88880000  0.93740000  0.81720000  1.0 0.1107500653
H  H250  1  0.88880000  0.35660000  0.93740000  1.0 0.1107500653
H  H251  1  0.81720000  0.93740000  0.35660000  1.0 0.1107500653
H  H252  1  0.93740000  0.81720000  0.88880000  1.0 0.1107500653
H  H253  1  0.61120000  0.68280000  0.56260000  1.0 0.1107500653
H  H254  1  0.14340000  0.56260000  0.68280000  1.0 0.1107500653
H  H255  1  0.56260000  0.14340000  0.61120000  1.0 0.1107500653
H  H256  1  0.56260000  0.61120000  0.68280000  1.0 0.1107500653
H  H257  1  0.68280000  0.14340000  0.56260000  1.0 0.1107500653
H  H258  1  0.61120000  0.56260000  0.14340000  1.0 0.1107500653
H  H259  1  0.68280000  0.56260000  0.61120000  1.0 0.1107500653
H  H260  1  0.56260000  0.68280000  0.14340000  1.0 0.1107500653
H  H261  1  0.14340000  0.61120000  0.56260000  1.0 0.1107500653
H  H262  1  0.88880000  0.81720000  0.35660000  1.0 0.1107500653
H  H263  1  0.81720000  0.35660000  0.88880000  1.0 0.1107500653
H  H264  1  0.35660000  0.88880000  0.81720000  1.0 0.1107500653
H  H265  1  0.31720000  0.38880000  0.85660000  1.0 0.1107500653
H  H266  1  0.85660000  0.31720000  0.38880000  1.0 0.1107500653
H  H267  1  0.38880000  0.85660000  0.31720000  1.0 0.1107500653
H  H268  1  0.18280000  0.11120000  0.06260000  1.0 0.1107500653
H  H269  1  0.64340000  0.06260000  0.11120000  1.0 0.1107500653
H  H270  1  0.06260000  0.64340000  0.18280000  1.0 0.1107500653
H  H271  1  0.64340000  0.18280000  0.06260000  1.0 0.1107500653
H  H272  1  0.06260000  0.11120000  0.64340000  1.0 0.1107500653
H  H273  1  0.11120000  0.06260000  0.18280000  1.0 0.1107500653
H  H274  1  0.11120000  0.64340000  0.06260000  1.0 0.1107500653
H  H275  1  0.18280000  0.06260000  0.64340000  1.0 0.1107500653
H  H276  1  0.06260000  0.18280000  0.11120000  1.0 0.1107500653
H  H277  1  0.38880000  0.31720000  0.43740000  1.0 0.1107500653
H  H278  1  0.85660000  0.43740000  0.31720000  1.0 0.1107500653
H  H279  1  0.43740000  0.85660000  0.38880000  1.0 0.1107500653
H  H280  1  0.43740000  0.38880000  0.31720000  1.0 0.1107500653
H  H281  1  0.31720000  0.85660000  0.43740000  1.0 0.1107500653
H  H282  1  0.38880000  0.43740000  0.85660000  1.0 0.1107500653
H  H283  1  0.31720000  0.43740000  0.38880000  1.0 0.1107500653
H  H284  1  0.43740000  0.31720000  0.85660000  1.0 0.1107500653
H  H285  1  0.85660000  0.38880000  0.43740000  1.0 0.1107500653
H  H286  1  0.11120000  0.18280000  0.64340000  1.0 0.1107500653
H  H287  1  0.18280000  0.64340000  0.11120000  1.0 0.1107500653
H  H288  1  0.64340000  0.11120000  0.18280000  1.0 0.1107500653
H  H289  1  0.71850000  0.59810000  0.16810000  1.0 0.1295859062
H  H290  1  0.16810000  0.71850000  0.59810000  1.0 0.1295859062
H  H291  1  0.59810000  0.16810000  0.71850000  1.0 0.1295859062
H  H292  1  0.78150000  0.90190000  0.98470000  1.0 0.1295859062
H  H293  1  0.33190000  0.98470000  0.90190000  1.0 0.1295859062
H  H294  1  0.98470000  0.33190000  0.78150000  1.0 0.1295859062
H  H295  1  0.33190000  0.78150000  0.98470000  1.0 0.1295859062
H  H296  1  0.98470000  0.90190000  0.33190000  1.0 0.1295859062
H  H297  1  0.90190000  0.98470000  0.78150000  1.0 0.1295859062
H  H298  1  0.90190000  0.33190000  0.98470000  1.0 0.1295859062
H  H299  1  0.78150000  0.98470000  0.33190000  1.0 0.1295859062
H  H300  1  0.98470000  0.78150000  0.90190000  1.0 0.1295859062
H  H301  1  0.59810000  0.71850000  0.51530000  1.0 0.1295859062
H  H302  1  0.16810000  0.51530000  0.71850000  1.0 0.1295859062
H  H303  1  0.51530000  0.16810000  0.59810000  1.0 0.1295859062
H  H304  1  0.51530000  0.59810000  0.71850000  1.0 0.1295859062
H  H305  1  0.71850000  0.16810000  0.51530000  1.0 0.1295859062
H  H306  1  0.59810000  0.51530000  0.16810000  1.0 0.1295859062
H  H307  1  0.71850000  0.51530000  0.59810000  1.0 0.1295859062
H  H308  1  0.51530000  0.71850000  0.16810000  1.0 0.1295859062
H  H309  1  0.16810000  0.59810000  0.51530000  1.0 0.1295859062
H  H310  1  0.90190000  0.78150000  0.33190000  1.0 0.1295859062
H  H311  1  0.78150000  0.33190000  0.90190000  1.0 0.1295859062
H  H312  1  0.33190000  0.90190000  0.78150000  1.0 0.1295859062
H  H313  1  0.28150000  0.40190000  0.83190000  1.0 0.1295859062
H  H314  1  0.83190000  0.28150000  0.40190000  1.0 0.1295859062
H  H315  1  0.40190000  0.83190000  0.28150000  1.0 0.1295859062
H  H316  1  0.21850000  0.09810000  0.01530000  1.0 0.1295859062
H  H317  1  0.66810000  0.01530000  0.09810000  1.0 0.1295859062
H  H318  1  0.01530000  0.66810000  0.21850000  1.0 0.1295859062
H  H319  1  0.66810000  0.21850000  0.01530000  1.0 0.1295859062
H  H320  1  0.01530000  0.09810000  0.66810000  1.0 0.1295859062
H  H321  1  0.09810000  0.01530000  0.21850000  1.0 0.1295859062
H  H322  1  0.09810000  0.66810000  0.01530000  1.0 0.1295859062
H  H323  1  0.21850000  0.01530000  0.66810000  1.0 0.1295859062
H  H324  1  0.01530000  0.21850000  0.09810000  1.0 0.1295859062
H  H325  1  0.40190000  0.28150000  0.48470000  1.0 0.1295859062
H  H326  1  0.83190000  0.48470000  0.28150000  1.0 0.1295859062
H  H327  1  0.48470000  0.83190000  0.40190000  1.0 0.1295859062
H  H328  1  0.48470000  0.40190000  0.28150000  1.0 0.1295859062
H  H329  1  0.28150000  0.83190000  0.48470000  1.0 0.1295859062
H  H330  1  0.40190000  0.48470000  0.83190000  1.0 0.1295859062
H  H331  1  0.28150000  0.48470000  0.40190000  1.0 0.1295859062
H  H332  1  0.48470000  0.28150000  0.83190000  1.0 0.1295859062
H  H333  1  0.83190000  0.40190000  0.48470000  1.0 0.1295859062
H  H334  1  0.09810000  0.21850000  0.66810000  1.0 0.1295859062
H  H335  1  0.21850000  0.66810000  0.09810000  1.0 0.1295859062
H  H336  1  0.66810000  0.09810000  0.21850000  1.0 0.1295859062
H  H337  1  0.73010000  0.56570000  0.14050000  1.0 0.1218459403
H  H338  1  0.14050000  0.73010000  0.56570000  1.0 0.1218459403
H  H339  1  0.56570000  0.14050000  0.73010000  1.0 0.1218459403
H  H340  1  0.76990000  0.93430000  0.93630000  1.0 0.1218459403
H  H341  1  0.35950000  0.93630000  0.93430000  1.0 0.1218459403
H  H342  1  0.93630000  0.35950000  0.76990000  1.0 0.1218459403
H  H343  1  0.35950000  0.76990000  0.93630000  1.0 0.1218459403
H  H344  1  0.93630000  0.93430000  0.35950000  1.0 0.1218459403
H  H345  1  0.93430000  0.93630000  0.76990000  1.0 0.1218459403
H  H346  1  0.93430000  0.35950000  0.93630000  1.0 0.1218459403
H  H347  1  0.76990000  0.93630000  0.35950000  1.0 0.1218459403
H  H348  1  0.93630000  0.76990000  0.93430000  1.0 0.1218459403
H  H349  1  0.56570000  0.73010000  0.56370000  1.0 0.1218459403
H  H350  1  0.14050000  0.56370000  0.73010000  1.0 0.1218459403
H  H351  1  0.56370000  0.14050000  0.56570000  1.0 0.1218459403
H  H352  1  0.56370000  0.56570000  0.73010000  1.0 0.1218459403
H  H353  1  0.73010000  0.14050000  0.56370000  1.0 0.1218459403
H  H354  1  0.56570000  0.56370000  0.14050000  1.0 0.1218459403
H  H355  1  0.73010000  0.56370000  0.56570000  1.0 0.1218459403
H  H356  1  0.56370000  0.73010000  0.14050000  1.0 0.1218459403
H  H357  1  0.14050000  0.56570000  0.56370000  1.0 0.1218459403
H  H358  1  0.93430000  0.76990000  0.35950000  1.0 0.1218459403
H  H359  1  0.76990000  0.35950000  0.93430000  1.0 0.1218459403
H  H360  1  0.35950000  0.93430000  0.76990000  1.0 0.1218459403
H  H361  1  0.26990000  0.43430000  0.85950000  1.0 0.1218459403
H  H362  1  0.85950000  0.26990000  0.43430000  1.0 0.1218459403
H  H363  1  0.43430000  0.85950000  0.26990000  1.0 0.1218459403
H  H364  1  0.23010000  0.06570000  0.06370000  1.0 0.1218459403
H  H365  1  0.64050000  0.06370000  0.06570000  1.0 0.1218459403
H  H366  1  0.06370000  0.64050000  0.23010000  1.0 0.1218459403
H  H367  1  0.64050000  0.23010000  0.06370000  1.0 0.1218459403
H  H368  1  0.06370000  0.06570000  0.64050000  1.0 0.1218459403
H  H369  1  0.06570000  0.06370000  0.23010000  1.0 0.1218459403
H  H370  1  0.06570000  0.64050000  0.06370000  1.0 0.1218459403
H  H371  1  0.23010000  0.06370000  0.64050000  1.0 0.1218459403
H  H372  1  0.06370000  0.23010000  0.06570000  1.0 0.1218459403
H  H373  1  0.43430000  0.26990000  0.43630000  1.0 0.1218459403
H  H374  1  0.85950000  0.43630000  0.26990000  1.0 0.1218459403
H  H375  1  0.43630000  0.85950000  0.43430000  1.0 0.1218459403
H  H376  1  0.43630000  0.43430000  0.26990000  1.0 0.1218459403
H  H377  1  0.26990000  0.85950000  0.43630000  1.0 0.1218459403
H  H378  1  0.43430000  0.43630000  0.85950000  1.0 0.1218459403
H  H379  1  0.26990000  0.43630000  0.43430000  1.0 0.1218459403
H  H380  1  0.43630000  0.26990000  0.85950000  1.0 0.1218459403
H  H381  1  0.85950000  0.43430000  0.43630000  1.0 0.1218459403
H  H382  1  0.06570000  0.23010000  0.64050000  1.0 0.1218459403
H  H383  1  0.23010000  0.64050000  0.06570000  1.0 0.1218459403
H  H384  1  0.64050000  0.06570000  0.23010000  1.0 0.1218459403
H  H385  1  0.75710000  0.69690000  0.99690000  1.0 0.0897386138
H  H386  1  0.99690000  0.75710000  0.69690000  1.0 0.0897386138
H  H387  1  0.69690000  0.99690000  0.75710000  1.0 0.0897386138
H  H388  1  0.74290000  0.80310000  0.95090000  1.0 0.0897386138
H  H389  1  0.50310000  0.95090000  0.80310000  1.0 0.0897386138
H  H390  1  0.95090000  0.50310000  0.74290000  1.0 0.0897386138
H  H391  1  0.50310000  0.74290000  0.95090000  1.0 0.0897386138
H  H392  1  0.95090000  0.80310000  0.50310000  1.0 0.0897386138
H  H393  1  0.80310000  0.95090000  0.74290000  1.0 0.0897386138
H  H394  1  0.80310000  0.50310000  0.95090000  1.0 0.0897386138
H  H395  1  0.74290000  0.95090000  0.50310000  1.0 0.0897386138
H  H396  1  0.95090000  0.74290000  0.80310000  1.0 0.0897386138
H  H397  1  0.69690000  0.75710000  0.54910000  1.0 0.0897386138
H  H398  1  0.99690000  0.54910000  0.75710000  1.0 0.0897386138
H  H399  1  0.54910000  0.99690000  0.69690000  1.0 0.0897386138
H  H400  1  0.54910000  0.69690000  0.75710000  1.0 0.0897386138
H  H401  1  0.75710000  0.99690000  0.54910000  1.0 0.0897386138
H  H402  1  0.69690000  0.54910000  0.99690000  1.0 0.0897386138
H  H403  1  0.75710000  0.54910000  0.69690000  1.0 0.0897386138
H  H404  1  0.54910000  0.75710000  0.99690000  1.0 0.0897386138
H  H405  1  0.99690000  0.69690000  0.54910000  1.0 0.0897386138
H  H406  1  0.80310000  0.74290000  0.50310000  1.0 0.0897386138
H  H407  1  0.74290000  0.50310000  0.80310000  1.0 0.0897386138
H  H408  1  0.50310000  0.80310000  0.74290000  1.0 0.0897386138
H  H409  1  0.24290000  0.30310000  0.00310000  1.0 0.0897386138
H  H410  1  0.00310000  0.24290000  0.30310000  1.0 0.0897386138
H  H411  1  0.30310000  0.00310000  0.24290000  1.0 0.0897386138
H  H412  1  0.25710000  0.19690000  0.04910000  1.0 0.0897386138
H  H413  1  0.49690000  0.04910000  0.19690000  1.0 0.0897386138
H  H414  1  0.04910000  0.49690000  0.25710000  1.0 0.0897386138
H  H415  1  0.49690000  0.25710000  0.04910000  1.0 0.0897386138
H  H416  1  0.04910000  0.19690000  0.49690000  1.0 0.0897386138
H  H417  1  0.19690000  0.04910000  0.25710000  1.0 0.0897386138
H  H418  1  0.19690000  0.49690000  0.04910000  1.0 0.0897386138
H  H419  1  0.25710000  0.04910000  0.49690000  1.0 0.0897386138
H  H420  1  0.04910000  0.25710000  0.19690000  1.0 0.0897386138
H  H421  1  0.30310000  0.24290000  0.45090000  1.0 0.0897386138
H  H422  1  0.00310000  0.45090000  0.24290000  1.0 0.0897386138
H  H423  1  0.45090000  0.00310000  0.30310000  1.0 0.0897386138
H  H424  1  0.45090000  0.30310000  0.24290000  1.0 0.0897386138
H  H425  1  0.24290000  0.00310000  0.45090000  1.0 0.0897386138
H  H426  1  0.30310000  0.45090000  0.00310000  1.0 0.0897386138
H  H427  1  0.24290000  0.45090000  0.30310000  1.0 0.0897386138
H  H428  1  0.45090000  0.24290000  0.00310000  1.0 0.0897386138
H  H429  1  0.00310000  0.30310000  0.45090000  1.0 0.0897386138
H  H430  1  0.19690000  0.25710000  0.49690000  1.0 0.0897386138
H  H431  1  0.25710000  0.49690000  0.19690000  1.0 0.0897386138
H  H432  1  0.49690000  0.19690000  0.25710000  1.0 0.0897386138
H  H433  1  0.80450000  0.65190000  0.99490000  1.0 0.098815377
H  H434  1  0.99490000  0.80450000  0.65190000  1.0 0.098815377
H  H435  1  0.65190000  0.99490000  0.80450000  1.0 0.098815377
H  H436  1  0.69550000  0.84810000  0.95130000  1.0 0.098815377
H  H437  1  0.50510000  0.95130000  0.84810000  1.0 0.098815377
H  H438  1  0.95130000  0.50510000  0.69550000  1.0 0.098815377
H  H439  1  0.50510000  0.69550000  0.95130000  1.0 0.098815377
H  H440  1  0.95130000  0.84810000  0.50510000  1.0 0.098815377
H  H441  1  0.84810000  0.95130000  0.69550000  1.0 0.098815377
H  H442  1  0.84810000  0.50510000  0.95130000  1.0 0.098815377
H  H443  1  0.69550000  0.95130000  0.50510000  1.0 0.098815377
H  H444  1  0.95130000  0.69550000  0.84810000  1.0 0.098815377
H  H445  1  0.65190000  0.80450000  0.54870000  1.0 0.098815377
H  H446  1  0.99490000  0.54870000  0.80450000  1.0 0.098815377
H  H447  1  0.54870000  0.99490000  0.65190000  1.0 0.098815377
H  H448  1  0.54870000  0.65190000  0.80450000  1.0 0.098815377
H  H449  1  0.80450000  0.99490000  0.54870000  1.0 0.098815377
H  H450  1  0.65190000  0.54870000  0.99490000  1.0 0.098815377
H  H451  1  0.80450000  0.54870000  0.65190000  1.0 0.098815377
H  H452  1  0.54870000  0.80450000  0.99490000  1.0 0.098815377
H  H453  1  0.99490000  0.65190000  0.54870000  1.0 0.098815377
H  H454  1  0.84810000  0.69550000  0.50510000  1.0 0.098815377
H  H455  1  0.69550000  0.50510000  0.84810000  1.0 0.098815377
H  H456  1  0.50510000  0.84810000  0.69550000  1.0 0.098815377
H  H457  1  0.19550000  0.34810000  0.00510000  1.0 0.098815377
H  H458  1  0.00510000  0.19550000  0.34810000  1.0 0.098815377
H  H459  1  0.34810000  0.00510000  0.19550000  1.0 0.098815377
H  H460  1  0.30450000  0.15190000  0.04870000  1.0 0.098815377
H  H461  1  0.49490000  0.04870000  0.15190000  1.0 0.098815377
H  H462  1  0.04870000  0.49490000  0.30450000  1.0 0.098815377
H  H463  1  0.49490000  0.30450000  0.04870000  1.0 0.098815377
H  H464  1  0.04870000  0.15190000  0.49490000  1.0 0.098815377
H  H465  1  0.15190000  0.04870000  0.30450000  1.0 0.098815377
H  H466  1  0.15190000  0.49490000  0.04870000  1.0 0.098815377
H  H467  1  0.30450000  0.04870000  0.49490000  1.0 0.098815377
H  H468  1  0.04870000  0.30450000  0.15190000  1.0 0.098815377
H  H469  1  0.34810000  0.19550000  0.45130000  1.0 0.098815377
H  H470  1  0.00510000  0.45130000  0.19550000  1.0 0.098815377
H  H471  1  0.45130000  0.00510000  0.34810000  1.0 0.098815377
H  H472  1  0.45130000  0.34810000  0.19550000  1.0 0.098815377
H  H473  1  0.19550000  0.00510000  0.45130000  1.0 0.098815377
H  H474  1  0.34810000  0.45130000  0.00510000  1.0 0.098815377
H  H475  1  0.19550000  0.45130000  0.34810000  1.0 0.098815377
H  H476  1  0.45130000  0.19550000  0.00510000  1.0 0.098815377
H  H477  1  0.00510000  0.34810000  0.45130000  1.0 0.098815377
H  H478  1  0.15190000  0.30450000  0.49490000  1.0 0.098815377
H  H479  1  0.30450000  0.49490000  0.15190000  1.0 0.098815377
H  H480  1  0.49490000  0.15190000  0.30450000  1.0 0.098815377
H  H481  1  0.79220000  0.63420000  0.95000000  1.0 0.1218459403
H  H482  1  0.95000000  0.79220000  0.63420000  1.0 0.1218459403
H  H483  1  0.63420000  0.95000000  0.79220000  1.0 0.1218459403
H  H484  1  0.70780000  0.86580000  0.87640000  1.0 0.1218459403
H  H485  1  0.55000000  0.87640000  0.86580000  1.0 0.1218459403
H  H486  1  0.87640000  0.55000000  0.70780000  1.0 0.1218459403
H  H487  1  0.55000000  0.70780000  0.87640000  1.0 0.1218459403
H  H488  1  0.87640000  0.86580000  0.55000000  1.0 0.1218459403
H  H489  1  0.86580000  0.87640000  0.70780000  1.0 0.1218459403
H  H490  1  0.86580000  0.55000000  0.87640000  1.0 0.1218459403
H  H491  1  0.70780000  0.87640000  0.55000000  1.0 0.1218459403
H  H492  1  0.87640000  0.70780000  0.86580000  1.0 0.1218459403
H  H493  1  0.63420000  0.79220000  0.62360000  1.0 0.1218459403
H  H494  1  0.95000000  0.62360000  0.79220000  1.0 0.1218459403
H  H495  1  0.62360000  0.95000000  0.63420000  1.0 0.1218459403
H  H496  1  0.62360000  0.63420000  0.79220000  1.0 0.1218459403
H  H497  1  0.79220000  0.95000000  0.62360000  1.0 0.1218459403
H  H498  1  0.63420000  0.62360000  0.95000000  1.0 0.1218459403
H  H499  1  0.79220000  0.62360000  0.63420000  1.0 0.1218459403
H  H500  1  0.62360000  0.79220000  0.95000000  1.0 0.1218459403
H  H501  1  0.95000000  0.63420000  0.62360000  1.0 0.1218459403
H  H502  1  0.86580000  0.70780000  0.55000000  1.0 0.1218459403
H  H503  1  0.70780000  0.55000000  0.86580000  1.0 0.1218459403
H  H504  1  0.55000000  0.86580000  0.70780000  1.0 0.1218459403
H  H505  1  0.20780000  0.36580000  0.05000000  1.0 0.1218459403
H  H506  1  0.05000000  0.20780000  0.36580000  1.0 0.1218459403
H  H507  1  0.36580000  0.05000000  0.20780000  1.0 0.1218459403
H  H508  1  0.29220000  0.13420000  0.12360000  1.0 0.1218459403
H  H509  1  0.45000000  0.12360000  0.13420000  1.0 0.1218459403
H  H510  1  0.12360000  0.45000000  0.29220000  1.0 0.1218459403
H  H511  1  0.45000000  0.29220000  0.12360000  1.0 0.1218459403
H  H512  1  0.12360000  0.13420000  0.45000000  1.0 0.1218459403
H  H513  1  0.13420000  0.12360000  0.29220000  1.0 0.1218459403
H  H514  1  0.13420000  0.45000000  0.12360000  1.0 0.1295859062
H  H515  1  0.29220000  0.12360000  0.45000000  1.0 0.1218459403
H  H516  1  0.12360000  0.29220000  0.13420000  1.0 0.1218459403
H  H517  1  0.36580000  0.20780000  0.37640000  1.0 0.1218459403
H  H518  1  0.05000000  0.37640000  0.20780000  1.0 0.1218459403
H  H519  1  0.37640000  0.05000000  0.36580000  1.0 0.1218459403
H  H520  1  0.37640000  0.36580000  0.20780000  1.0 0.1218459403
H  H521  1  0.20780000  0.05000000  0.37640000  1.0 0.1218459403
H  H522  1  0.36580000  0.37640000  0.05000000  1.0 0.1218459403
H  H523  1  0.20780000  0.37640000  0.36580000  1.0 0.1218459403
H  H524  1  0.37640000  0.20780000  0.05000000  1.0 0.1218459403
H  H525  1  0.05000000  0.36580000  0.37640000  1.0 0.1218459403
H  H526  1  0.13420000  0.29220000  0.45000000  1.0 0.1218459403
H  H527  1  0.29220000  0.45000000  0.13420000  1.0 0.1218459403
H  H528  1  0.45000000  0.13420000  0.29220000  1.0 0.1218459403
H  H529  1  0.77890000  0.69070000  0.92850000  1.0 0.1218459403
H  H530  1  0.92850000  0.77890000  0.69070000  1.0 0.1218459403
H  H531  1  0.69070000  0.92850000  0.77890000  1.0 0.1218459403
H  H532  1  0.72110000  0.80930000  0.89810000  1.0 0.1218459403
H  H533  1  0.57150000  0.89810000  0.80930000  1.0 0.1218459403
H  H534  1  0.89810000  0.57150000  0.72110000  1.0 0.1218459403
H  H535  1  0.57150000  0.72110000  0.89810000  1.0 0.1218459403
H  H536  1  0.89810000  0.80930000  0.57150000  1.0 0.1218459403
H  H537  1  0.80930000  0.89810000  0.72110000  1.0 0.1218459403
H  H538  1  0.80930000  0.57150000  0.89810000  1.0 0.1218459403
H  H539  1  0.72110000  0.89810000  0.57150000  1.0 0.1218459403
H  H540  1  0.89810000  0.72110000  0.80930000  1.0 0.1218459403
H  H541  1  0.69070000  0.77890000  0.60190000  1.0 0.1218459403
H  H542  1  0.92850000  0.60190000  0.77890000  1.0 0.1218459403
H  H543  1  0.60190000  0.92850000  0.69070000  1.0 0.1218459403
H  H544  1  0.60190000  0.69070000  0.77890000  1.0 0.1218459403
H  H545  1  0.77890000  0.92850000  0.60190000  1.0 0.1218459403
H  H546  1  0.69070000  0.60190000  0.92850000  1.0 0.1218459403
H  H547  1  0.77890000  0.60190000  0.69070000  1.0 0.1218459403
H  H548  1  0.60190000  0.77890000  0.92850000  1.0 0.1218459403
H  H549  1  0.92850000  0.69070000  0.60190000  1.0 0.1218459403
H  H550  1  0.80930000  0.72110000  0.57150000  1.0 0.1218459403
H  H551  1  0.72110000  0.57150000  0.80930000  1.0 0.1218459403
H  H552  1  0.57150000  0.80930000  0.72110000  1.0 0.1218459403
H  H553  1  0.22110000  0.30930000  0.07150000  1.0 0.1218459403
H  H554  1  0.07150000  0.22110000  0.30930000  1.0 0.1218459403
H  H555  1  0.30930000  0.07150000  0.22110000  1.0 0.1218459403
H  H556  1  0.27890000  0.19070000  0.10190000  1.0 0.1218459403
H  H557  1  0.42850000  0.10190000  0.19070000  1.0 0.1218459403
H  H558  1  0.10190000  0.42850000  0.27890000  1.0 0.1218459403
H  H559  1  0.42850000  0.27890000  0.10190000  1.0 0.1218459403
H  H560  1  0.10190000  0.19070000  0.42850000  1.0 0.1218459403
H  H561  1  0.19070000  0.10190000  0.27890000  1.0 0.1218459403
H  H562  1  0.19070000  0.42850000  0.10190000  1.0 0.1218459403
H  H563  1  0.27890000  0.10190000  0.42850000  1.0 0.1218459403
H  H564  1  0.10190000  0.27890000  0.19070000  1.0 0.1218459403
H  H565  1  0.30930000  0.22110000  0.39810000  1.0 0.1218459403
H  H566  1  0.07150000  0.39810000  0.22110000  1.0 0.1218459403
H  H567  1  0.39810000  0.07150000  0.30930000  1.0 0.1218459403
H  H568  1  0.39810000  0.30930000  0.22110000  1.0 0.1218459403
H  H569  1  0.22110000  0.07150000  0.39810000  1.0 0.1218459403
H  H570  1  0.30930000  0.39810000  0.07150000  1.0 0.1218459403
H  H571  1  0.22110000  0.39810000  0.30930000  1.0 0.1218459403
H  H572  1  0.39810000  0.22110000  0.07150000  1.0 0.1218459403
H  H573  1  0.07150000  0.30930000  0.39810000  1.0 0.1218459403
H  H574  1  0.19070000  0.27890000  0.42850000  1.0 0.1218459403
H  H575  1  0.27890000  0.42850000  0.19070000  1.0 0.1218459403
H  H576  1  0.42850000  0.19070000  0.27890000  1.0 0.1218459403
H  H577  1  0.73780000  0.66760000  0.96140000  1.0 0.1218459403
H  H578  1  0.96140000  0.73780000  0.66760000  1.0 0.1218459403
H  H579  1  0.66760000  0.96140000  0.73780000  1.0 0.1218459403
H  H580  1  0.76220000  0.83240000  0.86680000  1.0 0.1218459403
H  H581  1  0.53860000  0.86680000  0.83240000  1.0 0.1218459403
H  H582  1  0.86680000  0.53860000  0.76220000  1.0 0.1218459403
H  H583  1  0.53860000  0.76220000  0.86680000  1.0 0.1218459403
H  H584  1  0.86680000  0.83240000  0.53860000  1.0 0.1218459403
H  H585  1  0.83240000  0.86680000  0.76220000  1.0 0.1218459403
H  H586  1  0.83240000  0.53860000  0.86680000  1.0 0.1218459403
H  H587  1  0.76220000  0.86680000  0.53860000  1.0 0.1218459403
H  H588  1  0.86680000  0.76220000  0.83240000  1.0 0.1218459403
H  H589  1  0.66760000  0.73780000  0.63320000  1.0 0.1218459403
H  H590  1  0.96140000  0.63320000  0.73780000  1.0 0.1218459403
H  H591  1  0.63320000  0.96140000  0.66760000  1.0 0.1218459403
H  H592  1  0.63320000  0.66760000  0.73780000  1.0 0.1218459403
H  H593  1  0.73780000  0.96140000  0.63320000  1.0 0.1218459403
H  H594  1  0.66760000  0.63320000  0.96140000  1.0 0.1218459403
H  H595  1  0.73780000  0.63320000  0.66760000  1.0 0.1218459403
H  H596  1  0.63320000  0.73780000  0.96140000  1.0 0.1218459403
H  H597  1  0.96140000  0.66760000  0.63320000  1.0 0.1218459403
H  H598  1  0.83240000  0.76220000  0.53860000  1.0 0.1218459403
H  H599  1  0.76220000  0.53860000  0.83240000  1.0 0.1218459403
H  H600  1  0.53860000  0.83240000  0.76220000  1.0 0.1218459403
H  H601  1  0.26220000  0.33240000  0.03860000  1.0 0.1218459403
H  H602  1  0.03860000  0.26220000  0.33240000  1.0 0.1218459403
H  H603  1  0.33240000  0.03860000  0.26220000  1.0 0.1218459403
H  H604  1  0.23780000  0.16760000  0.13320000  1.0 0.1218459403
H  H605  1  0.46140000  0.13320000  0.16760000  1.0 0.1218459403
H  H606  1  0.13320000  0.46140000  0.23780000  1.0 0.1218459403
H  H607  1  0.46140000  0.23780000  0.13320000  1.0 0.1218459403
H  H608  1  0.13320000  0.16760000  0.46140000  1.0 0.1218459403
H  H609  1  0.16760000  0.13320000  0.23780000  1.0 0.1218459403
H  H610  1  0.16760000  0.46140000  0.13320000  1.0 0.1218459403
H  H611  1  0.23780000  0.13320000  0.46140000  1.0 0.1218459403
H  H612  1  0.13320000  0.23780000  0.16760000  1.0 0.1218459403
H  H613  1  0.33240000  0.26220000  0.36680000  1.0 0.1218459403
H  H614  1  0.03860000  0.36680000  0.26220000  1.0 0.1218459403
H  H615  1  0.36680000  0.03860000  0.33240000  1.0 0.1218459403
H  H616  1  0.36680000  0.33240000  0.26220000  1.0 0.1218459403
H  H617  1  0.26220000  0.03860000  0.36680000  1.0 0.1218459403
H  H618  1  0.33240000  0.36680000  0.03860000  1.0 0.1218459403
H  H619  1  0.26220000  0.36680000  0.33240000  1.0 0.1218459403
H  H620  1  0.36680000  0.26220000  0.03860000  1.0 0.1218459403
H  H621  1  0.03860000  0.33240000  0.36680000  1.0 0.1218459403
H  H622  1  0.16760000  0.23780000  0.46140000  1.0 0.1218459403
H  H623  1  0.23780000  0.46140000  0.16760000  1.0 0.1218459403
H  H624  1  0.46140000  0.16760000  0.23780000  1.0 0.1218459403
Pb  Pb1  1  0.97387000  0.41657000  0.02613000  1.0 0.2643594659
Pb  Pb2  1  0.02613000  0.97387000  0.41657000  1.0 0.2643594659
Pb  Pb3  1  0.41657000  0.02613000  0.97387000  1.0 0.2744025118
Pb  Pb4  1  0.52613000  0.08343000  0.91657000  1.0 0.2744025118
Pb  Pb5  1  0.47387000  0.91657000  0.08343000  1.0 0.2754252977
Pb  Pb6  1  0.91657000  0.47387000  0.52613000  1.0 0.2643594659
Pb  Pb7  1  0.47387000  0.52613000  0.91657000  1.0 0.2643594659
Pb  Pb8  1  0.91657000  0.08343000  0.47387000  1.0 0.2744025118
Pb  Pb9  1  0.08343000  0.91657000  0.52613000  1.0 0.2754252977
Pb  Pb10  1  0.08343000  0.47387000  0.91657000  1.0 0.2744025118
Pb  Pb11  1  0.52613000  0.91657000  0.47387000  1.0 0.2643594659
Pb  Pb12  1  0.91657000  0.52613000  0.08343000  1.0 0.2744025118
Pb  Pb13  1  0.41657000  0.97387000  0.58343000  1.0 0.2643594659
Pb  Pb14  1  0.02613000  0.58343000  0.97387000  1.0 0.2744025118
Pb  Pb15  1  0.58343000  0.02613000  0.41657000  1.0 0.2744025118
Pb  Pb16  1  0.58343000  0.41657000  0.97387000  1.0 0.2744025118
Pb  Pb17  1  0.97387000  0.02613000  0.58343000  1.0 0.2744025118
Pb  Pb18  1  0.41657000  0.58343000  0.02613000  1.0 0.2643594659
Pb  Pb19  1  0.97387000  0.58343000  0.41657000  1.0 0.2643594659
Pb  Pb20  1  0.58343000  0.97387000  0.02613000  1.0 0.2643594659
Pb  Pb21  1  0.02613000  0.41657000  0.58343000  1.0 0.2744025118
Pb  Pb22  1  0.08343000  0.52613000  0.47387000  1.0 0.2744025118
Pb  Pb23  1  0.52613000  0.47387000  0.08343000  1.0 0.2643594659
Pb  Pb24  1  0.47387000  0.08343000  0.52613000  1.0 0.2744025118
Pb  Pb25  1  0.96740000  0.39786000  0.03260000  1.0 0.2073926261
Pb  Pb26  1  0.03260000  0.96740000  0.39786000  1.0 0.2073926261
Pb  Pb27  1  0.39786000  0.03260000  0.96740000  1.0 0.2198197467
Pb  Pb28  1  0.53260000  0.10214000  0.89786000  1.0 0.2198197467
Pb  Pb29  1  0.46740000  0.89786000  0.10214000  1.0 0.2073926261
Pb  Pb30  1  0.89786000  0.46740000  0.53260000  1.0 0.2198197467
Pb  Pb31  1  0.46740000  0.53260000  0.89786000  1.0 0.2073926261
Pb  Pb32  1  0.89786000  0.10214000  0.46740000  1.0 0.2198197467
Pb  Pb33  1  0.10214000  0.89786000  0.53260000  1.0 0.2198197467
Pb  Pb34  1  0.10214000  0.46740000  0.89786000  1.0 0.2073926261
Pb  Pb35  1  0.53260000  0.89786000  0.46740000  1.0 0.2073926261
Pb  Pb36  1  0.89786000  0.53260000  0.10214000  1.0 0.2073926261
Pb  Pb37  1  0.39786000  0.96740000  0.60214000  1.0 0.2073926261
Pb  Pb38  1  0.03260000  0.60214000  0.96740000  1.0 0.2198197467
Pb  Pb39  1  0.60214000  0.03260000  0.39786000  1.0 0.2198197467
Pb  Pb40  1  0.60214000  0.39786000  0.96740000  1.0 0.2073926261
Pb  Pb41  1  0.96740000  0.03260000  0.60214000  1.0 0.2198197467
Pb  Pb42  1  0.39786000  0.60214000  0.03260000  1.0 0.2198197467
Pb  Pb43  1  0.96740000  0.60214000  0.39786000  1.0 0.2073926261
Pb  Pb44  1  0.60214000  0.96740000  0.03260000  1.0 0.2198197467
Pb  Pb45  1  0.03260000  0.39786000  0.60214000  1.0 0.2198197467
Pb  Pb46  1  0.10214000  0.53260000  0.46740000  1.0 0.2198197467
Pb  Pb47  1  0.53260000  0.46740000  0.10214000  1.0 0.2198197467
Pb  Pb48  1  0.46740000  0.10214000  0.53260000  1.0 0.2198197467
C  C1  1  0.87612000  0.47566000  0.04034000  1.0 0.3973172774
C  C2  1  0.04034000  0.87612000  0.47566000  1.0 0.3940452335
C  C3  1  0.47566000  0.04034000  0.87612000  1.0 0.3973172774
C  C4  1  0.62388000  0.02434000  0.89212000  1.0 0.3973172774
C  C5  1  0.45966000  0.89212000  0.02434000  1.0 0.3973172774
C  C6  1  0.89212000  0.45966000  0.62388000  1.0 0.3973172774
C  C7  1  0.45966000  0.62388000  0.89212000  1.0 0.3973172774
C  C8  1  0.89212000  0.02434000  0.45966000  1.0 0.3973172774
C  C9  1  0.02434000  0.89212000  0.62388000  1.0 0.3973172774
C  C10  1  0.02434000  0.45966000  0.89212000  1.0 0.3973172774
C  C11  1  0.62388000  0.89212000  0.45966000  1.0 0.3973172774
C  C12  1  0.89212000  0.62388000  0.02434000  1.0 0.3973172774
C  C13  1  0.47566000  0.87612000  0.60788000  1.0 0.3973172774
C  C14  1  0.04034000  0.60788000  0.87612000  1.0 0.3973172774
C  C15  1  0.60788000  0.04034000  0.47566000  1.0 0.3973172774
C  C16  1  0.60788000  0.47566000  0.87612000  1.0 0.3973172774
C  C17  1  0.87612000  0.04034000  0.60788000  1.0 0.3940452335
C  C18  1  0.47566000  0.60788000  0.04034000  1.0 0.3973172774
C  C19  1  0.87612000  0.60788000  0.47566000  1.0 0.3940452335
C  C20  1  0.60788000  0.87612000  0.04034000  1.0 0.3940452335
C  C21  1  0.04034000  0.47566000  0.60788000  1.0 0.3973172774
C  C22  1  0.02434000  0.62388000  0.45966000  1.0 0.3973172774
C  C23  1  0.62388000  0.45966000  0.02434000  1.0 0.3973172774
C  C24  1  0.45966000  0.02434000  0.62388000  1.0 0.3973172774
C  C25  1  0.12388000  0.52434000  0.95966000  1.0 0.3973172774
C  C26  1  0.95966000  0.12388000  0.52434000  1.0 0.3940452335
C  C27  1  0.52434000  0.95966000  0.12388000  1.0 0.3973172774
C  C28  1  0.37612000  0.97566000  0.10788000  1.0 0.3973172774
C  C29  1  0.54034000  0.10788000  0.97566000  1.0 0.3973172774
C  C30  1  0.10788000  0.54034000  0.37612000  1.0 0.3973172774
C  C31  1  0.54034000  0.37612000  0.10788000  1.0 0.3973172774
C  C32  1  0.10788000  0.97566000  0.54034000  1.0 0.3973172774
C  C33  1  0.97566000  0.10788000  0.37612000  1.0 0.3973172774
C  C34  1  0.97566000  0.54034000  0.10788000  1.0 0.3940452335
C  C35  1  0.37612000  0.10788000  0.54034000  1.0 0.3973172774
C  C36  1  0.10788000  0.37612000  0.97566000  1.0 0.3973172774
C  C37  1  0.52434000  0.12388000  0.39212000  1.0 0.3973172774
C  C38  1  0.95966000  0.39212000  0.12388000  1.0 0.3973172774
C  C39  1  0.39212000  0.95966000  0.52434000  1.0 0.3973172774
C  C40  1  0.39212000  0.52434000  0.12388000  1.0 0.3973172774
C  C41  1  0.12388000  0.95966000  0.39212000  1.0 0.3973172774
C  C42  1  0.52434000  0.39212000  0.95966000  1.0 0.3973172774
C  C43  1  0.12388000  0.39212000  0.52434000  1.0 0.3940452335
C  C44  1  0.39212000  0.12388000  0.95966000  1.0 0.3973172774
C  C45  1  0.95966000  0.52434000  0.39212000  1.0 0.3973172774
C  C46  1  0.97566000  0.37612000  0.54034000  1.0 0.3973172774
C  C47  1  0.37612000  0.54034000  0.97566000  1.0 0.3973172774
C  C48  1  0.54034000  0.97566000  0.37612000  1.0 0.3973172774
C  C49  1  0.82601000  0.50653000  0.04471000  1.0 -0.0233301033
C  C50  1  0.04471000  0.82601000  0.50653000  1.0 -0.0233301033
C  C51  1  0.50653000  0.04471000  0.82601000  1.0 -0.0233301033
C  C52  1  0.67399000  0.99347000  0.87725000  1.0 -0.0233301033
C  C53  1  0.45529000  0.87725000  0.99347000  1.0 -0.0233301033
C  C54  1  0.87725000  0.45529000  0.67399000  1.0 -0.0233301033
C  C55  1  0.45529000  0.67399000  0.87725000  1.0 -0.0233301033
C  C56  1  0.87725000  0.99347000  0.45529000  1.0 -0.0233301033
C  C57  1  0.99347000  0.87725000  0.67399000  1.0 -0.0233301033
C  C58  1  0.99347000  0.45529000  0.87725000  1.0 -0.0233301033
C  C59  1  0.67399000  0.87725000  0.45529000  1.0 -0.0233301033
C  C60  1  0.87725000  0.67399000  0.99347000  1.0 -0.0233301033
C  C61  1  0.50653000  0.82601000  0.62275000  1.0 -0.0233301033
C  C62  1  0.04471000  0.62275000  0.82601000  1.0 -0.0233301033
C  C63  1  0.62275000  0.04471000  0.50653000  1.0 -0.0233301033
C  C64  1  0.62275000  0.50653000  0.82601000  1.0 -0.0233301033
C  C65  1  0.82601000  0.04471000  0.62275000  1.0 -0.0233301033
C  C66  1  0.50653000  0.62275000  0.04471000  1.0 -0.0233301033
C  C67  1  0.82601000  0.62275000  0.50653000  1.0 -0.0233301033
C  C68  1  0.62275000  0.82601000  0.04471000  1.0 -0.0233301033
C  C69  1  0.04471000  0.50653000  0.62275000  1.0 -0.0233301033
C  C70  1  0.99347000  0.67399000  0.45529000  1.0 -0.0233301033
C  C71  1  0.67399000  0.45529000  0.99347000  1.0 -0.0233301033
C  C72  1  0.45529000  0.99347000  0.67399000  1.0 -0.0233301033
C  C73  1  0.17399000  0.49347000  0.95529000  1.0 -0.0233301033
C  C74  1  0.95529000  0.17399000  0.49347000  1.0 -0.0233301033
C  C75  1  0.49347000  0.95529000  0.17399000  1.0 -0.0233301033
C  C76  1  0.32601000  0.00653000  0.12275000  1.0 -0.0233301033
C  C77  1  0.54471000  0.12275000  0.00653000  1.0 -0.0233301033
C  C78  1  0.12275000  0.54471000  0.32601000  1.0 -0.0233301033
C  C79  1  0.54471000  0.32601000  0.12275000  1.0 -0.0233301033
C  C80  1  0.12275000  0.00653000  0.54471000  1.0 -0.0233301033
C  C81  1  0.00653000  0.12275000  0.32601000  1.0 -0.0233301033
C  C82  1  0.00653000  0.54471000  0.12275000  1.0 -0.0233301033
C  C83  1  0.32601000  0.12275000  0.54471000  1.0 -0.0233301033
C  C84  1  0.12275000  0.32601000  0.00653000  1.0 -0.0233301033
C  C85  1  0.49347000  0.17399000  0.37725000  1.0 -0.0233301033
C  C86  1  0.95529000  0.37725000  0.17399000  1.0 -0.0233301033
C  C87  1  0.37725000  0.95529000  0.49347000  1.0 -0.0233301033
C  C88  1  0.37725000  0.49347000  0.17399000  1.0 -0.0233301033
C  C89  1  0.17399000  0.95529000  0.37725000  1.0 -0.0233301033
C  C90  1  0.49347000  0.37725000  0.95529000  1.0 -0.0233301033
C  C91  1  0.17399000  0.37725000  0.49347000  1.0 -0.0233301033
C  C92  1  0.37725000  0.17399000  0.95529000  1.0 -0.0233301033
C  C93  1  0.95529000  0.49347000  0.37725000  1.0 -0.0233301033
C  C94  1  0.00653000  0.32601000  0.54471000  1.0 -0.0233301033
C  C95  1  0.32601000  0.54471000  0.00653000  1.0 -0.0233301033
C  C96  1  0.54471000  0.00653000  0.32601000  1.0 -0.0233301033
C  C97  1  0.81199000  0.55345000  0.04209000  1.0 -0.1304736086
C  C98  1  0.04209000  0.81199000  0.55345000  1.0 -0.1304736086
C  C99  1  0.55345000  0.04209000  0.81199000  1.0 -0.1304736086
C  C100  1  0.68801000  0.94655000  0.90753000  1.0 -0.1304736086
C  C101  1  0.45791000  0.90753000  0.94655000  1.0 -0.1304736086
C  C102  1  0.90753000  0.45791000  0.68801000  1.0 -0.1304736086
C  C103  1  0.45791000  0.68801000  0.90753000  1.0 -0.1304736086
C  C104  1  0.90753000  0.94655000  0.45791000  1.0 -0.1304736086
C  C105  1  0.94655000  0.90753000  0.68801000  1.0 -0.1304736086
C  C106  1  0.94655000  0.45791000  0.90753000  1.0 -0.1304736086
C  C107  1  0.68801000  0.90753000  0.45791000  1.0 -0.1304736086
C  C108  1  0.90753000  0.68801000  0.94655000  1.0 -0.1304736086
C  C109  1  0.55345000  0.81199000  0.59247000  1.0 -0.1304736086
C  C110  1  0.04209000  0.59247000  0.81199000  1.0 -0.1304736086
C  C111  1  0.59247000  0.04209000  0.55345000  1.0 -0.1304736086
C  C112  1  0.59247000  0.55345000  0.81199000  1.0 -0.1304736086
C  C113  1  0.81199000  0.04209000  0.59247000  1.0 -0.1304736086
C  C114  1  0.55345000  0.59247000  0.04209000  1.0 -0.1304736086
C  C115  1  0.81199000  0.59247000  0.55345000  1.0 -0.1304736086
C  C116  1  0.59247000  0.81199000  0.04209000  1.0 -0.1304736086
C  C117  1  0.04209000  0.55345000  0.59247000  1.0 -0.1304736086
C  C118  1  0.94655000  0.68801000  0.45791000  1.0 -0.1304736086
C  C119  1  0.68801000  0.45791000  0.94655000  1.0 -0.1304736086
C  C120  1  0.45791000  0.94655000  0.68801000  1.0 -0.1304736086
C  C121  1  0.18801000  0.44655000  0.95791000  1.0 -0.1304736086
C  C122  1  0.95791000  0.18801000  0.44655000  1.0 -0.1304736086
C  C123  1  0.44655000  0.95791000  0.18801000  1.0 -0.1304736086
C  C124  1  0.31199000  0.05345000  0.09247000  1.0 -0.1304736086
C  C125  1  0.54209000  0.09247000  0.05345000  1.0 -0.1304736086
C  C126  1  0.09247000  0.54209000  0.31199000  1.0 -0.1304736086
C  C127  1  0.54209000  0.31199000  0.09247000  1.0 -0.1304736086
C  C128  1  0.09247000  0.05345000  0.54209000  1.0 -0.1304736086
C  C129  1  0.05345000  0.09247000  0.31199000  1.0 -0.1304736086
C  C130  1  0.05345000  0.54209000  0.09247000  1.0 -0.1304736086
C  C131  1  0.31199000  0.09247000  0.54209000  1.0 -0.1304736086
C  C132  1  0.09247000  0.31199000  0.05345000  1.0 -0.1304736086
C  C133  1  0.44655000  0.18801000  0.40753000  1.0 -0.1304736086
C  C134  1  0.95791000  0.40753000  0.18801000  1.0 -0.1304736086
C  C135  1  0.40753000  0.95791000  0.44655000  1.0 -0.1304736086
C  C136  1  0.40753000  0.44655000  0.18801000  1.0 -0.1304736086
C  C137  1  0.18801000  0.95791000  0.40753000  1.0 -0.1304736086
C  C138  1  0.44655000  0.40753000  0.95791000  1.0 -0.1304736086
C  C139  1  0.18801000  0.40753000  0.44655000  1.0 -0.1304736086
C  C140  1  0.40753000  0.18801000  0.95791000  1.0 -0.1304736086
C  C141  1  0.95791000  0.44655000  0.40753000  1.0 -0.1304736086
C  C142  1  0.05345000  0.31199000  0.54209000  1.0 -0.1304736086
C  C143  1  0.31199000  0.54209000  0.05345000  1.0 -0.1304736086
C  C144  1  0.54209000  0.05345000  0.31199000  1.0 -0.1304736086
C  C145  1  0.76530000  0.58284000  0.04488000  1.0 0.0309357553
C  C146  1  0.04488000  0.76530000  0.58284000  1.0 0.0309357553
C  C147  1  0.58284000  0.04488000  0.76530000  1.0 0.0309357553
C  C148  1  0.73470000  0.91716000  0.89302000  1.0 0.0309357553
C  C149  1  0.45512000  0.89302000  0.91716000  1.0 0.0309357553
C  C150  1  0.89302000  0.45512000  0.73470000  1.0 0.0309357553
C  C151  1  0.45512000  0.73470000  0.89302000  1.0 0.0309357553
C  C152  1  0.89302000  0.91716000  0.45512000  1.0 0.0309357553
C  C153  1  0.91716000  0.89302000  0.73470000  1.0 0.0309357553
C  C154  1  0.91716000  0.45512000  0.89302000  1.0 0.0309357553
C  C155  1  0.73470000  0.89302000  0.45512000  1.0 0.0309357553
C  C156  1  0.89302000  0.73470000  0.91716000  1.0 0.0309357553
C  C157  1  0.58284000  0.76530000  0.60698000  1.0 0.0309357553
C  C158  1  0.04488000  0.60698000  0.76530000  1.0 0.0309357553
C  C159  1  0.60698000  0.04488000  0.58284000  1.0 0.0309357553
C  C160  1  0.60698000  0.58284000  0.76530000  1.0 0.0309357553
C  C161  1  0.76530000  0.04488000  0.60698000  1.0 0.0309357553
C  C162  1  0.58284000  0.60698000  0.04488000  1.0 0.0309357553
C  C163  1  0.76530000  0.60698000  0.58284000  1.0 0.0309357553
C  C164  1  0.60698000  0.76530000  0.04488000  1.0 0.0309357553
C  C165  1  0.04488000  0.58284000  0.60698000  1.0 0.0309357553
C  C166  1  0.91716000  0.73470000  0.45512000  1.0 0.0309357553
C  C167  1  0.73470000  0.45512000  0.91716000  1.0 0.0309357553
C  C168  1  0.45512000  0.91716000  0.73470000  1.0 0.0309357553
C  C169  1  0.23470000  0.41716000  0.95512000  1.0 0.0309357553
C  C170  1  0.95512000  0.23470000  0.41716000  1.0 0.0309357553
C  C171  1  0.41716000  0.95512000  0.23470000  1.0 0.0309357553
C  C172  1  0.26530000  0.08284000  0.10698000  1.0 0.0309357553
C  C173  1  0.54488000  0.10698000  0.08284000  1.0 0.0309357553
C  C174  1  0.10698000  0.54488000  0.26530000  1.0 0.0309357553
C  C175  1  0.54488000  0.26530000  0.10698000  1.0 0.0309357553
C  C176  1  0.10698000  0.08284000  0.54488000  1.0 0.0309357553
C  C177  1  0.08284000  0.10698000  0.26530000  1.0 0.0309357553
C  C178  1  0.08284000  0.54488000  0.10698000  1.0 0.0309357553
C  C179  1  0.26530000  0.10698000  0.54488000  1.0 0.0309357553
C  C180  1  0.10698000  0.26530000  0.08284000  1.0 0.0309357553
C  C181  1  0.41716000  0.23470000  0.39302000  1.0 0.0309357553
C  C182  1  0.95512000  0.39302000  0.23470000  1.0 0.0309357553
C  C183  1  0.39302000  0.95512000  0.41716000  1.0 0.0309357553
C  C184  1  0.39302000  0.41716000  0.23470000  1.0 0.0309357553
C  C185  1  0.23470000  0.95512000  0.39302000  1.0 0.0309357553
C  C186  1  0.41716000  0.39302000  0.95512000  1.0 0.0309357553
C  C187  1  0.23470000  0.39302000  0.41716000  1.0 0.0309357553
C  C188  1  0.39302000  0.23470000  0.95512000  1.0 0.0309357553
C  C189  1  0.95512000  0.41716000  0.39302000  1.0 0.0309357553
C  C190  1  0.08284000  0.26530000  0.54488000  1.0 0.0309357553
C  C191  1  0.26530000  0.54488000  0.08284000  1.0 0.0309357553
C  C192  1  0.54488000  0.08284000  0.26530000  1.0 0.0309357553
C  C193  1  0.73336000  0.56710000  0.04918000  1.0 0.0309357553
C  C194  1  0.04918000  0.73336000  0.56710000  1.0 0.0309357553
C  C195  1  0.56710000  0.04918000  0.73336000  1.0 0.0309357553
C  C196  1  0.76664000  0.93290000  0.84964000  1.0 0.0309357553
C  C197  1  0.45082000  0.84964000  0.93290000  1.0 0.0309357553
C  C198  1  0.84964000  0.45082000  0.76664000  1.0 0.0309357553
C  C199  1  0.45082000  0.76664000  0.84964000  1.0 0.0309357553
C  C200  1  0.84964000  0.93290000  0.45082000  1.0 0.0309357553
C  C201  1  0.93290000  0.84964000  0.76664000  1.0 0.0309357553
C  C202  1  0.93290000  0.45082000  0.84964000  1.0 0.0309357553
C  C203  1  0.76664000  0.84964000  0.45082000  1.0 0.0309357553
C  C204  1  0.84964000  0.76664000  0.93290000  1.0 0.0309357553
C  C205  1  0.56710000  0.73336000  0.65036000  1.0 0.0309357553
C  C206  1  0.04918000  0.65036000  0.73336000  1.0 0.0309357553
C  C207  1  0.65036000  0.04918000  0.56710000  1.0 0.0309357553
C  C208  1  0.65036000  0.56710000  0.73336000  1.0 0.0309357553
C  C209  1  0.73336000  0.04918000  0.65036000  1.0 0.0309357553
C  C210  1  0.56710000  0.65036000  0.04918000  1.0 0.0309357553
C  C211  1  0.73336000  0.65036000  0.56710000  1.0 0.0309357553
C  C212  1  0.65036000  0.73336000  0.04918000  1.0 0.0309357553
C  C213  1  0.04918000  0.56710000  0.65036000  1.0 0.0309357553
C  C214  1  0.93290000  0.76664000  0.45082000  1.0 0.0309357553
C  C215  1  0.76664000  0.45082000  0.93290000  1.0 0.0309357553
C  C216  1  0.45082000  0.93290000  0.76664000  1.0 0.0309357553
C  C217  1  0.26664000  0.43290000  0.95082000  1.0 0.0309357553
C  C218  1  0.95082000  0.26664000  0.43290000  1.0 0.0309357553
C  C219  1  0.43290000  0.95082000  0.26664000  1.0 0.0309357553
C  C220  1  0.23336000  0.06710000  0.15036000  1.0 0.0309357553
C  C221  1  0.54918000  0.15036000  0.06710000  1.0 0.0309357553
C  C222  1  0.15036000  0.54918000  0.23336000  1.0 0.0309357553
C  C223  1  0.54918000  0.23336000  0.15036000  1.0 0.0309357553
C  C224  1  0.15036000  0.06710000  0.54918000  1.0 0.0309357553
C  C225  1  0.06710000  0.15036000  0.23336000  1.0 0.0309357553
C  C226  1  0.06710000  0.54918000  0.15036000  1.0 0.0309357553
C  C227  1  0.23336000  0.15036000  0.54918000  1.0 0.0309357553
C  C228  1  0.15036000  0.23336000  0.06710000  1.0 0.0309357553
C  C229  1  0.43290000  0.26664000  0.34964000  1.0 0.0309357553
C  C230  1  0.95082000  0.34964000  0.26664000  1.0 0.0309357553
C  C231  1  0.34964000  0.95082000  0.43290000  1.0 0.0309357553
C  C232  1  0.34964000  0.43290000  0.26664000  1.0 0.0309357553
C  C233  1  0.26664000  0.95082000  0.34964000  1.0 0.0309357553
C  C234  1  0.43290000  0.34964000  0.95082000  1.0 0.0309357553
C  C235  1  0.26664000  0.34964000  0.43290000  1.0 0.0309357553
C  C236  1  0.34964000  0.26664000  0.95082000  1.0 0.0309357553
C  C237  1  0.95082000  0.43290000  0.34964000  1.0 0.0309357553
C  C238  1  0.06710000  0.23336000  0.54918000  1.0 0.0309357553
C  C239  1  0.23336000  0.54918000  0.06710000  1.0 0.0309357553
C  C240  1  0.54918000  0.06710000  0.23336000  1.0 0.0309357553
C  C241  1  0.74853000  0.52089000  0.05015000  1.0 -0.1536815485
C  C242  1  0.05015000  0.74853000  0.52089000  1.0 -0.1536815485
C  C243  1  0.52089000  0.05015000  0.74853000  1.0 -0.1536815485
C  C244  1  0.75147000  0.97911000  0.81957000  1.0 -0.1536815485
C  C245  1  0.44985000  0.81957000  0.97911000  1.0 -0.1536815485
C  C246  1  0.81957000  0.44985000  0.75147000  1.0 -0.1536815485
C  C247  1  0.44985000  0.75147000  0.81957000  1.0 -0.1536815485
C  C248  1  0.81957000  0.97911000  0.44985000  1.0 -0.1536815485
C  C249  1  0.97911000  0.81957000  0.75147000  1.0 -0.1536815485
C  C250  1  0.97911000  0.44985000  0.81957000  1.0 -0.1536815485
C  C251  1  0.75147000  0.81957000  0.44985000  1.0 -0.1536815485
C  C252  1  0.81957000  0.75147000  0.97911000  1.0 -0.1536815485
C  C253  1  0.52089000  0.74853000  0.68043000  1.0 -0.1536815485
C  C254  1  0.05015000  0.68043000  0.74853000  1.0 -0.1536815485
C  C255  1  0.68043000  0.05015000  0.52089000  1.0 -0.1536815485
C  C256  1  0.68043000  0.52089000  0.74853000  1.0 -0.1536815485
C  C257  1  0.74853000  0.05015000  0.68043000  1.0 -0.1536815485
C  C258  1  0.52089000  0.68043000  0.05015000  1.0 -0.1536815485
C  C259  1  0.74853000  0.68043000  0.52089000  1.0 -0.1536815485
C  C260  1  0.68043000  0.74853000  0.05015000  1.0 -0.1536815485
C  C261  1  0.05015000  0.52089000  0.68043000  1.0 -0.1536815485
C  C262  1  0.97911000  0.75147000  0.44985000  1.0 -0.1536815485
C  C263  1  0.75147000  0.44985000  0.97911000  1.0 -0.1536815485
C  C264  1  0.44985000  0.97911000  0.75147000  1.0 -0.1536815485
C  C265  1  0.25147000  0.47911000  0.94985000  1.0 -0.1536815485
C  C266  1  0.94985000  0.25147000  0.47911000  1.0 -0.1536815485
C  C267  1  0.47911000  0.94985000  0.25147000  1.0 -0.1536815485
C  C268  1  0.24853000  0.02089000  0.18043000  1.0 -0.1536815485
C  C269  1  0.55015000  0.18043000  0.02089000  1.0 -0.1536815485
C  C270  1  0.18043000  0.55015000  0.24853000  1.0 -0.1536815485
C  C271  1  0.55015000  0.24853000  0.18043000  1.0 -0.1536815485
C  C272  1  0.18043000  0.02089000  0.55015000  1.0 -0.1536815485
C  C273  1  0.02089000  0.18043000  0.24853000  1.0 -0.1536815485
C  C274  1  0.02089000  0.55015000  0.18043000  1.0 -0.1536815485
C  C275  1  0.24853000  0.18043000  0.55015000  1.0 -0.1536815485
C  C276  1  0.18043000  0.24853000  0.02089000  1.0 -0.1536815485
C  C277  1  0.47911000  0.25147000  0.31957000  1.0 -0.1536815485
C  C278  1  0.94985000  0.31957000  0.25147000  1.0 -0.1536815485
C  C279  1  0.31957000  0.94985000  0.47911000  1.0 -0.1536815485
C  C280  1  0.31957000  0.47911000  0.25147000  1.0 -0.1536815485
C  C281  1  0.25147000  0.94985000  0.31957000  1.0 -0.1536815485
C  C282  1  0.47911000  0.31957000  0.94985000  1.0 -0.1536815485
C  C283  1  0.25147000  0.31957000  0.47911000  1.0 -0.1536815485
C  C284  1  0.31957000  0.25147000  0.94985000  1.0 -0.1536815485
C  C285  1  0.94985000  0.47911000  0.31957000  1.0 -0.1536815485
C  C286  1  0.02089000  0.24853000  0.55015000  1.0 -0.1536815485
C  C287  1  0.24853000  0.55015000  0.02089000  1.0 -0.1536815485
C  C288  1  0.55015000  0.02089000  0.24853000  1.0 -0.1536815485
C  C289  1  0.79357000  0.49187000  0.04907000  1.0 -0.0958176514
C  C290  1  0.04907000  0.79357000  0.49187000  1.0 -0.0958176514
C  C291  1  0.49187000  0.04907000  0.79357000  1.0 -0.0958176514
C  C292  1  0.70643000  0.00813000  0.83451000  1.0 -0.0958176514
C  C293  1  0.45093000  0.83451000  0.00813000  1.0 -0.0958176514
C  C294  1  0.83451000  0.45093000  0.70643000  1.0 -0.0958176514
C  C295  1  0.45093000  0.70643000  0.83451000  1.0 -0.0958176514
C  C296  1  0.83451000  0.00813000  0.45093000  1.0 -0.0958176514
C  C297  1  0.00813000  0.83451000  0.70643000  1.0 -0.0958176514
C  C298  1  0.00813000  0.45093000  0.83451000  1.0 -0.0958176514
C  C299  1  0.70643000  0.83451000  0.45093000  1.0 -0.0958176514
C  C300  1  0.83451000  0.70643000  0.00813000  1.0 -0.0958176514
C  C301  1  0.49187000  0.79357000  0.66549000  1.0 -0.0958176514
C  C302  1  0.04907000  0.66549000  0.79357000  1.0 -0.0958176514
C  C303  1  0.66549000  0.04907000  0.49187000  1.0 -0.0958176514
C  C304  1  0.66549000  0.49187000  0.79357000  1.0 -0.0958176514
C  C305  1  0.79357000  0.04907000  0.66549000  1.0 -0.0958176514
C  C306  1  0.49187000  0.66549000  0.04907000  1.0 -0.0958176514
C  C307  1  0.79357000  0.66549000  0.49187000  1.0 -0.0958176514
C  C308  1  0.66549000  0.79357000  0.04907000  1.0 -0.0958176514
C  C309  1  0.04907000  0.49187000  0.66549000  1.0 -0.0958176514
C  C310  1  0.00813000  0.70643000  0.45093000  1.0 -0.0958176514
C  C311  1  0.70643000  0.45093000  0.00813000  1.0 -0.0958176514
C  C312  1  0.45093000  0.00813000  0.70643000  1.0 -0.0958176514
C  C313  1  0.20643000  0.50813000  0.95093000  1.0 -0.0958176514
C  C314  1  0.95093000  0.20643000  0.50813000  1.0 -0.0958176514
C  C315  1  0.50813000  0.95093000  0.20643000  1.0 -0.0958176514
C  C316  1  0.29357000  0.99187000  0.16549000  1.0 -0.0958176514
C  C317  1  0.54907000  0.16549000  0.99187000  1.0 -0.0958176514
C  C318  1  0.16549000  0.54907000  0.29357000  1.0 -0.0958176514
C  C319  1  0.54907000  0.29357000  0.16549000  1.0 -0.0958176514
C  C320  1  0.16549000  0.99187000  0.54907000  1.0 -0.0958176514
C  C321  1  0.99187000  0.16549000  0.29357000  1.0 -0.0958176514
C  C322  1  0.99187000  0.54907000  0.16549000  1.0 -0.0958176514
C  C323  1  0.29357000  0.16549000  0.54907000  1.0 -0.0958176514
C  C324  1  0.16549000  0.29357000  0.99187000  1.0 -0.0958176514
C  C325  1  0.50813000  0.20643000  0.33451000  1.0 -0.0958176514
C  C326  1  0.95093000  0.33451000  0.20643000  1.0 -0.0958176514
C  C327  1  0.33451000  0.95093000  0.50813000  1.0 -0.0958176514
C  C328  1  0.33451000  0.50813000  0.20643000  1.0 -0.0958176514
C  C329  1  0.20643000  0.95093000  0.33451000  1.0 -0.0958176514
C  C330  1  0.50813000  0.33451000  0.95093000  1.0 -0.0958176514
C  C331  1  0.20643000  0.33451000  0.50813000  1.0 -0.0958176514
C  C332  1  0.33451000  0.20643000  0.95093000  1.0 -0.0958176514
C  C333  1  0.95093000  0.50813000  0.33451000  1.0 -0.0958176514
C  C334  1  0.99187000  0.29357000  0.54907000  1.0 -0.0958176514
C  C335  1  0.29357000  0.54907000  0.99187000  1.0 -0.0958176514
C  C336  1  0.54907000  0.99187000  0.29357000  1.0 -0.0958176514
C  C337  1  0.74339000  0.63253000  0.04589000  1.0 0.098815377
C  C338  1  0.04589000  0.74339000  0.63253000  1.0 0.098815377
C  C339  1  0.63253000  0.04589000  0.74339000  1.0 0.098815377
C  C340  1  0.75661000  0.86747000  0.92181000  1.0 0.098815377
C  C341  1  0.45411000  0.92181000  0.86747000  1.0 0.098815377
C  C342  1  0.92181000  0.45411000  0.75661000  1.0 0.098815377
C  C343  1  0.45411000  0.75661000  0.92181000  1.0 0.098815377
C  C344  1  0.92181000  0.86747000  0.45411000  1.0 0.098815377
C  C345  1  0.86747000  0.92181000  0.75661000  1.0 0.098815377
C  C346  1  0.86747000  0.45411000  0.92181000  1.0 0.098815377
C  C347  1  0.75661000  0.92181000  0.45411000  1.0 0.098815377
C  C348  1  0.92181000  0.75661000  0.86747000  1.0 0.098815377
C  C349  1  0.63253000  0.74339000  0.57819000  1.0 0.098815377
C  C350  1  0.04589000  0.57819000  0.74339000  1.0 0.098815377
C  C351  1  0.57819000  0.04589000  0.63253000  1.0 0.098815377
C  C352  1  0.57819000  0.63253000  0.74339000  1.0 0.098815377
C  C353  1  0.74339000  0.04589000  0.57819000  1.0 0.098815377
C  C354  1  0.63253000  0.57819000  0.04589000  1.0 0.098815377
C  C355  1  0.74339000  0.57819000  0.63253000  1.0 0.098815377
C  C356  1  0.57819000  0.74339000  0.04589000  1.0 0.098815377
C  C357  1  0.04589000  0.63253000  0.57819000  1.0 0.098815377
C  C358  1  0.86747000  0.75661000  0.45411000  1.0 0.098815377
C  C359  1  0.75661000  0.45411000  0.86747000  1.0 0.098815377
C  C360  1  0.45411000  0.86747000  0.75661000  1.0 0.098815377
C  C361  1  0.25661000  0.36747000  0.95411000  1.0 0.098815377
C  C362  1  0.95411000  0.25661000  0.36747000  1.0 0.098815377
C  C363  1  0.36747000  0.95411000  0.25661000  1.0 0.098815377
C  C364  1  0.24339000  0.13253000  0.07819000  1.0 0.098815377
C  C365  1  0.54589000  0.07819000  0.13253000  1.0 0.098815377
C  C366  1  0.07819000  0.54589000  0.24339000  1.0 0.098815377
C  C367  1  0.54589000  0.24339000  0.07819000  1.0 0.098815377
C  C368  1  0.07819000  0.13253000  0.54589000  1.0 0.098815377
C  C369  1  0.13253000  0.07819000  0.24339000  1.0 0.098815377
C  C370  1  0.13253000  0.54589000  0.07819000  1.0 0.098815377
C  C371  1  0.24339000  0.07819000  0.54589000  1.0 0.098815377
C  C372  1  0.07819000  0.24339000  0.13253000  1.0 0.098815377
C  C373  1  0.36747000  0.25661000  0.42181000  1.0 0.098815377
C  C374  1  0.95411000  0.42181000  0.25661000  1.0 0.098815377
C  C375  1  0.42181000  0.95411000  0.36747000  1.0 0.098815377
C  C376  1  0.42181000  0.36747000  0.25661000  1.0 0.098815377
C  C377  1  0.25661000  0.95411000  0.42181000  1.0 0.098815377
C  C378  1  0.36747000  0.42181000  0.95411000  1.0 0.098815377
C  C379  1  0.25661000  0.42181000  0.36747000  1.0 0.098815377
C  C380  1  0.42181000  0.25661000  0.95411000  1.0 0.098815377
C  C381  1  0.95411000  0.36747000  0.42181000  1.0 0.098815377
C  C382  1  0.13253000  0.24339000  0.54589000  1.0 0.098815377
C  C383  1  0.24339000  0.54589000  0.13253000  1.0 0.098815377
C  C384  1  0.54589000  0.13253000  0.24339000  1.0 0.098815377
C  C385  1  0.69332000  0.64492000  0.04884000  1.0 -0.0233301033
C  C386  1  0.04884000  0.69332000  0.64492000  1.0 -0.0233301033
C  C387  1  0.64492000  0.04884000  0.69332000  1.0 -0.0233301033
C  C388  1  0.80668000  0.85508000  0.88708000  1.0 -0.0233301033
C  C389  1  0.45116000  0.88708000  0.85508000  1.0 -0.0233301033
C  C390  1  0.88708000  0.45116000  0.80668000  1.0 -0.0233301033
C  C391  1  0.45116000  0.80668000  0.88708000  1.0 -0.0233301033
C  C392  1  0.88708000  0.85508000  0.45116000  1.0 -0.0233301033
C  C393  1  0.85508000  0.88708000  0.80668000  1.0 -0.0233301033
C  C394  1  0.85508000  0.45116000  0.88708000  1.0 -0.0233301033
C  C395  1  0.80668000  0.88708000  0.45116000  1.0 -0.0233301033
C  C396  1  0.88708000  0.80668000  0.85508000  1.0 -0.0233301033
C  C397  1  0.64492000  0.69332000  0.61292000  1.0 -0.0233301033
C  C398  1  0.04884000  0.61292000  0.69332000  1.0 -0.0233301033
C  C399  1  0.61292000  0.04884000  0.64492000  1.0 -0.0233301033
C  C400  1  0.61292000  0.64492000  0.69332000  1.0 -0.0233301033
C  C401  1  0.69332000  0.04884000  0.61292000  1.0 -0.0233301033
C  C402  1  0.64492000  0.61292000  0.04884000  1.0 -0.0233301033
C  C403  1  0.69332000  0.61292000  0.64492000  1.0 -0.0233301033
C  C404  1  0.61292000  0.69332000  0.04884000  1.0 -0.0233301033
C  C405  1  0.04884000  0.64492000  0.61292000  1.0 -0.0233301033
C  C406  1  0.85508000  0.80668000  0.45116000  1.0 -0.0233301033
C  C407  1  0.80668000  0.45116000  0.85508000  1.0 -0.0233301033
C  C408  1  0.45116000  0.85508000  0.80668000  1.0 -0.0233301033
C  C409  1  0.30668000  0.35508000  0.95116000  1.0 -0.0233301033
C  C410  1  0.95116000  0.30668000  0.35508000  1.0 -0.0233301033
C  C411  1  0.35508000  0.95116000  0.30668000  1.0 -0.0233301033
C  C412  1  0.19332000  0.14492000  0.11292000  1.0 -0.0233301033
C  C413  1  0.54884000  0.11292000  0.14492000  1.0 -0.0233301033
C  C414  1  0.11292000  0.54884000  0.19332000  1.0 -0.0233301033
C  C415  1  0.54884000  0.19332000  0.11292000  1.0 -0.0233301033
C  C416  1  0.11292000  0.14492000  0.54884000  1.0 -0.0233301033
C  C417  1  0.14492000  0.11292000  0.19332000  1.0 -0.0233301033
C  C418  1  0.14492000  0.54884000  0.11292000  1.0 -0.0233301033
C  C419  1  0.19332000  0.11292000  0.54884000  1.0 -0.0233301033
C  C420  1  0.11292000  0.19332000  0.14492000  1.0 -0.0233301033
C  C421  1  0.35508000  0.30668000  0.38708000  1.0 -0.0233301033
C  C422  1  0.95116000  0.38708000  0.30668000  1.0 -0.0233301033
C  C423  1  0.38708000  0.95116000  0.35508000  1.0 -0.0233301033
C  C424  1  0.38708000  0.35508000  0.30668000  1.0 -0.0233301033
C  C425  1  0.30668000  0.95116000  0.38708000  1.0 -0.0233301033
C  C426  1  0.35508000  0.38708000  0.95116000  1.0 -0.0233301033
C  C427  1  0.30668000  0.38708000  0.35508000  1.0 -0.0233301033
C  C428  1  0.38708000  0.30668000  0.95116000  1.0 -0.0233301033
C  C429  1  0.95116000  0.35508000  0.38708000  1.0 -0.0233301033
C  C430  1  0.14492000  0.19332000  0.54884000  1.0 -0.0233301033
C  C431  1  0.19332000  0.54884000  0.14492000  1.0 -0.0233301033
C  C432  1  0.54884000  0.14492000  0.19332000  1.0 -0.0233301033
C  C433  1  0.68786000  0.60770000  0.04918000  1.0 -0.0284764793
C  C434  1  0.04918000  0.68786000  0.60770000  1.0 -0.0284764793
C  C435  1  0.60770000  0.04918000  0.68786000  1.0 -0.0284764793
C  C436  1  0.81214000  0.89230000  0.84474000  1.0 -0.0284764793
C  C437  1  0.45082000  0.84474000  0.89230000  1.0 -0.0284764793
C  C438  1  0.84474000  0.45082000  0.81214000  1.0 -0.0284764793
C  C439  1  0.45082000  0.81214000  0.84474000  1.0 -0.0284764793
C  C440  1  0.84474000  0.89230000  0.45082000  1.0 -0.0284764793
C  C441  1  0.89230000  0.84474000  0.81214000  1.0 -0.0284764793
C  C442  1  0.89230000  0.45082000  0.84474000  1.0 -0.0284764793
C  C443  1  0.81214000  0.84474000  0.45082000  1.0 -0.0284764793
C  C444  1  0.84474000  0.81214000  0.89230000  1.0 -0.0284764793
C  C445  1  0.60770000  0.68786000  0.65526000  1.0 -0.0284764793
C  C446  1  0.04918000  0.65526000  0.68786000  1.0 -0.0284764793
C  C447  1  0.65526000  0.04918000  0.60770000  1.0 -0.0284764793
C  C448  1  0.65526000  0.60770000  0.68786000  1.0 -0.0284764793
C  C449  1  0.68786000  0.04918000  0.65526000  1.0 -0.0284764793
C  C450  1  0.60770000  0.65526000  0.04918000  1.0 -0.0284764793
C  C451  1  0.68786000  0.65526000  0.60770000  1.0 -0.0284764793
C  C452  1  0.65526000  0.68786000  0.04918000  1.0 -0.0284764793
C  C453  1  0.04918000  0.60770000  0.65526000  1.0 -0.0284764793
C  C454  1  0.89230000  0.81214000  0.45082000  1.0 -0.0284764793
C  C455  1  0.81214000  0.45082000  0.89230000  1.0 -0.0284764793
C  C456  1  0.45082000  0.89230000  0.81214000  1.0 -0.0284764793
C  C457  1  0.31214000  0.39230000  0.95082000  1.0 -0.0284764793
C  C458  1  0.95082000  0.31214000  0.39230000  1.0 -0.0284764793
C  C459  1  0.39230000  0.95082000  0.31214000  1.0 -0.0284764793
C  C460  1  0.18786000  0.10770000  0.15526000  1.0 -0.0284764793
C  C461  1  0.54918000  0.15526000  0.10770000  1.0 -0.0284764793
C  C462  1  0.15526000  0.54918000  0.18786000  1.0 -0.0284764793
C  C463  1  0.54918000  0.18786000  0.15526000  1.0 -0.0284764793
C  C464  1  0.15526000  0.10770000  0.54918000  1.0 -0.0284764793
C  C465  1  0.10770000  0.15526000  0.18786000  1.0 -0.0284764793
C  C466  1  0.10770000  0.54918000  0.15526000  1.0 -0.0284764793
C  C467  1  0.18786000  0.15526000  0.54918000  1.0 -0.0284764793
C  C468  1  0.15526000  0.18786000  0.10770000  1.0 -0.0284764793
C  C469  1  0.39230000  0.31214000  0.34474000  1.0 -0.0284764793
C  C470  1  0.95082000  0.34474000  0.31214000  1.0 -0.0284764793
C  C471  1  0.34474000  0.95082000  0.39230000  1.0 -0.0284764793
C  C472  1  0.34474000  0.39230000  0.31214000  1.0 -0.0284764793
C  C473  1  0.31214000  0.95082000  0.34474000  1.0 -0.0284764793
C  C474  1  0.39230000  0.34474000  0.95082000  1.0 -0.0284764793
C  C475  1  0.31214000  0.34474000  0.39230000  1.0 -0.0284764793
C  C476  1  0.34474000  0.31214000  0.95082000  1.0 -0.0284764793
C  C477  1  0.95082000  0.39230000  0.34474000  1.0 -0.0284764793
C  C478  1  0.10770000  0.18786000  0.54918000  1.0 -0.0284764793
C  C479  1  0.18786000  0.54918000  0.10770000  1.0 -0.0284764793
C  C480  1  0.54918000  0.10770000  0.18786000  1.0 -0.0284764793
C  C481  1  0.74410000  0.62970000  0.09390000  1.0 -0.1840475433
C  C482  1  0.09390000  0.74410000  0.62970000  1.0 -0.1840475433
C  C483  1  0.62970000  0.09390000  0.74410000  1.0 -0.1840475433
C  C484  1  0.75590000  0.87030000  0.96770000  1.0 -0.1840475433
C  C485  1  0.40610000  0.96770000  0.87030000  1.0 -0.1840475433
C  C486  1  0.96770000  0.40610000  0.75590000  1.0 -0.1840475433
C  C487  1  0.40610000  0.75590000  0.96770000  1.0 -0.1840475433
C  C488  1  0.96770000  0.87030000  0.40610000  1.0 -0.1840475433
C  C489  1  0.87030000  0.96770000  0.75590000  1.0 -0.1840475433
C  C490  1  0.87030000  0.40610000  0.96770000  1.0 -0.1840475433
C  C491  1  0.75590000  0.96770000  0.40610000  1.0 -0.1840475433
C  C492  1  0.96770000  0.75590000  0.87030000  1.0 -0.1840475433
C  C493  1  0.62970000  0.74410000  0.53230000  1.0 -0.1840475433
C  C494  1  0.09390000  0.53230000  0.74410000  1.0 -0.1840475433
C  C495  1  0.53230000  0.09390000  0.62970000  1.0 -0.1840475433
C  C496  1  0.53230000  0.62970000  0.74410000  1.0 -0.1840475433
C  C497  1  0.74410000  0.09390000  0.53230000  1.0 -0.1840475433
C  C498  1  0.62970000  0.53230000  0.09390000  1.0 -0.1840475433
C  C499  1  0.74410000  0.53230000  0.62970000  1.0 -0.1840475433
C  C500  1  0.53230000  0.74410000  0.09390000  1.0 -0.1840475433
C  C501  1  0.09390000  0.62970000  0.53230000  1.0 -0.1840475433
C  C502  1  0.87030000  0.75590000  0.40610000  1.0 -0.1840475433
C  C503  1  0.75590000  0.40610000  0.87030000  1.0 -0.1840475433
C  C504  1  0.40610000  0.87030000  0.75590000  1.0 -0.1840475433
C  C505  1  0.25590000  0.37030000  0.90610000  1.0 -0.1840475433
C  C506  1  0.90610000  0.25590000  0.37030000  1.0 -0.1840475433
C  C507  1  0.37030000  0.90610000  0.25590000  1.0 -0.1840475433
C  C508  1  0.24410000  0.12970000  0.03230000  1.0 -0.1840475433
C  C509  1  0.59390000  0.03230000  0.12970000  1.0 -0.1840475433
C  C510  1  0.03230000  0.59390000  0.24410000  1.0 -0.1840475433
C  C511  1  0.59390000  0.24410000  0.03230000  1.0 -0.1840475433
C  C512  1  0.03230000  0.12970000  0.59390000  1.0 -0.1840475433
C  C513  1  0.12970000  0.03230000  0.24410000  1.0 -0.1840475433
C  C514  1  0.12970000  0.59390000  0.03230000  1.0 -0.1840475433
C  C515  1  0.24410000  0.03230000  0.59390000  1.0 -0.1840475433
C  C516  1  0.03230000  0.24410000  0.12970000  1.0 -0.1840475433
C  C517  1  0.37030000  0.25590000  0.46770000  1.0 -0.1840475433
C  C518  1  0.90610000  0.46770000  0.25590000  1.0 -0.1840475433
C  C519  1  0.46770000  0.90610000  0.37030000  1.0 -0.1840475433
C  C520  1  0.46770000  0.37030000  0.25590000  1.0 -0.1840475433
C  C521  1  0.25590000  0.90610000  0.46770000  1.0 -0.1840475433
C  C522  1  0.37030000  0.46770000  0.90610000  1.0 -0.1840475433
C  C523  1  0.25590000  0.46770000  0.37030000  1.0 -0.1840475433
C  C524  1  0.46770000  0.25590000  0.90610000  1.0 -0.1840475433
C  C525  1  0.90610000  0.37030000  0.46770000  1.0 -0.1840475433
C  C526  1  0.12970000  0.24410000  0.59390000  1.0 -0.1840475433
C  C527  1  0.24410000  0.59390000  0.12970000  1.0 -0.1840475433
C  C528  1  0.59390000  0.12970000  0.24410000  1.0 -0.1840475433
C  C529  1  0.71620000  0.59820000  0.14100000  1.0 -0.3442925149
C  C530  1  0.14100000  0.71620000  0.59820000  1.0 -0.3442925149
C  C531  1  0.59820000  0.14100000  0.71620000  1.0 -0.3442925149
C  C532  1  0.78380000  0.90180000  0.95540000  1.0 -0.3442925149
C  C533  1  0.35900000  0.95540000  0.90180000  1.0 -0.3442925149
C  C534  1  0.95540000  0.35900000  0.78380000  1.0 -0.3442925149
C  C535  1  0.35900000  0.78380000  0.95540000  1.0 -0.3442925149
C  C536  1  0.95540000  0.90180000  0.35900000  1.0 -0.3452193611
C  C537  1  0.90180000  0.95540000  0.78380000  1.0 -0.3442925149
C  C538  1  0.90180000  0.35900000  0.95540000  1.0 -0.3442925149
C  C539  1  0.78380000  0.95540000  0.35900000  1.0 -0.3442925149
C  C540  1  0.95540000  0.78380000  0.90180000  1.0 -0.3442925149
C  C541  1  0.59820000  0.71620000  0.54460000  1.0 -0.3442925149
C  C542  1  0.14100000  0.54460000  0.71620000  1.0 -0.3442925149
C  C543  1  0.54460000  0.14100000  0.59820000  1.0 -0.3442925149
C  C544  1  0.54460000  0.59820000  0.71620000  1.0 -0.3442925149
C  C545  1  0.71620000  0.14100000  0.54460000  1.0 -0.3442925149
C  C546  1  0.59820000  0.54460000  0.14100000  1.0 -0.3442925149
C  C547  1  0.71620000  0.54460000  0.59820000  1.0 -0.3442925149
C  C548  1  0.54460000  0.71620000  0.14100000  1.0 -0.3442925149
C  C549  1  0.14100000  0.59820000  0.54460000  1.0 -0.3442925149
C  C550  1  0.90180000  0.78380000  0.35900000  1.0 -0.3442925149
C  C551  1  0.78380000  0.35900000  0.90180000  1.0 -0.3442925149
C  C552  1  0.35900000  0.90180000  0.78380000  1.0 -0.3442925149
C  C553  1  0.28380000  0.40180000  0.85900000  1.0 -0.3442925149
C  C554  1  0.85900000  0.28380000  0.40180000  1.0 -0.3442925149
C  C555  1  0.40180000  0.85900000  0.28380000  1.0 -0.3442925149
C  C556  1  0.21620000  0.09820000  0.04460000  1.0 -0.3442925149
C  C557  1  0.64100000  0.04460000  0.09820000  1.0 -0.3442925149
C  C558  1  0.04460000  0.64100000  0.21620000  1.0 -0.3452193611
C  C559  1  0.64100000  0.21620000  0.04460000  1.0 -0.3452193611
C  C560  1  0.04460000  0.09820000  0.64100000  1.0 -0.3442925149
C  C561  1  0.09820000  0.04460000  0.21620000  1.0 -0.3442925149
C  C562  1  0.09820000  0.64100000  0.04460000  1.0 -0.3452193611
C  C563  1  0.21620000  0.04460000  0.64100000  1.0 -0.3442925149
C  C564  1  0.04460000  0.21620000  0.09820000  1.0 -0.3442925149
C  C565  1  0.40180000  0.28380000  0.45540000  1.0 -0.3452193611
C  C566  1  0.85900000  0.45540000  0.28380000  1.0 -0.3442925149
C  C567  1  0.45540000  0.85900000  0.40180000  1.0 -0.3442925149
C  C568  1  0.45540000  0.40180000  0.28380000  1.0 -0.3442925149
C  C569  1  0.28380000  0.85900000  0.45540000  1.0 -0.3442925149
C  C570  1  0.40180000  0.45540000  0.85900000  1.0 -0.3452193611
C  C571  1  0.28380000  0.45540000  0.40180000  1.0 -0.3442925149
C  C572  1  0.45540000  0.28380000  0.85900000  1.0 -0.3442925149
C  C573  1  0.85900000  0.40180000  0.45540000  1.0 -0.3452193611
C  C574  1  0.09820000  0.21620000  0.64100000  1.0 -0.3442925149
C  C575  1  0.21620000  0.64100000  0.09820000  1.0 -0.3452193611
C  C576  1  0.64100000  0.09820000  0.21620000  1.0 -0.3442925149
C  C577  1  0.77095000  0.66395000  0.99705000  1.0 -0.1620332578
C  C578  1  0.99705000  0.77095000  0.66395000  1.0 -0.1620332578
C  C579  1  0.66395000  0.99705000  0.77095000  1.0 -0.1620332578
C  C580  1  0.72905000  0.83605000  0.93195000  1.0 -0.1620332578
C  C581  1  0.50295000  0.93195000  0.83605000  1.0 -0.1620332578
C  C582  1  0.93195000  0.50295000  0.72905000  1.0 -0.1620332578
C  C583  1  0.50295000  0.72905000  0.93195000  1.0 -0.1620332578
C  C584  1  0.93195000  0.83605000  0.50295000  1.0 -0.1620332578
C  C585  1  0.83605000  0.93195000  0.72905000  1.0 -0.1620332578
C  C586  1  0.83605000  0.50295000  0.93195000  1.0 -0.1620332578
C  C587  1  0.72905000  0.93195000  0.50295000  1.0 -0.1620332578
C  C588  1  0.93195000  0.72905000  0.83605000  1.0 -0.1620332578
C  C589  1  0.66395000  0.77095000  0.56805000  1.0 -0.1620332578
C  C590  1  0.99705000  0.56805000  0.77095000  1.0 -0.1620332578
C  C591  1  0.56805000  0.99705000  0.66395000  1.0 -0.1620332578
C  C592  1  0.56805000  0.66395000  0.77095000  1.0 -0.1620332578
C  C593  1  0.77095000  0.99705000  0.56805000  1.0 -0.1620332578
C  C594  1  0.66395000  0.56805000  0.99705000  1.0 -0.1620332578
C  C595  1  0.77095000  0.56805000  0.66395000  1.0 -0.1620332578
C  C596  1  0.56805000  0.77095000  0.99705000  1.0 -0.1620332578
C  C597  1  0.99705000  0.66395000  0.56805000  1.0 -0.1620332578
C  C598  1  0.83605000  0.72905000  0.50295000  1.0 -0.1620332578
C  C599  1  0.72905000  0.50295000  0.83605000  1.0 -0.1620332578
C  C600  1  0.50295000  0.83605000  0.72905000  1.0 -0.1620332578
C  C601  1  0.22905000  0.33605000  0.00295000  1.0 -0.1620332578
C  C602  1  0.00295000  0.22905000  0.33605000  1.0 -0.1620332578
C  C603  1  0.33605000  0.00295000  0.22905000  1.0 -0.1620332578
C  C604  1  0.27095000  0.16395000  0.06805000  1.0 -0.1620332578
C  C605  1  0.49705000  0.06805000  0.16395000  1.0 -0.1620332578
C  C606  1  0.06805000  0.49705000  0.27095000  1.0 -0.1620332578
C  C607  1  0.49705000  0.27095000  0.06805000  1.0 -0.1620332578
C  C608  1  0.06805000  0.16395000  0.49705000  1.0 -0.1620332578
C  C609  1  0.16395000  0.06805000  0.27095000  1.0 -0.1620332578
C  C610  1  0.16395000  0.49705000  0.06805000  1.0 -0.1620332578
C  C611  1  0.27095000  0.06805000  0.49705000  1.0 -0.1620332578
C  C612  1  0.06805000  0.27095000  0.16395000  1.0 -0.1620332578
C  C613  1  0.33605000  0.22905000  0.43195000  1.0 -0.1620332578
C  C614  1  0.00295000  0.43195000  0.22905000  1.0 -0.1620332578
C  C615  1  0.43195000  0.00295000  0.33605000  1.0 -0.1620332578
C  C616  1  0.43195000  0.33605000  0.22905000  1.0 -0.1620332578
C  C617  1  0.22905000  0.00295000  0.43195000  1.0 -0.1620332578
C  C618  1  0.33605000  0.43195000  0.00295000  1.0 -0.1620332578
C  C619  1  0.22905000  0.43195000  0.33605000  1.0 -0.1620332578
C  C620  1  0.43195000  0.22905000  0.00295000  1.0 -0.1620332578
C  C621  1  0.00295000  0.33605000  0.43195000  1.0 -0.1620332578
C  C622  1  0.16395000  0.27095000  0.49705000  1.0 -0.1620332578
C  C623  1  0.27095000  0.49705000  0.16395000  1.0 -0.1620332578
C  C624  1  0.49705000  0.16395000  0.27095000  1.0 -0.1620332578
C  C625  1  0.76990000  0.66410000  0.95590000  1.0 -0.3661255475
C  C626  1  0.95590000  0.76990000  0.66410000  1.0 -0.3661255475
C  C627  1  0.66410000  0.95590000  0.76990000  1.0 -0.3661255475
C  C628  1  0.73010000  0.83590000  0.88990000  1.0 -0.3661255475
C  C629  1  0.54410000  0.88990000  0.83590000  1.0 -0.3661255475
C  C630  1  0.88990000  0.54410000  0.73010000  1.0 -0.3661255475
C  C631  1  0.54410000  0.73010000  0.88990000  1.0 -0.3661255475
C  C632  1  0.88990000  0.83590000  0.54410000  1.0 -0.3661255475
C  C633  1  0.83590000  0.88990000  0.73010000  1.0 -0.3661255475
C  C634  1  0.83590000  0.54410000  0.88990000  1.0 -0.3661255475
C  C635  1  0.73010000  0.88990000  0.54410000  1.0 -0.3661255475
C  C636  1  0.88990000  0.73010000  0.83590000  1.0 -0.3661255475
C  C637  1  0.66410000  0.76990000  0.61010000  1.0 -0.3661255475
C  C638  1  0.95590000  0.61010000  0.76990000  1.0 -0.3661255475
C  C639  1  0.61010000  0.95590000  0.66410000  1.0 -0.3661255475
C  C640  1  0.61010000  0.66410000  0.76990000  1.0 -0.3661255475
C  C641  1  0.76990000  0.95590000  0.61010000  1.0 -0.3661255475
C  C642  1  0.66410000  0.61010000  0.95590000  1.0 -0.3661255475
C  C643  1  0.76990000  0.61010000  0.66410000  1.0 -0.3661255475
C  C644  1  0.61010000  0.76990000  0.95590000  1.0 -0.3661255475
C  C645  1  0.95590000  0.66410000  0.61010000  1.0 -0.3661255475
C  C646  1  0.83590000  0.73010000  0.54410000  1.0 -0.3661255475
C  C647  1  0.73010000  0.54410000  0.83590000  1.0 -0.3661255475
C  C648  1  0.54410000  0.83590000  0.73010000  1.0 -0.3661255475
C  C649  1  0.23010000  0.33590000  0.04410000  1.0 -0.3661255475
C  C650  1  0.04410000  0.23010000  0.33590000  1.0 -0.3661255475
C  C651  1  0.33590000  0.04410000  0.23010000  1.0 -0.3661255475
C  C652  1  0.26990000  0.16410000  0.11010000  1.0 -0.3661255475
C  C653  1  0.45590000  0.11010000  0.16410000  1.0 -0.3661255475
C  C654  1  0.11010000  0.45590000  0.26990000  1.0 -0.3661255475
C  C655  1  0.45590000  0.26990000  0.11010000  1.0 -0.3661255475
C  C656  1  0.11010000  0.16410000  0.45590000  1.0 -0.3661255475
C  C657  1  0.16410000  0.11010000  0.26990000  1.0 -0.3661255475
C  C658  1  0.16410000  0.45590000  0.11010000  1.0 -0.3661255475
C  C659  1  0.26990000  0.11010000  0.45590000  1.0 -0.3661255475
C  C660  1  0.11010000  0.26990000  0.16410000  1.0 -0.3661255475
C  C661  1  0.33590000  0.23010000  0.38990000  1.0 -0.3661255475
C  C662  1  0.04410000  0.38990000  0.23010000  1.0 -0.3661255475
C  C663  1  0.38990000  0.04410000  0.33590000  1.0 -0.3661255475
C  C664  1  0.38990000  0.33590000  0.23010000  1.0 -0.3661255475
C  C665  1  0.23010000  0.04410000  0.38990000  1.0 -0.3661255475
C  C666  1  0.33590000  0.38990000  0.04410000  1.0 -0.3661255475
C  C667  1  0.23010000  0.38990000  0.33590000  1.0 -0.3661255475
C  C668  1  0.38990000  0.23010000  0.04410000  1.0 -0.3661255475
C  C669  1  0.04410000  0.33590000  0.38990000  1.0 -0.3661255475
C  C670  1  0.16410000  0.26990000  0.45590000  1.0 -0.3661255475
C  C671  1  0.26990000  0.45590000  0.16410000  1.0 -0.3661255475
C  C672  1  0.45590000  0.16410000  0.26990000  1.0 -0.3661255475
O  O1  1  0.88913000  0.43403000  0.04381000  1.0 -0.314235002
O  O2  1  0.04381000  0.88913000  0.43403000  1.0 -0.314235002
O  O3  1  0.43403000  0.04381000  0.88913000  1.0 -0.3152495795
O  O4  1  0.61087000  0.06597000  0.86697000  1.0 -0.314235002
O  O5  1  0.45619000  0.86697000  0.06597000  1.0 -0.314235002
O  O6  1  0.86697000  0.45619000  0.61087000  1.0 -0.314235002
O  O7  1  0.45619000  0.61087000  0.86697000  1.0 -0.314235002
O  O8  1  0.86697000  0.06597000  0.45619000  1.0 -0.3152495795
O  O9  1  0.06597000  0.86697000  0.61087000  1.0 -0.3152495795
O  O10  1  0.06597000  0.45619000  0.86697000  1.0 -0.314235002
O  O11  1  0.61087000  0.86697000  0.45619000  1.0 -0.314235002
O  O12  1  0.86697000  0.61087000  0.06597000  1.0 -0.314235002
O  O13  1  0.43403000  0.88913000  0.63303000  1.0 -0.314235002
O  O14  1  0.04381000  0.63303000  0.88913000  1.0 -0.314235002
O  O15  1  0.63303000  0.04381000  0.43403000  1.0 -0.3152495795
O  O16  1  0.63303000  0.43403000  0.88913000  1.0 -0.314235002
O  O17  1  0.88913000  0.04381000  0.63303000  1.0 -0.3152495795
O  O18  1  0.43403000  0.63303000  0.04381000  1.0 -0.314235002
O  O19  1  0.88913000  0.63303000  0.43403000  1.0 -0.314235002
O  O20  1  0.63303000  0.88913000  0.04381000  1.0 -0.314235002
O  O21  1  0.04381000  0.43403000  0.63303000  1.0 -0.3152495795
O  O22  1  0.06597000  0.61087000  0.45619000  1.0 -0.3152495795
O  O23  1  0.61087000  0.45619000  0.06597000  1.0 -0.314235002
O  O24  1  0.45619000  0.06597000  0.61087000  1.0 -0.314235002
O  O25  1  0.11087000  0.56597000  0.95619000  1.0 -0.314235002
O  O26  1  0.95619000  0.11087000  0.56597000  1.0 -0.3152495795
O  O27  1  0.56597000  0.95619000  0.11087000  1.0 -0.314235002
O  O28  1  0.38913000  0.93403000  0.13303000  1.0 -0.314235002
O  O29  1  0.54381000  0.13303000  0.93403000  1.0 -0.314235002
O  O30  1  0.13303000  0.54381000  0.38913000  1.0 -0.3152495795
O  O31  1  0.54381000  0.38913000  0.13303000  1.0 -0.3152495795
O  O32  1  0.13303000  0.93403000  0.54381000  1.0 -0.314235002
O  O33  1  0.93403000  0.13303000  0.38913000  1.0 -0.3152495795
O  O34  1  0.93403000  0.54381000  0.13303000  1.0 -0.314235002
O  O35  1  0.38913000  0.13303000  0.54381000  1.0 -0.3152495795
O  O36  1  0.13303000  0.38913000  0.93403000  1.0 -0.314235002
O  O37  1  0.56597000  0.11087000  0.36697000  1.0 -0.3152495795
O  O38  1  0.95619000  0.36697000  0.11087000  1.0 -0.314235002
O  O39  1  0.36697000  0.95619000  0.56597000  1.0 -0.314235002
O  O40  1  0.36697000  0.56597000  0.11087000  1.0 -0.314235002
O  O41  1  0.11087000  0.95619000  0.36697000  1.0 -0.314235002
O  O42  1  0.56597000  0.36697000  0.95619000  1.0 -0.314235002
O  O43  1  0.11087000  0.36697000  0.56597000  1.0 -0.314235002
O  O44  1  0.36697000  0.11087000  0.95619000  1.0 -0.314235002
O  O45  1  0.95619000  0.56597000  0.36697000  1.0 -0.314235002
O  O46  1  0.93403000  0.38913000  0.54381000  1.0 -0.314235002
O  O47  1  0.38913000  0.54381000  0.93403000  1.0 -0.314235002
O  O48  1  0.54381000  0.93403000  0.38913000  1.0 -0.314235002
O  O49  1  0.90573000  0.49163000  0.03139000  1.0 -0.3861189981
O  O50  1  0.03139000  0.90573000  0.49163000  1.0 -0.3861189981
O  O51  1  0.49163000  0.03139000  0.90573000  1.0 -0.3861189981
O  O52  1  0.59427000  0.00837000  0.92875000  1.0 -0.3861189981
O  O53  1  0.46861000  0.92875000  0.00837000  1.0 -0.3861189981
O  O54  1  0.92875000  0.46861000  0.59427000  1.0 -0.3861189981
O  O55  1  0.46861000  0.59427000  0.92875000  1.0 -0.3861189981
O  O56  1  0.92875000  0.00837000  0.46861000  1.0 -0.3861189981
O  O57  1  0.00837000  0.92875000  0.59427000  1.0 -0.3861189981
O  O58  1  0.00837000  0.46861000  0.92875000  1.0 -0.3861189981
O  O59  1  0.59427000  0.92875000  0.46861000  1.0 -0.3861189981
O  O60  1  0.92875000  0.59427000  0.00837000  1.0 -0.3861189981
O  O61  1  0.49163000  0.90573000  0.57125000  1.0 -0.3861189981
O  O62  1  0.03139000  0.57125000  0.90573000  1.0 -0.3861189981
O  O63  1  0.57125000  0.03139000  0.49163000  1.0 -0.3861189981
O  O64  1  0.57125000  0.49163000  0.90573000  1.0 -0.3861189981
O  O65  1  0.90573000  0.03139000  0.57125000  1.0 -0.3861189981
O  O66  1  0.49163000  0.57125000  0.03139000  1.0 -0.3861189981
O  O67  1  0.90573000  0.57125000  0.49163000  1.0 -0.3861189981
O  O68  1  0.57125000  0.90573000  0.03139000  1.0 -0.3861189981
O  O69  1  0.03139000  0.49163000  0.57125000  1.0 -0.3861189981
O  O70  1  0.00837000  0.59427000  0.46861000  1.0 -0.3861189981
O  O71  1  0.59427000  0.46861000  0.00837000  1.0 -0.3848849111
O  O72  1  0.46861000  0.00837000  0.59427000  1.0 -0.3861189981
O  O73  1  0.09427000  0.50837000  0.96861000  1.0 -0.3861189981
O  O74  1  0.96861000  0.09427000  0.50837000  1.0 -0.3861189981
O  O75  1  0.50837000  0.96861000  0.09427000  1.0 -0.3861189981
O  O76  1  0.40573000  0.99163000  0.07125000  1.0 -0.3861189981
O  O77  1  0.53139000  0.07125000  0.99163000  1.0 -0.3861189981
O  O78  1  0.07125000  0.53139000  0.40573000  1.0 -0.3861189981
O  O79  1  0.53139000  0.40573000  0.07125000  1.0 -0.3848849111
O  O80  1  0.07125000  0.99163000  0.53139000  1.0 -0.3861189981
O  O81  1  0.99163000  0.07125000  0.40573000  1.0 -0.3861189981
O  O82  1  0.99163000  0.53139000  0.07125000  1.0 -0.3861189981
O  O83  1  0.40573000  0.07125000  0.53139000  1.0 -0.3861189981
O  O84  1  0.07125000  0.40573000  0.99163000  1.0 -0.3861189981
O  O85  1  0.50837000  0.09427000  0.42875000  1.0 -0.3861189981
O  O86  1  0.96861000  0.42875000  0.09427000  1.0 -0.3861189981
O  O87  1  0.42875000  0.96861000  0.50837000  1.0 -0.3861189981
O  O88  1  0.42875000  0.50837000  0.09427000  1.0 -0.3861189981
O  O89  1  0.09427000  0.96861000  0.42875000  1.0 -0.3861189981
O  O90  1  0.50837000  0.42875000  0.96861000  1.0 -0.3861189981
O  O91  1  0.09427000  0.42875000  0.50837000  1.0 -0.3861189981
O  O92  1  0.42875000  0.09427000  0.96861000  1.0 -0.3861189981
O  O93  1  0.96861000  0.50837000  0.42875000  1.0 -0.3861189981
O  O94  1  0.99163000  0.40573000  0.53139000  1.0 -0.3861189981
O  O95  1  0.40573000  0.53139000  0.99163000  1.0 -0.3861189981
O  O96  1  0.53139000  0.99163000  0.40573000  1.0 -0.3861189981
O  O97  1  0.00000000  0.50000000  0.00000000  1.0 -0.3442925149
O  O98  1  0.00000000  0.00000000  0.50000000  1.0 -0.3442925149
O  O99  1  0.50000000  0.00000000  0.00000000  1.0 -0.3442925149
O  O100  1  0.00000000  0.50000000  0.50000000  1.0 -0.3442925149
O  O101  1  0.50000000  0.50000000  0.00000000  1.0 -0.3452193611
O  O102  1  0.50000000  0.00000000  0.50000000  1.0 -0.3442925149
O  O103  1  0.98330000  0.34890000  0.01670000  1.0 -0.1840475433
O  O104  1  0.01670000  0.98330000  0.34890000  1.0 -0.1840475433
O  O105  1  0.34890000  0.01670000  0.98330000  1.0 -0.187607627
O  O106  1  0.51670000  0.15110000  0.84890000  1.0 -0.187607627
O  O107  1  0.48330000  0.84890000  0.15110000  1.0 -0.187607627
O  O108  1  0.84890000  0.48330000  0.51670000  1.0 -0.1840475433
O  O109  1  0.48330000  0.51670000  0.84890000  1.0 -0.1840475433
O  O110  1  0.84890000  0.15110000  0.48330000  1.0 -0.187607627
O  O111  1  0.15110000  0.84890000  0.51670000  1.0 -0.187607627
O  O112  1  0.15110000  0.48330000  0.84890000  1.0 -0.187607627
O  O113  1  0.51670000  0.84890000  0.48330000  1.0 -0.1840475433
O  O114  1  0.84890000  0.51670000  0.15110000  1.0 -0.187607627
O  O115  1  0.34890000  0.98330000  0.65110000  1.0 -0.1840475433
O  O116  1  0.01670000  0.65110000  0.98330000  1.0 -0.1840475433
O  O117  1  0.65110000  0.01670000  0.34890000  1.0 -0.187607627
O  O118  1  0.65110000  0.34890000  0.98330000  1.0 -0.187607627
O  O119  1  0.98330000  0.01670000  0.65110000  1.0 -0.187607627
O  O120  1  0.34890000  0.65110000  0.01670000  1.0 -0.1840475433
O  O121  1  0.98330000  0.65110000  0.34890000  1.0 -0.1840475433
O  O122  1  0.65110000  0.98330000  0.01670000  1.0 -0.187607627
O  O123  1  0.01670000  0.34890000  0.65110000  1.0 -0.187607627
O  O124  1  0.15110000  0.51670000  0.48330000  1.0 -0.187607627
O  O125  1  0.51670000  0.48330000  0.15110000  1.0 -0.1840475433
O  O126  1  0.48330000  0.15110000  0.51670000  1.0 -0.187607627
O  O127  1  0.96500000  0.33180000  0.03500000  1.0 0.0167983631
O  O128  1  0.03500000  0.96500000  0.33180000  1.0 0.0167983631
O  O129  1  0.33180000  0.03500000  0.96500000  1.0 0.0167983631
O  O130  1  0.53500000  0.16820000  0.83180000  1.0 0.0167983631
O  O131  1  0.46500000  0.83180000  0.16820000  1.0 0.0167983631
O  O132  1  0.83180000  0.46500000  0.53500000  1.0 0.0144508675
O  O133  1  0.46500000  0.53500000  0.83180000  1.0 0.0167983631
O  O134  1  0.83180000  0.16820000  0.46500000  1.0 0.0167983631
O  O135  1  0.16820000  0.83180000  0.53500000  1.0 0.0167983631
O  O136  1  0.16820000  0.46500000  0.83180000  1.0 0.0167983631
O  O137  1  0.53500000  0.83180000  0.46500000  1.0 0.0167983631
O  O138  1  0.83180000  0.53500000  0.16820000  1.0 0.0167983631
O  O139  1  0.33180000  0.96500000  0.66820000  1.0 0.0167983631
O  O140  1  0.03500000  0.66820000  0.96500000  1.0 0.0167983631
O  O141  1  0.66820000  0.03500000  0.33180000  1.0 0.0167983631
O  O142  1  0.66820000  0.33180000  0.96500000  1.0 0.0167983631
O  O143  1  0.96500000  0.03500000  0.66820000  1.0 0.0167983631
O  O144  1  0.33180000  0.66820000  0.03500000  1.0 0.0144508675
O  O145  1  0.96500000  0.66820000  0.33180000  1.0 0.0167983631
O  O146  1  0.66820000  0.96500000  0.03500000  1.0 0.0144508675
O  O147  1  0.03500000  0.33180000  0.66820000  1.0 0.0167983631
O  O148  1  0.16820000  0.53500000  0.46500000  1.0 0.0167983631
O  O149  1  0.53500000  0.46500000  0.16820000  1.0 0.0167983631
O  O150  1  0.46500000  0.16820000  0.53500000  1.0 0.0167983631
