# DDEC6 charges by PACMAN v1.1 (https://github.com/mtap-research/PACMAN-charge/)
data_BUGSAY_ASR_pacman
_symmetry_space_group_name_H-M   'P 1'
_cell_length_a   5.52860000
_cell_length_b   13.31400000
_cell_length_c   20.59900000
_cell_angle_alpha   90.00000000
_cell_angle_beta   95.24400000
_cell_angle_gamma   90.00000000
_symmetry_Int_Tables_number   1
_chemical_formula_structural   DyPH15C7NO7
_chemical_formula_sum   'Dy4 P4 H60 C28 N4 O28'
_cell_volume   1509.90042431
_cell_formula_units_Z   4
loop_
 _symmetry_equiv_pos_site_id
 _symmetry_equiv_pos_as_xyz
  1  'x, y, z'
loop_
 _atom_site_type_symbol
 _atom_site_label
 _atom_site_symmetry_multiplicity
 _atom_site_fract_x
 _atom_site_fract_y
 _atom_site_fract_z
 _atom_site_occupancy
 _atom_site_charge
Dy  Dy1  1  0.87235000  0.63267000  0.52782000  1.0 2.003136805
Dy  Dy2  1  0.12765000  0.13267000  0.97218000  1.0 2.003136805
Dy  Dy3  1  0.12765000  0.36733000  0.47218000  1.0 2.003136805
Dy  Dy4  1  0.87235000  0.86733000  0.02782000  1.0 2.003136805
P  P1  1  0.58990000  0.52090000  0.41395000  1.0 1.2575994644
P  P2  1  0.41010000  0.02090000  0.08605000  1.0 1.2575994644
P  P3  1  0.41010000  0.47910000  0.58605000  1.0 1.2575994644
P  P4  1  0.58990000  0.97910000  0.91395000  1.0 1.2575994644
H  H1  1  0.83490000  0.58040000  0.33660000  1.0 0.1170566145
H  H2  1  0.16510000  0.08040000  0.16340000  1.0 0.1170566145
H  H3  1  0.16510000  0.41960000  0.66340000  1.0 0.1170566145
H  H4  1  0.83490000  0.91960000  0.83660000  1.0 0.1170566145
H  H5  1  0.74080000  0.47270000  0.31710000  1.0 0.1381900224
H  H6  1  0.25920000  0.97270000  0.18290000  1.0 0.1381900224
H  H7  1  0.25920000  0.52730000  0.68290000  1.0 0.1381900224
H  H8  1  0.74080000  0.02730000  0.81710000  1.0 0.1381900224
H  H9  1  0.62250000  0.72870000  0.29830000  1.0 0.0920219093
H  H10  1  0.37750000  0.22870000  0.20170000  1.0 0.0920219093
H  H11  1  0.37750000  0.27130000  0.70170000  1.0 0.0920219093
H  H12  1  0.62250000  0.77130000  0.79830000  1.0 0.0920219093
H  H13  1  0.41440000  0.69890000  0.34180000  1.0 0.0734745029
H  H14  1  0.58560000  0.19890000  0.15820000  1.0 0.0734745029
H  H15  1  0.58560000  0.30110000  0.65820000  1.0 0.0734745029
H  H16  1  0.41440000  0.80110000  0.84180000  1.0 0.0734745029
H  H17  1  0.12490000  0.70110000  0.24880000  1.0 0.0920219093
H  H18  1  0.87510000  0.20110000  0.25120000  1.0 0.0920219093
H  H19  1  0.87510000  0.29890000  0.75120000  1.0 0.0920219093
H  H20  1  0.12490000  0.79890000  0.74880000  1.0 0.0920219093
H  H21  1  0.25330000  0.80630000  0.25490000  1.0 0.108747985
H  H22  1  0.74670000  0.30630000  0.24510000  1.0 0.108747985
H  H23  1  0.74670000  0.19370000  0.74510000  1.0 0.108747985
H  H24  1  0.25330000  0.69370000  0.75490000  1.0 0.108747985
H  H25  1  0.51530000  0.75870000  0.17530000  1.0 0.108747985
H  H26  1  0.48470000  0.25870000  0.32470000  1.0 0.108747985
H  H27  1  0.48470000  0.24130000  0.82470000  1.0 0.108747985
H  H28  1  0.51530000  0.74130000  0.67530000  1.0 0.108747985
H  H29  1  0.45170000  0.59970000  0.12190000  1.0 0.108747985
H  H30  1  0.54830000  0.09970000  0.37810000  1.0 0.108747985
H  H31  1  0.54830000  0.40030000  0.87810000  1.0 0.108747985
H  H32  1  0.45170000  0.90030000  0.62190000  1.0 0.108747985
H  H33  1  0.24820000  0.57340000  0.16770000  1.0 0.108747985
H  H34  1  0.75180000  0.07340000  0.33230000  1.0 0.108747985
H  H35  1  0.75180000  0.42660000  0.83230000  1.0 0.108747985
H  H36  1  0.24820000  0.92660000  0.66770000  1.0 0.108747985
H  H37  1  0.62550000  0.49750000  0.20980000  1.0 0.0971431944
H  H38  1  0.37450000  0.99750000  0.29020000  1.0 0.0971431944
H  H39  1  0.37450000  0.50250000  0.79020000  1.0 0.0971431944
H  H40  1  0.62550000  0.00250000  0.70980000  1.0 0.0971431944
H  H41  1  0.74840000  0.60410000  0.21500000  1.0 0.0920219093
H  H42  1  0.25160000  0.10410000  0.28500000  1.0 0.0920219093
H  H43  1  0.25160000  0.39590000  0.78500000  1.0 0.0920219093
H  H44  1  0.74840000  0.89590000  0.71500000  1.0 0.0920219093
H  H45  1  0.18620000  0.72300000  0.44710000  1.0 0.3622143182
H  H46  1  0.81380000  0.22300000  0.05290000  1.0 0.3622143182
H  H47  1  0.81380000  0.27700000  0.55290000  1.0 0.3622143182
H  H48  1  0.18620000  0.77700000  0.94710000  1.0 0.3622143182
H  H49  1  0.12750000  0.63190000  0.41770000  1.0 0.3673807296
H  H50  1  0.87250000  0.13190000  0.08230000  1.0 0.3673807296
H  H51  1  0.87250000  0.36810000  0.58230000  1.0 0.3673807296
H  H52  1  0.12750000  0.86810000  0.91770000  1.0 0.3673807296
H  H53  1  0.18460000  0.77220000  0.94690000  1.0 0.3863328013
H  H54  1  0.81540000  0.27220000  0.55310000  1.0 0.3863328013
H  H55  1  0.81540000  0.22780000  0.05310000  1.0 0.3863328013
H  H56  1  0.18460000  0.72780000  0.44690000  1.0 0.3863328013
H  H57  1  0.12900000  0.86300000  0.91660000  1.0 0.3487905326
H  H58  1  0.87100000  0.36300000  0.58340000  1.0 0.3487905326
H  H59  1  0.87100000  0.13700000  0.08340000  1.0 0.3487905326
H  H60  1  0.12900000  0.63700000  0.41660000  1.0 0.3487905326
C  C1  1  0.69220000  0.53770000  0.33280000  1.0 -0.4323103216
C  C2  1  0.30780000  0.03770000  0.16720000  1.0 -0.4323103216
C  C3  1  0.30780000  0.46230000  0.66720000  1.0 -0.4323103216
C  C4  1  0.69220000  0.96230000  0.83280000  1.0 -0.4323103216
C  C5  1  0.47100000  0.69220000  0.29880000  1.0 -0.1158811238
C  C6  1  0.52900000  0.19220000  0.20120000  1.0 -0.1158811238
C  C7  1  0.52900000  0.30780000  0.70120000  1.0 -0.1158811238
C  C8  1  0.47100000  0.80780000  0.79880000  1.0 -0.1158811238
C  C9  1  0.27800000  0.73560000  0.24640000  1.0 -0.2000170436
C  C10  1  0.72200000  0.23560000  0.25360000  1.0 -0.2000170436
C  C11  1  0.72200000  0.26440000  0.75360000  1.0 -0.2000170436
C  C12  1  0.27800000  0.76440000  0.74640000  1.0 -0.2000170436
C  C13  1  0.36100000  0.72300000  0.17790000  1.0 -0.0931321916
C  C14  1  0.63900000  0.22300000  0.32210000  1.0 -0.0931321916
C  C15  1  0.63900000  0.27700000  0.82210000  1.0 -0.0931321916
C  C16  1  0.36100000  0.77700000  0.67790000  1.0 -0.0931321916
C  C17  1  0.40000000  0.60940000  0.16510000  1.0 -0.2000170436
C  C18  1  0.60000000  0.10940000  0.33490000  1.0 -0.2000170436
C  C19  1  0.60000000  0.39060000  0.83490000  1.0 -0.2000170436
C  C20  1  0.40000000  0.89060000  0.66510000  1.0 -0.2000170436
C  C21  1  0.59700000  0.56820000  0.21750000  1.0 -0.1000290748
C  C22  1  0.40300000  0.06820000  0.28250000  1.0 -0.1000290748
C  C23  1  0.40300000  0.43180000  0.78250000  1.0 -0.1000290748
C  C24  1  0.59700000  0.93180000  0.71750000  1.0 -0.1000290748
C  C25  1  0.17040000  0.76420000  0.12510000  1.0 0.5622215781
C  C26  1  0.82960000  0.26420000  0.37490000  1.0 0.5622215781
C  C27  1  0.82960000  0.23580000  0.87490000  1.0 0.5622215781
C  C28  1  0.17040000  0.73580000  0.62510000  1.0 0.5622215781
N  N1  1  0.50950000  0.58220000  0.28340000  1.0 -0.0131727404
N  N2  1  0.49050000  0.08220000  0.21660000  1.0 -0.0131727404
N  N3  1  0.49050000  0.41780000  0.71660000  1.0 -0.0131727404
N  N4  1  0.50950000  0.91780000  0.78340000  1.0 -0.0150486033
O  O1  1  0.54080000  0.62300000  0.44440000  1.0 -0.8241130498
O  O2  1  0.45920000  0.12300000  0.05560000  1.0 -0.8241130498
O  O3  1  0.45920000  0.37700000  0.55560000  1.0 -0.8241130498
O  O4  1  0.54080000  0.87700000  0.94440000  1.0 -0.8241130498
O  O5  1  0.82240000  0.48140000  0.45430000  1.0 -0.9265366283
O  O6  1  0.17760000  0.98140000  0.04570000  1.0 -0.9265366283
O  O7  1  0.17760000  0.51860000  0.54570000  1.0 -0.9265366283
O  O8  1  0.82240000  0.01860000  0.95430000  1.0 -0.9265366283
O  O9  1  0.37600000  0.45020000  0.40910000  1.0 -0.846644589
O  O10  1  0.62400000  0.95020000  0.09090000  1.0 -0.846644589
O  O11  1  0.62400000  0.54980000  0.59090000  1.0 -0.846644589
O  O12  1  0.37600000  0.04980000  0.90910000  1.0 -0.846644589
O  O13  1  0.00200000  0.81920000  0.14090000  1.0 -0.6126288858
O  O14  1  0.99800000  0.31920000  0.35910000  1.0 -0.6126288858
O  O15  1  0.99800000  0.18080000  0.85910000  1.0 -0.6126288858
O  O16  1  0.00200000  0.68080000  0.64090000  1.0 -0.6126288858
O  O17  1  0.19780000  0.74880000  0.06740000  1.0 -0.6126288858
O  O18  1  0.80220000  0.24880000  0.43260000  1.0 -0.6126288858
O  O19  1  0.80220000  0.25120000  0.93260000  1.0 -0.6126288858
O  O20  1  0.19780000  0.75120000  0.56740000  1.0 -0.6126288858
O  O21  1  0.07000000  0.68300000  0.43500000  1.0 -0.7235088435
O  O22  1  0.93000000  0.18300000  0.06500000  1.0 -0.7235088435
O  O23  1  0.93000000  0.31700000  0.56500000  1.0 -0.7235088435
O  O24  1  0.07000000  0.81700000  0.93500000  1.0 -0.7235088435
O  O25  1  0.07000000  0.81300000  0.93500000  1.0 -0.7235088435
O  O26  1  0.93000000  0.31300000  0.56500000  1.0 -0.7235088435
O  O27  1  0.93000000  0.18700000  0.06500000  1.0 -0.7235088435
O  O28  1  0.07000000  0.68700000  0.43500000  1.0 -0.7235088435
