# DDEC6 charges by PACMAN v1.1 (https://github.com/mtap-research/PACMAN-charge/)
data_BUJLUQ_ASR_pacman
_symmetry_space_group_name_H-M   'P 1'
_cell_length_a   12.34400000
_cell_length_b   33.11500000
_cell_length_c   12.89900000
_cell_angle_alpha   90.00000000
_cell_angle_beta   97.39000000
_cell_angle_gamma   90.00000000
_symmetry_Int_Tables_number   1
_chemical_formula_structural   Mn3ZnH74C83(NO)12
_chemical_formula_sum   'Mn6 Zn2 H148 C166 N24 O24'
_cell_volume   5228.94696769
_cell_formula_units_Z   2
loop_
 _symmetry_equiv_pos_site_id
 _symmetry_equiv_pos_as_xyz
  1  'x, y, z'
loop_
 _atom_site_type_symbol
 _atom_site_label
 _atom_site_symmetry_multiplicity
 _atom_site_fract_x
 _atom_site_fract_y
 _atom_site_fract_z
 _atom_site_occupancy
 _atom_site_charge
Mn  Mn1  1  0.68496000  0.07129000  0.10811000  1.0 0.8701956774
Mn  Mn2  1  0.31504000  0.57129000  0.89189000  1.0 0.8701956774
Mn  Mn3  1  0.31504000  0.92871000  0.89189000  1.0 0.8701956774
Mn  Mn4  1  0.68496000  0.42871000  0.10811000  1.0 0.8701956774
Mn  Mn5  1  0.50000000  0.00000000  0.00000000  1.0 1.0611973311
Mn  Mn6  1  0.50000000  0.50000000  0.00000000  1.0 1.0611973311
Zn  Zn1  1  0.20966000  0.75000000  0.21510000  1.0 0.4321449305
Zn  Zn2  1  0.79034000  0.25000000  0.78490000  1.0 0.4321449305
H  H1  1  0.27510000  0.84130000  0.81490000  1.0 0.1501894142
H  H2  1  0.18530000  0.82520000  0.72350000  1.0 0.1198091625
H  H3  1  0.35820000  0.99060000  0.63570000  1.0 0.15777142
H  H4  1  0.44240000  0.96980000  0.72450000  1.0 0.1718375142
H  H5  1  0.46260000  0.96710000  0.60460000  1.0 0.1393254181
H  H6  1  0.12130000  0.83680000  0.54670000  1.0 0.1279495399
H  H7  1  0.17910000  0.84900000  0.44710000  1.0 0.1279495399
H  H8  1  0.23630000  0.81720000  0.53010000  1.0 0.1393254181
H  H9  1  0.35590000  0.86100000  0.39560000  1.0 0.0929048936
H  H10  1  0.37550000  0.87540000  0.22540000  1.0 0.1020171791
H  H11  1  0.31830000  0.99360000  0.27260000  1.0 0.1113891523
H  H12  1  0.29110000  0.97960000  0.44590000  1.0 0.1020171791
H  H13  1  0.01460000  0.80130000  0.75130000  1.0 0.1279495399
H  H14  1  0.89750000  0.82260000  0.74490000  1.0 0.1501894142
H  H15  1  0.97740000  0.83320000  0.66040000  1.0 0.1393254181
H  H16  1  0.12450000  0.94640000  0.03350000  1.0 0.1501894142
H  H17  1  0.05310000  0.97200000  0.94440000  1.0 0.15777142
H  H18  1  0.99400000  0.94340000  0.01990000  1.0 0.1393254181
H  H19  1  0.85290000  0.95290000  0.84550000  1.0 0.1198091625
H  H20  1  0.67050000  0.96040000  0.86560000  1.0 0.1198091625
H  H21  1  0.64910000  0.84110000  0.92540000  1.0 0.1113891523
H  H22  1  0.83410000  0.83360000  0.91130000  1.0 0.1113891523
H  H23  1  0.90420000  0.80030000  0.48580000  1.0 0.1279495399
H  H24  1  0.84720000  0.83950000  0.43050000  1.0 0.15777142
H  H25  1  0.81030000  0.79550000  0.38880000  1.0 0.1393254181
H  H26  1  0.09550000  0.87590000  0.11660000  1.0 0.1501894142
H  H27  1  0.19490000  0.84450000  0.12690000  1.0 0.15777142
H  H28  1  0.08250000  0.83360000  0.05620000  1.0 0.15777142
H  H29  1  0.76800000  0.84740000  0.20030000  1.0 0.1198091625
H  H30  1  0.66010000  0.90290000  0.14830000  1.0 0.1198091625
H  H31  1  0.92070000  0.97620000  0.21340000  1.0 0.1198091625
H  H32  1  0.02830000  0.91990000  0.26390000  1.0 0.1198091625
H  H33  1  0.47670000  0.93510000  0.47790000  1.0 0.1020171791
H  H34  1  0.50120000  0.94540000  0.29180000  1.0 0.1198091625
H  H35  1  0.18250000  0.89450000  0.37940000  1.0 0.0929048936
H  H36  1  0.19970000  0.90940000  0.20420000  1.0 0.0929048936
H  H37  1  0.72490000  0.34130000  0.18510000  1.0 0.1501894142
H  H38  1  0.81470000  0.32520000  0.27650000  1.0 0.1198091625
H  H39  1  0.64180000  0.49060000  0.36430000  1.0 0.15777142
H  H40  1  0.55760000  0.46980000  0.27550000  1.0 0.1718375142
H  H41  1  0.53740000  0.46710000  0.39540000  1.0 0.1393254181
H  H42  1  0.87870000  0.33680000  0.45330000  1.0 0.1279495399
H  H43  1  0.82090000  0.34900000  0.55290000  1.0 0.1279495399
H  H44  1  0.76370000  0.31720000  0.46990000  1.0 0.1393254181
H  H45  1  0.64410000  0.36100000  0.60440000  1.0 0.0929048936
H  H46  1  0.62450000  0.37540000  0.77460000  1.0 0.1020171791
H  H47  1  0.68170000  0.49360000  0.72740000  1.0 0.1113891523
H  H48  1  0.70890000  0.47960000  0.55410000  1.0 0.1020171791
H  H49  1  0.98540000  0.30130000  0.24870000  1.0 0.1279495399
H  H50  1  0.10250000  0.32260000  0.25510000  1.0 0.1501894142
H  H51  1  0.02260000  0.33320000  0.33960000  1.0 0.1393254181
H  H52  1  0.87550000  0.44640000  0.96650000  1.0 0.1501894142
H  H53  1  0.94690000  0.47200000  0.05560000  1.0 0.15777142
H  H54  1  0.00600000  0.44340000  0.98010000  1.0 0.1393254181
H  H55  1  0.14710000  0.45290000  0.15450000  1.0 0.1198091625
H  H56  1  0.32950000  0.46040000  0.13440000  1.0 0.1198091625
H  H57  1  0.35090000  0.34110000  0.07460000  1.0 0.1113891523
H  H58  1  0.16590000  0.33360000  0.08870000  1.0 0.1113891523
H  H59  1  0.09580000  0.30030000  0.51420000  1.0 0.1279495399
H  H60  1  0.15280000  0.33950000  0.56950000  1.0 0.15777142
H  H61  1  0.18970000  0.29550000  0.61120000  1.0 0.1393254181
H  H62  1  0.90450000  0.37590000  0.88340000  1.0 0.1501894142
H  H63  1  0.80510000  0.34450000  0.87310000  1.0 0.15777142
H  H64  1  0.91750000  0.33360000  0.94380000  1.0 0.15777142
H  H65  1  0.23200000  0.34740000  0.79970000  1.0 0.1198091625
H  H66  1  0.33990000  0.40290000  0.85170000  1.0 0.1198091625
H  H67  1  0.07930000  0.47620000  0.78660000  1.0 0.1198091625
H  H68  1  0.97170000  0.41990000  0.73610000  1.0 0.1198091625
H  H69  1  0.52330000  0.43510000  0.52210000  1.0 0.1020171791
H  H70  1  0.49880000  0.44540000  0.70820000  1.0 0.1198091625
H  H71  1  0.81750000  0.39450000  0.62060000  1.0 0.0929048936
H  H72  1  0.80030000  0.40940000  0.79580000  1.0 0.0929048936
H  H73  1  0.72490000  0.15870000  0.18510000  1.0 0.1501894142
H  H74  1  0.81470000  0.17480000  0.27650000  1.0 0.1198091625
H  H75  1  0.64180000  0.00940000  0.36430000  1.0 0.15777142
H  H76  1  0.55760000  0.03020000  0.27550000  1.0 0.1718375142
H  H77  1  0.53740000  0.03290000  0.39540000  1.0 0.1393254181
H  H78  1  0.87870000  0.16320000  0.45330000  1.0 0.1279495399
H  H79  1  0.82090000  0.15100000  0.55290000  1.0 0.1279495399
H  H80  1  0.76370000  0.18280000  0.46990000  1.0 0.1393254181
H  H81  1  0.64410000  0.13900000  0.60440000  1.0 0.0929048936
H  H82  1  0.62450000  0.12460000  0.77460000  1.0 0.1020171791
H  H83  1  0.68170000  0.00640000  0.72740000  1.0 0.1113891523
H  H84  1  0.70890000  0.02040000  0.55410000  1.0 0.1020171791
H  H85  1  0.98540000  0.19870000  0.24870000  1.0 0.1279495399
H  H86  1  0.10250000  0.17740000  0.25510000  1.0 0.1501894142
H  H87  1  0.02260000  0.16680000  0.33960000  1.0 0.1393254181
H  H88  1  0.87550000  0.05360000  0.96650000  1.0 0.1501894142
H  H89  1  0.94690000  0.02800000  0.05560000  1.0 0.15777142
H  H90  1  0.00600000  0.05660000  0.98010000  1.0 0.1393254181
H  H91  1  0.14710000  0.04710000  0.15450000  1.0 0.1198091625
H  H92  1  0.32950000  0.03960000  0.13440000  1.0 0.1198091625
H  H93  1  0.35090000  0.15890000  0.07460000  1.0 0.1113891523
H  H94  1  0.16590000  0.16640000  0.08870000  1.0 0.1113891523
H  H95  1  0.09580000  0.19970000  0.51420000  1.0 0.1279495399
H  H96  1  0.15280000  0.16050000  0.56950000  1.0 0.15777142
H  H97  1  0.18970000  0.20450000  0.61120000  1.0 0.1393254181
H  H98  1  0.90450000  0.12410000  0.88340000  1.0 0.1501894142
H  H99  1  0.80510000  0.15550000  0.87310000  1.0 0.15777142
H  H100  1  0.91750000  0.16640000  0.94380000  1.0 0.15777142
H  H101  1  0.23200000  0.15260000  0.79970000  1.0 0.1198091625
H  H102  1  0.33990000  0.09710000  0.85170000  1.0 0.1198091625
H  H103  1  0.07930000  0.02380000  0.78660000  1.0 0.1198091625
H  H104  1  0.97170000  0.08010000  0.73610000  1.0 0.1198091625
H  H105  1  0.52330000  0.06490000  0.52210000  1.0 0.1020171791
H  H106  1  0.49880000  0.05460000  0.70820000  1.0 0.1198091625
H  H107  1  0.81750000  0.10550000  0.62060000  1.0 0.0929048936
H  H108  1  0.80030000  0.09060000  0.79580000  1.0 0.0929048936
H  H109  1  0.27510000  0.65870000  0.81490000  1.0 0.1501894142
H  H110  1  0.18530000  0.67480000  0.72350000  1.0 0.1198091625
H  H111  1  0.35820000  0.50940000  0.63570000  1.0 0.15777142
H  H112  1  0.44240000  0.53020000  0.72450000  1.0 0.1718375142
H  H113  1  0.46260000  0.53290000  0.60460000  1.0 0.1393254181
H  H114  1  0.12130000  0.66320000  0.54670000  1.0 0.1279495399
H  H115  1  0.17910000  0.65100000  0.44710000  1.0 0.1279495399
H  H116  1  0.23630000  0.68280000  0.53010000  1.0 0.1393254181
H  H117  1  0.35590000  0.63900000  0.39560000  1.0 0.0929048936
H  H118  1  0.37550000  0.62460000  0.22540000  1.0 0.1020171791
H  H119  1  0.31830000  0.50640000  0.27260000  1.0 0.1113891523
H  H120  1  0.29110000  0.52040000  0.44590000  1.0 0.1020171791
H  H121  1  0.01460000  0.69870000  0.75130000  1.0 0.1279495399
H  H122  1  0.89750000  0.67740000  0.74490000  1.0 0.1501894142
H  H123  1  0.97740000  0.66680000  0.66040000  1.0 0.1393254181
H  H124  1  0.12450000  0.55360000  0.03350000  1.0 0.1501894142
H  H125  1  0.05310000  0.52800000  0.94440000  1.0 0.15777142
H  H126  1  0.99400000  0.55660000  0.01990000  1.0 0.1393254181
H  H127  1  0.85290000  0.54710000  0.84550000  1.0 0.1198091625
H  H128  1  0.67050000  0.53960000  0.86560000  1.0 0.1198091625
H  H129  1  0.64910000  0.65890000  0.92540000  1.0 0.1113891523
H  H130  1  0.83410000  0.66640000  0.91130000  1.0 0.1113891523
H  H131  1  0.90420000  0.69970000  0.48580000  1.0 0.1279495399
H  H132  1  0.84720000  0.66050000  0.43050000  1.0 0.15777142
H  H133  1  0.81030000  0.70450000  0.38880000  1.0 0.1393254181
H  H134  1  0.09550000  0.62410000  0.11660000  1.0 0.1501894142
H  H135  1  0.19490000  0.65550000  0.12690000  1.0 0.15777142
H  H136  1  0.08250000  0.66640000  0.05620000  1.0 0.15777142
H  H137  1  0.76800000  0.65260000  0.20030000  1.0 0.1198091625
H  H138  1  0.66010000  0.59710000  0.14830000  1.0 0.1198091625
H  H139  1  0.92070000  0.52380000  0.21340000  1.0 0.1198091625
H  H140  1  0.02830000  0.58010000  0.26390000  1.0 0.1198091625
H  H141  1  0.47670000  0.56490000  0.47790000  1.0 0.1020171791
H  H142  1  0.50120000  0.55460000  0.29180000  1.0 0.1198091625
H  H143  1  0.18250000  0.60550000  0.37940000  1.0 0.0929048936
H  H144  1  0.19970000  0.59060000  0.20420000  1.0 0.0929048936
H  H145  1  0.02910000  0.75000000  0.45990000  1.0 0.1279495399
H  H146  1  0.14920000  0.75000000  0.42570000  1.0 0.1279495399
H  H147  1  0.97090000  0.25000000  0.54010000  1.0 0.1279495399
H  H148  1  0.85080000  0.25000000  0.57430000  1.0 0.1279495399
C  C1  1  0.21450000  0.84968000  0.76130000  1.0 -0.0996886938
C  C2  1  0.24950000  0.87535000  0.58210000  1.0 0.1393254181
C  C3  1  0.30540000  0.90825000  0.54830000  1.0 -0.1622714568
C  C4  1  0.34240000  0.92940000  0.64030000  1.0 0.2104511205
C  C5  1  0.40690000  0.96750000  0.65230000  1.0 -0.5002103318
C  C6  1  0.19160000  0.84170000  0.52130000  1.0 -0.5331584905
C  C7  1  0.32050000  0.91759000  0.44010000  1.0 0.0692933269
C  C8  1  0.34650000  0.88800000  0.37150000  1.0 -0.0587622785
C  C9  1  0.35890000  0.89660000  0.27020000  1.0 -0.0328413361
C  C10  1  0.34790000  0.93556000  0.23120000  1.0 -0.0166559192
C  C11  1  0.32410000  0.96670000  0.29780000  1.0 -0.0790754136
C  C12  1  0.30890000  0.95840000  0.40140000  1.0 -0.0790754136
C  C13  1  0.35640000  0.94373000  0.11860000  1.0 0.571141621
C  C14  1  0.02340000  0.85994000  0.80250000  1.0 0.1501894142
C  C15  1  0.97610000  0.88837000  0.86360000  1.0 -0.1871564035
C  C16  1  0.06210000  0.91222000  0.90800000  1.0 0.2104511205
C  C17  1  0.97390000  0.82630000  0.73380000  1.0 -0.5002103318
C  C18  1  0.05810000  0.94650000  0.98290000  1.0 -0.5087340171
C  C19  1  0.86240000  0.89292000  0.87620000  1.0 0.1113891523
C  C20  1  0.81200000  0.93014000  0.86280000  1.0 -0.1428268496
C  C21  1  0.70360000  0.93453000  0.87400000  1.0 -0.1057485287
C  C22  1  0.64150000  0.90142000  0.89760000  1.0 -0.0528699212
C  C23  1  0.69090000  0.86390000  0.91020000  1.0 -0.0996886938
C  C24  1  0.80050000  0.85940000  0.90100000  1.0 -0.1716271956
C  C25  1  0.52550000  0.90624000  0.90430000  1.0 0.5616311039
C  C26  1  0.07390000  0.82840000  0.21260000  1.0 0.2377757932
C  C27  1  0.98020000  0.84150000  0.26200000  1.0 -0.2110901569
C  C28  1  0.96050000  0.81310000  0.34200000  1.0 0.0692933269
C  C29  1  0.87230000  0.81200000  0.41900000  1.0 -0.4792449568
C  C30  1  0.11530000  0.84720000  0.12010000  1.0 -0.5209323858
C  C31  1  0.90950000  0.87810000  0.23680000  1.0 0.1113891523
C  C32  1  0.79980000  0.87350000  0.20240000  1.0 -0.1549929176
C  C33  1  0.73570000  0.90640000  0.17120000  1.0 -0.0996886938
C  C34  1  0.78100000  0.94468000  0.17310000  1.0 -0.0382783209
C  C35  1  0.88940000  0.94995000  0.20930000  1.0 -0.0996886938
C  C36  1  0.95290000  0.91630000  0.24000000  1.0 -0.1622714568
C  C37  1  0.71200000  0.97993000  0.13720000  1.0 0.571141621
C  C38  1  0.41900000  0.93080000  0.42300000  1.0 -0.0790754136
C  C39  1  0.43100000  0.93830000  0.30900000  1.0 -0.0528699212
C  C40  1  0.24600000  0.90800000  0.36400000  1.0 -0.0790754136
C  C41  1  0.25700000  0.91700000  0.25700000  1.0 -0.0790754136
C  C42  1  0.78550000  0.34968000  0.23870000  1.0 -0.0948891734
C  C43  1  0.75050000  0.37535000  0.41790000  1.0 0.1393254181
C  C44  1  0.69460000  0.40825000  0.45170000  1.0 -0.1622714568
C  C45  1  0.65760000  0.42940000  0.35970000  1.0 0.2104511205
C  C46  1  0.59310000  0.46750000  0.34770000  1.0 -0.5002103318
C  C47  1  0.80840000  0.34170000  0.47870000  1.0 -0.5331584905
C  C48  1  0.67950000  0.41759000  0.55990000  1.0 0.0692933269
C  C49  1  0.65350000  0.38800000  0.62850000  1.0 -0.0587622785
C  C50  1  0.64110000  0.39660000  0.72980000  1.0 -0.0328413361
C  C51  1  0.65210000  0.43556000  0.76880000  1.0 -0.0166559192
C  C52  1  0.67590000  0.46670000  0.70220000  1.0 -0.0790754136
C  C53  1  0.69110000  0.45840000  0.59860000  1.0 -0.0790754136
C  C54  1  0.64360000  0.44373000  0.88140000  1.0 0.571141621
C  C55  1  0.97660000  0.35994000  0.19750000  1.0 0.1501894142
C  C56  1  0.02390000  0.38837000  0.13640000  1.0 -0.1871564035
C  C57  1  0.93790000  0.41222000  0.09200000  1.0 0.2104511205
C  C58  1  0.02610000  0.32630000  0.26620000  1.0 -0.5002103318
C  C59  1  0.94190000  0.44650000  0.01710000  1.0 -0.5087340171
C  C60  1  0.13760000  0.39292000  0.12380000  1.0 0.1113891523
C  C61  1  0.18800000  0.43014000  0.13720000  1.0 -0.1428268496
C  C62  1  0.29640000  0.43453000  0.12600000  1.0 -0.0996886938
C  C63  1  0.35850000  0.40142000  0.10240000  1.0 -0.0528699212
C  C64  1  0.30910000  0.36390000  0.08980000  1.0 -0.0996886938
C  C65  1  0.19950000  0.35940000  0.09900000  1.0 -0.1716271956
C  C66  1  0.47450000  0.40624000  0.09570000  1.0 0.5616311039
C  C67  1  0.92610000  0.32840000  0.78740000  1.0 0.2377757932
C  C68  1  0.01980000  0.34150000  0.73800000  1.0 -0.2110901569
C  C69  1  0.03950000  0.31310000  0.65800000  1.0 0.0692933269
C  C70  1  0.12770000  0.31200000  0.58100000  1.0 -0.4792449568
C  C71  1  0.88470000  0.34720000  0.87990000  1.0 -0.5087340171
C  C72  1  0.09050000  0.37810000  0.76320000  1.0 0.1113891523
C  C73  1  0.20020000  0.37350000  0.79760000  1.0 -0.1549929176
C  C74  1  0.26430000  0.40640000  0.82880000  1.0 -0.0996886938
C  C75  1  0.21900000  0.44468000  0.82690000  1.0 -0.0382783209
C  C76  1  0.11060000  0.44995000  0.79070000  1.0 -0.0996886938
C  C77  1  0.04710000  0.41630000  0.76000000  1.0 -0.1622714568
C  C78  1  0.28800000  0.47993000  0.86280000  1.0 0.571141621
C  C79  1  0.58100000  0.43080000  0.57700000  1.0 -0.0790754136
C  C80  1  0.56900000  0.43830000  0.69100000  1.0 -0.0528699212
C  C81  1  0.75400000  0.40800000  0.63600000  1.0 -0.0790754136
C  C82  1  0.74300000  0.41700000  0.74300000  1.0 -0.0790754136
C  C83  1  0.78550000  0.15032000  0.23870000  1.0 -0.0948891734
C  C84  1  0.75050000  0.12465000  0.41790000  1.0 0.1393254181
C  C85  1  0.69460000  0.09175000  0.45170000  1.0 -0.1622714568
C  C86  1  0.65760000  0.07060000  0.35970000  1.0 0.2104511205
C  C87  1  0.59310000  0.03250000  0.34770000  1.0 -0.5002103318
C  C88  1  0.80840000  0.15830000  0.47870000  1.0 -0.5331584905
C  C89  1  0.67950000  0.08241000  0.55990000  1.0 0.0692933269
C  C90  1  0.65350000  0.11200000  0.62850000  1.0 -0.0587622785
C  C91  1  0.64110000  0.10340000  0.72980000  1.0 -0.0328413361
C  C92  1  0.65210000  0.06444000  0.76880000  1.0 -0.0166559192
C  C93  1  0.67590000  0.03330000  0.70220000  1.0 -0.0790754136
C  C94  1  0.69110000  0.04160000  0.59860000  1.0 -0.0790754136
C  C95  1  0.64360000  0.05627000  0.88140000  1.0 0.571141621
C  C96  1  0.97660000  0.14006000  0.19750000  1.0 0.1501894142
C  C97  1  0.02390000  0.11163000  0.13640000  1.0 -0.1871564035
C  C98  1  0.93790000  0.08778000  0.09200000  1.0 0.2104511205
C  C99  1  0.02610000  0.17370000  0.26620000  1.0 -0.5002103318
C  C100  1  0.94190000  0.05350000  0.01710000  1.0 -0.5087340171
C  C101  1  0.13760000  0.10708000  0.12380000  1.0 0.1113891523
C  C102  1  0.18800000  0.06986000  0.13720000  1.0 -0.1428268496
C  C103  1  0.29640000  0.06547000  0.12600000  1.0 -0.0996886938
C  C104  1  0.35850000  0.09858000  0.10240000  1.0 -0.0528699212
C  C105  1  0.30910000  0.13610000  0.08980000  1.0 -0.0996886938
C  C106  1  0.19950000  0.14060000  0.09900000  1.0 -0.1716271956
C  C107  1  0.47450000  0.09376000  0.09570000  1.0 0.5616311039
C  C108  1  0.92610000  0.17160000  0.78740000  1.0 0.2377757932
C  C109  1  0.01980000  0.15850000  0.73800000  1.0 -0.2110901569
C  C110  1  0.03950000  0.18690000  0.65800000  1.0 0.0692933269
C  C111  1  0.12770000  0.18800000  0.58100000  1.0 -0.4792449568
C  C112  1  0.88470000  0.15280000  0.87990000  1.0 -0.5087340171
C  C113  1  0.09050000  0.12190000  0.76320000  1.0 0.1113891523
C  C114  1  0.20020000  0.12650000  0.79760000  1.0 -0.1549929176
C  C115  1  0.26430000  0.09360000  0.82880000  1.0 -0.0996886938
C  C116  1  0.21900000  0.05532000  0.82690000  1.0 -0.0382783209
C  C117  1  0.11060000  0.05005000  0.79070000  1.0 -0.0996886938
C  C118  1  0.04710000  0.08370000  0.76000000  1.0 -0.1622714568
C  C119  1  0.28800000  0.02007000  0.86280000  1.0 0.571141621
C  C120  1  0.58100000  0.06920000  0.57700000  1.0 -0.0790754136
C  C121  1  0.56900000  0.06170000  0.69100000  1.0 -0.0528699212
C  C122  1  0.75400000  0.09200000  0.63600000  1.0 -0.0790754136
C  C123  1  0.74300000  0.08300000  0.74300000  1.0 -0.0790754136
C  C124  1  0.21450000  0.65032000  0.76130000  1.0 -0.0948891734
C  C125  1  0.24950000  0.62465000  0.58210000  1.0 0.1393254181
C  C126  1  0.30540000  0.59175000  0.54830000  1.0 -0.1622714568
C  C127  1  0.34240000  0.57060000  0.64030000  1.0 0.2104511205
C  C128  1  0.40690000  0.53250000  0.65230000  1.0 -0.5002103318
C  C129  1  0.19160000  0.65830000  0.52130000  1.0 -0.5331584905
C  C130  1  0.32050000  0.58241000  0.44010000  1.0 0.0692933269
C  C131  1  0.34650000  0.61200000  0.37150000  1.0 -0.0587622785
C  C132  1  0.35890000  0.60340000  0.27020000  1.0 -0.0328413361
C  C133  1  0.34790000  0.56444000  0.23120000  1.0 -0.0166559192
C  C134  1  0.32410000  0.53330000  0.29780000  1.0 -0.0790754136
C  C135  1  0.30890000  0.54160000  0.40140000  1.0 -0.0790754136
C  C136  1  0.35640000  0.55627000  0.11860000  1.0 0.571141621
C  C137  1  0.02340000  0.64006000  0.80250000  1.0 0.1501894142
C  C138  1  0.97610000  0.61163000  0.86360000  1.0 -0.1871564035
C  C139  1  0.06210000  0.58778000  0.90800000  1.0 0.2104511205
C  C140  1  0.97390000  0.67370000  0.73380000  1.0 -0.5002103318
C  C141  1  0.05810000  0.55350000  0.98290000  1.0 -0.5087340171
C  C142  1  0.86240000  0.60708000  0.87620000  1.0 0.1113891523
C  C143  1  0.81200000  0.56986000  0.86280000  1.0 -0.1428268496
C  C144  1  0.70360000  0.56547000  0.87400000  1.0 -0.1057485287
C  C145  1  0.64150000  0.59858000  0.89760000  1.0 -0.0528699212
C  C146  1  0.69090000  0.63610000  0.91020000  1.0 -0.0996886938
C  C147  1  0.80050000  0.64060000  0.90100000  1.0 -0.1716271956
C  C148  1  0.52550000  0.59376000  0.90430000  1.0 0.5616311039
C  C149  1  0.07390000  0.67160000  0.21260000  1.0 0.2377757932
C  C150  1  0.98020000  0.65850000  0.26200000  1.0 -0.2110901569
C  C151  1  0.96050000  0.68690000  0.34200000  1.0 0.0692933269
C  C152  1  0.87230000  0.68800000  0.41900000  1.0 -0.4792449568
C  C153  1  0.11530000  0.65280000  0.12010000  1.0 -0.5209323858
C  C154  1  0.90950000  0.62190000  0.23680000  1.0 0.1113891523
C  C155  1  0.79980000  0.62650000  0.20240000  1.0 -0.1549929176
C  C156  1  0.73570000  0.59360000  0.17120000  1.0 -0.0996886938
C  C157  1  0.78100000  0.55532000  0.17310000  1.0 -0.0382783209
C  C158  1  0.88940000  0.55005000  0.20930000  1.0 -0.0996886938
C  C159  1  0.95290000  0.58370000  0.24000000  1.0 -0.1622714568
C  C160  1  0.71200000  0.52007000  0.13720000  1.0 0.571141621
C  C161  1  0.41900000  0.56920000  0.42300000  1.0 -0.0790754136
C  C162  1  0.43100000  0.56170000  0.30900000  1.0 -0.0528699212
C  C163  1  0.24600000  0.59200000  0.36400000  1.0 -0.0790754136
C  C164  1  0.25700000  0.58300000  0.25700000  1.0 -0.0790754136
C  C165  1  0.07030000  0.75000000  0.39900000  1.0 -0.0790754136
C  C166  1  0.92970000  0.25000000  0.60100000  1.0 -0.0790754136
N  N1  1  0.31200000  0.91082000  0.72460000  1.0 -0.2892366965
N  N2  1  0.25600000  0.87743000  0.68800000  1.0 0.0692933269
N  N3  1  0.15520000  0.89974000  0.87670000  1.0 -0.2892366965
N  N4  1  0.13020000  0.86808000  0.81150000  1.0 0.0767967347
N  N5  1  0.04440000  0.78640000  0.33850000  1.0 0.0354534927
N  N6  1  0.10780000  0.79390000  0.25990000  1.0 -0.2968705688
N  N7  1  0.68800000  0.41082000  0.27540000  1.0 -0.2892366965
N  N8  1  0.74400000  0.37743000  0.31200000  1.0 0.0692933269
N  N9  1  0.84480000  0.39974000  0.12330000  1.0 -0.2892366965
N  N10  1  0.86980000  0.36808000  0.18850000  1.0 0.0767967347
N  N11  1  0.95560000  0.28640000  0.66150000  1.0 0.0354534927
N  N12  1  0.89220000  0.29390000  0.74010000  1.0 -0.2968705688
N  N13  1  0.68800000  0.08918000  0.27540000  1.0 -0.2892366965
N  N14  1  0.74400000  0.12257000  0.31200000  1.0 0.0692933269
N  N15  1  0.84480000  0.10026000  0.12330000  1.0 -0.2892366965
N  N16  1  0.86980000  0.13192000  0.18850000  1.0 0.0767967347
N  N17  1  0.95560000  0.21360000  0.66150000  1.0 0.0354534927
N  N18  1  0.89220000  0.20610000  0.74010000  1.0 -0.2968705688
N  N19  1  0.31200000  0.58918000  0.72460000  1.0 -0.2892366965
N  N20  1  0.25600000  0.62257000  0.68800000  1.0 0.0692933269
N  N21  1  0.15520000  0.60026000  0.87670000  1.0 -0.2892366965
N  N22  1  0.13020000  0.63192000  0.81150000  1.0 0.0767967347
N  N23  1  0.04440000  0.71360000  0.33850000  1.0 0.0354534927
N  N24  1  0.10780000  0.70610000  0.25990000  1.0 -0.2968705688
O  O1  1  0.32620000  0.91672000  0.05240000  1.0 -0.5209323858
O  O2  1  0.38640000  0.97753000  0.09420000  1.0 -0.5331584905
O  O3  1  0.48560000  0.94259000  0.90470000  1.0 -0.6064645146
O  O4  1  0.46360000  0.87637000  0.90430000  1.0 -0.5423447285
O  O5  1  0.61520000  0.97238000  0.10320000  1.0 -0.5475892518
O  O6  1  0.75330000  0.01481000  0.14410000  1.0 -0.5475892518
O  O7  1  0.67380000  0.41672000  0.94760000  1.0 -0.5209323858
O  O8  1  0.61360000  0.47753000  0.90580000  1.0 -0.5331584905
O  O9  1  0.51440000  0.44259000  0.09530000  1.0 -0.6064645146
O  O10  1  0.53640000  0.37637000  0.09570000  1.0 -0.5423447285
O  O11  1  0.38480000  0.47238000  0.89680000  1.0 -0.5475892518
O  O12  1  0.24670000  0.51481000  0.85590000  1.0 -0.5475892518
O  O13  1  0.67380000  0.08328000  0.94760000  1.0 -0.5209323858
O  O14  1  0.61360000  0.02247000  0.90580000  1.0 -0.5331584905
O  O15  1  0.51440000  0.05741000  0.09530000  1.0 -0.6064645146
O  O16  1  0.53640000  0.12363000  0.09570000  1.0 -0.5423447285
O  O17  1  0.38480000  0.02762000  0.89680000  1.0 -0.5475892518
O  O18  1  0.24670000  0.98519000  0.85590000  1.0 -0.5475892518
O  O19  1  0.32620000  0.58328000  0.05240000  1.0 -0.5209323858
O  O20  1  0.38640000  0.52247000  0.09420000  1.0 -0.5331584905
O  O21  1  0.48560000  0.55741000  0.90470000  1.0 -0.6064645146
O  O22  1  0.46360000  0.62363000  0.90430000  1.0 -0.5423447285
O  O23  1  0.61520000  0.52762000  0.10320000  1.0 -0.5475892518
O  O24  1  0.75330000  0.48519000  0.14410000  1.0 -0.5475892518
