# DDEC6 charges by PACMAN v1.1 (https://github.com/mtap-research/PACMAN-charge/)
data_BUJMIF_ion_pacman
_symmetry_space_group_name_H-M   'P 1'
_cell_length_a   12.42800000
_cell_length_b   33.16300000
_cell_length_c   12.89600000
_cell_angle_alpha   90.00000000
_cell_angle_beta   95.40000000
_cell_angle_gamma   90.00000000
_symmetry_Int_Tables_number   1
_chemical_formula_structural   Mn3Co2H86C91N21O31
_chemical_formula_sum   'Mn6 Co4 H172 C182 N42 O62'
_cell_volume   5291.49482847
_cell_formula_units_Z   2
loop_
 _symmetry_equiv_pos_site_id
 _symmetry_equiv_pos_as_xyz
  1  'x, y, z'
loop_
 _atom_site_type_symbol
 _atom_site_label
 _atom_site_symmetry_multiplicity
 _atom_site_fract_x
 _atom_site_fract_y
 _atom_site_fract_z
 _atom_site_occupancy
 _atom_site_charge
Mn  Mn1  1  0.30106000  0.92965000  0.40039000  1.0 0.8736320221
Mn  Mn2  1  0.69894000  0.42965000  0.59961000  1.0 0.8736320221
Mn  Mn3  1  0.69894000  0.07035000  0.59961000  1.0 0.8736320221
Mn  Mn4  1  0.30106000  0.57035000  0.40039000  1.0 0.8736320221
Mn  Mn5  1  0.50000000  0.00000000  0.50000000  1.0 1.0764422499
Mn  Mn6  1  0.50000000  0.50000000  0.50000000  1.0 1.0764422499
Co  Co1  1  0.45579000  0.75000000  0.38436000  1.0 1.0357163631
Co  Co2  1  0.54421000  0.25000000  0.61564000  1.0 1.0357163631
Co  Co3  1  0.77607000  0.25000000  0.28670000  1.0 0.5302411996
Co  Co4  1  0.22393000  0.75000000  0.71330000  1.0 0.5302411996
H  H1  1  0.50470000  0.85930000  0.12040000  1.0 0.1599805475
H  H2  1  0.61250000  0.83280000  0.13820000  1.0 0.1818502404
H  H3  1  0.51460000  0.81800000  0.05770000  1.0 0.1818502404
H  H4  1  0.45720000  0.87350000  0.64230000  1.0 0.1512592988
H  H5  1  0.46000000  0.83780000  0.72620000  1.0 0.1512592988
H  H6  1  0.57060000  0.85600000  0.69200000  1.0 0.1599805475
H  H7  1  0.81000000  0.16090000  0.38680000  1.0 0.1413217751
H  H8  1  0.90560000  0.12850000  0.39740000  1.0 0.1413217751
H  H9  1  0.92220000  0.17160000  0.45230000  1.0 0.1599805475
H  H10  1  0.16490000  0.20990000  0.10600000  1.0 0.171578274
H  H11  1  0.15420000  0.16220000  0.09100000  1.0 0.1599805475
H  H12  1  0.07870000  0.19180000  0.01830000  1.0 0.1512592988
H  H13  1  0.97900000  0.08210000  0.21440000  1.0 0.1186459445
H  H14  1  0.20600000  0.15290000  0.35310000  1.0 0.1319718712
H  H15  1  0.08070000  0.02580000  0.26400000  1.0 0.1319718712
H  H16  1  0.31160000  0.09650000  0.39900000  1.0 0.1186459445
H  H17  1  0.19190000  0.82110000  0.24230000  1.0 0.1319718712
H  H18  1  0.27040000  0.84140000  0.33333333  1.0 0.1599805475
H  H19  1  0.02700000  0.97190000  0.42700000  1.0 0.1599805475
H  H20  1  0.96860000  0.94430000  0.50670000  1.0 0.1512592988
H  H21  1  0.09720000  0.94930000  0.51980000  1.0 0.1599805475
H  H22  1  0.47180000  0.96170000  0.16300000  1.0 0.1599805475
H  H23  1  0.37320000  0.98160000  0.09220000  1.0 0.1413217751
H  H24  1  0.37190000  0.98060000  0.21610000  1.0 0.171578274
H  H25  1  0.63080000  0.84080000  0.40960000  1.0 0.1319718712
H  H26  1  0.65490000  0.96020000  0.34540000  1.0 0.1186459445
H  H27  1  0.98830000  0.79830000  0.26660000  1.0 0.1599805475
H  H28  1  0.89520000  0.82700000  0.21380000  1.0 0.1512592988
H  H29  1  0.00880000  0.82400000  0.16530000  1.0 0.1413217751
H  H30  1  0.13740000  0.83290000  0.02730000  1.0 0.1512592988
H  H31  1  0.24740000  0.82850000  0.97290000  1.0 0.1413217751
H  H32  1  0.23550000  0.80710000  0.08260000  1.0 0.1599805475
H  H33  1  0.81250000  0.83230000  0.38600000  1.0 0.1319718712
H  H34  1  0.83680000  0.95130000  0.32260000  1.0 0.1186459445
H  H35  1  0.47680000  0.93510000  0.97460000  1.0 0.1108027258
H  H36  1  0.17730000  0.89050000  0.89000000  1.0 0.1108027258
H  H37  1  0.48930000  0.95580000  0.80390000  1.0 0.1108027258
H  H38  1  0.19520000  0.90880000  0.71930000  1.0 0.1108027258
H  H39  1  0.33470000  0.85830000  0.88720000  1.0 0.1108027258
H  H40  1  0.31300000  0.99200000  0.78380000  1.0 0.1108027258
H  H41  1  0.34700000  0.87590000  0.72010000  1.0 0.1108027258
H  H42  1  0.28320000  0.97580000  0.95630000  1.0 0.1012413156
H  H43  1  0.49530000  0.35930000  0.87960000  1.0 0.1599805475
H  H44  1  0.38750000  0.33280000  0.86180000  1.0 0.1818502404
H  H45  1  0.48540000  0.31800000  0.94230000  1.0 0.1818502404
H  H46  1  0.54280000  0.37350000  0.35770000  1.0 0.1512592988
H  H47  1  0.54000000  0.33780000  0.27380000  1.0 0.1512592988
H  H48  1  0.42940000  0.35600000  0.30800000  1.0 0.1599805475
H  H49  1  0.19000000  0.66090000  0.61320000  1.0 0.1413217751
H  H50  1  0.09440000  0.62850000  0.60260000  1.0 0.1413217751
H  H51  1  0.07780000  0.67160000  0.54770000  1.0 0.1599805475
H  H52  1  0.83510000  0.70990000  0.89400000  1.0 0.171578274
H  H53  1  0.84580000  0.66220000  0.90900000  1.0 0.1599805475
H  H54  1  0.92130000  0.69180000  0.98170000  1.0 0.1512592988
H  H55  1  0.02100000  0.58210000  0.78560000  1.0 0.1186459445
H  H56  1  0.79400000  0.65290000  0.64690000  1.0 0.1319718712
H  H57  1  0.91930000  0.52580000  0.73600000  1.0 0.1319718712
H  H58  1  0.68840000  0.59650000  0.60100000  1.0 0.1186459445
H  H59  1  0.80810000  0.32110000  0.75770000  1.0 0.1319718712
H  H60  1  0.72960000  0.34140000  0.66666667  1.0 0.1599805475
H  H61  1  0.97300000  0.47190000  0.57300000  1.0 0.1599805475
H  H62  1  0.03140000  0.44430000  0.49330000  1.0 0.1512592988
H  H63  1  0.90280000  0.44930000  0.48020000  1.0 0.1599805475
H  H64  1  0.52820000  0.46170000  0.83700000  1.0 0.1599805475
H  H65  1  0.62680000  0.48160000  0.90780000  1.0 0.1413217751
H  H66  1  0.62810000  0.48060000  0.78390000  1.0 0.171578274
H  H67  1  0.36920000  0.34080000  0.59040000  1.0 0.1319718712
H  H68  1  0.34510000  0.46020000  0.65460000  1.0 0.1186459445
H  H69  1  0.01170000  0.29830000  0.73340000  1.0 0.1599805475
H  H70  1  0.10480000  0.32700000  0.78620000  1.0 0.1512592988
H  H71  1  0.99120000  0.32400000  0.83470000  1.0 0.1413217751
H  H72  1  0.86260000  0.33290000  0.97270000  1.0 0.1512592988
H  H73  1  0.75260000  0.32850000  0.02710000  1.0 0.1413217751
H  H74  1  0.76450000  0.30710000  0.91740000  1.0 0.1599805475
H  H75  1  0.18750000  0.33230000  0.61400000  1.0 0.1319718712
H  H76  1  0.16320000  0.45130000  0.67740000  1.0 0.1186459445
H  H77  1  0.52320000  0.43510000  0.02540000  1.0 0.1108027258
H  H78  1  0.82270000  0.39050000  0.11000000  1.0 0.1108027258
H  H79  1  0.51070000  0.45580000  0.19610000  1.0 0.1108027258
H  H80  1  0.80480000  0.40880000  0.28070000  1.0 0.1108027258
H  H81  1  0.66530000  0.35830000  0.11280000  1.0 0.1108027258
H  H82  1  0.68700000  0.49200000  0.21620000  1.0 0.1108027258
H  H83  1  0.65300000  0.37590000  0.27990000  1.0 0.1108027258
H  H84  1  0.71680000  0.47580000  0.04370000  1.0 0.1012413156
H  H85  1  0.49530000  0.14070000  0.87960000  1.0 0.1599805475
H  H86  1  0.38750000  0.16720000  0.86180000  1.0 0.1818502404
H  H87  1  0.48540000  0.18200000  0.94230000  1.0 0.1818502404
H  H88  1  0.54280000  0.12650000  0.35770000  1.0 0.1512592988
H  H89  1  0.54000000  0.16220000  0.27380000  1.0 0.1512592988
H  H90  1  0.42940000  0.14400000  0.30800000  1.0 0.1599805475
H  H91  1  0.19000000  0.83910000  0.61320000  1.0 0.1413217751
H  H92  1  0.09440000  0.87150000  0.60260000  1.0 0.1413217751
H  H93  1  0.07780000  0.82840000  0.54770000  1.0 0.1599805475
H  H94  1  0.83510000  0.79010000  0.89400000  1.0 0.171578274
H  H95  1  0.84580000  0.83780000  0.90900000  1.0 0.1599805475
H  H96  1  0.92130000  0.80820000  0.98170000  1.0 0.1512592988
H  H97  1  0.02100000  0.91790000  0.78560000  1.0 0.1186459445
H  H98  1  0.79400000  0.84710000  0.64690000  1.0 0.1319718712
H  H99  1  0.91930000  0.97420000  0.73600000  1.0 0.1319718712
H  H100  1  0.68840000  0.90350000  0.60100000  1.0 0.1186459445
H  H101  1  0.80810000  0.17890000  0.75770000  1.0 0.1319718712
H  H102  1  0.72960000  0.15860000  0.66666667  1.0 0.1599805475
H  H103  1  0.97300000  0.02810000  0.57300000  1.0 0.1599805475
H  H104  1  0.03140000  0.05570000  0.49330000  1.0 0.1512592988
H  H105  1  0.90280000  0.05070000  0.48020000  1.0 0.1599805475
H  H106  1  0.52820000  0.03830000  0.83700000  1.0 0.1599805475
H  H107  1  0.62680000  0.01840000  0.90780000  1.0 0.1413217751
H  H108  1  0.62810000  0.01940000  0.78390000  1.0 0.171578274
H  H109  1  0.36920000  0.15920000  0.59040000  1.0 0.1319718712
H  H110  1  0.34510000  0.03980000  0.65460000  1.0 0.1186459445
H  H111  1  0.01170000  0.20170000  0.73340000  1.0 0.1599805475
H  H112  1  0.10480000  0.17300000  0.78620000  1.0 0.1512592988
H  H113  1  0.99120000  0.17600000  0.83470000  1.0 0.1413217751
H  H114  1  0.86260000  0.16710000  0.97270000  1.0 0.1512592988
H  H115  1  0.75260000  0.17150000  0.02710000  1.0 0.1413217751
H  H116  1  0.76450000  0.19290000  0.91740000  1.0 0.1599805475
H  H117  1  0.18750000  0.16770000  0.61400000  1.0 0.1319718712
H  H118  1  0.16320000  0.04870000  0.67740000  1.0 0.1186459445
H  H119  1  0.52320000  0.06490000  0.02540000  1.0 0.1108027258
H  H120  1  0.82270000  0.10950000  0.11000000  1.0 0.1108027258
H  H121  1  0.51070000  0.04420000  0.19610000  1.0 0.1108027258
H  H122  1  0.80480000  0.09120000  0.28070000  1.0 0.1108027258
H  H123  1  0.66530000  0.14170000  0.11280000  1.0 0.1108027258
H  H124  1  0.68700000  0.00800000  0.21620000  1.0 0.1108027258
H  H125  1  0.65300000  0.12410000  0.27990000  1.0 0.1108027258
H  H126  1  0.71680000  0.02420000  0.04370000  1.0 0.1012413156
H  H127  1  0.50470000  0.64070000  0.12040000  1.0 0.1599805475
H  H128  1  0.61250000  0.66720000  0.13820000  1.0 0.1818502404
H  H129  1  0.51460000  0.68200000  0.05770000  1.0 0.1818502404
H  H130  1  0.45720000  0.62650000  0.64230000  1.0 0.1512592988
H  H131  1  0.46000000  0.66220000  0.72620000  1.0 0.1512592988
H  H132  1  0.57060000  0.64400000  0.69200000  1.0 0.1599805475
H  H133  1  0.81000000  0.33910000  0.38680000  1.0 0.1413217751
H  H134  1  0.90560000  0.37150000  0.39740000  1.0 0.1413217751
H  H135  1  0.92220000  0.32840000  0.45230000  1.0 0.1599805475
H  H136  1  0.16490000  0.29010000  0.10600000  1.0 0.171578274
H  H137  1  0.15420000  0.33780000  0.09100000  1.0 0.1599805475
H  H138  1  0.07870000  0.30820000  0.01830000  1.0 0.1512592988
H  H139  1  0.97900000  0.41790000  0.21440000  1.0 0.1186459445
H  H140  1  0.20600000  0.34710000  0.35310000  1.0 0.1319718712
H  H141  1  0.08070000  0.47420000  0.26400000  1.0 0.1319718712
H  H142  1  0.31160000  0.40350000  0.39900000  1.0 0.1186459445
H  H143  1  0.19190000  0.67890000  0.24230000  1.0 0.1319718712
H  H144  1  0.27040000  0.65860000  0.33333333  1.0 0.1599805475
H  H145  1  0.02700000  0.52810000  0.42700000  1.0 0.1599805475
H  H146  1  0.96860000  0.55570000  0.50670000  1.0 0.1512592988
H  H147  1  0.09720000  0.55070000  0.51980000  1.0 0.1599805475
H  H148  1  0.47180000  0.53830000  0.16300000  1.0 0.1599805475
H  H149  1  0.37320000  0.51840000  0.09220000  1.0 0.1413217751
H  H150  1  0.37190000  0.51940000  0.21610000  1.0 0.171578274
H  H151  1  0.63080000  0.65920000  0.40960000  1.0 0.1319718712
H  H152  1  0.65490000  0.53980000  0.34540000  1.0 0.1186459445
H  H153  1  0.98830000  0.70170000  0.26660000  1.0 0.1599805475
H  H154  1  0.89520000  0.67300000  0.21380000  1.0 0.1512592988
H  H155  1  0.00880000  0.67600000  0.16530000  1.0 0.1413217751
H  H156  1  0.13740000  0.66710000  0.02730000  1.0 0.1512592988
H  H157  1  0.24740000  0.67150000  0.97290000  1.0 0.1413217751
H  H158  1  0.23550000  0.69290000  0.08260000  1.0 0.1599805475
H  H159  1  0.81250000  0.66770000  0.38600000  1.0 0.1319718712
H  H160  1  0.83680000  0.54870000  0.32260000  1.0 0.1186459445
H  H161  1  0.47680000  0.56490000  0.97460000  1.0 0.1108027258
H  H162  1  0.17730000  0.60950000  0.89000000  1.0 0.1108027258
H  H163  1  0.48930000  0.54420000  0.80390000  1.0 0.1108027258
H  H164  1  0.19520000  0.59120000  0.71930000  1.0 0.1108027258
H  H165  1  0.33470000  0.64170000  0.88720000  1.0 0.1108027258
H  H166  1  0.31300000  0.50800000  0.78380000  1.0 0.1108027258
H  H167  1  0.34700000  0.62410000  0.72010000  1.0 0.1108027258
H  H168  1  0.28320000  0.52420000  0.95630000  1.0 0.1012413156
H  H169  1  0.85530000  0.25000000  0.07510000  1.0 0.1413217751
H  H170  1  0.97760000  0.25000000  0.04530000  1.0 0.1512592988
H  H171  1  0.14470000  0.75000000  0.92490000  1.0 0.1413217751
H  H172  1  0.02240000  0.75000000  0.95470000  1.0 0.1512592988
C  C1  1  0.53370000  0.83180000  0.12410000  1.0 -0.4524475104
C  C2  1  0.49400000  0.81800000  0.58000000  1.0 0.4055394017
C  C3  1  0.49300000  0.81230000  0.19820000  1.0 0.3689785683
C  C4  1  0.49570000  0.84920000  0.66800000  1.0 -0.4973418431
C  C5  1  0.93060000  0.17368000  0.29530000  1.0 0.2292128884
C  C6  1  0.03220000  0.18657000  0.16460000  1.0 0.1911929854
C  C7  1  0.01850000  0.15966000  0.24460000  1.0 -0.1900985456
C  C8  1  0.88850000  0.15727000  0.39110000  1.0 -0.4731709278
C  C9  1  0.11440000  0.18771000  0.08850000  1.0 -0.4888060159
C  C10  1  0.08460000  0.12358000  0.27410000  1.0 0.1186459445
C  C11  1  0.04800000  0.08553000  0.25180000  1.0 -0.1527732025
C  C12  1  0.18040000  0.12696000  0.33190000  1.0 -0.1318935595
C  C13  1  0.10820000  0.05182000  0.28190000  1.0 -0.1093552495
C  C14  1  0.24280000  0.09306000  0.36130000  1.0 -0.0903246183
C  C15  1  0.20700000  0.05562000  0.33720000  1.0 -0.0320093009
C  C16  1  0.27170000  0.01920000  0.37420000  1.0 0.5848391735
C  C17  1  0.50920000  0.90770000  0.40140000  1.0 0.5626718485
C  C18  1  0.04410000  0.91170000  0.40060000  1.0 0.2356980079
C  C19  1  0.33750000  0.92599000  0.14750000  1.0 0.2180483126
C  C20  1  0.62440000  0.90149000  0.38150000  1.0 -0.0320093009
C  C21  1  0.01590000  0.85789000  0.29770000  1.0 0.1911929854
C  C22  1  0.21430000  0.84706000  0.27540000  1.0 -0.069366566
C  C23  1  0.96210000  0.88717000  0.35090000  1.0 -0.1796291711
C  C24  1  0.03330000  0.94738000  0.46940000  1.0 -0.4888060159
C  C25  1  0.25990000  0.86810000  0.09530000  1.0 0.1599805475
C  C26  1  0.39340000  0.96590000  0.15540000  1.0 -0.4973418431
C  C27  1  0.30900000  0.90185000  0.05900000  1.0 -0.1900985456
C  C28  1  0.67270000  0.86345000  0.39270000  1.0 -0.0903246183
C  C29  1  0.68680000  0.93429000  0.35470000  1.0 -0.1093552495
C  C30  1  0.97340000  0.82387000  0.23010000  1.0 -0.5073449678
C  C31  1  0.84500000  0.89132000  0.35650000  1.0 0.1108027258
C  C32  1  0.21630000  0.83093000  0.03970000  1.0 -0.5073449678
C  C33  1  0.32260000  0.91232000  0.95030000  1.0 0.0907900267
C  C34  1  0.78120000  0.85843000  0.37950000  1.0 -0.1318935595
C  C35  1  0.79530000  0.92890000  0.34180000  1.0 -0.1527732025
C  C36  1  0.41810000  0.93068000  0.92320000  1.0 -0.0903246183
C  C37  1  0.24090000  0.90386000  0.87320000  1.0 -0.0578274142
C  C38  1  0.42610000  0.94224000  0.82130000  1.0 -0.0320093009
C  C39  1  0.25210000  0.91490000  0.77130000  1.0 -0.0212788238
C  C40  1  0.34190000  0.93430000  0.74250000  1.0 0.0027772294
C  C41  1  0.35370000  0.94621000  0.63190000  1.0 0.5745479547
C  C42  1  0.33300000  0.88630000  0.87080000  1.0 -0.0320093009
C  C43  1  0.31900000  0.96490000  0.80790000  1.0 -0.069366566
C  C44  1  0.34100000  0.89650000  0.77070000  1.0 -0.0578274142
C  C45  1  0.30400000  0.95550000  0.91070000  1.0 -0.0440125308
C  C46  1  0.46630000  0.33180000  0.87590000  1.0 -0.4524475104
C  C47  1  0.50600000  0.31800000  0.42000000  1.0 0.4055394017
C  C48  1  0.50700000  0.31230000  0.80180000  1.0 0.3689785683
C  C49  1  0.50430000  0.34920000  0.33200000  1.0 -0.4973418431
C  C50  1  0.06940000  0.67368000  0.70470000  1.0 0.2292128884
C  C51  1  0.96780000  0.68657000  0.83540000  1.0 0.1911929854
C  C52  1  0.98150000  0.65966000  0.75540000  1.0 -0.1900985456
C  C53  1  0.11150000  0.65727000  0.60890000  1.0 -0.4731709278
C  C54  1  0.88560000  0.68771000  0.91150000  1.0 -0.4888060159
C  C55  1  0.91540000  0.62358000  0.72590000  1.0 0.1186459445
C  C56  1  0.95200000  0.58553000  0.74820000  1.0 -0.1527732025
C  C57  1  0.81960000  0.62696000  0.66810000  1.0 -0.1318935595
C  C58  1  0.89180000  0.55182000  0.71810000  1.0 -0.1093552495
C  C59  1  0.75720000  0.59306000  0.63870000  1.0 -0.0903246183
C  C60  1  0.79300000  0.55562000  0.66280000  1.0 -0.0320093009
C  C61  1  0.72830000  0.51920000  0.62580000  1.0 0.5848391735
C  C62  1  0.49080000  0.40770000  0.59860000  1.0 0.5626718485
C  C63  1  0.95590000  0.41170000  0.59940000  1.0 0.2356980079
C  C64  1  0.66250000  0.42599000  0.85250000  1.0 0.2180483126
C  C65  1  0.37560000  0.40149000  0.61850000  1.0 -0.0320093009
C  C66  1  0.98410000  0.35789000  0.70230000  1.0 0.1911929854
C  C67  1  0.78570000  0.34706000  0.72460000  1.0 -0.069366566
C  C68  1  0.03790000  0.38717000  0.64910000  1.0 -0.1796291711
C  C69  1  0.96670000  0.44738000  0.53060000  1.0 -0.4888060159
C  C70  1  0.74010000  0.36810000  0.90470000  1.0 0.1599805475
C  C71  1  0.60660000  0.46590000  0.84460000  1.0 -0.4973418431
C  C72  1  0.69100000  0.40185000  0.94100000  1.0 -0.1900985456
C  C73  1  0.32730000  0.36345000  0.60730000  1.0 -0.0903246183
C  C74  1  0.31320000  0.43429000  0.64530000  1.0 -0.1093552495
C  C75  1  0.02660000  0.32387000  0.76990000  1.0 -0.5073449678
C  C76  1  0.15500000  0.39132000  0.64350000  1.0 0.1108027258
C  C77  1  0.78370000  0.33093000  0.96030000  1.0 -0.5073449678
C  C78  1  0.67740000  0.41232000  0.04970000  1.0 0.0907900267
C  C79  1  0.21880000  0.35843000  0.62050000  1.0 -0.1318935595
C  C80  1  0.20470000  0.42890000  0.65820000  1.0 -0.1527732025
C  C81  1  0.58190000  0.43068000  0.07680000  1.0 -0.0903246183
C  C82  1  0.75910000  0.40386000  0.12680000  1.0 -0.0578274142
C  C83  1  0.57390000  0.44224000  0.17870000  1.0 -0.0320093009
C  C84  1  0.74790000  0.41490000  0.22870000  1.0 -0.0212788238
C  C85  1  0.65810000  0.43430000  0.25750000  1.0 0.0027772294
C  C86  1  0.64630000  0.44621000  0.36810000  1.0 0.5745479547
C  C87  1  0.66700000  0.38630000  0.12920000  1.0 -0.0320093009
C  C88  1  0.68100000  0.46490000  0.19210000  1.0 -0.069366566
C  C89  1  0.65900000  0.39650000  0.22930000  1.0 -0.0578274142
C  C90  1  0.69600000  0.45550000  0.08930000  1.0 -0.0450247145
C  C91  1  0.46630000  0.16820000  0.87590000  1.0 -0.4524475104
C  C92  1  0.50600000  0.18200000  0.42000000  1.0 0.4055394017
C  C93  1  0.50700000  0.18770000  0.80180000  1.0 0.3689785683
C  C94  1  0.50430000  0.15080000  0.33200000  1.0 -0.4973418431
C  C95  1  0.06940000  0.82632000  0.70470000  1.0 0.2292128884
C  C96  1  0.96780000  0.81343000  0.83540000  1.0 0.1911929854
C  C97  1  0.98150000  0.84034000  0.75540000  1.0 -0.1900985456
C  C98  1  0.11150000  0.84273000  0.60890000  1.0 -0.4731709278
C  C99  1  0.88560000  0.81229000  0.91150000  1.0 -0.4888060159
C  C100  1  0.91540000  0.87642000  0.72590000  1.0 0.1186459445
C  C101  1  0.95200000  0.91447000  0.74820000  1.0 -0.1527732025
C  C102  1  0.81960000  0.87304000  0.66810000  1.0 -0.1318935595
C  C103  1  0.89180000  0.94818000  0.71810000  1.0 -0.1093552495
C  C104  1  0.75720000  0.90694000  0.63870000  1.0 -0.0903246183
C  C105  1  0.79300000  0.94438000  0.66280000  1.0 -0.0320093009
C  C106  1  0.72830000  0.98080000  0.62580000  1.0 0.5848391735
C  C107  1  0.49080000  0.09230000  0.59860000  1.0 0.5626718485
C  C108  1  0.95590000  0.08830000  0.59940000  1.0 0.2356980079
C  C109  1  0.66250000  0.07401000  0.85250000  1.0 0.2180483126
C  C110  1  0.37560000  0.09851000  0.61850000  1.0 -0.0320093009
C  C111  1  0.98410000  0.14211000  0.70230000  1.0 0.1911929854
C  C112  1  0.78570000  0.15294000  0.72460000  1.0 -0.069366566
C  C113  1  0.03790000  0.11283000  0.64910000  1.0 -0.1796291711
C  C114  1  0.96670000  0.05262000  0.53060000  1.0 -0.4888060159
C  C115  1  0.74010000  0.13190000  0.90470000  1.0 0.1599805475
C  C116  1  0.60660000  0.03410000  0.84460000  1.0 -0.4973418431
C  C117  1  0.69100000  0.09815000  0.94100000  1.0 -0.1900985456
C  C118  1  0.32730000  0.13655000  0.60730000  1.0 -0.0903246183
C  C119  1  0.31320000  0.06571000  0.64530000  1.0 -0.1093552495
C  C120  1  0.02660000  0.17613000  0.76990000  1.0 -0.5073449678
C  C121  1  0.15500000  0.10868000  0.64350000  1.0 0.1108027258
C  C122  1  0.78370000  0.16907000  0.96030000  1.0 -0.5073449678
C  C123  1  0.67740000  0.08768000  0.04970000  1.0 0.0907900267
C  C124  1  0.21880000  0.14157000  0.62050000  1.0 -0.1318935595
C  C125  1  0.20470000  0.07110000  0.65820000  1.0 -0.1527732025
C  C126  1  0.58190000  0.06932000  0.07680000  1.0 -0.0903246183
C  C127  1  0.75910000  0.09614000  0.12680000  1.0 -0.0578274142
C  C128  1  0.57390000  0.05776000  0.17870000  1.0 -0.0320093009
C  C129  1  0.74790000  0.08510000  0.22870000  1.0 -0.0212788238
C  C130  1  0.65810000  0.06570000  0.25750000  1.0 0.0027772294
C  C131  1  0.64630000  0.05379000  0.36810000  1.0 0.5745479547
C  C132  1  0.66700000  0.11370000  0.12920000  1.0 -0.0320093009
C  C133  1  0.68100000  0.03510000  0.19210000  1.0 -0.069366566
C  C134  1  0.65900000  0.10350000  0.22930000  1.0 -0.0578274142
C  C135  1  0.69600000  0.04450000  0.08930000  1.0 -0.0450247145
C  C136  1  0.53370000  0.66820000  0.12410000  1.0 -0.4524475104
C  C137  1  0.49400000  0.68200000  0.58000000  1.0 0.4055394017
C  C138  1  0.49300000  0.68770000  0.19820000  1.0 0.3689785683
C  C139  1  0.49570000  0.65080000  0.66800000  1.0 -0.4973418431
C  C140  1  0.93060000  0.32632000  0.29530000  1.0 0.2292128884
C  C141  1  0.03220000  0.31343000  0.16460000  1.0 0.1911929854
C  C142  1  0.01850000  0.34034000  0.24460000  1.0 -0.1900985456
C  C143  1  0.88850000  0.34273000  0.39110000  1.0 -0.4731709278
C  C144  1  0.11440000  0.31229000  0.08850000  1.0 -0.4888060159
C  C145  1  0.08460000  0.37642000  0.27410000  1.0 0.1186459445
C  C146  1  0.04800000  0.41447000  0.25180000  1.0 -0.1527732025
C  C147  1  0.18040000  0.37304000  0.33190000  1.0 -0.1318935595
C  C148  1  0.10820000  0.44818000  0.28190000  1.0 -0.1093552495
C  C149  1  0.24280000  0.40694000  0.36130000  1.0 -0.0903246183
C  C150  1  0.20700000  0.44438000  0.33720000  1.0 -0.0320093009
C  C151  1  0.27170000  0.48080000  0.37420000  1.0 0.5848391735
C  C152  1  0.50920000  0.59230000  0.40140000  1.0 0.5626718485
C  C153  1  0.04410000  0.58830000  0.40060000  1.0 0.2356980079
C  C154  1  0.33750000  0.57401000  0.14750000  1.0 0.2180483126
C  C155  1  0.62440000  0.59851000  0.38150000  1.0 -0.0320093009
C  C156  1  0.01590000  0.64211000  0.29770000  1.0 0.1911929854
C  C157  1  0.21430000  0.65294000  0.27540000  1.0 -0.069366566
C  C158  1  0.96210000  0.61283000  0.35090000  1.0 -0.1796291711
C  C159  1  0.03330000  0.55262000  0.46940000  1.0 -0.4888060159
C  C160  1  0.25990000  0.63190000  0.09530000  1.0 0.1599805475
C  C161  1  0.39340000  0.53410000  0.15540000  1.0 -0.4973418431
C  C162  1  0.30900000  0.59815000  0.05900000  1.0 -0.1900985456
C  C163  1  0.67270000  0.63655000  0.39270000  1.0 -0.0903246183
C  C164  1  0.68680000  0.56571000  0.35470000  1.0 -0.1093552495
C  C165  1  0.97340000  0.67613000  0.23010000  1.0 -0.5073449678
C  C166  1  0.84500000  0.60868000  0.35650000  1.0 0.1108027258
C  C167  1  0.21630000  0.66907000  0.03970000  1.0 -0.5073449678
C  C168  1  0.32260000  0.58768000  0.95030000  1.0 0.0907900267
C  C169  1  0.78120000  0.64157000  0.37950000  1.0 -0.1318935595
C  C170  1  0.79530000  0.57110000  0.34180000  1.0 -0.1527732025
C  C171  1  0.41810000  0.56932000  0.92320000  1.0 -0.0903246183
C  C172  1  0.24090000  0.59614000  0.87320000  1.0 -0.0578274142
C  C173  1  0.42610000  0.55776000  0.82130000  1.0 -0.0320093009
C  C174  1  0.25210000  0.58510000  0.77130000  1.0 -0.0212788238
C  C175  1  0.34190000  0.56570000  0.74250000  1.0 0.0027772294
C  C176  1  0.35370000  0.55379000  0.63190000  1.0 0.5745479547
C  C177  1  0.33300000  0.61370000  0.87080000  1.0 -0.0320093009
C  C178  1  0.31900000  0.53510000  0.80790000  1.0 -0.069366566
C  C179  1  0.34100000  0.60350000  0.77070000  1.0 -0.0578274142
C  C180  1  0.30400000  0.54450000  0.91070000  1.0 -0.0440125308
C  C181  1  0.93190000  0.25000000  0.10420000  1.0 -0.0841192185
C  C182  1  0.06810000  0.75000000  0.89580000  1.0 -0.0841192185
N  N1  1  0.47060000  0.79510000  0.49590000  1.0 -0.4755529828
N  N2  1  0.44480000  0.79550000  0.26880000  1.0 -0.4973418431
N  N3  1  0.88920000  0.20710000  0.24630000  1.0 -0.3169080532
N  N4  1  0.95380000  0.21398000  0.16640000  1.0 0.0600133835
N  N5  1  0.64700000  0.21580000  0.18010000  1.0 0.2949595832
N  N6  1  0.14140000  0.89848000  0.38030000  1.0 -0.2971080876
N  N7  1  0.30660000  0.90800000  0.23280000  1.0 -0.2853820092
N  N8  1  0.12200000  0.86593000  0.31640000  1.0 0.0824440242
N  N9  1  0.25930000  0.87272000  0.19960000  1.0 0.0736951836
N  N10  1  0.52940000  0.29510000  0.50410000  1.0 -0.4755529828
N  N11  1  0.55520000  0.29550000  0.73120000  1.0 -0.4973418431
N  N12  1  0.11080000  0.70710000  0.75370000  1.0 -0.3169080532
N  N13  1  0.04620000  0.71398000  0.83360000  1.0 0.0600133835
N  N14  1  0.35300000  0.71580000  0.81990000  1.0 0.2949595832
N  N15  1  0.85860000  0.39848000  0.61970000  1.0 -0.2971080876
N  N16  1  0.69340000  0.40800000  0.76720000  1.0 -0.2853820092
N  N17  1  0.87800000  0.36593000  0.68360000  1.0 0.0824440242
N  N18  1  0.74070000  0.37272000  0.80040000  1.0 0.0736951836
N  N19  1  0.52940000  0.20490000  0.50410000  1.0 -0.4755529828
N  N20  1  0.55520000  0.20450000  0.73120000  1.0 -0.4973418431
N  N21  1  0.11080000  0.79290000  0.75370000  1.0 -0.3169080532
N  N22  1  0.04620000  0.78602000  0.83360000  1.0 0.0600133835
N  N23  1  0.35300000  0.78420000  0.81990000  1.0 0.2949595832
N  N24  1  0.85860000  0.10152000  0.61970000  1.0 -0.2971080876
N  N25  1  0.69340000  0.09200000  0.76720000  1.0 -0.2853820092
N  N26  1  0.87800000  0.13407000  0.68360000  1.0 0.0824440242
N  N27  1  0.74070000  0.12728000  0.80040000  1.0 0.0736951836
N  N28  1  0.47060000  0.70490000  0.49590000  1.0 -0.4755529828
N  N29  1  0.44480000  0.70450000  0.26880000  1.0 -0.4973418431
N  N30  1  0.88920000  0.29290000  0.24630000  1.0 -0.3169080532
N  N31  1  0.95380000  0.28602000  0.16640000  1.0 0.0600133835
N  N32  1  0.64700000  0.28420000  0.18010000  1.0 0.2949595832
N  N33  1  0.14140000  0.60152000  0.38030000  1.0 -0.2971080876
N  N34  1  0.30660000  0.59200000  0.23280000  1.0 -0.2853820092
N  N35  1  0.12200000  0.63407000  0.31640000  1.0 0.0824440242
N  N36  1  0.25930000  0.62728000  0.19960000  1.0 0.0736951836
N  N37  1  0.21670000  0.75000000  0.32030000  1.0 0.6473344945
N  N38  1  0.72900000  0.75000000  0.62400000  1.0 0.7148415529
N  N39  1  0.78330000  0.25000000  0.67970000  1.0 0.6473344945
N  N40  1  0.27100000  0.25000000  0.37600000  1.0 0.7148415529
N  N41  1  0.21580000  0.25000000  0.79960000  1.0 0.6846163952
N  N42  1  0.78420000  0.75000000  0.20040000  1.0 0.6846163952
O  O1  1  0.65620000  0.20510000  0.27620000  1.0 0.1012413156
O  O2  1  0.57100000  0.19720000  0.12500000  1.0 -0.3382535613
O  O3  1  0.35930000  0.02570000  0.42490000  1.0 -0.5392627037
O  O4  1  0.23330000  0.98499000  0.35180000  1.0 -0.5392627037
O  O5  1  0.47280000  0.94390000  0.40180000  1.0 -0.5841666377
O  O6  1  0.42050000  0.97317000  0.61800000  1.0 -0.5392627037
O  O7  1  0.29560000  0.92830000  0.56210000  1.0 -0.5296042479
O  O8  1  0.44890000  0.87848000  0.41460000  1.0 -0.4888060159
O  O9  1  0.65380000  0.20660000  0.33570000  1.0 -0.069366566
O  O10  1  0.64580000  0.77910000  0.63810000  1.0 -0.3382535613
O  O11  1  0.34380000  0.70510000  0.72380000  1.0 0.1012413156
O  O12  1  0.42900000  0.69720000  0.87500000  1.0 -0.3382535613
O  O13  1  0.64070000  0.52570000  0.57510000  1.0 -0.5392627037
O  O14  1  0.76670000  0.48499000  0.64820000  1.0 -0.5392627037
O  O15  1  0.52720000  0.44390000  0.59820000  1.0 -0.5841666377
O  O16  1  0.57950000  0.47317000  0.38200000  1.0 -0.5392627037
O  O17  1  0.70440000  0.42830000  0.43790000  1.0 -0.5296042479
O  O18  1  0.55110000  0.37848000  0.58540000  1.0 -0.4888060159
O  O19  1  0.34620000  0.70660000  0.66430000  1.0 -0.069366566
O  O20  1  0.35420000  0.27910000  0.36190000  1.0 -0.3382535613
O  O21  1  0.34380000  0.79490000  0.72380000  1.0 0.1012413156
O  O22  1  0.42900000  0.80280000  0.87500000  1.0 -0.3382535613
O  O23  1  0.64070000  0.97430000  0.57510000  1.0 -0.5392627037
O  O24  1  0.76670000  0.01501000  0.64820000  1.0 -0.5392627037
O  O25  1  0.52720000  0.05610000  0.59820000  1.0 -0.5841666377
O  O26  1  0.57950000  0.02683000  0.38200000  1.0 -0.5392627037
O  O27  1  0.70440000  0.07170000  0.43790000  1.0 -0.5296042479
O  O28  1  0.55110000  0.12152000  0.58540000  1.0 -0.4888060159
O  O29  1  0.34620000  0.79340000  0.66430000  1.0 -0.069366566
O  O30  1  0.35420000  0.22090000  0.36190000  1.0 -0.3382535613
O  O31  1  0.65620000  0.29490000  0.27620000  1.0 0.1012413156
O  O32  1  0.57100000  0.30280000  0.12500000  1.0 -0.3382535613
O  O33  1  0.35930000  0.47430000  0.42490000  1.0 -0.5392627037
O  O34  1  0.23330000  0.51501000  0.35180000  1.0 -0.5392627037
O  O35  1  0.47280000  0.55610000  0.40180000  1.0 -0.5841666377
O  O36  1  0.42050000  0.52683000  0.61800000  1.0 -0.5392627037
O  O37  1  0.29560000  0.57170000  0.56210000  1.0 -0.5296042479
O  O38  1  0.44890000  0.62152000  0.41460000  1.0 -0.4888060159
O  O39  1  0.65380000  0.29340000  0.33570000  1.0 -0.069366566
O  O40  1  0.64580000  0.72090000  0.63810000  1.0 -0.3382535613
O  O41  1  0.61920000  0.75000000  0.38800000  1.0 -0.1796291711
O  O42  1  0.29200000  0.75000000  0.39660000  1.0 -0.3970063246
O  O43  1  0.23560000  0.75000000  0.22980000  1.0 -0.3930634177
O  O44  1  0.12520000  0.75000000  0.34700000  1.0 -0.3382535613
O  O45  1  0.78400000  0.75000000  0.54400000  1.0 -0.4116081662
O  O46  1  0.79220000  0.75000000  0.70820000  1.0 -0.4435940451
O  O47  1  0.38080000  0.25000000  0.61200000  1.0 -0.1796291711
O  O48  1  0.70800000  0.25000000  0.60340000  1.0 -0.3970063246
O  O49  1  0.76440000  0.25000000  0.77020000  1.0 -0.3930634177
O  O50  1  0.87480000  0.25000000  0.65300000  1.0 -0.3382535613
O  O51  1  0.21600000  0.25000000  0.45600000  1.0 -0.4116081662
O  O52  1  0.20780000  0.25000000  0.29180000  1.0 -0.4435940451
O  O53  1  0.83180000  0.25000000  0.43940000  1.0 -0.3051947272
O  O54  1  0.69080000  0.25000000  0.13190000  1.0 -0.3555148161
O  O55  1  0.16820000  0.75000000  0.56060000  1.0 -0.2971080876
O  O56  1  0.30920000  0.75000000  0.86810000  1.0 -0.3555148161
O  O57  1  0.16000000  0.25000000  0.88290000  1.0 -0.5296042479
O  O58  1  0.31850000  0.25000000  0.80590000  1.0 -0.4262853778
O  O59  1  0.16800000  0.25000000  0.70820000  1.0 -0.4116081662
O  O60  1  0.84000000  0.75000000  0.11710000  1.0 -0.5296042479
O  O61  1  0.68150000  0.75000000  0.19410000  1.0 -0.4262853778
O  O62  1  0.83200000  0.75000000  0.29180000  1.0 -0.4116081662
