# DDEC6 charges by PACMAN v1.1 (https://github.com/mtap-research/PACMAN-charge/)
data_BUKRUW01_ASR_pacman
_symmetry_space_group_name_H-M   'P 1'
_cell_length_a   20.16190000
_cell_length_b   20.16190000
_cell_length_c   20.16190000
_cell_angle_alpha   90.00000000
_cell_angle_beta   90.00000000
_cell_angle_gamma   90.00000000
_symmetry_Int_Tables_number   1
_chemical_formula_structural   Zn8H12C24N12O11
_chemical_formula_sum   'Zn32 H48 C96 N48 O44'
_cell_volume   8195.85694026
_cell_formula_units_Z   4
loop_
 _symmetry_equiv_pos_site_id
 _symmetry_equiv_pos_as_xyz
  1  'x, y, z'
loop_
 _atom_site_type_symbol
 _atom_site_label
 _atom_site_symmetry_multiplicity
 _atom_site_fract_x
 _atom_site_fract_y
 _atom_site_fract_z
 _atom_site_occupancy
 _atom_site_charge
Zn  Zn1  1  0.30080000  0.69920000  0.19920000  1.0 0.5328494027
Zn  Zn2  1  0.19920000  0.30080000  0.69920000  1.0 0.5249908243
Zn  Zn3  1  0.69920000  0.19920000  0.30080000  1.0 0.5328494027
Zn  Zn4  1  0.80080000  0.80080000  0.80080000  1.0 0.5328494027
Zn  Zn5  1  0.19008000  0.80983000  0.19582000  1.0 0.7016926581
Zn  Zn6  1  0.30992000  0.19017000  0.69582000  1.0 0.7016926581
Zn  Zn7  1  0.80992000  0.30983000  0.30418000  1.0 0.7016926581
Zn  Zn8  1  0.69008000  0.69017000  0.80418000  1.0 0.7016926581
Zn  Zn9  1  0.19582000  0.19008000  0.80983000  1.0 0.7016926581
Zn  Zn10  1  0.69582000  0.30992000  0.19017000  1.0 0.7016926581
Zn  Zn11  1  0.30418000  0.80992000  0.30983000  1.0 0.7016926581
Zn  Zn12  1  0.80418000  0.69008000  0.69017000  1.0 0.7016926581
Zn  Zn13  1  0.80983000  0.19582000  0.19008000  1.0 0.7016926581
Zn  Zn14  1  0.19017000  0.69582000  0.30992000  1.0 0.7016926581
Zn  Zn15  1  0.30983000  0.30418000  0.80992000  1.0 0.7016926581
Zn  Zn16  1  0.69017000  0.80418000  0.69008000  1.0 0.7016926581
Zn  Zn17  1  0.30404000  0.69229000  0.80918000  1.0 0.8332857167
Zn  Zn18  1  0.19596000  0.30771000  0.30918000  1.0 0.8332857167
Zn  Zn19  1  0.69596000  0.19229000  0.69082000  1.0 0.8332857167
Zn  Zn20  1  0.80404000  0.80771000  0.19082000  1.0 0.8332857167
Zn  Zn21  1  0.80918000  0.30404000  0.69229000  1.0 0.8332857167
Zn  Zn22  1  0.30918000  0.19596000  0.30771000  1.0 0.8332857167
Zn  Zn23  1  0.69082000  0.69596000  0.19229000  1.0 0.8332857167
Zn  Zn24  1  0.19082000  0.80404000  0.80771000  1.0 0.8332857167
Zn  Zn25  1  0.69229000  0.80918000  0.30404000  1.0 0.8332857167
Zn  Zn26  1  0.30771000  0.30918000  0.19596000  1.0 0.8332857167
Zn  Zn27  1  0.19229000  0.69082000  0.69596000  1.0 0.8332857167
Zn  Zn28  1  0.80771000  0.19082000  0.80404000  1.0 0.8332857167
Zn  Zn29  1  0.19662000  0.19662000  0.19662000  1.0 0.9298991685
Zn  Zn30  1  0.30338000  0.80338000  0.69662000  1.0 0.9298991685
Zn  Zn31  1  0.80338000  0.69662000  0.30338000  1.0 0.9298991685
Zn  Zn32  1  0.69662000  0.30338000  0.80338000  1.0 0.9298991685
H  H1  1  0.32800000  0.69190000  0.03640000  1.0 0.1111642422
H  H2  1  0.17200000  0.30810000  0.53640000  1.0 0.1111642422
H  H3  1  0.67200000  0.19190000  0.46360000  1.0 0.1111642422
H  H4  1  0.82800000  0.80810000  0.96360000  1.0 0.1111642422
H  H5  1  0.03640000  0.32800000  0.69190000  1.0 0.1111642422
H  H6  1  0.53640000  0.17200000  0.30810000  1.0 0.1111642422
H  H7  1  0.46360000  0.67200000  0.19190000  1.0 0.1111642422
H  H8  1  0.96360000  0.82800000  0.80810000  1.0 0.1111642422
H  H9  1  0.69190000  0.03640000  0.32800000  1.0 0.1111642422
H  H10  1  0.30810000  0.53640000  0.17200000  1.0 0.1111642422
H  H11  1  0.19190000  0.46360000  0.67200000  1.0 0.1111642422
H  H12  1  0.80810000  0.96360000  0.82800000  1.0 0.1111642422
H  H13  1  0.17900000  0.81820000  0.02000000  1.0 0.1209595625
H  H14  1  0.32100000  0.18180000  0.52000000  1.0 0.1209595625
H  H15  1  0.82100000  0.31820000  0.48000000  1.0 0.1209595625
H  H16  1  0.67900000  0.68180000  0.98000000  1.0 0.1209595625
H  H17  1  0.02000000  0.17900000  0.81820000  1.0 0.1209595625
H  H18  1  0.52000000  0.32100000  0.18180000  1.0 0.1209595625
H  H19  1  0.48000000  0.82100000  0.31820000  1.0 0.1209595625
H  H20  1  0.98000000  0.67900000  0.68180000  1.0 0.1209595625
H  H21  1  0.81820000  0.02000000  0.17900000  1.0 0.1209595625
H  H22  1  0.18180000  0.52000000  0.32100000  1.0 0.1209595625
H  H23  1  0.31820000  0.48000000  0.82100000  1.0 0.1209595625
H  H24  1  0.68180000  0.98000000  0.67900000  1.0 0.1209595625
H  H25  1  0.18640000  0.98000000  0.17800000  1.0 0.0986309064
H  H26  1  0.31360000  0.02000000  0.67800000  1.0 0.0986309064
H  H27  1  0.81360000  0.48000000  0.32200000  1.0 0.0986309064
H  H28  1  0.68640000  0.52000000  0.82200000  1.0 0.0986309064
H  H29  1  0.17800000  0.18640000  0.98000000  1.0 0.0986309064
H  H30  1  0.67800000  0.31360000  0.02000000  1.0 0.0986309064
H  H31  1  0.32200000  0.81360000  0.48000000  1.0 0.0986309064
H  H32  1  0.82200000  0.68640000  0.52000000  1.0 0.0986309064
H  H33  1  0.98000000  0.17800000  0.18640000  1.0 0.0986309064
H  H34  1  0.02000000  0.67800000  0.31360000  1.0 0.0986309064
H  H35  1  0.48000000  0.32200000  0.81360000  1.0 0.0986309064
H  H36  1  0.52000000  0.82200000  0.68640000  1.0 0.0986309064
H  H37  1  0.32990000  0.97450000  0.31010000  1.0 0.1111642422
H  H38  1  0.17010000  0.02550000  0.81010000  1.0 0.1111642422
H  H39  1  0.67010000  0.47450000  0.18990000  1.0 0.1111642422
H  H40  1  0.82990000  0.52550000  0.68990000  1.0 0.1111642422
H  H41  1  0.31010000  0.32990000  0.97450000  1.0 0.1111642422
H  H42  1  0.81010000  0.17010000  0.02550000  1.0 0.1111642422
H  H43  1  0.18990000  0.67010000  0.47450000  1.0 0.1111642422
H  H44  1  0.68990000  0.82990000  0.52550000  1.0 0.1111642422
H  H45  1  0.97450000  0.31010000  0.32990000  1.0 0.1111642422
H  H46  1  0.02550000  0.81010000  0.17010000  1.0 0.1111642422
H  H47  1  0.47450000  0.18990000  0.67010000  1.0 0.1111642422
H  H48  1  0.52550000  0.68990000  0.82990000  1.0 0.1111642422
C  C1  1  0.29290000  0.72150000  0.04720000  1.0 -0.0691555276
C  C2  1  0.20710000  0.27850000  0.54720000  1.0 -0.0691555276
C  C3  1  0.70710000  0.22150000  0.45280000  1.0 -0.0691555276
C  C4  1  0.79290000  0.77850000  0.95280000  1.0 -0.0691555276
C  C5  1  0.04720000  0.29290000  0.72150000  1.0 -0.0691555276
C  C6  1  0.54720000  0.20710000  0.27850000  1.0 -0.0691555276
C  C7  1  0.45280000  0.70710000  0.22150000  1.0 -0.0691555276
C  C8  1  0.95280000  0.79290000  0.77850000  1.0 -0.0691555276
C  C9  1  0.72150000  0.04720000  0.29290000  1.0 -0.0691555276
C  C10  1  0.27850000  0.54720000  0.20710000  1.0 -0.0691555276
C  C11  1  0.22150000  0.45280000  0.70710000  1.0 -0.0691555276
C  C12  1  0.77850000  0.95280000  0.79290000  1.0 -0.0691555276
C  C13  1  0.21210000  0.79000000  0.03830000  1.0 -0.0534711443
C  C14  1  0.28790000  0.21000000  0.53830000  1.0 -0.0534711443
C  C15  1  0.78790000  0.29000000  0.46170000  1.0 -0.0534711443
C  C16  1  0.71210000  0.71000000  0.96170000  1.0 -0.0534711443
C  C17  1  0.03830000  0.21210000  0.79000000  1.0 -0.0534711443
C  C18  1  0.53830000  0.28790000  0.21000000  1.0 -0.0534711443
C  C19  1  0.46170000  0.78790000  0.29000000  1.0 -0.0534711443
C  C20  1  0.96170000  0.71210000  0.71000000  1.0 -0.0534711443
C  C21  1  0.79000000  0.03830000  0.21210000  1.0 -0.0534711443
C  C22  1  0.21000000  0.53830000  0.28790000  1.0 -0.0534711443
C  C23  1  0.29000000  0.46170000  0.78790000  1.0 -0.0534711443
C  C24  1  0.71000000  0.96170000  0.71210000  1.0 -0.0534711443
C  C25  1  0.25520000  0.75390000  0.00420000  1.0 -0.0970987572
C  C26  1  0.24480000  0.24610000  0.50420000  1.0 -0.0970987572
C  C27  1  0.74480000  0.25390000  0.49580000  1.0 -0.0970987572
C  C28  1  0.75520000  0.74610000  0.99580000  1.0 -0.0970987572
C  C29  1  0.00420000  0.25520000  0.75390000  1.0 -0.0970987572
C  C30  1  0.50420000  0.24480000  0.24610000  1.0 -0.0970987572
C  C31  1  0.49580000  0.74480000  0.25390000  1.0 -0.0970987572
C  C32  1  0.99580000  0.75520000  0.74610000  1.0 -0.0970987572
C  C33  1  0.75390000  0.00420000  0.25520000  1.0 -0.0970987572
C  C34  1  0.24610000  0.50420000  0.24480000  1.0 -0.0970987572
C  C35  1  0.25390000  0.49580000  0.74480000  1.0 -0.0970987572
C  C36  1  0.74610000  0.99580000  0.75520000  1.0 -0.0970987572
C  C37  1  0.21000000  0.95970000  0.21340000  1.0 0.161032845
C  C38  1  0.29000000  0.04030000  0.71340000  1.0 0.161032845
C  C39  1  0.79000000  0.45970000  0.28660000  1.0 0.161032845
C  C40  1  0.71000000  0.54030000  0.78660000  1.0 0.161032845
C  C41  1  0.21340000  0.21000000  0.95970000  1.0 0.161032845
C  C42  1  0.71340000  0.29000000  0.04030000  1.0 0.161032845
C  C43  1  0.28660000  0.79000000  0.45970000  1.0 0.161032845
C  C44  1  0.78660000  0.71000000  0.54030000  1.0 0.161032845
C  C45  1  0.95970000  0.21340000  0.21000000  1.0 0.161032845
C  C46  1  0.04030000  0.71340000  0.29000000  1.0 0.161032845
C  C47  1  0.45970000  0.28660000  0.79000000  1.0 0.161032845
C  C48  1  0.54030000  0.78660000  0.71000000  1.0 0.161032845
C  C49  1  0.29080000  0.95850000  0.28930000  1.0 0.1111642422
C  C50  1  0.20920000  0.04150000  0.78930000  1.0 0.1111642422
C  C51  1  0.70920000  0.45850000  0.21070000  1.0 0.1111642422
C  C52  1  0.79080000  0.54150000  0.71070000  1.0 0.1111642422
C  C53  1  0.28930000  0.29080000  0.95850000  1.0 0.1111642422
C  C54  1  0.78930000  0.20920000  0.04150000  1.0 0.1111642422
C  C55  1  0.21070000  0.70920000  0.45850000  1.0 0.1111642422
C  C56  1  0.71070000  0.79080000  0.54150000  1.0 0.1111642422
C  C57  1  0.95850000  0.28930000  0.29080000  1.0 0.1111642422
C  C58  1  0.04150000  0.78930000  0.20920000  1.0 0.1111642422
C  C59  1  0.45850000  0.21070000  0.70920000  1.0 0.1111642422
C  C60  1  0.54150000  0.71070000  0.79080000  1.0 0.1111642422
C  C61  1  0.25770000  0.73590000  0.93270000  1.0 0.153544642
C  C62  1  0.24230000  0.26410000  0.43270000  1.0 0.153544642
C  C63  1  0.74230000  0.23590000  0.56730000  1.0 0.153544642
C  C64  1  0.75770000  0.76410000  0.06730000  1.0 0.161032845
C  C65  1  0.93270000  0.25770000  0.73590000  1.0 0.161032845
C  C66  1  0.43270000  0.24230000  0.26410000  1.0 0.153544642
C  C67  1  0.56730000  0.74230000  0.23590000  1.0 0.153544642
C  C68  1  0.06730000  0.75770000  0.76410000  1.0 0.153544642
C  C69  1  0.73590000  0.93270000  0.25770000  1.0 0.161032845
C  C70  1  0.26410000  0.43270000  0.24230000  1.0 0.153544642
C  C71  1  0.23590000  0.56730000  0.74230000  1.0 0.153544642
C  C72  1  0.76410000  0.06730000  0.75770000  1.0 0.153544642
C  C73  1  0.24970000  0.00270000  0.26030000  1.0 -0.1773393775
C  C74  1  0.25030000  0.99730000  0.76030000  1.0 -0.1773393775
C  C75  1  0.75030000  0.50270000  0.23970000  1.0 -0.1773393775
C  C76  1  0.74970000  0.49730000  0.73970000  1.0 -0.1773393775
C  C77  1  0.26030000  0.24970000  0.00270000  1.0 -0.1773393775
C  C78  1  0.76030000  0.25030000  0.99730000  1.0 -0.1773393775
C  C79  1  0.23970000  0.75030000  0.50270000  1.0 -0.1773393775
C  C80  1  0.73970000  0.74970000  0.49730000  1.0 -0.1773393775
C  C81  1  0.00270000  0.26030000  0.24970000  1.0 -0.1773393775
C  C82  1  0.99730000  0.76030000  0.25030000  1.0 -0.1773393775
C  C83  1  0.50270000  0.23970000  0.75030000  1.0 -0.1773393775
C  C84  1  0.49730000  0.73970000  0.74970000  1.0 -0.1773393775
C  C85  1  0.25060000  0.08120000  0.26420000  1.0 0.5328494027
C  C86  1  0.24940000  0.91880000  0.76420000  1.0 0.5328494027
C  C87  1  0.74940000  0.58120000  0.23580000  1.0 0.5328494027
C  C88  1  0.75060000  0.41880000  0.73580000  1.0 0.5328494027
C  C89  1  0.26420000  0.25060000  0.08120000  1.0 0.5328494027
C  C90  1  0.76420000  0.24940000  0.91880000  1.0 0.5328494027
C  C91  1  0.23580000  0.74940000  0.58120000  1.0 0.5328494027
C  C92  1  0.73580000  0.75060000  0.41880000  1.0 0.5328494027
C  C93  1  0.08120000  0.26420000  0.25060000  1.0 0.5328494027
C  C94  1  0.91880000  0.76420000  0.24940000  1.0 0.5328494027
C  C95  1  0.58120000  0.23580000  0.74940000  1.0 0.5328494027
C  C96  1  0.41880000  0.73580000  0.75060000  1.0 0.5328494027
N  N1  1  0.27300000  0.73740000  0.10780000  1.0 -0.1511341632
N  N2  1  0.22700000  0.26260000  0.60780000  1.0 -0.1511341632
N  N3  1  0.72700000  0.23740000  0.39220000  1.0 -0.1511341632
N  N4  1  0.77300000  0.76260000  0.89220000  1.0 -0.1511341632
N  N5  1  0.10780000  0.27300000  0.73740000  1.0 -0.1511341632
N  N6  1  0.60780000  0.22700000  0.26260000  1.0 -0.1511341632
N  N7  1  0.39220000  0.72700000  0.23740000  1.0 -0.1511341632
N  N8  1  0.89220000  0.77300000  0.76260000  1.0 -0.1511341632
N  N9  1  0.73740000  0.10780000  0.27300000  1.0 -0.1511341632
N  N10  1  0.26260000  0.60780000  0.22700000  1.0 -0.1511341632
N  N11  1  0.23740000  0.39220000  0.72700000  1.0 -0.1511341632
N  N12  1  0.76260000  0.89220000  0.77300000  1.0 -0.1511341632
N  N13  1  0.22307000  0.77977000  0.10224000  1.0 -0.1554283214
N  N14  1  0.27693000  0.22023000  0.60224000  1.0 -0.1554283214
N  N15  1  0.77693000  0.27977000  0.39776000  1.0 -0.1554283214
N  N16  1  0.72307000  0.72023000  0.89776000  1.0 -0.1554283214
N  N17  1  0.10224000  0.22307000  0.77977000  1.0 -0.1554283214
N  N18  1  0.60224000  0.27693000  0.22023000  1.0 -0.1554283214
N  N19  1  0.39776000  0.77693000  0.27977000  1.0 -0.1554283214
N  N20  1  0.89776000  0.72307000  0.72023000  1.0 -0.1554283214
N  N21  1  0.77977000  0.10224000  0.22307000  1.0 -0.1554283214
N  N22  1  0.22023000  0.60224000  0.27693000  1.0 -0.1554283214
N  N23  1  0.27977000  0.39776000  0.77693000  1.0 -0.1554283214
N  N24  1  0.72023000  0.89776000  0.72307000  1.0 -0.1554283214
N  N25  1  0.20770000  0.90080000  0.21970000  1.0 -0.3857791016
N  N26  1  0.29230000  0.09920000  0.71970000  1.0 -0.3843179966
N  N27  1  0.79230000  0.40080000  0.28030000  1.0 -0.3857791016
N  N28  1  0.70770000  0.59920000  0.78030000  1.0 -0.3857791016
N  N29  1  0.21970000  0.20770000  0.90080000  1.0 -0.3857791016
N  N30  1  0.71970000  0.29230000  0.09920000  1.0 -0.3857791016
N  N31  1  0.28030000  0.79230000  0.40080000  1.0 -0.3857791016
N  N32  1  0.78030000  0.70770000  0.59920000  1.0 -0.3857791016
N  N33  1  0.90080000  0.21970000  0.20770000  1.0 -0.3857791016
N  N34  1  0.09920000  0.71970000  0.29230000  1.0 -0.3857791016
N  N35  1  0.40080000  0.28030000  0.79230000  1.0 -0.3857791016
N  N36  1  0.59920000  0.78030000  0.70770000  1.0 -0.3857791016
N  N37  1  0.09860000  0.79000000  0.21940000  1.0 -0.3544180083
N  N38  1  0.40140000  0.21000000  0.71940000  1.0 -0.3544180083
N  N39  1  0.90140000  0.29000000  0.28060000  1.0 -0.3544180083
N  N40  1  0.59860000  0.71000000  0.78060000  1.0 -0.3544180083
N  N41  1  0.21940000  0.09860000  0.79000000  1.0 -0.3544180083
N  N42  1  0.71940000  0.40140000  0.21000000  1.0 -0.3544180083
N  N43  1  0.28060000  0.90140000  0.29000000  1.0 -0.3544180083
N  N44  1  0.78060000  0.59860000  0.71000000  1.0 -0.3544180083
N  N45  1  0.79000000  0.21940000  0.09860000  1.0 -0.3544180083
N  N46  1  0.21000000  0.71940000  0.40140000  1.0 -0.3544180083
N  N47  1  0.29000000  0.28060000  0.90140000  1.0 -0.3544180083
N  N48  1  0.71000000  0.78060000  0.59860000  1.0 -0.3544180083
O  O1  1  0.24486000  0.75514000  0.25514000  1.0 -0.8891936715
O  O2  1  0.25514000  0.24486000  0.75514000  1.0 -0.8891936715
O  O3  1  0.75514000  0.25514000  0.24486000  1.0 -0.8891936715
O  O4  1  0.74486000  0.74486000  0.74486000  1.0 -0.8891936715
O  O5  1  0.25710000  0.70360000  0.89110000  1.0 -0.3544180083
O  O6  1  0.24290000  0.29640000  0.39110000  1.0 -0.3544180083
O  O7  1  0.74290000  0.20360000  0.60890000  1.0 -0.3544180083
O  O8  1  0.75710000  0.79640000  0.10890000  1.0 -0.3544180083
O  O9  1  0.89110000  0.25710000  0.70360000  1.0 -0.3544180083
O  O10  1  0.39110000  0.24290000  0.29640000  1.0 -0.3544180083
O  O11  1  0.60890000  0.74290000  0.20360000  1.0 -0.3544180083
O  O12  1  0.10890000  0.75710000  0.79640000  1.0 -0.3544180083
O  O13  1  0.70360000  0.89110000  0.25710000  1.0 -0.3544180083
O  O14  1  0.29640000  0.39110000  0.24290000  1.0 -0.3544180083
O  O15  1  0.20360000  0.60890000  0.74290000  1.0 -0.3544180083
O  O16  1  0.79640000  0.10890000  0.75710000  1.0 -0.3544180083
O  O17  1  0.21795000  0.10533000  0.22000000  1.0 -0.4944612733
O  O18  1  0.28205000  0.89467000  0.72000000  1.0 -0.4944612733
O  O19  1  0.78205000  0.60533000  0.28000000  1.0 -0.4944612733
O  O20  1  0.71795000  0.39467000  0.78000000  1.0 -0.4944612733
O  O21  1  0.22000000  0.21795000  0.10533000  1.0 -0.4944612733
O  O22  1  0.72000000  0.28205000  0.89467000  1.0 -0.4944612733
O  O23  1  0.28000000  0.78205000  0.60533000  1.0 -0.4944612733
O  O24  1  0.78000000  0.71795000  0.39467000  1.0 -0.4944612733
O  O25  1  0.10533000  0.22000000  0.21795000  1.0 -0.4944612733
O  O26  1  0.89467000  0.72000000  0.28205000  1.0 -0.4944612733
O  O27  1  0.60533000  0.28000000  0.78205000  1.0 -0.4944612733
O  O28  1  0.39467000  0.78000000  0.71795000  1.0 -0.4944612733
O  O29  1  0.29140000  0.11150000  0.29200000  1.0 -0.4944612733
O  O30  1  0.20860000  0.88850000  0.79200000  1.0 -0.4944612733
O  O31  1  0.70860000  0.61150000  0.20800000  1.0 -0.4944612733
O  O32  1  0.79140000  0.38850000  0.70800000  1.0 -0.4944612733
O  O33  1  0.29200000  0.29140000  0.11150000  1.0 -0.4944612733
O  O34  1  0.79200000  0.20860000  0.88850000  1.0 -0.4944612733
O  O35  1  0.20800000  0.70860000  0.61150000  1.0 -0.4944612733
O  O36  1  0.70800000  0.79140000  0.38850000  1.0 -0.4955059613
O  O37  1  0.11150000  0.29200000  0.29140000  1.0 -0.4944612733
O  O38  1  0.88850000  0.79200000  0.20860000  1.0 -0.4944612733
O  O39  1  0.61150000  0.20800000  0.70860000  1.0 -0.4944612733
O  O40  1  0.38850000  0.70800000  0.79140000  1.0 -0.4944612733
O  O41  1  0.24440000  0.74440000  0.75560000  1.0 -1.0222810234
O  O42  1  0.25560000  0.25560000  0.25560000  1.0 -1.0222810234
O  O43  1  0.75560000  0.24440000  0.74440000  1.0 -1.0222810234
O  O44  1  0.74440000  0.75560000  0.24440000  1.0 -1.0222810234
