# DDEC6 charges by PACMAN v1.1 (https://github.com/mtap-research/PACMAN-charge/)
data_BUNLAZ_FSR_pacman
_symmetry_space_group_name_H-M   'P 1'
_cell_length_a   50.72000000
_cell_length_b   50.72000000
_cell_length_c   15.50200000
_cell_angle_alpha   90.00000000
_cell_angle_beta   90.00000000
_cell_angle_gamma   120.00000000
_symmetry_Int_Tables_number   1
_chemical_formula_structural   Zr3H32(C27O8)2
_chemical_formula_sum   'Zr18 H192 C324 O96'
_cell_volume   34536.38316717
_cell_formula_units_Z   6
loop_
 _symmetry_equiv_pos_site_id
 _symmetry_equiv_pos_as_xyz
  1  'x, y, z'
loop_
 _atom_site_type_symbol
 _atom_site_label
 _atom_site_symmetry_multiplicity
 _atom_site_fract_x
 _atom_site_fract_y
 _atom_site_fract_z
 _atom_site_occupancy
 _atom_site_charge
Zr  Zr1  1  0.46539000  0.00000000  0.11538000  1.0 2.4815246549
Zr  Zr2  1  0.00000000  0.46539000  0.11538000  1.0 2.4815246549
Zr  Zr3  1  0.53461000  0.53461000  0.11538000  1.0 2.4815246549
Zr  Zr4  1  0.53461000  0.00000000  0.11538000  1.0 2.4815246549
Zr  Zr5  1  0.00000000  0.53461000  0.11538000  1.0 2.4815246549
Zr  Zr6  1  0.46539000  0.46539000  0.11538000  1.0 2.4815246549
Zr  Zr7  1  0.00000000  0.46539000  0.88462000  1.0 2.4815246549
Zr  Zr8  1  0.46539000  0.00000000  0.88462000  1.0 2.4815246549
Zr  Zr9  1  0.53461000  0.53461000  0.88462000  1.0 2.4815246549
Zr  Zr10  1  0.00000000  0.53461000  0.88462000  1.0 2.4815246549
Zr  Zr11  1  0.53461000  0.00000000  0.88462000  1.0 2.4815246549
Zr  Zr12  1  0.46539000  0.46539000  0.88462000  1.0 2.4815246549
Zr  Zr13  1  0.52742000  0.05484000  0.00000000  1.0 2.4377619512
Zr  Zr14  1  0.94516000  0.47258000  0.00000000  1.0 2.4377619512
Zr  Zr15  1  0.52742000  0.47258000  0.00000000  1.0 2.4339899308
Zr  Zr16  1  0.47258000  0.94516000  0.00000000  1.0 2.4377619512
Zr  Zr17  1  0.05484000  0.52742000  0.00000000  1.0 2.4339899308
Zr  Zr18  1  0.47258000  0.52742000  0.00000000  1.0 2.4339899308
H  H1  1  0.44061000  0.07306000  0.19980000  1.0 0.1430662043
H  H2  1  0.92694000  0.36755000  0.19980000  1.0 0.1463184667
H  H3  1  0.63245000  0.55939000  0.19980000  1.0 0.1463184667
H  H4  1  0.55939000  0.92694000  0.19980000  1.0 0.1463184667
H  H5  1  0.07306000  0.63245000  0.19980000  1.0 0.1463184667
H  H6  1  0.36755000  0.44061000  0.19980000  1.0 0.1463184667
H  H7  1  0.07306000  0.44061000  0.80020000  1.0 0.1430662043
H  H8  1  0.36755000  0.92694000  0.80020000  1.0 0.1463184667
H  H9  1  0.55939000  0.63245000  0.80020000  1.0 0.1463184667
H  H10  1  0.92694000  0.55939000  0.80020000  1.0 0.1463184667
H  H11  1  0.63245000  0.07306000  0.80020000  1.0 0.1430662043
H  H12  1  0.44061000  0.36755000  0.80020000  1.0 0.1463184667
H  H13  1  0.55939000  0.92694000  0.80020000  1.0 0.1463184667
H  H14  1  0.07306000  0.63245000  0.80020000  1.0 0.1463184667
H  H15  1  0.36755000  0.44061000  0.80020000  1.0 0.1463184667
H  H16  1  0.44061000  0.07306000  0.80020000  1.0 0.1430662043
H  H17  1  0.92694000  0.36755000  0.80020000  1.0 0.1463184667
H  H18  1  0.63245000  0.55939000  0.80020000  1.0 0.1463184667
H  H19  1  0.92694000  0.55939000  0.19980000  1.0 0.1463184667
H  H20  1  0.63245000  0.07306000  0.19980000  1.0 0.1430662043
H  H21  1  0.44061000  0.36755000  0.19980000  1.0 0.1463184667
H  H22  1  0.07306000  0.44061000  0.19980000  1.0 0.1430662043
H  H23  1  0.36755000  0.92694000  0.19980000  1.0 0.1463184667
H  H24  1  0.55939000  0.63245000  0.19980000  1.0 0.1463184667
H  H25  1  0.43775000  0.11351000  0.26996000  1.0 0.1218626488
H  H26  1  0.88649000  0.32424000  0.26996000  1.0 0.1218626488
H  H27  1  0.67576000  0.56225000  0.26996000  1.0 0.1218626488
H  H28  1  0.56225000  0.88649000  0.26996000  1.0 0.1218626488
H  H29  1  0.11351000  0.67576000  0.26996000  1.0 0.1218626488
H  H30  1  0.32424000  0.43775000  0.26996000  1.0 0.1218626488
H  H31  1  0.11351000  0.43775000  0.73004000  1.0 0.1218626488
H  H32  1  0.32424000  0.88649000  0.73004000  1.0 0.1218626488
H  H33  1  0.56225000  0.67576000  0.73004000  1.0 0.1218626488
H  H34  1  0.88649000  0.56225000  0.73004000  1.0 0.1218626488
H  H35  1  0.67576000  0.11351000  0.73004000  1.0 0.1218626488
H  H36  1  0.43775000  0.32424000  0.73004000  1.0 0.1218626488
H  H37  1  0.56225000  0.88649000  0.73004000  1.0 0.1218626488
H  H38  1  0.11351000  0.67576000  0.73004000  1.0 0.1218626488
H  H39  1  0.32424000  0.43775000  0.73004000  1.0 0.1218626488
H  H40  1  0.43775000  0.11351000  0.73004000  1.0 0.1218626488
H  H41  1  0.88649000  0.32424000  0.73004000  1.0 0.1218626488
H  H42  1  0.67576000  0.56225000  0.73004000  1.0 0.1218626488
H  H43  1  0.88649000  0.56225000  0.26996000  1.0 0.1218626488
H  H44  1  0.67576000  0.11351000  0.26996000  1.0 0.1218626488
H  H45  1  0.43775000  0.32424000  0.26996000  1.0 0.1218626488
H  H46  1  0.11351000  0.43775000  0.26996000  1.0 0.1218626488
H  H47  1  0.32424000  0.88649000  0.26996000  1.0 0.1218626488
H  H48  1  0.56225000  0.67576000  0.26996000  1.0 0.1218626488
H  H49  1  0.53194000  0.16549000  0.26824000  1.0 0.1218626488
H  H50  1  0.83451000  0.36645000  0.26824000  1.0 0.1218626488
H  H51  1  0.63355000  0.46806000  0.26824000  1.0 0.1218626488
H  H52  1  0.46806000  0.83451000  0.26824000  1.0 0.1218626488
H  H53  1  0.16549000  0.63355000  0.26824000  1.0 0.1218626488
H  H54  1  0.36645000  0.53194000  0.26824000  1.0 0.1218626488
H  H55  1  0.16549000  0.53194000  0.73176000  1.0 0.1218626488
H  H56  1  0.36645000  0.83451000  0.73176000  1.0 0.1218626488
H  H57  1  0.46806000  0.63355000  0.73176000  1.0 0.1218626488
H  H58  1  0.83451000  0.46806000  0.73176000  1.0 0.1218626488
H  H59  1  0.63355000  0.16549000  0.73176000  1.0 0.1218626488
H  H60  1  0.53194000  0.36645000  0.73176000  1.0 0.1218626488
H  H61  1  0.46806000  0.83451000  0.73176000  1.0 0.1218626488
H  H62  1  0.16549000  0.63355000  0.73176000  1.0 0.1218626488
H  H63  1  0.36645000  0.53194000  0.73176000  1.0 0.1218626488
H  H64  1  0.53194000  0.16549000  0.73176000  1.0 0.1218626488
H  H65  1  0.83451000  0.36645000  0.73176000  1.0 0.1218626488
H  H66  1  0.63355000  0.46806000  0.73176000  1.0 0.1218626488
H  H67  1  0.83451000  0.46806000  0.26824000  1.0 0.1218626488
H  H68  1  0.63355000  0.16549000  0.26824000  1.0 0.1218626488
H  H69  1  0.53194000  0.36645000  0.26824000  1.0 0.1218626488
H  H70  1  0.16549000  0.53194000  0.26824000  1.0 0.1218626488
H  H71  1  0.36645000  0.83451000  0.26824000  1.0 0.1218626488
H  H72  1  0.46806000  0.63355000  0.26824000  1.0 0.1218626488
H  H73  1  0.53466000  0.12512000  0.19834000  1.0 0.1430662043
H  H74  1  0.87488000  0.40954000  0.19834000  1.0 0.1430662043
H  H75  1  0.59046000  0.46534000  0.19834000  1.0 0.1430662043
H  H76  1  0.46534000  0.87488000  0.19834000  1.0 0.1430662043
H  H77  1  0.12512000  0.59046000  0.19834000  1.0 0.1430662043
H  H78  1  0.40954000  0.53466000  0.19834000  1.0 0.1430662043
H  H79  1  0.12512000  0.53466000  0.80166000  1.0 0.1430662043
H  H80  1  0.40954000  0.87488000  0.80166000  1.0 0.1430662043
H  H81  1  0.46534000  0.59046000  0.80166000  1.0 0.1430662043
H  H82  1  0.87488000  0.46534000  0.80166000  1.0 0.1430662043
H  H83  1  0.59046000  0.12512000  0.80166000  1.0 0.1430662043
H  H84  1  0.53466000  0.40954000  0.80166000  1.0 0.1430662043
H  H85  1  0.46534000  0.87488000  0.80166000  1.0 0.1430662043
H  H86  1  0.12512000  0.59046000  0.80166000  1.0 0.1430662043
H  H87  1  0.40954000  0.53466000  0.80166000  1.0 0.1430662043
H  H88  1  0.53466000  0.12512000  0.80166000  1.0 0.1430662043
H  H89  1  0.87488000  0.40954000  0.80166000  1.0 0.1430662043
H  H90  1  0.59046000  0.46534000  0.80166000  1.0 0.1430662043
H  H91  1  0.87488000  0.46534000  0.19834000  1.0 0.1430662043
H  H92  1  0.59046000  0.12512000  0.19834000  1.0 0.1430662043
H  H93  1  0.53466000  0.40954000  0.19834000  1.0 0.1430662043
H  H94  1  0.12512000  0.53466000  0.19834000  1.0 0.1430662043
H  H95  1  0.40954000  0.87488000  0.19834000  1.0 0.1430662043
H  H96  1  0.46534000  0.59046000  0.19834000  1.0 0.1430662043
H  H97  1  0.43601000  0.13801000  0.36467000  1.0 0.1218626488
H  H98  1  0.86199000  0.29800000  0.36467000  1.0 0.1141473905
H  H99  1  0.70200000  0.56399000  0.36467000  1.0 0.1141473905
H  H100  1  0.56399000  0.86199000  0.36467000  1.0 0.1141473905
H  H101  1  0.13801000  0.70200000  0.36467000  1.0 0.1141473905
H  H102  1  0.29800000  0.43601000  0.36467000  1.0 0.1141473905
H  H103  1  0.13801000  0.43601000  0.63533000  1.0 0.1141473905
H  H104  1  0.29800000  0.86199000  0.63533000  1.0 0.1141473905
H  H105  1  0.56399000  0.70200000  0.63533000  1.0 0.1141473905
H  H106  1  0.86199000  0.56399000  0.63533000  1.0 0.1141473905
H  H107  1  0.70200000  0.13801000  0.63533000  1.0 0.1141473905
H  H108  1  0.43601000  0.29800000  0.63533000  1.0 0.1141473905
H  H109  1  0.56399000  0.86199000  0.63533000  1.0 0.1141473905
H  H110  1  0.13801000  0.70200000  0.63533000  1.0 0.1141473905
H  H111  1  0.29800000  0.43601000  0.63533000  1.0 0.1141473905
H  H112  1  0.43601000  0.13801000  0.63533000  1.0 0.1218626488
H  H113  1  0.86199000  0.29800000  0.63533000  1.0 0.1141473905
H  H114  1  0.70200000  0.56399000  0.63533000  1.0 0.1141473905
H  H115  1  0.86199000  0.56399000  0.36467000  1.0 0.1141473905
H  H116  1  0.70200000  0.13801000  0.36467000  1.0 0.1141473905
H  H117  1  0.43601000  0.29800000  0.36467000  1.0 0.1141473905
H  H118  1  0.13801000  0.43601000  0.36467000  1.0 0.1141473905
H  H119  1  0.29800000  0.86199000  0.36467000  1.0 0.1141473905
H  H120  1  0.56399000  0.70200000  0.36467000  1.0 0.1141473905
H  H121  1  0.43356000  0.17972000  0.43466000  1.0 0.1273081248
H  H122  1  0.82028000  0.25384000  0.43466000  1.0 0.1273081248
H  H123  1  0.74616000  0.56644000  0.43466000  1.0 0.1273081248
H  H124  1  0.56644000  0.82028000  0.43466000  1.0 0.1273081248
H  H125  1  0.17972000  0.74616000  0.43466000  1.0 0.1273081248
H  H126  1  0.25384000  0.43356000  0.43466000  1.0 0.1273081248
H  H127  1  0.17972000  0.43356000  0.56534000  1.0 0.1273081248
H  H128  1  0.25384000  0.82028000  0.56534000  1.0 0.1273081248
H  H129  1  0.56644000  0.74616000  0.56534000  1.0 0.1273081248
H  H130  1  0.82028000  0.56644000  0.56534000  1.0 0.1273081248
H  H131  1  0.74616000  0.17972000  0.56534000  1.0 0.1273081248
H  H132  1  0.43356000  0.25384000  0.56534000  1.0 0.1273081248
H  H133  1  0.56644000  0.82028000  0.56534000  1.0 0.1273081248
H  H134  1  0.17972000  0.74616000  0.56534000  1.0 0.1273081248
H  H135  1  0.25384000  0.43356000  0.56534000  1.0 0.1273081248
H  H136  1  0.43356000  0.17972000  0.56534000  1.0 0.1273081248
H  H137  1  0.82028000  0.25384000  0.56534000  1.0 0.1273081248
H  H138  1  0.74616000  0.56644000  0.56534000  1.0 0.1273081248
H  H139  1  0.82028000  0.56644000  0.43466000  1.0 0.1273081248
H  H140  1  0.74616000  0.17972000  0.43466000  1.0 0.1273081248
H  H141  1  0.43356000  0.25384000  0.43466000  1.0 0.1273081248
H  H142  1  0.17972000  0.43356000  0.43466000  1.0 0.1273081248
H  H143  1  0.25384000  0.82028000  0.43466000  1.0 0.1273081248
H  H144  1  0.56644000  0.74616000  0.43466000  1.0 0.1273081248
H  H145  1  0.52103000  0.24213000  0.35603000  1.0 0.1273081248
H  H146  1  0.75787000  0.27890000  0.35603000  1.0 0.1273081248
H  H147  1  0.72110000  0.47897000  0.35603000  1.0 0.1273081248
H  H148  1  0.47897000  0.75787000  0.35603000  1.0 0.1273081248
H  H149  1  0.24213000  0.72110000  0.35603000  1.0 0.1273081248
H  H150  1  0.27890000  0.52103000  0.35603000  1.0 0.1273081248
H  H151  1  0.24213000  0.52103000  0.64397000  1.0 0.1273081248
H  H152  1  0.27890000  0.75787000  0.64397000  1.0 0.1273081248
H  H153  1  0.47897000  0.72110000  0.64397000  1.0 0.1273081248
H  H154  1  0.75787000  0.47897000  0.64397000  1.0 0.1273081248
H  H155  1  0.72110000  0.24213000  0.64397000  1.0 0.1273081248
H  H156  1  0.52103000  0.27890000  0.64397000  1.0 0.1273081248
H  H157  1  0.47897000  0.75787000  0.64397000  1.0 0.1273081248
H  H158  1  0.24213000  0.72110000  0.64397000  1.0 0.1273081248
H  H159  1  0.27890000  0.52103000  0.64397000  1.0 0.1273081248
H  H160  1  0.52103000  0.24213000  0.64397000  1.0 0.1273081248
H  H161  1  0.75787000  0.27890000  0.64397000  1.0 0.1273081248
H  H162  1  0.72110000  0.47897000  0.64397000  1.0 0.1273081248
H  H163  1  0.75787000  0.47897000  0.35603000  1.0 0.1273081248
H  H164  1  0.72110000  0.24213000  0.35603000  1.0 0.1273081248
H  H165  1  0.52103000  0.27890000  0.35603000  1.0 0.1273081248
H  H166  1  0.24213000  0.52103000  0.35603000  1.0 0.1273081248
H  H167  1  0.27890000  0.75787000  0.35603000  1.0 0.1273081248
H  H168  1  0.47897000  0.72110000  0.35603000  1.0 0.1273081248
H  H169  1  0.52505000  0.20233000  0.28588000  1.0 0.1273081248
H  H170  1  0.79767000  0.32272000  0.28588000  1.0 0.1273081248
H  H171  1  0.67728000  0.47495000  0.28588000  1.0 0.1273081248
H  H172  1  0.47495000  0.79767000  0.28588000  1.0 0.1273081248
H  H173  1  0.20233000  0.67728000  0.28588000  1.0 0.1273081248
H  H174  1  0.32272000  0.52505000  0.28588000  1.0 0.1273081248
H  H175  1  0.20233000  0.52505000  0.71412000  1.0 0.1273081248
H  H176  1  0.32272000  0.79767000  0.71412000  1.0 0.1273081248
H  H177  1  0.47495000  0.67728000  0.71412000  1.0 0.1273081248
H  H178  1  0.79767000  0.47495000  0.71412000  1.0 0.1273081248
H  H179  1  0.67728000  0.20233000  0.71412000  1.0 0.1273081248
H  H180  1  0.52505000  0.32272000  0.71412000  1.0 0.1273081248
H  H181  1  0.47495000  0.79767000  0.71412000  1.0 0.1273081248
H  H182  1  0.20233000  0.67728000  0.71412000  1.0 0.1273081248
H  H183  1  0.32272000  0.52505000  0.71412000  1.0 0.1273081248
H  H184  1  0.52505000  0.20233000  0.71412000  1.0 0.1273081248
H  H185  1  0.79767000  0.32272000  0.71412000  1.0 0.1273081248
H  H186  1  0.67728000  0.47495000  0.71412000  1.0 0.1273081248
H  H187  1  0.79767000  0.47495000  0.28588000  1.0 0.1273081248
H  H188  1  0.67728000  0.20233000  0.28588000  1.0 0.1273081248
H  H189  1  0.52505000  0.32272000  0.28588000  1.0 0.1273081248
H  H190  1  0.20233000  0.52505000  0.28588000  1.0 0.1273081248
H  H191  1  0.32272000  0.79767000  0.28588000  1.0 0.1273081248
H  H192  1  0.47495000  0.67728000  0.28588000  1.0 0.1273081248
C  C1  1  0.48970000  0.06984000  0.14833000  1.0 0.675933973
C  C2  1  0.93016000  0.41986000  0.14833000  1.0 0.675933973
C  C3  1  0.58014000  0.51030000  0.14833000  1.0 0.675933973
C  C4  1  0.51030000  0.93016000  0.14833000  1.0 0.675933973
C  C5  1  0.06984000  0.58014000  0.14833000  1.0 0.675933973
C  C6  1  0.41986000  0.48970000  0.14833000  1.0 0.675933973
C  C7  1  0.06984000  0.48970000  0.85167000  1.0 0.6738183386
C  C8  1  0.41986000  0.93016000  0.85167000  1.0 0.675933973
C  C9  1  0.51030000  0.58014000  0.85167000  1.0 0.675933973
C  C10  1  0.93016000  0.51030000  0.85167000  1.0 0.675933973
C  C11  1  0.58014000  0.06984000  0.85167000  1.0 0.675933973
C  C12  1  0.48970000  0.41986000  0.85167000  1.0 0.675933973
C  C13  1  0.51030000  0.93016000  0.85167000  1.0 0.675933973
C  C14  1  0.06984000  0.58014000  0.85167000  1.0 0.675933973
C  C15  1  0.41986000  0.48970000  0.85167000  1.0 0.675933973
C  C16  1  0.48970000  0.06984000  0.85167000  1.0 0.675933973
C  C17  1  0.93016000  0.41986000  0.85167000  1.0 0.675933973
C  C18  1  0.58014000  0.51030000  0.85167000  1.0 0.675933973
C  C19  1  0.93016000  0.51030000  0.14833000  1.0 0.675933973
C  C20  1  0.58014000  0.06984000  0.14833000  1.0 0.675933973
C  C21  1  0.48970000  0.41986000  0.14833000  1.0 0.675933973
C  C22  1  0.06984000  0.48970000  0.14833000  1.0 0.6738183386
C  C23  1  0.41986000  0.93016000  0.14833000  1.0 0.675933973
C  C24  1  0.51030000  0.58014000  0.14833000  1.0 0.675933973
C  C25  1  0.48787000  0.09579000  0.19334000  1.0 -0.0027034698
C  C26  1  0.90421000  0.39208000  0.19334000  1.0 -0.0027034698
C  C27  1  0.60792000  0.51213000  0.19334000  1.0 -0.0027034698
C  C28  1  0.51213000  0.90421000  0.19334000  1.0 -0.0027034698
C  C29  1  0.09579000  0.60792000  0.19334000  1.0 -0.0027034698
C  C30  1  0.39208000  0.48787000  0.19334000  1.0 -0.0027034698
C  C31  1  0.09579000  0.48787000  0.80666000  1.0 -0.0027034698
C  C32  1  0.39208000  0.90421000  0.80666000  1.0 -0.0027034698
C  C33  1  0.51213000  0.60792000  0.80666000  1.0 -0.0027034698
C  C34  1  0.90421000  0.51213000  0.80666000  1.0 -0.0027034698
C  C35  1  0.60792000  0.09579000  0.80666000  1.0 -0.0027034698
C  C36  1  0.48787000  0.39208000  0.80666000  1.0 -0.0027034698
C  C37  1  0.51213000  0.90421000  0.80666000  1.0 -0.0027034698
C  C38  1  0.09579000  0.60792000  0.80666000  1.0 -0.0027034698
C  C39  1  0.39208000  0.48787000  0.80666000  1.0 -0.0027034698
C  C40  1  0.48787000  0.09579000  0.80666000  1.0 -0.0027034698
C  C41  1  0.90421000  0.39208000  0.80666000  1.0 -0.0027034698
C  C42  1  0.60792000  0.51213000  0.80666000  1.0 -0.0027034698
C  C43  1  0.90421000  0.51213000  0.19334000  1.0 -0.0027034698
C  C44  1  0.60792000  0.09579000  0.19334000  1.0 -0.0027034698
C  C45  1  0.48787000  0.39208000  0.19334000  1.0 -0.0027034698
C  C46  1  0.09579000  0.48787000  0.19334000  1.0 -0.0027034698
C  C47  1  0.39208000  0.90421000  0.19334000  1.0 -0.0027034698
C  C48  1  0.51213000  0.60792000  0.19334000  1.0 -0.0027034698
C  C49  1  0.45968000  0.09241000  0.21417000  1.0 -0.0847261735
C  C50  1  0.90759000  0.36727000  0.21417000  1.0 -0.0901014517
C  C51  1  0.63273000  0.54032000  0.21417000  1.0 -0.0901014517
C  C52  1  0.54032000  0.90759000  0.21417000  1.0 -0.0901014517
C  C53  1  0.09241000  0.63273000  0.21417000  1.0 -0.0901014517
C  C54  1  0.36727000  0.45968000  0.21417000  1.0 -0.0901014517
C  C55  1  0.09241000  0.45968000  0.78583000  1.0 -0.0901014517
C  C56  1  0.36727000  0.90759000  0.78583000  1.0 -0.0901014517
C  C57  1  0.54032000  0.63273000  0.78583000  1.0 -0.0901014517
C  C58  1  0.90759000  0.54032000  0.78583000  1.0 -0.0901014517
C  C59  1  0.63273000  0.09241000  0.78583000  1.0 -0.0901014517
C  C60  1  0.45968000  0.36727000  0.78583000  1.0 -0.0901014517
C  C61  1  0.54032000  0.90759000  0.78583000  1.0 -0.0901014517
C  C62  1  0.09241000  0.63273000  0.78583000  1.0 -0.0901014517
C  C63  1  0.36727000  0.45968000  0.78583000  1.0 -0.0901014517
C  C64  1  0.45968000  0.09241000  0.78583000  1.0 -0.0847261735
C  C65  1  0.90759000  0.36727000  0.78583000  1.0 -0.0901014517
C  C66  1  0.63273000  0.54032000  0.78583000  1.0 -0.0901014517
C  C67  1  0.90759000  0.54032000  0.21417000  1.0 -0.0901014517
C  C68  1  0.63273000  0.09241000  0.21417000  1.0 -0.0901014517
C  C69  1  0.45968000  0.36727000  0.21417000  1.0 -0.0901014517
C  C70  1  0.09241000  0.45968000  0.21417000  1.0 -0.0901014517
C  C71  1  0.36727000  0.90759000  0.21417000  1.0 -0.0901014517
C  C72  1  0.54032000  0.63273000  0.21417000  1.0 -0.0901014517
C  C73  1  0.45802000  0.11594000  0.25498000  1.0 -0.1285332823
C  C74  1  0.88406000  0.34208000  0.25498000  1.0 -0.1285332823
C  C75  1  0.65792000  0.54198000  0.25498000  1.0 -0.1285332823
C  C76  1  0.54198000  0.88406000  0.25498000  1.0 -0.1285332823
C  C77  1  0.11594000  0.65792000  0.25498000  1.0 -0.1285332823
C  C78  1  0.34208000  0.45802000  0.25498000  1.0 -0.1285332823
C  C79  1  0.11594000  0.45802000  0.74502000  1.0 -0.1285332823
C  C80  1  0.34208000  0.88406000  0.74502000  1.0 -0.1285332823
C  C81  1  0.54198000  0.65792000  0.74502000  1.0 -0.1285332823
C  C82  1  0.88406000  0.54198000  0.74502000  1.0 -0.1285332823
C  C83  1  0.65792000  0.11594000  0.74502000  1.0 -0.1285332823
C  C84  1  0.45802000  0.34208000  0.74502000  1.0 -0.1285332823
C  C85  1  0.54198000  0.88406000  0.74502000  1.0 -0.1285332823
C  C86  1  0.11594000  0.65792000  0.74502000  1.0 -0.1285332823
C  C87  1  0.34208000  0.45802000  0.74502000  1.0 -0.1285332823
C  C88  1  0.45802000  0.11594000  0.74502000  1.0 -0.1285332823
C  C89  1  0.88406000  0.34208000  0.74502000  1.0 -0.1285332823
C  C90  1  0.65792000  0.54198000  0.74502000  1.0 -0.1285332823
C  C91  1  0.88406000  0.54198000  0.25498000  1.0 -0.1285332823
C  C92  1  0.65792000  0.11594000  0.25498000  1.0 -0.1285332823
C  C93  1  0.45802000  0.34208000  0.25498000  1.0 -0.1285332823
C  C94  1  0.11594000  0.45802000  0.25498000  1.0 -0.1285332823
C  C95  1  0.34208000  0.88406000  0.25498000  1.0 -0.1285332823
C  C96  1  0.54198000  0.65792000  0.25498000  1.0 -0.1285332823
C  C97  1  0.48417000  0.14309000  0.27572000  1.0 0.0913507702
C  C98  1  0.85691000  0.34108000  0.27572000  1.0 0.0913507702
C  C99  1  0.65892000  0.51583000  0.27572000  1.0 0.0913507702
C  C100  1  0.51583000  0.85691000  0.27572000  1.0 0.0913507702
C  C101  1  0.14309000  0.65892000  0.27572000  1.0 0.0913507702
C  C102  1  0.34108000  0.48417000  0.27572000  1.0 0.0913507702
C  C103  1  0.14309000  0.48417000  0.72428000  1.0 0.0913507702
C  C104  1  0.34108000  0.85691000  0.72428000  1.0 0.0913507702
C  C105  1  0.51583000  0.65892000  0.72428000  1.0 0.0913507702
C  C106  1  0.85691000  0.51583000  0.72428000  1.0 0.0913507702
C  C107  1  0.65892000  0.14309000  0.72428000  1.0 0.0913507702
C  C108  1  0.48417000  0.34108000  0.72428000  1.0 0.0913507702
C  C109  1  0.51583000  0.85691000  0.72428000  1.0 0.0913507702
C  C110  1  0.14309000  0.65892000  0.72428000  1.0 0.0913507702
C  C111  1  0.34108000  0.48417000  0.72428000  1.0 0.0913507702
C  C112  1  0.48417000  0.14309000  0.72428000  1.0 0.0913507702
C  C113  1  0.85691000  0.34108000  0.72428000  1.0 0.0913507702
C  C114  1  0.65892000  0.51583000  0.72428000  1.0 0.0913507702
C  C115  1  0.85691000  0.51583000  0.27572000  1.0 0.0913507702
C  C116  1  0.65892000  0.14309000  0.27572000  1.0 0.0913507702
C  C117  1  0.48417000  0.34108000  0.27572000  1.0 0.0913507702
C  C118  1  0.14309000  0.48417000  0.27572000  1.0 0.0913507702
C  C119  1  0.34108000  0.85691000  0.27572000  1.0 0.0913507702
C  C120  1  0.51583000  0.65892000  0.27572000  1.0 0.0913507702
C  C121  1  0.51273000  0.14622000  0.25413000  1.0 -0.1400859462
C  C122  1  0.85378000  0.36651000  0.25413000  1.0 -0.1400859462
C  C123  1  0.63349000  0.48727000  0.25413000  1.0 -0.1400859462
C  C124  1  0.48727000  0.85378000  0.25413000  1.0 -0.1400859462
C  C125  1  0.14622000  0.63349000  0.25413000  1.0 -0.1400859462
C  C126  1  0.36651000  0.51273000  0.25413000  1.0 -0.1400859462
C  C127  1  0.14622000  0.51273000  0.74587000  1.0 -0.1400859462
C  C128  1  0.36651000  0.85378000  0.74587000  1.0 -0.1400859462
C  C129  1  0.48727000  0.63349000  0.74587000  1.0 -0.1400859462
C  C130  1  0.85378000  0.48727000  0.74587000  1.0 -0.1400859462
C  C131  1  0.63349000  0.14622000  0.74587000  1.0 -0.1400859462
C  C132  1  0.51273000  0.36651000  0.74587000  1.0 -0.1400859462
C  C133  1  0.48727000  0.85378000  0.74587000  1.0 -0.1400859462
C  C134  1  0.14622000  0.63349000  0.74587000  1.0 -0.1400859462
C  C135  1  0.36651000  0.51273000  0.74587000  1.0 -0.1400859462
C  C136  1  0.51273000  0.14622000  0.74587000  1.0 -0.1400859462
C  C137  1  0.85378000  0.36651000  0.74587000  1.0 -0.1400859462
C  C138  1  0.63349000  0.48727000  0.74587000  1.0 -0.1400859462
C  C139  1  0.85378000  0.48727000  0.25413000  1.0 -0.1400859462
C  C140  1  0.63349000  0.14622000  0.25413000  1.0 -0.1400859462
C  C141  1  0.51273000  0.36651000  0.25413000  1.0 -0.1400859462
C  C142  1  0.14622000  0.51273000  0.25413000  1.0 -0.1400859462
C  C143  1  0.36651000  0.85378000  0.25413000  1.0 -0.1400859462
C  C144  1  0.48727000  0.63349000  0.25413000  1.0 -0.1400859462
C  C145  1  0.51439000  0.12269000  0.21332000  1.0 -0.0901014517
C  C146  1  0.87731000  0.39170000  0.21332000  1.0 -0.0901014517
C  C147  1  0.60830000  0.48561000  0.21332000  1.0 -0.0901014517
C  C148  1  0.48561000  0.87731000  0.21332000  1.0 -0.0901014517
C  C149  1  0.12269000  0.60830000  0.21332000  1.0 -0.0901014517
C  C150  1  0.39170000  0.51439000  0.21332000  1.0 -0.0901014517
C  C151  1  0.12269000  0.51439000  0.78668000  1.0 -0.0901014517
C  C152  1  0.39170000  0.87731000  0.78668000  1.0 -0.0901014517
C  C153  1  0.48561000  0.60830000  0.78668000  1.0 -0.0901014517
C  C154  1  0.87731000  0.48561000  0.78668000  1.0 -0.0901014517
C  C155  1  0.60830000  0.12269000  0.78668000  1.0 -0.0901014517
C  C156  1  0.51439000  0.39170000  0.78668000  1.0 -0.0901014517
C  C157  1  0.48561000  0.87731000  0.78668000  1.0 -0.0901014517
C  C158  1  0.12269000  0.60830000  0.78668000  1.0 -0.0901014517
C  C159  1  0.39170000  0.51439000  0.78668000  1.0 -0.0901014517
C  C160  1  0.51439000  0.12269000  0.78668000  1.0 -0.0901014517
C  C161  1  0.87731000  0.39170000  0.78668000  1.0 -0.0901014517
C  C162  1  0.60830000  0.48561000  0.78668000  1.0 -0.0901014517
C  C163  1  0.87731000  0.48561000  0.21332000  1.0 -0.0901014517
C  C164  1  0.60830000  0.12269000  0.21332000  1.0 -0.0901014517
C  C165  1  0.51439000  0.39170000  0.21332000  1.0 -0.0901014517
C  C166  1  0.12269000  0.51439000  0.21332000  1.0 -0.0901014517
C  C167  1  0.39170000  0.87731000  0.21332000  1.0 -0.0901014517
C  C168  1  0.48561000  0.60830000  0.21332000  1.0 -0.0901014517
C  C169  1  0.48165000  0.16790000  0.31947000  1.0 0.0808468342
C  C170  1  0.83210000  0.31375000  0.31947000  1.0 0.0808468342
C  C171  1  0.68625000  0.51835000  0.31947000  1.0 0.0808468342
C  C172  1  0.51835000  0.83210000  0.31947000  1.0 0.0808468342
C  C173  1  0.16790000  0.68625000  0.31947000  1.0 0.0808468342
C  C174  1  0.31375000  0.48165000  0.31947000  1.0 0.0808468342
C  C175  1  0.16790000  0.48165000  0.68053000  1.0 0.0808468342
C  C176  1  0.31375000  0.83210000  0.68053000  1.0 0.0808468342
C  C177  1  0.51835000  0.68625000  0.68053000  1.0 0.0808468342
C  C178  1  0.83210000  0.51835000  0.68053000  1.0 0.0808468342
C  C179  1  0.68625000  0.16790000  0.68053000  1.0 0.0808468342
C  C180  1  0.48165000  0.31375000  0.68053000  1.0 0.0808468342
C  C181  1  0.51835000  0.83210000  0.68053000  1.0 0.0808468342
C  C182  1  0.16790000  0.68625000  0.68053000  1.0 0.0808468342
C  C183  1  0.31375000  0.48165000  0.68053000  1.0 0.0808468342
C  C184  1  0.48165000  0.16790000  0.68053000  1.0 0.0808468342
C  C185  1  0.83210000  0.31375000  0.68053000  1.0 0.0808468342
C  C186  1  0.68625000  0.51835000  0.68053000  1.0 0.0808468342
C  C187  1  0.83210000  0.51835000  0.31947000  1.0 0.0808468342
C  C188  1  0.68625000  0.16790000  0.31947000  1.0 0.0808468342
C  C189  1  0.48165000  0.31375000  0.31947000  1.0 0.0808468342
C  C190  1  0.16790000  0.48165000  0.31947000  1.0 0.0808468342
C  C191  1  0.31375000  0.83210000  0.31947000  1.0 0.0808468342
C  C192  1  0.51835000  0.68625000  0.31947000  1.0 0.0808468342
C  C193  1  0.45505000  0.16133000  0.36274000  1.0 -0.1019282199
C  C194  1  0.83867000  0.29372000  0.36274000  1.0 -0.1019282199
C  C195  1  0.70628000  0.54495000  0.36274000  1.0 -0.1019282199
C  C196  1  0.54495000  0.83867000  0.36274000  1.0 -0.1019282199
C  C197  1  0.16133000  0.70628000  0.36274000  1.0 -0.1019282199
C  C198  1  0.29372000  0.45505000  0.36274000  1.0 -0.1019282199
C  C199  1  0.16133000  0.45505000  0.63726000  1.0 -0.1019282199
C  C200  1  0.29372000  0.83867000  0.63726000  1.0 -0.1019282199
C  C201  1  0.54495000  0.70628000  0.63726000  1.0 -0.1019282199
C  C202  1  0.83867000  0.54495000  0.63726000  1.0 -0.1019282199
C  C203  1  0.70628000  0.16133000  0.63726000  1.0 -0.1019282199
C  C204  1  0.45505000  0.29372000  0.63726000  1.0 -0.1019282199
C  C205  1  0.54495000  0.83867000  0.63726000  1.0 -0.1019282199
C  C206  1  0.16133000  0.70628000  0.63726000  1.0 -0.1019282199
C  C207  1  0.29372000  0.45505000  0.63726000  1.0 -0.1019282199
C  C208  1  0.45505000  0.16133000  0.63726000  1.0 -0.1019282199
C  C209  1  0.83867000  0.29372000  0.63726000  1.0 -0.1019282199
C  C210  1  0.70628000  0.54495000  0.63726000  1.0 -0.1019282199
C  C211  1  0.83867000  0.54495000  0.36274000  1.0 -0.1019282199
C  C212  1  0.70628000  0.16133000  0.36274000  1.0 -0.1019282199
C  C213  1  0.45505000  0.29372000  0.36274000  1.0 -0.1019282199
C  C214  1  0.16133000  0.45505000  0.36274000  1.0 -0.1019282199
C  C215  1  0.29372000  0.83867000  0.36274000  1.0 -0.1019282199
C  C216  1  0.54495000  0.70628000  0.36274000  1.0 -0.1019282199
C  C217  1  0.45271000  0.18448000  0.40355000  1.0 -0.1400859462
C  C218  1  0.81552000  0.26823000  0.40355000  1.0 -0.1400859462
C  C219  1  0.73177000  0.54729000  0.40355000  1.0 -0.1400859462
C  C220  1  0.54729000  0.81552000  0.40355000  1.0 -0.1400859462
C  C221  1  0.18448000  0.73177000  0.40355000  1.0 -0.1400859462
C  C222  1  0.26823000  0.45271000  0.40355000  1.0 -0.1400859462
C  C223  1  0.18448000  0.45271000  0.59645000  1.0 -0.1400859462
C  C224  1  0.26823000  0.81552000  0.59645000  1.0 -0.1400859462
C  C225  1  0.54729000  0.73177000  0.59645000  1.0 -0.1400859462
C  C226  1  0.81552000  0.54729000  0.59645000  1.0 -0.1400859462
C  C227  1  0.73177000  0.18448000  0.59645000  1.0 -0.1400859462
C  C228  1  0.45271000  0.26823000  0.59645000  1.0 -0.1400859462
C  C229  1  0.54729000  0.81552000  0.59645000  1.0 -0.1400859462
C  C230  1  0.18448000  0.73177000  0.59645000  1.0 -0.1400859462
C  C231  1  0.26823000  0.45271000  0.59645000  1.0 -0.1400859462
C  C232  1  0.45271000  0.18448000  0.59645000  1.0 -0.1400859462
C  C233  1  0.81552000  0.26823000  0.59645000  1.0 -0.1400859462
C  C234  1  0.73177000  0.54729000  0.59645000  1.0 -0.1400859462
C  C235  1  0.81552000  0.54729000  0.40355000  1.0 -0.1400859462
C  C236  1  0.73177000  0.18448000  0.40355000  1.0 -0.1400859462
C  C237  1  0.45271000  0.26823000  0.40355000  1.0 -0.1400859462
C  C238  1  0.18448000  0.45271000  0.40355000  1.0 -0.1400859462
C  C239  1  0.26823000  0.81552000  0.40355000  1.0 -0.1400859462
C  C240  1  0.54729000  0.73177000  0.40355000  1.0 -0.1400859462
C  C241  1  0.47694000  0.21420000  0.40116000  1.0 0.1013760566
C  C242  1  0.78580000  0.26274000  0.40116000  1.0 0.1013760566
C  C243  1  0.73726000  0.52306000  0.40116000  1.0 0.1013760566
C  C244  1  0.52306000  0.78580000  0.40116000  1.0 0.1013760566
C  C245  1  0.21420000  0.73726000  0.40116000  1.0 0.1013760566
C  C246  1  0.26274000  0.47694000  0.40116000  1.0 0.1013760566
C  C247  1  0.21420000  0.47694000  0.59884000  1.0 0.1013760566
C  C248  1  0.26274000  0.78580000  0.59884000  1.0 0.1013760566
C  C249  1  0.52306000  0.73726000  0.59884000  1.0 0.1013760566
C  C250  1  0.78580000  0.52306000  0.59884000  1.0 0.1013760566
C  C251  1  0.73726000  0.21420000  0.59884000  1.0 0.1013760566
C  C252  1  0.47694000  0.26274000  0.59884000  1.0 0.1013760566
C  C253  1  0.52306000  0.78580000  0.59884000  1.0 0.1013760566
C  C254  1  0.21420000  0.73726000  0.59884000  1.0 0.1013760566
C  C255  1  0.26274000  0.47694000  0.59884000  1.0 0.1013760566
C  C256  1  0.47694000  0.21420000  0.59884000  1.0 0.1013760566
C  C257  1  0.78580000  0.26274000  0.59884000  1.0 0.1013760566
C  C258  1  0.73726000  0.52306000  0.59884000  1.0 0.1013760566
C  C259  1  0.78580000  0.52306000  0.40116000  1.0 0.1013760566
C  C260  1  0.73726000  0.21420000  0.40116000  1.0 0.1013760566
C  C261  1  0.47694000  0.26274000  0.40116000  1.0 0.1013760566
C  C262  1  0.21420000  0.47694000  0.40116000  1.0 0.1013760566
C  C263  1  0.26274000  0.78580000  0.40116000  1.0 0.1013760566
C  C264  1  0.52306000  0.73726000  0.40116000  1.0 0.1013760566
C  C265  1  0.50357000  0.22076000  0.35782000  1.0 -0.1285332823
C  C266  1  0.77924000  0.28281000  0.35782000  1.0 -0.1285332823
C  C267  1  0.71719000  0.49643000  0.35782000  1.0 -0.1285332823
C  C268  1  0.49643000  0.77924000  0.35782000  1.0 -0.1285332823
C  C269  1  0.22076000  0.71719000  0.35782000  1.0 -0.1285332823
C  C270  1  0.28281000  0.50357000  0.35782000  1.0 -0.1285332823
C  C271  1  0.22076000  0.50357000  0.64218000  1.0 -0.1285332823
C  C272  1  0.28281000  0.77924000  0.64218000  1.0 -0.1285332823
C  C273  1  0.49643000  0.71719000  0.64218000  1.0 -0.1285332823
C  C274  1  0.77924000  0.49643000  0.64218000  1.0 -0.1285332823
C  C275  1  0.71719000  0.22076000  0.64218000  1.0 -0.1285332823
C  C276  1  0.50357000  0.28281000  0.64218000  1.0 -0.1285332823
C  C277  1  0.49643000  0.77924000  0.64218000  1.0 -0.1285332823
C  C278  1  0.22076000  0.71719000  0.64218000  1.0 -0.1285332823
C  C279  1  0.28281000  0.50357000  0.64218000  1.0 -0.1285332823
C  C280  1  0.50357000  0.22076000  0.64218000  1.0 -0.1285332823
C  C281  1  0.77924000  0.28281000  0.64218000  1.0 -0.1285332823
C  C282  1  0.71719000  0.49643000  0.64218000  1.0 -0.1285332823
C  C283  1  0.77924000  0.49643000  0.35782000  1.0 -0.1285332823
C  C284  1  0.71719000  0.22076000  0.35782000  1.0 -0.1285332823
C  C285  1  0.50357000  0.28281000  0.35782000  1.0 -0.1285332823
C  C286  1  0.22076000  0.50357000  0.35782000  1.0 -0.1285332823
C  C287  1  0.28281000  0.77924000  0.35782000  1.0 -0.1285332823
C  C288  1  0.49643000  0.71719000  0.35782000  1.0 -0.1285332823
C  C289  1  0.50591000  0.19761000  0.31701000  1.0 -0.1285332823
C  C290  1  0.80239000  0.30830000  0.31701000  1.0 -0.1285332823
C  C291  1  0.69170000  0.49409000  0.31701000  1.0 -0.1285332823
C  C292  1  0.49409000  0.80239000  0.31701000  1.0 -0.1285332823
C  C293  1  0.19761000  0.69170000  0.31701000  1.0 -0.1285332823
C  C294  1  0.30830000  0.50591000  0.31701000  1.0 -0.1285332823
C  C295  1  0.19761000  0.50591000  0.68299000  1.0 -0.1285332823
C  C296  1  0.30830000  0.80239000  0.68299000  1.0 -0.1285332823
C  C297  1  0.49409000  0.69170000  0.68299000  1.0 -0.1285332823
C  C298  1  0.80239000  0.49409000  0.68299000  1.0 -0.1285332823
C  C299  1  0.69170000  0.19761000  0.68299000  1.0 -0.1285332823
C  C300  1  0.50591000  0.30830000  0.68299000  1.0 -0.1285332823
C  C301  1  0.49409000  0.80239000  0.68299000  1.0 -0.1285332823
C  C302  1  0.19761000  0.69170000  0.68299000  1.0 -0.1285332823
C  C303  1  0.30830000  0.50591000  0.68299000  1.0 -0.1285332823
C  C304  1  0.50591000  0.19761000  0.68299000  1.0 -0.1285332823
C  C305  1  0.80239000  0.30830000  0.68299000  1.0 -0.1285332823
C  C306  1  0.69170000  0.49409000  0.68299000  1.0 -0.1285332823
C  C307  1  0.80239000  0.49409000  0.31701000  1.0 -0.1285332823
C  C308  1  0.69170000  0.19761000  0.31701000  1.0 -0.1285332823
C  C309  1  0.50591000  0.30830000  0.31701000  1.0 -0.1285332823
C  C310  1  0.19761000  0.50591000  0.31701000  1.0 -0.1285332823
C  C311  1  0.30830000  0.80239000  0.31701000  1.0 -0.1285332823
C  C312  1  0.49409000  0.69170000  0.31701000  1.0 -0.1285332823
C  C313  1  0.47882000  0.23941000  0.45645000  1.0 -0.010092731
C  C314  1  0.76059000  0.23941000  0.45645000  1.0 -0.010092731
C  C315  1  0.76059000  0.52118000  0.45645000  1.0 -0.010092731
C  C316  1  0.52118000  0.76059000  0.45645000  1.0 -0.010092731
C  C317  1  0.23941000  0.76059000  0.45645000  1.0 -0.010092731
C  C318  1  0.23941000  0.47882000  0.45645000  1.0 -0.010092731
C  C319  1  0.23941000  0.47882000  0.54355000  1.0 -0.010092731
C  C320  1  0.23941000  0.76059000  0.54355000  1.0 -0.010092731
C  C321  1  0.52118000  0.76059000  0.54355000  1.0 -0.010092731
C  C322  1  0.76059000  0.52118000  0.54355000  1.0 -0.010092731
C  C323  1  0.76059000  0.23941000  0.54355000  1.0 -0.010092731
C  C324  1  0.47882000  0.23941000  0.54355000  1.0 -0.010092731
O  O1  1  0.47277000  0.00000000  0.25262000  1.0 -0.5814874774
O  O2  1  0.00000000  0.47277000  0.25262000  1.0 -0.5814874774
O  O3  1  0.52723000  0.52723000  0.25262000  1.0 -0.5814874774
O  O4  1  0.52723000  0.00000000  0.25262000  1.0 -0.5814874774
O  O5  1  0.00000000  0.52723000  0.25262000  1.0 -0.5814874774
O  O6  1  0.47277000  0.47277000  0.25262000  1.0 -0.5814874774
O  O7  1  0.00000000  0.47277000  0.74738000  1.0 -0.5814874774
O  O8  1  0.47277000  0.00000000  0.74738000  1.0 -0.5814874774
O  O9  1  0.52723000  0.52723000  0.74738000  1.0 -0.5814874774
O  O10  1  0.00000000  0.52723000  0.74738000  1.0 -0.5814874774
O  O11  1  0.52723000  0.00000000  0.74738000  1.0 -0.5814874774
O  O12  1  0.47277000  0.47277000  0.74738000  1.0 -0.5814874774
O  O13  1  0.51512000  0.03024000  0.12322000  1.0 -1.1411402616
O  O14  1  0.96976000  0.48488000  0.12322000  1.0 -1.1473880693
O  O15  1  0.51512000  0.48488000  0.12322000  1.0 -1.1411402616
O  O16  1  0.48488000  0.96976000  0.12322000  1.0 -1.1411402616
O  O17  1  0.03024000  0.51512000  0.12322000  1.0 -1.1473880693
O  O18  1  0.48488000  0.51512000  0.12322000  1.0 -1.1473880693
O  O19  1  0.03024000  0.51512000  0.87678000  1.0 -1.1473880693
O  O20  1  0.48488000  0.96976000  0.87678000  1.0 -1.1411402616
O  O21  1  0.48488000  0.51512000  0.87678000  1.0 -1.1473880693
O  O22  1  0.96976000  0.48488000  0.87678000  1.0 -1.1473880693
O  O23  1  0.51512000  0.03024000  0.87678000  1.0 -1.1411402616
O  O24  1  0.51512000  0.48488000  0.87678000  1.0 -1.1411402616
O  O25  1  0.47787000  0.02895000  0.00000000  1.0 -1.1473880693
O  O26  1  0.97105000  0.44892000  0.00000000  1.0 -1.1411402616
O  O27  1  0.55108000  0.52213000  0.00000000  1.0 -1.1411402616
O  O28  1  0.52213000  0.97105000  0.00000000  1.0 -1.1411402616
O  O29  1  0.02895000  0.55108000  0.00000000  1.0 -1.1411402616
O  O30  1  0.44892000  0.47787000  0.00000000  1.0 -1.1411402616
O  O31  1  0.02895000  0.47787000  0.00000000  1.0 -1.1411402616
O  O32  1  0.44892000  0.97105000  0.00000000  1.0 -1.1411402616
O  O33  1  0.52213000  0.55108000  0.00000000  1.0 -1.1349008792
O  O34  1  0.97105000  0.52213000  0.00000000  1.0 -1.1349008792
O  O35  1  0.55108000  0.02895000  0.00000000  1.0 -1.1411402616
O  O36  1  0.47787000  0.44892000  0.00000000  1.0 -1.1411402616
O  O37  1  0.42212000  0.00000000  0.09880000  1.0 -0.5682924231
O  O38  1  0.00000000  0.42212000  0.09880000  1.0 -0.5682924231
O  O39  1  0.57788000  0.57788000  0.09880000  1.0 -0.587769443
O  O40  1  0.57788000  0.00000000  0.09880000  1.0 -0.5682924231
O  O41  1  0.00000000  0.57788000  0.09880000  1.0 -0.587769443
O  O42  1  0.42212000  0.42212000  0.09880000  1.0 -0.5814874774
O  O43  1  0.00000000  0.42212000  0.90120000  1.0 -0.5682924231
O  O44  1  0.42212000  0.00000000  0.90120000  1.0 -0.5682924231
O  O45  1  0.57788000  0.57788000  0.90120000  1.0 -0.587769443
O  O46  1  0.00000000  0.57788000  0.90120000  1.0 -0.587769443
O  O47  1  0.57788000  0.00000000  0.90120000  1.0 -0.5682924231
O  O48  1  0.42212000  0.42212000  0.90120000  1.0 -0.5814874774
O  O49  1  0.51047000  0.07494000  0.09308000  1.0 -0.5682924231
O  O50  1  0.92506000  0.43553000  0.09308000  1.0 -0.5646738448
O  O51  1  0.56447000  0.48953000  0.09308000  1.0 -0.5646738448
O  O52  1  0.48953000  0.92506000  0.09308000  1.0 -0.5682924231
O  O53  1  0.07494000  0.56447000  0.09308000  1.0 -0.5682924231
O  O54  1  0.43553000  0.51047000  0.09308000  1.0 -0.5682924231
O  O55  1  0.07494000  0.51047000  0.90692000  1.0 -0.5682924231
O  O56  1  0.43553000  0.92506000  0.90692000  1.0 -0.5682924231
O  O57  1  0.48953000  0.56447000  0.90692000  1.0 -0.5646738448
O  O58  1  0.92506000  0.48953000  0.90692000  1.0 -0.5646738448
O  O59  1  0.56447000  0.07494000  0.90692000  1.0 -0.5682924231
O  O60  1  0.51047000  0.43553000  0.90692000  1.0 -0.5682924231
O  O61  1  0.48953000  0.92506000  0.90692000  1.0 -0.5682924231
O  O62  1  0.07494000  0.56447000  0.90692000  1.0 -0.5682924231
O  O63  1  0.43553000  0.51047000  0.90692000  1.0 -0.5682924231
O  O64  1  0.51047000  0.07494000  0.90692000  1.0 -0.5682924231
O  O65  1  0.92506000  0.43553000  0.90692000  1.0 -0.5646738448
O  O66  1  0.56447000  0.48953000  0.90692000  1.0 -0.5646738448
O  O67  1  0.92506000  0.48953000  0.09308000  1.0 -0.5646738448
O  O68  1  0.56447000  0.07494000  0.09308000  1.0 -0.5682924231
O  O69  1  0.51047000  0.43553000  0.09308000  1.0 -0.5682924231
O  O70  1  0.07494000  0.51047000  0.09308000  1.0 -0.5682924231
O  O71  1  0.43553000  0.92506000  0.09308000  1.0 -0.5682924231
O  O72  1  0.48953000  0.56447000  0.09308000  1.0 -0.5646738448
O  O73  1  0.47000000  0.04220000  0.16605000  1.0 -0.5814874774
O  O74  1  0.95780000  0.42780000  0.16605000  1.0 -0.587769443
O  O75  1  0.57220000  0.53000000  0.16605000  1.0 -0.587769443
O  O76  1  0.53000000  0.95780000  0.16605000  1.0 -0.5814874774
O  O77  1  0.04220000  0.57220000  0.16605000  1.0 -0.587769443
O  O78  1  0.42780000  0.47000000  0.16605000  1.0 -0.5814874774
O  O79  1  0.04220000  0.47000000  0.83395000  1.0 -0.5814874774
O  O80  1  0.42780000  0.95780000  0.83395000  1.0 -0.5814874774
O  O81  1  0.53000000  0.57220000  0.83395000  1.0 -0.587769443
O  O82  1  0.95780000  0.53000000  0.83395000  1.0 -0.587769443
O  O83  1  0.57220000  0.04220000  0.83395000  1.0 -0.5814874774
O  O84  1  0.47000000  0.42780000  0.83395000  1.0 -0.5814874774
O  O85  1  0.53000000  0.95780000  0.83395000  1.0 -0.5814874774
O  O86  1  0.04220000  0.57220000  0.83395000  1.0 -0.587769443
O  O87  1  0.42780000  0.47000000  0.83395000  1.0 -0.5814874774
O  O88  1  0.47000000  0.04220000  0.83395000  1.0 -0.5814874774
O  O89  1  0.95780000  0.42780000  0.83395000  1.0 -0.587769443
O  O90  1  0.57220000  0.53000000  0.83395000  1.0 -0.587769443
O  O91  1  0.95780000  0.53000000  0.16605000  1.0 -0.587769443
O  O92  1  0.57220000  0.04220000  0.16605000  1.0 -0.5814874774
O  O93  1  0.47000000  0.42780000  0.16605000  1.0 -0.5814874774
O  O94  1  0.04220000  0.47000000  0.16605000  1.0 -0.5814874774
O  O95  1  0.42780000  0.95780000  0.16605000  1.0 -0.5814874774
O  O96  1  0.53000000  0.57220000  0.16605000  1.0 -0.587769443
