# DDEC6 charges by PACMAN v1.1 (https://github.com/mtap-research/PACMAN-charge/)
data_BUPFEY_ion_pacman
_symmetry_space_group_name_H-M   'P 1'
_cell_length_a   25.90050000
_cell_length_b   25.90050000
_cell_length_c   25.90050000
_cell_angle_alpha   60.00000000
_cell_angle_beta   60.00000000
_cell_angle_gamma   60.00000000
_symmetry_Int_Tables_number   1
_chemical_formula_structural   Cu31H72C48S28I4(N6O)16
_chemical_formula_sum   'Cu62 H144 C96 S56 I8 N192 O32'
_cell_volume   12285.96988228
_cell_formula_units_Z   2
loop_
 _symmetry_equiv_pos_site_id
 _symmetry_equiv_pos_as_xyz
  1  'x, y, z'
loop_
 _atom_site_type_symbol
 _atom_site_label
 _atom_site_symmetry_multiplicity
 _atom_site_fract_x
 _atom_site_fract_y
 _atom_site_fract_z
 _atom_site_occupancy
 _atom_site_charge
Cu  Cu1  1  0.43743000  0.85419000  0.85419000  1.0 0.2243103237
Cu  Cu2  1  0.85419000  0.43743000  0.85419000  1.0 0.2243103237
Cu  Cu3  1  0.85419000  0.85419000  0.43743000  1.0 0.2243103237
Cu  Cu4  1  0.85419000  0.85419000  0.85419000  1.0 0.2243103237
Cu  Cu5  1  0.35419000  0.93743000  0.35419000  1.0 0.2243103237
Cu  Cu6  1  0.93743000  0.35419000  0.35419000  1.0 0.2243103237
Cu  Cu7  1  0.35419000  0.35419000  0.93743000  1.0 0.2243103237
Cu  Cu8  1  0.35419000  0.35419000  0.35419000  1.0 0.2243103237
Cu  Cu9  1  0.36461000  0.80511000  0.97653000  1.0 0.2722982225
Cu  Cu10  1  0.80511000  0.36461000  0.85375000  1.0 0.2722982225
Cu  Cu11  1  0.97653000  0.85375000  0.36461000  1.0 0.2722982225
Cu  Cu12  1  0.85375000  0.97653000  0.80511000  1.0 0.2722982225
Cu  Cu13  1  0.97653000  0.36461000  0.80511000  1.0 0.2722982225
Cu  Cu14  1  0.85375000  0.80511000  0.36461000  1.0 0.2722982225
Cu  Cu15  1  0.36461000  0.97653000  0.85375000  1.0 0.2722982225
Cu  Cu16  1  0.80511000  0.85375000  0.97653000  1.0 0.2722982225
Cu  Cu17  1  0.80511000  0.97653000  0.36461000  1.0 0.2722982225
Cu  Cu18  1  0.36461000  0.85375000  0.80511000  1.0 0.2722982225
Cu  Cu19  1  0.85375000  0.36461000  0.97653000  1.0 0.2722982225
Cu  Cu20  1  0.97653000  0.80511000  0.85375000  1.0 0.2722982225
Cu  Cu21  1  0.30511000  0.86461000  0.47653000  1.0 0.2722982225
Cu  Cu22  1  0.86461000  0.30511000  0.35375000  1.0 0.2722982225
Cu  Cu23  1  0.35375000  0.47653000  0.86461000  1.0 0.2722982225
Cu  Cu24  1  0.47653000  0.35375000  0.30511000  1.0 0.2722982225
Cu  Cu25  1  0.86461000  0.47653000  0.30511000  1.0 0.2722982225
Cu  Cu26  1  0.30511000  0.35375000  0.86461000  1.0 0.2722982225
Cu  Cu27  1  0.47653000  0.86461000  0.35375000  1.0 0.2722982225
Cu  Cu28  1  0.35375000  0.30511000  0.47653000  1.0 0.2722982225
Cu  Cu29  1  0.47653000  0.30511000  0.86461000  1.0 0.2722982225
Cu  Cu30  1  0.35375000  0.86461000  0.30511000  1.0 0.2722982225
Cu  Cu31  1  0.86461000  0.35375000  0.47653000  1.0 0.2722982225
Cu  Cu32  1  0.30511000  0.47653000  0.35375000  1.0 0.2722982225
Cu  Cu33  1  0.33296000  0.77614000  0.13020000  1.0 0.2916348323
Cu  Cu34  1  0.77614000  0.33296000  0.76070000  1.0 0.2916348323
Cu  Cu35  1  0.13020000  0.76070000  0.33296000  1.0 0.2916348323
Cu  Cu36  1  0.76070000  0.13020000  0.77614000  1.0 0.2916348323
Cu  Cu37  1  0.13020000  0.33296000  0.77614000  1.0 0.2916348323
Cu  Cu38  1  0.76070000  0.77614000  0.33296000  1.0 0.2916348323
Cu  Cu39  1  0.33296000  0.13020000  0.76070000  1.0 0.2916348323
Cu  Cu40  1  0.77614000  0.76070000  0.13020000  1.0 0.2916348323
Cu  Cu41  1  0.77614000  0.13020000  0.33296000  1.0 0.2916348323
Cu  Cu42  1  0.33296000  0.76070000  0.77614000  1.0 0.2916348323
Cu  Cu43  1  0.76070000  0.33296000  0.13020000  1.0 0.2916348323
Cu  Cu44  1  0.13020000  0.77614000  0.76070000  1.0 0.2916348323
Cu  Cu45  1  0.27614000  0.83296000  0.63020000  1.0 0.2916348323
Cu  Cu46  1  0.83296000  0.27614000  0.26070000  1.0 0.2916348323
Cu  Cu47  1  0.26070000  0.63020000  0.83296000  1.0 0.2916348323
Cu  Cu48  1  0.63020000  0.26070000  0.27614000  1.0 0.2916348323
Cu  Cu49  1  0.83296000  0.63020000  0.27614000  1.0 0.2916348323
Cu  Cu50  1  0.27614000  0.26070000  0.83296000  1.0 0.2916348323
Cu  Cu51  1  0.63020000  0.83296000  0.26070000  1.0 0.2916348323
Cu  Cu52  1  0.26070000  0.27614000  0.63020000  1.0 0.2916348323
Cu  Cu53  1  0.63020000  0.27614000  0.83296000  1.0 0.2916348323
Cu  Cu54  1  0.26070000  0.83296000  0.27614000  1.0 0.2916348323
Cu  Cu55  1  0.83296000  0.26070000  0.63020000  1.0 0.2916348323
Cu  Cu56  1  0.27614000  0.63020000  0.26070000  1.0 0.2916348323
Cu  Cu57  1  0.25000000  0.75000000  0.25000000  1.0 0.1894634746
Cu  Cu58  1  0.75000000  0.25000000  0.75000000  1.0 0.1894634746
Cu  Cu59  1  0.25000000  0.25000000  0.75000000  1.0 0.1894634746
Cu  Cu60  1  0.75000000  0.75000000  0.25000000  1.0 0.1894634746
Cu  Cu61  1  0.75000000  0.25000000  0.25000000  1.0 0.1894634746
Cu  Cu62  1  0.25000000  0.75000000  0.75000000  1.0 0.1894634746
H  H1  1  0.19130000  0.71310000  0.11490000  1.0 0.3094067531
H  H2  1  0.71310000  0.19130000  0.98070000  1.0 0.3094067531
H  H3  1  0.11490000  0.98070000  0.19130000  1.0 0.3094067531
H  H4  1  0.98070000  0.11490000  0.71310000  1.0 0.3094067531
H  H5  1  0.11490000  0.19130000  0.71310000  1.0 0.3094067531
H  H6  1  0.98070000  0.71310000  0.19130000  1.0 0.3094067531
H  H7  1  0.19130000  0.11490000  0.98070000  1.0 0.3094067531
H  H8  1  0.71310000  0.98070000  0.11490000  1.0 0.3094067531
H  H9  1  0.71310000  0.11490000  0.19130000  1.0 0.3094067531
H  H10  1  0.19130000  0.98070000  0.71310000  1.0 0.3094067531
H  H11  1  0.98070000  0.19130000  0.11490000  1.0 0.3094067531
H  H12  1  0.11490000  0.71310000  0.98070000  1.0 0.3094067531
H  H13  1  0.21310000  0.69130000  0.61490000  1.0 0.301956483
H  H14  1  0.69130000  0.21310000  0.48070000  1.0 0.301956483
H  H15  1  0.48070000  0.61490000  0.69130000  1.0 0.301956483
H  H16  1  0.61490000  0.48070000  0.21310000  1.0 0.301956483
H  H17  1  0.69130000  0.61490000  0.21310000  1.0 0.301956483
H  H18  1  0.21310000  0.48070000  0.69130000  1.0 0.301956483
H  H19  1  0.61490000  0.69130000  0.48070000  1.0 0.301956483
H  H20  1  0.48070000  0.21310000  0.61490000  1.0 0.301956483
H  H21  1  0.61490000  0.21310000  0.69130000  1.0 0.301956483
H  H22  1  0.48070000  0.69130000  0.21310000  1.0 0.301956483
H  H23  1  0.69130000  0.48070000  0.61490000  1.0 0.301956483
H  H24  1  0.21310000  0.61490000  0.48070000  1.0 0.301956483
H  H25  1  0.28670000  0.75610000  0.95510000  1.0 0.3094067531
H  H26  1  0.75610000  0.28670000  0.00210000  1.0 0.3094067531
H  H27  1  0.95510000  0.00210000  0.28670000  1.0 0.3094067531
H  H28  1  0.00210000  0.95510000  0.75610000  1.0 0.3094067531
H  H29  1  0.95510000  0.28670000  0.75610000  1.0 0.3094067531
H  H30  1  0.00210000  0.75610000  0.28670000  1.0 0.3094067531
H  H31  1  0.28670000  0.95510000  0.00210000  1.0 0.3094067531
H  H32  1  0.75610000  0.00210000  0.95510000  1.0 0.3094067531
H  H33  1  0.75610000  0.95510000  0.28670000  1.0 0.3094067531
H  H34  1  0.28670000  0.00210000  0.75610000  1.0 0.3094067531
H  H35  1  0.00210000  0.28670000  0.95510000  1.0 0.3094067531
H  H36  1  0.95510000  0.75610000  0.00210000  1.0 0.3094067531
H  H37  1  0.25610000  0.78670000  0.45510000  1.0 0.3094067531
H  H38  1  0.78670000  0.25610000  0.50210000  1.0 0.3094067531
H  H39  1  0.50210000  0.45510000  0.78670000  1.0 0.3094067531
H  H40  1  0.45510000  0.50210000  0.25610000  1.0 0.3094067531
H  H41  1  0.78670000  0.45510000  0.25610000  1.0 0.3094067531
H  H42  1  0.25610000  0.50210000  0.78670000  1.0 0.3094067531
H  H43  1  0.45510000  0.78670000  0.50210000  1.0 0.3094067531
H  H44  1  0.50210000  0.25610000  0.45510000  1.0 0.3094067531
H  H45  1  0.45510000  0.25610000  0.78670000  1.0 0.3094067531
H  H46  1  0.50210000  0.78670000  0.25610000  1.0 0.3094067531
H  H47  1  0.78670000  0.50210000  0.45510000  1.0 0.3094067531
H  H48  1  0.25610000  0.45510000  0.50210000  1.0 0.3094067531
H  H49  1  0.23040000  0.73500000  0.99580000  1.0 0.3206488547
H  H50  1  0.73500000  0.23040000  0.03880000  1.0 0.3206488547
H  H51  1  0.99580000  0.03880000  0.23040000  1.0 0.3206488547
H  H52  1  0.03880000  0.99580000  0.73500000  1.0 0.3206488547
H  H53  1  0.99580000  0.23040000  0.73500000  1.0 0.3206488547
H  H54  1  0.03880000  0.73500000  0.23040000  1.0 0.3206488547
H  H55  1  0.23040000  0.99580000  0.03880000  1.0 0.3206488547
H  H56  1  0.73500000  0.03880000  0.99580000  1.0 0.3206488547
H  H57  1  0.73500000  0.99580000  0.23040000  1.0 0.3206488547
H  H58  1  0.23040000  0.03880000  0.73500000  1.0 0.3206488547
H  H59  1  0.03880000  0.23040000  0.99580000  1.0 0.3206488547
H  H60  1  0.99580000  0.73500000  0.03880000  1.0 0.3206488547
H  H61  1  0.23500000  0.73040000  0.49580000  1.0 0.3206488547
H  H62  1  0.73040000  0.23500000  0.53880000  1.0 0.3206488547
H  H63  1  0.53880000  0.49580000  0.73040000  1.0 0.3206488547
H  H64  1  0.49580000  0.53880000  0.23500000  1.0 0.3206488547
H  H65  1  0.73040000  0.49580000  0.23500000  1.0 0.3206488547
H  H66  1  0.23500000  0.53880000  0.73040000  1.0 0.3206488547
H  H67  1  0.49580000  0.73040000  0.53880000  1.0 0.3206488547
H  H68  1  0.53880000  0.23500000  0.49580000  1.0 0.3206488547
H  H69  1  0.49580000  0.23500000  0.73040000  1.0 0.3206488547
H  H70  1  0.53880000  0.73040000  0.23500000  1.0 0.3206488547
H  H71  1  0.73040000  0.53880000  0.49580000  1.0 0.3206488547
H  H72  1  0.23500000  0.49580000  0.53880000  1.0 0.3206488547
H  H73  1  0.44810000  0.63150000  0.92990000  1.0 0.328092916
H  H74  1  0.63150000  0.44810000  0.99050000  1.0 0.328092916
H  H75  1  0.92990000  0.99050000  0.44810000  1.0 0.328092916
H  H76  1  0.99050000  0.92990000  0.63150000  1.0 0.328092916
H  H77  1  0.92990000  0.44810000  0.63150000  1.0 0.328092916
H  H78  1  0.99050000  0.63150000  0.44810000  1.0 0.328092916
H  H79  1  0.44810000  0.92990000  0.99050000  1.0 0.328092916
H  H80  1  0.63150000  0.99050000  0.92990000  1.0 0.328092916
H  H81  1  0.63150000  0.92990000  0.44810000  1.0 0.328092916
H  H82  1  0.44810000  0.99050000  0.63150000  1.0 0.328092916
H  H83  1  0.99050000  0.44810000  0.92990000  1.0 0.328092916
H  H84  1  0.92990000  0.63150000  0.99050000  1.0 0.328092916
H  H85  1  0.13150000  0.94810000  0.42990000  1.0 0.328092916
H  H86  1  0.94810000  0.13150000  0.49050000  1.0 0.328092916
H  H87  1  0.49050000  0.42990000  0.94810000  1.0 0.328092916
H  H88  1  0.42990000  0.49050000  0.13150000  1.0 0.328092916
H  H89  1  0.94810000  0.42990000  0.13150000  1.0 0.328092916
H  H90  1  0.13150000  0.49050000  0.94810000  1.0 0.328092916
H  H91  1  0.42990000  0.94810000  0.49050000  1.0 0.328092916
H  H92  1  0.49050000  0.13150000  0.42990000  1.0 0.328092916
H  H93  1  0.42990000  0.13150000  0.94810000  1.0 0.328092916
H  H94  1  0.49050000  0.94810000  0.13150000  1.0 0.328092916
H  H95  1  0.94810000  0.49050000  0.42990000  1.0 0.328092916
H  H96  1  0.13150000  0.42990000  0.49050000  1.0 0.328092916
H  H97  1  0.37720000  0.61000000  0.86120000  1.0 0.301956483
H  H98  1  0.61000000  0.37720000  0.15160000  1.0 0.301956483
H  H99  1  0.86120000  0.15160000  0.37720000  1.0 0.301956483
H  H100  1  0.15160000  0.86120000  0.61000000  1.0 0.301956483
H  H101  1  0.86120000  0.37720000  0.61000000  1.0 0.301956483
H  H102  1  0.15160000  0.61000000  0.37720000  1.0 0.301956483
H  H103  1  0.37720000  0.86120000  0.15160000  1.0 0.301956483
H  H104  1  0.61000000  0.15160000  0.86120000  1.0 0.301956483
H  H105  1  0.61000000  0.86120000  0.37720000  1.0 0.301956483
H  H106  1  0.37720000  0.15160000  0.61000000  1.0 0.301956483
H  H107  1  0.15160000  0.37720000  0.86120000  1.0 0.301956483
H  H108  1  0.86120000  0.61000000  0.15160000  1.0 0.301956483
H  H109  1  0.11000000  0.87720000  0.36120000  1.0 0.301956483
H  H110  1  0.87720000  0.11000000  0.65160000  1.0 0.301956483
H  H111  1  0.65160000  0.36120000  0.87720000  1.0 0.301956483
H  H112  1  0.36120000  0.65160000  0.11000000  1.0 0.301956483
H  H113  1  0.87720000  0.36120000  0.11000000  1.0 0.301956483
H  H114  1  0.11000000  0.65160000  0.87720000  1.0 0.301956483
H  H115  1  0.36120000  0.87720000  0.65160000  1.0 0.301956483
H  H116  1  0.65160000  0.11000000  0.36120000  1.0 0.301956483
H  H117  1  0.36120000  0.11000000  0.87720000  1.0 0.301956483
H  H118  1  0.65160000  0.87720000  0.11000000  1.0 0.301956483
H  H119  1  0.87720000  0.65160000  0.36120000  1.0 0.301956483
H  H120  1  0.11000000  0.36120000  0.65160000  1.0 0.301956483
H  H121  1  0.41340000  0.57280000  0.90600000  1.0 0.3396694537
H  H122  1  0.57280000  0.41340000  0.10780000  1.0 0.3396694537
H  H123  1  0.90600000  0.10780000  0.41340000  1.0 0.3396694537
H  H124  1  0.10780000  0.90600000  0.57280000  1.0 0.3396694537
H  H125  1  0.90600000  0.41340000  0.57280000  1.0 0.3396694537
H  H126  1  0.10780000  0.57280000  0.41340000  1.0 0.3396694537
H  H127  1  0.41340000  0.90600000  0.10780000  1.0 0.3396694537
H  H128  1  0.57280000  0.10780000  0.90600000  1.0 0.3396694537
H  H129  1  0.57280000  0.90600000  0.41340000  1.0 0.3396694537
H  H130  1  0.41340000  0.10780000  0.57280000  1.0 0.3396694537
H  H131  1  0.10780000  0.41340000  0.90600000  1.0 0.3396694537
H  H132  1  0.90600000  0.57280000  0.10780000  1.0 0.3396694537
H  H133  1  0.07280000  0.91340000  0.40600000  1.0 0.3396694537
H  H134  1  0.91340000  0.07280000  0.60780000  1.0 0.3396694537
H  H135  1  0.60780000  0.40600000  0.91340000  1.0 0.3396694537
H  H136  1  0.40600000  0.60780000  0.07280000  1.0 0.3396694537
H  H137  1  0.91340000  0.40600000  0.07280000  1.0 0.3396694537
H  H138  1  0.07280000  0.60780000  0.91340000  1.0 0.3396694537
H  H139  1  0.40600000  0.91340000  0.60780000  1.0 0.3396694537
H  H140  1  0.60780000  0.07280000  0.40600000  1.0 0.3396694537
H  H141  1  0.40600000  0.07280000  0.91340000  1.0 0.3396694537
H  H142  1  0.60780000  0.91340000  0.07280000  1.0 0.3396694537
H  H143  1  0.91340000  0.60780000  0.40600000  1.0 0.3396694537
H  H144  1  0.07280000  0.40600000  0.60780000  1.0 0.3396694537
C  C1  1  0.23818000  0.73326000  0.14098000  1.0 0.3396694537
C  C2  1  0.73326000  0.23818000  0.88758000  1.0 0.3396694537
C  C3  1  0.14098000  0.88758000  0.23818000  1.0 0.3396694537
C  C4  1  0.88758000  0.14098000  0.73326000  1.0 0.3396694537
C  C5  1  0.14098000  0.23818000  0.73326000  1.0 0.3396694537
C  C6  1  0.88758000  0.73326000  0.23818000  1.0 0.3396694537
C  C7  1  0.23818000  0.14098000  0.88758000  1.0 0.3396694537
C  C8  1  0.73326000  0.88758000  0.14098000  1.0 0.3396694537
C  C9  1  0.73326000  0.14098000  0.23818000  1.0 0.3396694537
C  C10  1  0.23818000  0.88758000  0.73326000  1.0 0.3396694537
C  C11  1  0.88758000  0.23818000  0.14098000  1.0 0.3396694537
C  C12  1  0.14098000  0.73326000  0.88758000  1.0 0.3396694537
C  C13  1  0.23326000  0.73818000  0.64098000  1.0 0.3396694537
C  C14  1  0.73818000  0.23326000  0.38758000  1.0 0.3396694537
C  C15  1  0.38758000  0.64098000  0.73818000  1.0 0.3396694537
C  C16  1  0.64098000  0.38758000  0.23326000  1.0 0.3396694537
C  C17  1  0.73818000  0.64098000  0.23326000  1.0 0.3396694537
C  C18  1  0.23326000  0.38758000  0.73818000  1.0 0.3396694537
C  C19  1  0.64098000  0.73818000  0.38758000  1.0 0.3396694537
C  C20  1  0.38758000  0.23326000  0.64098000  1.0 0.3396694537
C  C21  1  0.64098000  0.23326000  0.73818000  1.0 0.3396694537
C  C22  1  0.38758000  0.73818000  0.23326000  1.0 0.3396694537
C  C23  1  0.73818000  0.38758000  0.64098000  1.0 0.3396694537
C  C24  1  0.23326000  0.64098000  0.38758000  1.0 0.3396694537
C  C25  1  0.26065000  0.74679000  0.04349000  1.0 0.51066314
C  C26  1  0.74679000  0.26065000  0.94907000  1.0 0.51066314
C  C27  1  0.04349000  0.94907000  0.26065000  1.0 0.51066314
C  C28  1  0.94907000  0.04349000  0.74679000  1.0 0.51066314
C  C29  1  0.04349000  0.26065000  0.74679000  1.0 0.51066314
C  C30  1  0.94907000  0.74679000  0.26065000  1.0 0.51066314
C  C31  1  0.26065000  0.04349000  0.94907000  1.0 0.51066314
C  C32  1  0.74679000  0.94907000  0.04349000  1.0 0.51066314
C  C33  1  0.74679000  0.04349000  0.26065000  1.0 0.51066314
C  C34  1  0.26065000  0.94907000  0.74679000  1.0 0.51066314
C  C35  1  0.94907000  0.26065000  0.04349000  1.0 0.51066314
C  C36  1  0.04349000  0.74679000  0.94907000  1.0 0.51066314
C  C37  1  0.24679000  0.76065000  0.54349000  1.0 0.51066314
C  C38  1  0.76065000  0.24679000  0.44907000  1.0 0.51066314
C  C39  1  0.44907000  0.54349000  0.76065000  1.0 0.51066314
C  C40  1  0.54349000  0.44907000  0.24679000  1.0 0.51066314
C  C41  1  0.76065000  0.54349000  0.24679000  1.0 0.51066314
C  C42  1  0.24679000  0.44907000  0.76065000  1.0 0.51066314
C  C43  1  0.54349000  0.76065000  0.44907000  1.0 0.51066314
C  C44  1  0.44907000  0.24679000  0.54349000  1.0 0.51066314
C  C45  1  0.54349000  0.24679000  0.76065000  1.0 0.51066314
C  C46  1  0.44907000  0.76065000  0.24679000  1.0 0.51066314
C  C47  1  0.76065000  0.44907000  0.54349000  1.0 0.51066314
C  C48  1  0.24679000  0.54349000  0.44907000  1.0 0.51066314
C  C49  1  0.42145000  0.72475000  0.88735000  1.0 0.3206488547
C  C50  1  0.72475000  0.42145000  0.96645000  1.0 0.3206488547
C  C51  1  0.88735000  0.96645000  0.42145000  1.0 0.3206488547
C  C52  1  0.96645000  0.88735000  0.72475000  1.0 0.3206488547
C  C53  1  0.88735000  0.42145000  0.72475000  1.0 0.3206488547
C  C54  1  0.96645000  0.72475000  0.42145000  1.0 0.3206488547
C  C55  1  0.42145000  0.88735000  0.96645000  1.0 0.3206488547
C  C56  1  0.72475000  0.96645000  0.88735000  1.0 0.3206488547
C  C57  1  0.72475000  0.88735000  0.42145000  1.0 0.3206488547
C  C58  1  0.42145000  0.96645000  0.72475000  1.0 0.3206488547
C  C59  1  0.96645000  0.42145000  0.88735000  1.0 0.3206488547
C  C60  1  0.88735000  0.72475000  0.96645000  1.0 0.3206488547
C  C61  1  0.22475000  0.92145000  0.38735000  1.0 0.3206488547
C  C62  1  0.92145000  0.22475000  0.46645000  1.0 0.3206488547
C  C63  1  0.46645000  0.38735000  0.92145000  1.0 0.3206488547
C  C64  1  0.38735000  0.46645000  0.22475000  1.0 0.3206488547
C  C65  1  0.92145000  0.38735000  0.22475000  1.0 0.3206488547
C  C66  1  0.22475000  0.46645000  0.92145000  1.0 0.3206488547
C  C67  1  0.38735000  0.92145000  0.46645000  1.0 0.3206488547
C  C68  1  0.46645000  0.22475000  0.38735000  1.0 0.3206488547
C  C69  1  0.38735000  0.22475000  0.92145000  1.0 0.3206488547
C  C70  1  0.46645000  0.92145000  0.22475000  1.0 0.3206488547
C  C71  1  0.92145000  0.46645000  0.38735000  1.0 0.3206488547
C  C72  1  0.22475000  0.38735000  0.46645000  1.0 0.3206488547
C  C73  1  0.39784000  0.66234000  0.87598000  1.0 0.51066314
C  C74  1  0.66234000  0.39784000  0.06384000  1.0 0.51066314
C  C75  1  0.87598000  0.06384000  0.39784000  1.0 0.51066314
C  C76  1  0.06384000  0.87598000  0.66234000  1.0 0.51066314
C  C77  1  0.87598000  0.39784000  0.66234000  1.0 0.51066314
C  C78  1  0.06384000  0.66234000  0.39784000  1.0 0.51066314
C  C79  1  0.39784000  0.87598000  0.06384000  1.0 0.51066314
C  C80  1  0.66234000  0.06384000  0.87598000  1.0 0.51066314
C  C81  1  0.66234000  0.87598000  0.39784000  1.0 0.51066314
C  C82  1  0.39784000  0.06384000  0.66234000  1.0 0.51066314
C  C83  1  0.06384000  0.39784000  0.87598000  1.0 0.51066314
C  C84  1  0.87598000  0.66234000  0.06384000  1.0 0.51066314
C  C85  1  0.16234000  0.89784000  0.37598000  1.0 0.51066314
C  C86  1  0.89784000  0.16234000  0.56384000  1.0 0.51066314
C  C87  1  0.56384000  0.37598000  0.89784000  1.0 0.51066314
C  C88  1  0.37598000  0.56384000  0.16234000  1.0 0.51066314
C  C89  1  0.89784000  0.37598000  0.16234000  1.0 0.51066314
C  C90  1  0.16234000  0.56384000  0.89784000  1.0 0.51066314
C  C91  1  0.37598000  0.89784000  0.56384000  1.0 0.51066314
C  C92  1  0.56384000  0.16234000  0.37598000  1.0 0.51066314
C  C93  1  0.37598000  0.16234000  0.89784000  1.0 0.51066314
C  C94  1  0.56384000  0.89784000  0.16234000  1.0 0.51066314
C  C95  1  0.89784000  0.56384000  0.37598000  1.0 0.51066314
C  C96  1  0.16234000  0.37598000  0.56384000  1.0 0.51066314
S  S1  1  0.20002000  0.71462000  0.22250000  1.0 -0.4095461269
S  S2  1  0.71462000  0.20002000  0.86286000  1.0 -0.4095461269
S  S3  1  0.22250000  0.86286000  0.20002000  1.0 -0.4095461269
S  S4  1  0.86286000  0.22250000  0.71462000  1.0 -0.4095461269
S  S5  1  0.22250000  0.20002000  0.71462000  1.0 -0.4095461269
S  S6  1  0.86286000  0.71462000  0.20002000  1.0 -0.4095461269
S  S7  1  0.20002000  0.22250000  0.86286000  1.0 -0.4095461269
S  S8  1  0.71462000  0.86286000  0.22250000  1.0 -0.4095461269
S  S9  1  0.71462000  0.22250000  0.20002000  1.0 -0.4095461269
S  S10  1  0.20002000  0.86286000  0.71462000  1.0 -0.4095461269
S  S11  1  0.86286000  0.20002000  0.22250000  1.0 -0.4095461269
S  S12  1  0.22250000  0.71462000  0.86286000  1.0 -0.4095461269
S  S13  1  0.21462000  0.70002000  0.72250000  1.0 -0.4095461269
S  S14  1  0.70002000  0.21462000  0.36286000  1.0 -0.4095461269
S  S15  1  0.36286000  0.72250000  0.70002000  1.0 -0.4095461269
S  S16  1  0.72250000  0.36286000  0.21462000  1.0 -0.4095461269
S  S17  1  0.70002000  0.72250000  0.21462000  1.0 -0.4095461269
S  S18  1  0.21462000  0.36286000  0.70002000  1.0 -0.4095461269
S  S19  1  0.72250000  0.70002000  0.36286000  1.0 -0.4095461269
S  S20  1  0.36286000  0.21462000  0.72250000  1.0 -0.4095461269
S  S21  1  0.72250000  0.21462000  0.70002000  1.0 -0.4095461269
S  S22  1  0.36286000  0.70002000  0.21462000  1.0 -0.4095461269
S  S23  1  0.70002000  0.36286000  0.72250000  1.0 -0.4095461269
S  S24  1  0.21462000  0.72250000  0.36286000  1.0 -0.4095461269
S  S25  1  0.45326000  0.74904000  0.91290000  1.0 -0.3109671938
S  S26  1  0.74904000  0.45326000  0.88480000  1.0 -0.3109671938
S  S27  1  0.91290000  0.88480000  0.45326000  1.0 -0.3109671938
S  S28  1  0.88480000  0.91290000  0.74904000  1.0 -0.3109671938
S  S29  1  0.91290000  0.45326000  0.74904000  1.0 -0.3109671938
S  S30  1  0.88480000  0.74904000  0.45326000  1.0 -0.3109671938
S  S31  1  0.45326000  0.91290000  0.88480000  1.0 -0.3109671938
S  S32  1  0.74904000  0.88480000  0.91290000  1.0 -0.3109671938
S  S33  1  0.74904000  0.91290000  0.45326000  1.0 -0.3109671938
S  S34  1  0.45326000  0.88480000  0.74904000  1.0 -0.3109671938
S  S35  1  0.88480000  0.45326000  0.91290000  1.0 -0.3109671938
S  S36  1  0.91290000  0.74904000  0.88480000  1.0 -0.3109671938
S  S37  1  0.24904000  0.95326000  0.41290000  1.0 -0.3109671938
S  S38  1  0.95326000  0.24904000  0.38480000  1.0 -0.3109671938
S  S39  1  0.38480000  0.41290000  0.95326000  1.0 -0.3109671938
S  S40  1  0.41290000  0.38480000  0.24904000  1.0 -0.3109671938
S  S41  1  0.95326000  0.41290000  0.24904000  1.0 -0.3109671938
S  S42  1  0.24904000  0.38480000  0.95326000  1.0 -0.3109671938
S  S43  1  0.41290000  0.95326000  0.38480000  1.0 -0.3109671938
S  S44  1  0.38480000  0.24904000  0.41290000  1.0 -0.3109671938
S  S45  1  0.41290000  0.24904000  0.95326000  1.0 -0.3109671938
S  S46  1  0.38480000  0.95326000  0.24904000  1.0 -0.3109671938
S  S47  1  0.95326000  0.38480000  0.41290000  1.0 -0.3109671938
S  S48  1  0.24904000  0.41290000  0.38480000  1.0 -0.3109671938
S  S49  1  0.00000000  0.00000000  0.00000000  1.0 0.7513559294
S  S50  1  0.50000000  0.50000000  0.50000000  1.0 1.0980293584
S  S51  1  0.50000000  0.50000000  0.00000000  1.0 1.4060194325
S  S52  1  0.00000000  0.00000000  0.50000000  1.0 1.4060194325
S  S53  1  0.50000000  0.00000000  0.50000000  1.0 1.4060194325
S  S54  1  0.00000000  0.50000000  0.00000000  1.0 1.4060194325
S  S55  1  0.00000000  0.50000000  0.50000000  1.0 1.4060194325
S  S56  1  0.50000000  0.00000000  0.00000000  1.0 1.4060194325
I  I1  1  0.28947000  0.90351000  0.90351000  1.0 -0.4095461269
I  I2  1  0.90351000  0.28947000  0.90351000  1.0 -0.4095461269
I  I3  1  0.90351000  0.90351000  0.28947000  1.0 -0.4095461269
I  I4  1  0.90351000  0.90351000  0.90351000  1.0 -0.4095461269
I  I5  1  0.40351000  0.78947000  0.40351000  1.0 -0.4163337219
I  I6  1  0.78947000  0.40351000  0.40351000  1.0 -0.4163337219
I  I7  1  0.40351000  0.40351000  0.78947000  1.0 -0.4163337219
I  I8  1  0.40351000  0.40351000  0.40351000  1.0 -0.4163337219
N  N1  1  0.28590000  0.75404000  0.10688000  1.0 -0.2315405148
N  N2  1  0.75404000  0.28590000  0.85318000  1.0 -0.2315405148
N  N3  1  0.10688000  0.85318000  0.28590000  1.0 -0.2315405148
N  N4  1  0.85318000  0.10688000  0.75404000  1.0 -0.2315405148
N  N5  1  0.10688000  0.28590000  0.75404000  1.0 -0.2315405148
N  N6  1  0.85318000  0.75404000  0.28590000  1.0 -0.2315405148
N  N7  1  0.28590000  0.10688000  0.85318000  1.0 -0.2315405148
N  N8  1  0.75404000  0.85318000  0.10688000  1.0 -0.2315405148
N  N9  1  0.75404000  0.10688000  0.28590000  1.0 -0.2315405148
N  N10  1  0.28590000  0.85318000  0.75404000  1.0 -0.2315405148
N  N11  1  0.85318000  0.28590000  0.10688000  1.0 -0.2315405148
N  N12  1  0.10688000  0.75404000  0.85318000  1.0 -0.2315405148
N  N13  1  0.25404000  0.78590000  0.60688000  1.0 -0.2315405148
N  N14  1  0.78590000  0.25404000  0.35318000  1.0 -0.2315405148
N  N15  1  0.35318000  0.60688000  0.78590000  1.0 -0.2315405148
N  N16  1  0.60688000  0.35318000  0.25404000  1.0 -0.2315405148
N  N17  1  0.78590000  0.60688000  0.25404000  1.0 -0.2315405148
N  N18  1  0.25404000  0.35318000  0.78590000  1.0 -0.2315405148
N  N19  1  0.60688000  0.78590000  0.35318000  1.0 -0.2315405148
N  N20  1  0.35318000  0.25404000  0.60688000  1.0 -0.2315405148
N  N21  1  0.60688000  0.25404000  0.78590000  1.0 -0.2315405148
N  N22  1  0.35318000  0.78590000  0.25404000  1.0 -0.2315405148
N  N23  1  0.78590000  0.35318000  0.60688000  1.0 -0.2315405148
N  N24  1  0.25404000  0.60688000  0.35318000  1.0 -0.2315405148
N  N25  1  0.30091000  0.76221000  0.04349000  1.0 -0.2877322092
N  N26  1  0.76221000  0.30091000  0.89339000  1.0 -0.2877322092
N  N27  1  0.04349000  0.89339000  0.30091000  1.0 -0.2877322092
N  N28  1  0.89339000  0.04349000  0.76221000  1.0 -0.2877322092
N  N29  1  0.04349000  0.30091000  0.76221000  1.0 -0.2877322092
N  N30  1  0.89339000  0.76221000  0.30091000  1.0 -0.2877322092
N  N31  1  0.30091000  0.04349000  0.89339000  1.0 -0.2877322092
N  N32  1  0.76221000  0.89339000  0.04349000  1.0 -0.2877322092
N  N33  1  0.76221000  0.04349000  0.30091000  1.0 -0.2877322092
N  N34  1  0.30091000  0.89339000  0.76221000  1.0 -0.2877322092
N  N35  1  0.89339000  0.30091000  0.04349000  1.0 -0.2877322092
N  N36  1  0.04349000  0.76221000  0.89339000  1.0 -0.2877322092
N  N37  1  0.26221000  0.80091000  0.54349000  1.0 -0.2877322092
N  N38  1  0.80091000  0.26221000  0.39339000  1.0 -0.2877322092
N  N39  1  0.39339000  0.54349000  0.80091000  1.0 -0.2877322092
N  N40  1  0.54349000  0.39339000  0.26221000  1.0 -0.2877322092
N  N41  1  0.80091000  0.54349000  0.26221000  1.0 -0.2877322092
N  N42  1  0.26221000  0.39339000  0.80091000  1.0 -0.2877322092
N  N43  1  0.54349000  0.80091000  0.39339000  1.0 -0.2877322092
N  N44  1  0.39339000  0.26221000  0.54349000  1.0 -0.2877322092
N  N45  1  0.54349000  0.26221000  0.80091000  1.0 -0.2877322092
N  N46  1  0.39339000  0.80091000  0.26221000  1.0 -0.2877322092
N  N47  1  0.80091000  0.39339000  0.54349000  1.0 -0.2877322092
N  N48  1  0.26221000  0.54349000  0.39339000  1.0 -0.2877322092
N  N49  1  0.22088000  0.72682000  0.10338000  1.0 -0.343029933
N  N50  1  0.72682000  0.22088000  0.94892000  1.0 -0.343029933
N  N51  1  0.10338000  0.94892000  0.22088000  1.0 -0.343029933
N  N52  1  0.94892000  0.10338000  0.72682000  1.0 -0.343029933
N  N53  1  0.10338000  0.22088000  0.72682000  1.0 -0.343029933
N  N54  1  0.94892000  0.72682000  0.22088000  1.0 -0.343029933
N  N55  1  0.22088000  0.10338000  0.94892000  1.0 -0.343029933
N  N56  1  0.72682000  0.94892000  0.10338000  1.0 -0.343029933
N  N57  1  0.72682000  0.10338000  0.22088000  1.0 -0.343029933
N  N58  1  0.22088000  0.94892000  0.72682000  1.0 -0.343029933
N  N59  1  0.94892000  0.22088000  0.10338000  1.0 -0.343029933
N  N60  1  0.10338000  0.72682000  0.94892000  1.0 -0.343029933
N  N61  1  0.22682000  0.72088000  0.60338000  1.0 -0.3337735701
N  N62  1  0.72088000  0.22682000  0.44892000  1.0 -0.3337735701
N  N63  1  0.44892000  0.60338000  0.72088000  1.0 -0.3337735701
N  N64  1  0.60338000  0.44892000  0.22682000  1.0 -0.3337735701
N  N65  1  0.72088000  0.60338000  0.22682000  1.0 -0.3337735701
N  N66  1  0.22682000  0.44892000  0.72088000  1.0 -0.3337735701
N  N67  1  0.60338000  0.72088000  0.44892000  1.0 -0.3337735701
N  N68  1  0.44892000  0.22682000  0.60338000  1.0 -0.3337735701
N  N69  1  0.60338000  0.22682000  0.72088000  1.0 -0.3337735701
N  N70  1  0.44892000  0.72088000  0.22682000  1.0 -0.3337735701
N  N71  1  0.72088000  0.44892000  0.60338000  1.0 -0.3337735701
N  N72  1  0.22682000  0.60338000  0.44892000  1.0 -0.3337735701
N  N73  1  0.25903000  0.74581000  0.99167000  1.0 -0.6259452901
N  N74  1  0.74581000  0.25903000  0.00349000  1.0 -0.6259452901
N  N75  1  0.99167000  0.00349000  0.25903000  1.0 -0.6259452901
N  N76  1  0.00349000  0.99167000  0.74581000  1.0 -0.6259452901
N  N77  1  0.99167000  0.25903000  0.74581000  1.0 -0.6259452901
N  N78  1  0.00349000  0.74581000  0.25903000  1.0 -0.6259452901
N  N79  1  0.25903000  0.99167000  0.00349000  1.0 -0.6259452901
N  N80  1  0.74581000  0.00349000  0.99167000  1.0 -0.6259452901
N  N81  1  0.74581000  0.99167000  0.25903000  1.0 -0.6259452901
N  N82  1  0.25903000  0.00349000  0.74581000  1.0 -0.6259452901
N  N83  1  0.00349000  0.25903000  0.99167000  1.0 -0.6259452901
N  N84  1  0.99167000  0.74581000  0.00349000  1.0 -0.6259452901
N  N85  1  0.24581000  0.75903000  0.49167000  1.0 -0.6074840792
N  N86  1  0.75903000  0.24581000  0.50349000  1.0 -0.6074840792
N  N87  1  0.50349000  0.49167000  0.75903000  1.0 -0.6074840792
N  N88  1  0.49167000  0.50349000  0.24581000  1.0 -0.6074840792
N  N89  1  0.75903000  0.49167000  0.24581000  1.0 -0.6074840792
N  N90  1  0.24581000  0.50349000  0.75903000  1.0 -0.6074840792
N  N91  1  0.49167000  0.75903000  0.50349000  1.0 -0.6074840792
N  N92  1  0.50349000  0.24581000  0.49167000  1.0 -0.6074840792
N  N93  1  0.49167000  0.24581000  0.75903000  1.0 -0.6074840792
N  N94  1  0.50349000  0.75903000  0.24581000  1.0 -0.6074840792
N  N95  1  0.75903000  0.50349000  0.49167000  1.0 -0.6074840792
N  N96  1  0.24581000  0.49167000  0.50349000  1.0 -0.6074840792
N  N97  1  0.38876000  0.76006000  0.84810000  1.0 -0.2246319786
N  N98  1  0.76006000  0.38876000  0.00308000  1.0 -0.2246319786
N  N99  1  0.84810000  0.00308000  0.38876000  1.0 -0.2246319786
N  N100  1  0.00308000  0.84810000  0.76006000  1.0 -0.2246319786
N  N101  1  0.84810000  0.38876000  0.76006000  1.0 -0.2246319786
N  N102  1  0.00308000  0.76006000  0.38876000  1.0 -0.2246319786
N  N103  1  0.38876000  0.84810000  0.00308000  1.0 -0.2246319786
N  N104  1  0.76006000  0.00308000  0.84810000  1.0 -0.2246319786
N  N105  1  0.76006000  0.84810000  0.38876000  1.0 -0.2246319786
N  N106  1  0.38876000  0.00308000  0.76006000  1.0 -0.2246319786
N  N107  1  0.00308000  0.38876000  0.84810000  1.0 -0.2246319786
N  N108  1  0.84810000  0.76006000  0.00308000  1.0 -0.2246319786
N  N109  1  0.26006000  0.88876000  0.34810000  1.0 -0.2246319786
N  N110  1  0.88876000  0.26006000  0.50308000  1.0 -0.2246319786
N  N111  1  0.50308000  0.34810000  0.88876000  1.0 -0.2246319786
N  N112  1  0.34810000  0.50308000  0.26006000  1.0 -0.2246319786
N  N113  1  0.88876000  0.34810000  0.26006000  1.0 -0.2315405148
N  N114  1  0.26006000  0.50308000  0.88876000  1.0 -0.2246319786
N  N115  1  0.34810000  0.88876000  0.50308000  1.0 -0.2246319786
N  N116  1  0.50308000  0.26006000  0.34810000  1.0 -0.2246319786
N  N117  1  0.34810000  0.26006000  0.88876000  1.0 -0.2246319786
N  N118  1  0.50308000  0.88876000  0.26006000  1.0 -0.2246319786
N  N119  1  0.88876000  0.50308000  0.34810000  1.0 -0.2246319786
N  N120  1  0.26006000  0.34810000  0.50308000  1.0 -0.2246319786
N  N121  1  0.37360000  0.71962000  0.84118000  1.0 -0.284950124
N  N122  1  0.71962000  0.37360000  0.06560000  1.0 -0.2877322092
N  N123  1  0.84118000  0.06560000  0.37360000  1.0 -0.2877322092
N  N124  1  0.06560000  0.84118000  0.71962000  1.0 -0.284950124
N  N125  1  0.84118000  0.37360000  0.71962000  1.0 -0.2877322092
N  N126  1  0.06560000  0.71962000  0.37360000  1.0 -0.284950124
N  N127  1  0.37360000  0.84118000  0.06560000  1.0 -0.284950124
N  N128  1  0.71962000  0.06560000  0.84118000  1.0 -0.2877322092
N  N129  1  0.71962000  0.84118000  0.37360000  1.0 -0.284950124
N  N130  1  0.37360000  0.06560000  0.71962000  1.0 -0.284950124
N  N131  1  0.06560000  0.37360000  0.84118000  1.0 -0.284950124
N  N132  1  0.84118000  0.71962000  0.06560000  1.0 -0.2877322092
N  N133  1  0.21962000  0.87360000  0.34118000  1.0 -0.284950124
N  N134  1  0.87360000  0.21962000  0.56560000  1.0 -0.2877322092
N  N135  1  0.56560000  0.34118000  0.87360000  1.0 -0.2877322092
N  N136  1  0.34118000  0.56560000  0.21962000  1.0 -0.2877322092
N  N137  1  0.87360000  0.34118000  0.21962000  1.0 -0.2877322092
N  N138  1  0.21962000  0.56560000  0.87360000  1.0 -0.2877322092
N  N139  1  0.34118000  0.87360000  0.56560000  1.0 -0.284950124
N  N140  1  0.56560000  0.21962000  0.34118000  1.0 -0.2877322092
N  N141  1  0.34118000  0.21962000  0.87360000  1.0 -0.2877322092
N  N142  1  0.56560000  0.87360000  0.21962000  1.0 -0.2877322092
N  N143  1  0.87360000  0.56560000  0.34118000  1.0 -0.2877322092
N  N144  1  0.21962000  0.34118000  0.56560000  1.0 -0.284950124
N  N145  1  0.42824000  0.66350000  0.90502000  1.0 -0.3233489375
N  N146  1  0.66350000  0.42824000  0.00324000  1.0 -0.3233489375
N  N147  1  0.90502000  0.00324000  0.42824000  1.0 -0.3233489375
N  N148  1  0.00324000  0.90502000  0.66350000  1.0 -0.3233489375
N  N149  1  0.90502000  0.42824000  0.66350000  1.0 -0.3233489375
N  N150  1  0.00324000  0.66350000  0.42824000  1.0 -0.3233489375
N  N151  1  0.42824000  0.90502000  0.00324000  1.0 -0.3233489375
N  N152  1  0.66350000  0.00324000  0.90502000  1.0 -0.3233489375
N  N153  1  0.66350000  0.90502000  0.42824000  1.0 -0.3233489375
N  N154  1  0.42824000  0.00324000  0.66350000  1.0 -0.3233489375
N  N155  1  0.00324000  0.42824000  0.90502000  1.0 -0.3233489375
N  N156  1  0.90502000  0.66350000  0.00324000  1.0 -0.3233489375
N  N157  1  0.16350000  0.92824000  0.40502000  1.0 -0.3233489375
N  N158  1  0.92824000  0.16350000  0.50324000  1.0 -0.3233489375
N  N159  1  0.50324000  0.40502000  0.92824000  1.0 -0.3233489375
N  N160  1  0.40502000  0.50324000  0.16350000  1.0 -0.3233489375
N  N161  1  0.92824000  0.40502000  0.16350000  1.0 -0.3233489375
N  N162  1  0.16350000  0.50324000  0.92824000  1.0 -0.3233489375
N  N163  1  0.40502000  0.92824000  0.50324000  1.0 -0.3233489375
N  N164  1  0.50324000  0.16350000  0.40502000  1.0 -0.3233489375
N  N165  1  0.40502000  0.16350000  0.92824000  1.0 -0.3233489375
N  N166  1  0.50324000  0.92824000  0.16350000  1.0 -0.3233489375
N  N167  1  0.92824000  0.50324000  0.40502000  1.0 -0.3233489375
N  N168  1  0.16350000  0.40502000  0.50324000  1.0 -0.3233489375
N  N169  1  0.39590000  0.60852000  0.88176000  1.0 -0.6259452901
N  N170  1  0.60852000  0.39590000  0.11382000  1.0 -0.6259452901
N  N171  1  0.88176000  0.11382000  0.39590000  1.0 -0.6259452901
N  N172  1  0.11382000  0.88176000  0.60852000  1.0 -0.6259452901
N  N173  1  0.88176000  0.39590000  0.60852000  1.0 -0.6259452901
N  N174  1  0.11382000  0.60852000  0.39590000  1.0 -0.6259452901
N  N175  1  0.39590000  0.88176000  0.11382000  1.0 -0.6259452901
N  N176  1  0.60852000  0.11382000  0.88176000  1.0 -0.6259452901
N  N177  1  0.60852000  0.88176000  0.39590000  1.0 -0.6259452901
N  N178  1  0.39590000  0.11382000  0.60852000  1.0 -0.6259452901
N  N179  1  0.11382000  0.39590000  0.88176000  1.0 -0.6259452901
N  N180  1  0.88176000  0.60852000  0.11382000  1.0 -0.6259452901
N  N181  1  0.10852000  0.89590000  0.38176000  1.0 -0.6259452901
N  N182  1  0.89590000  0.10852000  0.61382000  1.0 -0.6259452901
N  N183  1  0.61382000  0.38176000  0.89590000  1.0 -0.6243451405
N  N184  1  0.38176000  0.61382000  0.10852000  1.0 -0.6259452901
N  N185  1  0.89590000  0.38176000  0.10852000  1.0 -0.6259452901
N  N186  1  0.10852000  0.61382000  0.89590000  1.0 -0.6259452901
N  N187  1  0.38176000  0.89590000  0.61382000  1.0 -0.6259452901
N  N188  1  0.61382000  0.10852000  0.38176000  1.0 -0.6259452901
N  N189  1  0.38176000  0.10852000  0.89590000  1.0 -0.6259452901
N  N190  1  0.61382000  0.89590000  0.10852000  1.0 -0.6259452901
N  N191  1  0.89590000  0.61382000  0.38176000  1.0 -0.6259452901
N  N192  1  0.10852000  0.38176000  0.61382000  1.0 -0.6259452901
O  O1  1  0.97644000  0.97644000  0.97644000  1.0 -0.5127554405
O  O2  1  0.97644000  0.97644000  0.07068000  1.0 -0.5127554405
O  O3  1  0.07068000  0.97644000  0.97644000  1.0 -0.5127554405
O  O4  1  0.97644000  0.07068000  0.97644000  1.0 -0.5127554405
O  O5  1  0.47644000  0.47644000  0.47644000  1.0 -0.6700184512
O  O6  1  0.47644000  0.47644000  0.57068000  1.0 -0.6700184512
O  O7  1  0.47644000  0.57068000  0.47644000  1.0 -0.6700184512
O  O8  1  0.57068000  0.47644000  0.47644000  1.0 -0.6700184512
O  O9  1  0.49661000  0.45755000  0.06563000  1.0 -0.7113337758
O  O10  1  0.45755000  0.49661000  0.98021000  1.0 -0.7113337758
O  O11  1  0.48021000  0.56563000  0.99661000  1.0 -0.7113337758
O  O12  1  0.56563000  0.48021000  0.95755000  1.0 -0.7113337758
O  O13  1  0.06563000  0.98021000  0.49661000  1.0 -0.7113337758
O  O14  1  0.98021000  0.06563000  0.45755000  1.0 -0.7113337758
O  O15  1  0.95755000  0.99661000  0.56563000  1.0 -0.7113337758
O  O16  1  0.99661000  0.95755000  0.48021000  1.0 -0.7113337758
O  O17  1  0.45755000  0.06563000  0.49661000  1.0 -0.7113337758
O  O18  1  0.49661000  0.98021000  0.45755000  1.0 -0.7113337758
O  O19  1  0.56563000  0.99661000  0.48021000  1.0 -0.7113337758
O  O20  1  0.48021000  0.95755000  0.56563000  1.0 -0.7113337758
O  O21  1  0.98021000  0.49661000  0.06563000  1.0 -0.7113337758
O  O22  1  0.06563000  0.45755000  0.98021000  1.0 -0.7113337758
O  O23  1  0.99661000  0.56563000  0.95755000  1.0 -0.7113337758
O  O24  1  0.95755000  0.48021000  0.99661000  1.0 -0.7113337758
O  O25  1  0.06563000  0.49661000  0.45755000  1.0 -0.7113337758
O  O26  1  0.98021000  0.45755000  0.49661000  1.0 -0.7113337758
O  O27  1  0.99661000  0.48021000  0.56563000  1.0 -0.7113337758
O  O28  1  0.95755000  0.56563000  0.48021000  1.0 -0.7113337758
O  O29  1  0.49661000  0.06563000  0.98021000  1.0 -0.7113337758
O  O30  1  0.45755000  0.98021000  0.06563000  1.0 -0.7113337758
O  O31  1  0.56563000  0.95755000  0.99661000  1.0 -0.7113337758
O  O32  1  0.48021000  0.99661000  0.95755000  1.0 -0.7113337758
