# DDEC6 charges by PACMAN v1.1 (https://github.com/mtap-research/PACMAN-charge/)
data_BUPSUD_ASR_pacman
_symmetry_space_group_name_H-M   'P 1'
_cell_length_a   39.55060000
_cell_length_b   37.56610000
_cell_length_c   21.91950000
_cell_angle_alpha   78.53220000
_cell_angle_beta   68.56960000
_cell_angle_gamma   32.89820000
_symmetry_Int_Tables_number   1
_chemical_formula_structural   Cu7H128C170(N2O5)6
_chemical_formula_sum   'Cu28 H512 C680 N48 O120'
_cell_volume   16086.05073056
_cell_formula_units_Z   4
loop_
 _symmetry_equiv_pos_site_id
 _symmetry_equiv_pos_as_xyz
  1  'x, y, z'
loop_
 _atom_site_type_symbol
 _atom_site_label
 _atom_site_symmetry_multiplicity
 _atom_site_fract_x
 _atom_site_fract_y
 _atom_site_fract_z
 _atom_site_occupancy
 _atom_site_charge
Cu  Cu1  1  0.91616000  0.42772000  0.34572000  1.0 0.7691349452
Cu  Cu2  1  0.64090000  0.11656000  0.58544000  1.0 0.1464032633
Cu  Cu3  1  0.42772000  0.91616000  0.31040000  1.0 0.7691349452
Cu  Cu4  1  0.11656000  0.64090000  0.65710000  1.0 0.1464032633
Cu  Cu5  1  0.33384000  0.82228000  0.90428000  1.0 0.7691349452
Cu  Cu6  1  0.60910000  0.13344000  0.66456000  1.0 0.1464032633
Cu  Cu7  1  0.82228000  0.33384000  0.93960000  1.0 0.7691349452
Cu  Cu8  1  0.13344000  0.60910000  0.59290000  1.0 0.1464032633
Cu  Cu9  1  0.62500000  0.12500000  0.62500000  1.0 0.2808847642
Cu  Cu10  1  0.12500000  0.62500000  0.62500000  1.0 0.2808847642
Cu  Cu11  1  0.34572000  0.31040000  0.91616000  1.0 0.7691349452
Cu  Cu12  1  0.58544000  0.65710000  0.64090000  1.0 0.1464032633
Cu  Cu13  1  0.31040000  0.34572000  0.42772000  1.0 0.7691349452
Cu  Cu14  1  0.65710000  0.58544000  0.11656000  1.0 0.1464032633
Cu  Cu15  1  0.90428000  0.93960000  0.33384000  1.0 0.7691349452
Cu  Cu16  1  0.66456000  0.59290000  0.60910000  1.0 0.1464032633
Cu  Cu17  1  0.93960000  0.90428000  0.82228000  1.0 0.7691349452
Cu  Cu18  1  0.59290000  0.66456000  0.13344000  1.0 0.1464032633
Cu  Cu19  1  0.62500000  0.62500000  0.62500000  1.0 0.2808847642
Cu  Cu20  1  0.62500000  0.62500000  0.12500000  1.0 0.2808847642
Cu  Cu21  1  0.98729000  0.46773000  0.24251000  1.0 0.7445162004
Cu  Cu22  1  0.46773000  0.98729000  0.30247000  1.0 0.745140559
Cu  Cu23  1  0.26271000  0.78227000  0.00749000  1.0 0.745140559
Cu  Cu24  1  0.78227000  0.26271000  0.94753000  1.0 0.7445162004
Cu  Cu25  1  0.24251000  0.30247000  0.98729000  1.0 0.7445162004
Cu  Cu26  1  0.30247000  0.24251000  0.46773000  1.0 0.7445162004
Cu  Cu27  1  0.00749000  0.94753000  0.26271000  1.0 0.745140559
Cu  Cu28  1  0.94753000  0.00749000  0.78227000  1.0 0.7445162004
H  H1  1  0.76400000  0.97840000  0.51360000  1.0 0.1180539032
H  H2  1  0.86690000  0.87430000  0.52090000  1.0 0.0901666406
H  H3  1  0.79910000  0.95030000  0.70930000  1.0 0.0991589331
H  H4  1  0.69600000  0.05440000  0.70220000  1.0 0.1180539032
H  H5  1  0.89050000  0.38410000  0.21510000  1.0 0.1180539032
H  H6  1  0.86770000  0.35970000  0.16650000  1.0 0.1180539032
H  H7  1  0.83960000  0.32480000  0.22760000  1.0 0.1180539032
H  H8  1  0.83220000  0.36480000  0.39300000  1.0 0.1464032633
H  H9  1  0.86240000  0.25220000  0.29360000  1.0 0.1090906619
H  H10  1  0.78650000  0.32170000  0.30250000  1.0 0.1090906619
H  H11  1  0.89260000  0.17460000  0.35260000  1.0 0.1180539032
H  H12  1  0.86190000  0.14710000  0.42130000  1.0 0.1274951555
H  H13  1  0.67110000  0.33650000  0.49250000  1.0 0.1274951555
H  H14  1  0.69930000  0.36850000  0.41810000  1.0 0.1274951555
H  H15  1  0.69700000  0.25260000  0.51860000  1.0 0.1090906619
H  H16  1  0.76760000  0.17860000  0.47640000  1.0 0.1090906619
H  H17  1  0.71730000  0.17170000  0.55130000  1.0 0.1274951555
H  H18  1  0.66730000  0.16370000  0.74370000  1.0 0.1180539032
H  H19  1  0.71090000  0.17730000  0.76510000  1.0 0.1090906619
H  H20  1  0.75190000  0.19210000  0.67970000  1.0 0.1274951555
H  H21  1  0.04330000  0.30810000  0.24730000  1.0 0.1090906619
H  H22  1  0.14950000  0.20010000  0.23490000  1.0 0.1274951555
H  H23  1  0.09280000  0.23420000  0.43420000  1.0 0.1384315678
H  H24  1  0.98780000  0.34260000  0.43880000  1.0 0.1180539032
H  H25  1  0.86140000  0.49720000  0.24440000  1.0 0.1090906619
H  H26  1  0.76270000  0.59670000  0.23090000  1.0 0.1274951555
H  H27  1  0.67250000  0.66230000  0.43110000  1.0 0.1180539032
H  H28  1  0.77500000  0.55880000  0.43920000  1.0 0.1180539032
H  H29  1  0.93850000  0.51550000  0.41490000  1.0 0.1180539032
H  H30  1  0.92780000  0.56360000  0.48640000  1.0 0.1090906619
H  H31  1  0.86760000  0.59680000  0.59940000  1.0 0.1274951555
H  H32  1  0.83250000  0.52950000  0.56990000  1.0 0.1384315678
H  H33  1  0.79110000  0.55090000  0.68930000  1.0 0.0991589331
H  H34  1  0.73630000  0.61630000  0.66250000  1.0 0.1090906619
H  H35  1  0.63450000  0.71950000  0.74030000  1.0 0.1180539032
H  H36  1  0.78730000  0.56770000  0.79970000  1.0 0.1090906619
H  H37  1  0.73480000  0.00140000  0.55640000  1.0 0.1180539032
H  H38  1  0.84380000  0.89300000  0.54540000  1.0 0.0991589331
H  H39  1  0.80530000  0.94210000  0.73170000  1.0 0.0817543441
H  H40  1  0.69630000  0.05050000  0.74270000  1.0 0.0991589331
H  H41  1  0.97840000  0.76400000  0.74400000  1.0 0.1180539032
H  H42  1  0.87430000  0.86690000  0.73790000  1.0 0.0901666406
H  H43  1  0.95030000  0.79910000  0.54130000  1.0 0.0991589331
H  H44  1  0.05440000  0.69600000  0.54740000  1.0 0.1180539032
H  H45  1  0.38410000  0.89050000  0.51030000  1.0 0.1180539032
H  H46  1  0.35970000  0.86770000  0.60610000  1.0 0.1180539032
H  H47  1  0.32480000  0.83960000  0.60800000  1.0 0.1180539032
H  H48  1  0.36480000  0.83220000  0.41000000  1.0 0.1464032633
H  H49  1  0.25220000  0.86240000  0.59180000  1.0 0.1090906619
H  H50  1  0.32170000  0.78650000  0.58930000  1.0 0.1090906619
H  H51  1  0.17460000  0.89260000  0.58020000  1.0 0.1180539032
H  H52  1  0.14710000  0.86190000  0.56970000  1.0 0.1274951555
H  H53  1  0.33650000  0.67110000  0.49990000  1.0 0.1274951555
H  H54  1  0.36850000  0.69930000  0.51410000  1.0 0.1274951555
H  H55  1  0.25260000  0.69700000  0.53180000  1.0 0.1090906619
H  H56  1  0.17860000  0.76760000  0.57740000  1.0 0.1090906619
H  H57  1  0.17170000  0.71730000  0.55970000  1.0 0.1274951555
H  H58  1  0.16370000  0.66730000  0.42530000  1.0 0.1180539032
H  H59  1  0.17730000  0.71090000  0.34670000  1.0 0.1090906619
H  H60  1  0.19210000  0.75190000  0.37630000  1.0 0.1384315678
H  H61  1  0.30810000  0.04330000  0.40130000  1.0 0.1090906619
H  H62  1  0.20010000  0.14950000  0.41550000  1.0 0.1274951555
H  H63  1  0.23420000  0.09280000  0.23880000  1.0 0.1384315678
H  H64  1  0.34260000  0.98780000  0.23080000  1.0 0.1180539032
H  H65  1  0.49720000  0.86140000  0.39700000  1.0 0.1090906619
H  H66  1  0.59670000  0.76270000  0.40970000  1.0 0.1274951555
H  H67  1  0.66230000  0.67250000  0.23410000  1.0 0.1180539032
H  H68  1  0.55880000  0.77500000  0.22700000  1.0 0.1180539032
H  H69  1  0.51550000  0.93850000  0.13110000  1.0 0.1180539032
H  H70  1  0.56360000  0.92780000  0.02220000  1.0 0.1090906619
H  H71  1  0.59680000  0.86760000  0.93620000  1.0 0.1274951555
H  H72  1  0.52950000  0.83250000  0.06810000  1.0 0.1384315678
H  H73  1  0.55090000  0.79110000  0.96870000  1.0 0.0991589331
H  H74  1  0.61630000  0.73630000  0.98490000  1.0 0.1090906619
H  H75  1  0.71950000  0.63450000  0.90570000  1.0 0.1180539032
H  H76  1  0.56770000  0.78730000  0.84530000  1.0 0.1180539032
H  H77  1  0.00140000  0.73480000  0.70740000  1.0 0.1180539032
H  H78  1  0.89300000  0.84380000  0.71780000  1.0 0.0991589331
H  H79  1  0.94210000  0.80530000  0.52090000  1.0 0.0817543441
H  H80  1  0.05050000  0.69630000  0.51050000  1.0 0.0991589331
H  H81  1  0.48600000  0.27160000  0.73640000  1.0 0.1180539032
H  H82  1  0.38310000  0.37570000  0.72910000  1.0 0.0901666406
H  H83  1  0.45090000  0.29970000  0.54070000  1.0 0.0991589331
H  H84  1  0.55400000  0.19560000  0.54780000  1.0 0.1180539032
H  H85  1  0.35950000  0.86590000  0.03490000  1.0 0.1180539032
H  H86  1  0.38230000  0.89030000  0.08350000  1.0 0.1180539032
H  H87  1  0.41040000  0.92520000  0.02240000  1.0 0.1180539032
H  H88  1  0.41780000  0.88520000  0.85700000  1.0 0.1464032633
H  H89  1  0.38760000  0.99780000  0.95640000  1.0 0.1090906619
H  H90  1  0.46350000  0.92830000  0.94750000  1.0 0.1090906619
H  H91  1  0.35740000  0.07540000  0.89740000  1.0 0.1180539032
H  H92  1  0.38810000  0.10290000  0.82870000  1.0 0.1274951555
H  H93  1  0.57890000  0.91350000  0.75750000  1.0 0.1274951555
H  H94  1  0.55070000  0.88150000  0.83190000  1.0 0.1274951555
H  H95  1  0.55300000  0.99740000  0.73140000  1.0 0.1090906619
H  H96  1  0.48240000  0.07140000  0.77360000  1.0 0.1090906619
H  H97  1  0.53270000  0.07830000  0.69870000  1.0 0.1274951555
H  H98  1  0.58270000  0.08630000  0.50630000  1.0 0.1180539032
H  H99  1  0.53910000  0.07270000  0.48490000  1.0 0.1090906619
H  H100  1  0.49810000  0.05790000  0.57030000  1.0 0.1274951555
H  H101  1  0.20670000  0.94190000  0.00270000  1.0 0.1090906619
H  H102  1  0.10050000  0.04990000  0.01510000  1.0 0.1274951555
H  H103  1  0.15720000  0.01580000  0.81580000  1.0 0.1384315678
H  H104  1  0.26220000  0.90740000  0.81120000  1.0 0.1180539032
H  H105  1  0.38860000  0.75280000  0.00560000  1.0 0.1090906619
H  H106  1  0.48730000  0.65330000  0.01910000  1.0 0.1274951555
H  H107  1  0.57750000  0.58770000  0.81890000  1.0 0.1180539032
H  H108  1  0.47500000  0.69120000  0.81080000  1.0 0.1180539032
H  H109  1  0.31150000  0.73450000  0.83510000  1.0 0.1180539032
H  H110  1  0.32220000  0.68640000  0.76360000  1.0 0.1090906619
H  H111  1  0.38240000  0.65320000  0.65060000  1.0 0.1274951555
H  H112  1  0.41750000  0.72050000  0.68010000  1.0 0.1384315678
H  H113  1  0.45890000  0.69910000  0.56070000  1.0 0.0991589331
H  H114  1  0.51370000  0.63370000  0.58750000  1.0 0.1090906619
H  H115  1  0.61550000  0.53050000  0.50970000  1.0 0.1180539032
H  H116  1  0.46270000  0.68230000  0.45030000  1.0 0.1180539032
H  H117  1  0.51520000  0.24860000  0.69360000  1.0 0.1180539032
H  H118  1  0.40620000  0.35700000  0.70460000  1.0 0.0991589331
H  H119  1  0.44470000  0.30790000  0.51830000  1.0 0.0817543441
H  H120  1  0.55370000  0.19950000  0.50730000  1.0 0.0991589331
H  H121  1  0.27160000  0.48600000  0.50600000  1.0 0.1180539032
H  H122  1  0.37570000  0.38310000  0.51210000  1.0 0.0901666406
H  H123  1  0.29970000  0.45090000  0.70870000  1.0 0.0991589331
H  H124  1  0.19560000  0.55400000  0.70260000  1.0 0.1180539032
H  H125  1  0.86590000  0.35950000  0.73970000  1.0 0.1180539032
H  H126  1  0.89030000  0.38230000  0.64390000  1.0 0.1180539032
H  H127  1  0.92520000  0.41040000  0.64200000  1.0 0.1180539032
H  H128  1  0.88520000  0.41780000  0.84000000  1.0 0.1464032633
H  H129  1  0.99780000  0.38760000  0.65820000  1.0 0.1090906619
H  H130  1  0.92830000  0.46350000  0.66070000  1.0 0.1090906619
H  H131  1  0.07540000  0.35740000  0.66980000  1.0 0.1180539032
H  H132  1  0.10290000  0.38810000  0.68030000  1.0 0.1274951555
H  H133  1  0.91350000  0.57890000  0.75010000  1.0 0.1274951555
H  H134  1  0.88150000  0.55070000  0.73590000  1.0 0.1274951555
H  H135  1  0.99740000  0.55300000  0.71820000  1.0 0.1090906619
H  H136  1  0.07140000  0.48240000  0.67260000  1.0 0.1090906619
H  H137  1  0.07830000  0.53270000  0.69030000  1.0 0.1274951555
H  H138  1  0.08630000  0.58270000  0.82470000  1.0 0.1180539032
H  H139  1  0.07270000  0.53910000  0.90330000  1.0 0.1090906619
H  H140  1  0.05790000  0.49810000  0.87370000  1.0 0.1384315678
H  H141  1  0.94190000  0.20670000  0.84870000  1.0 0.1090906619
H  H142  1  0.04990000  0.10050000  0.83450000  1.0 0.1274951555
H  H143  1  0.01580000  0.15720000  0.01120000  1.0 0.1384315678
H  H144  1  0.90740000  0.26220000  0.01920000  1.0 0.1180539032
H  H145  1  0.75280000  0.38860000  0.85300000  1.0 0.1090906619
H  H146  1  0.65330000  0.48730000  0.84030000  1.0 0.1274951555
H  H147  1  0.58770000  0.57750000  0.01590000  1.0 0.1180539032
H  H148  1  0.69120000  0.47500000  0.02300000  1.0 0.1180539032
H  H149  1  0.73450000  0.31150000  0.11890000  1.0 0.1180539032
H  H150  1  0.68640000  0.32220000  0.22780000  1.0 0.1090906619
H  H151  1  0.65320000  0.38240000  0.31380000  1.0 0.1274951555
H  H152  1  0.72050000  0.41750000  0.18190000  1.0 0.1384315678
H  H153  1  0.69910000  0.45890000  0.28130000  1.0 0.0991589331
H  H154  1  0.63370000  0.51370000  0.26510000  1.0 0.1090906619
H  H155  1  0.53050000  0.61550000  0.34430000  1.0 0.1180539032
H  H156  1  0.68230000  0.46270000  0.40470000  1.0 0.1180539032
H  H157  1  0.24860000  0.51520000  0.54260000  1.0 0.1180539032
H  H158  1  0.35700000  0.40620000  0.53220000  1.0 0.0991589331
H  H159  1  0.30790000  0.44470000  0.72910000  1.0 0.0817543441
H  H160  1  0.19950000  0.55370000  0.73950000  1.0 0.0991589331
H  H161  1  0.51360000  0.74400000  0.76400000  1.0 0.1180539032
H  H162  1  0.52090000  0.73790000  0.86690000  1.0 0.0901666406
H  H163  1  0.70930000  0.54130000  0.79910000  1.0 0.0991589331
H  H164  1  0.70220000  0.54740000  0.69600000  1.0 0.1180539032
H  H165  1  0.21510000  0.51030000  0.89050000  1.0 0.1180539032
H  H166  1  0.16650000  0.60610000  0.86770000  1.0 0.1180539032
H  H167  1  0.22760000  0.60800000  0.83960000  1.0 0.1180539032
H  H168  1  0.39300000  0.41000000  0.83220000  1.0 0.1464032633
H  H169  1  0.29360000  0.59180000  0.86240000  1.0 0.1090906619
H  H170  1  0.30250000  0.58930000  0.78650000  1.0 0.1090906619
H  H171  1  0.35260000  0.58020000  0.89260000  1.0 0.1180539032
H  H172  1  0.42130000  0.56970000  0.86190000  1.0 0.1274951555
H  H173  1  0.49250000  0.49990000  0.67110000  1.0 0.1274951555
H  H174  1  0.41810000  0.51410000  0.69930000  1.0 0.1274951555
H  H175  1  0.51860000  0.53180000  0.69700000  1.0 0.1090906619
H  H176  1  0.47640000  0.57740000  0.76760000  1.0 0.1090906619
H  H177  1  0.55130000  0.55970000  0.71730000  1.0 0.1274951555
H  H178  1  0.74370000  0.42530000  0.66730000  1.0 0.1180539032
H  H179  1  0.76510000  0.34670000  0.71090000  1.0 0.1090906619
H  H180  1  0.67970000  0.37630000  0.75190000  1.0 0.1384315678
H  H181  1  0.24730000  0.40130000  0.04330000  1.0 0.1090906619
H  H182  1  0.23490000  0.41550000  0.14950000  1.0 0.1274951555
H  H183  1  0.43420000  0.23880000  0.09280000  1.0 0.1384315678
H  H184  1  0.43880000  0.23080000  0.98780000  1.0 0.1180539032
H  H185  1  0.24440000  0.39700000  0.86140000  1.0 0.1090906619
H  H186  1  0.23090000  0.40970000  0.76270000  1.0 0.1274951555
H  H187  1  0.43110000  0.23410000  0.67250000  1.0 0.1180539032
H  H188  1  0.43920000  0.22700000  0.77500000  1.0 0.1180539032
H  H189  1  0.41490000  0.13110000  0.93850000  1.0 0.1180539032
H  H190  1  0.48640000  0.02220000  0.92780000  1.0 0.1090906619
H  H191  1  0.59940000  0.93620000  0.86760000  1.0 0.1274951555
H  H192  1  0.56990000  0.06810000  0.83250000  1.0 0.1384315678
H  H193  1  0.68930000  0.96870000  0.79110000  1.0 0.0991589331
H  H194  1  0.66250000  0.98490000  0.73630000  1.0 0.1090906619
H  H195  1  0.74030000  0.90570000  0.63450000  1.0 0.1180539032
H  H196  1  0.79970000  0.84530000  0.78730000  1.0 0.1180539032
H  H197  1  0.55640000  0.70740000  0.73480000  1.0 0.1180539032
H  H198  1  0.54540000  0.71780000  0.84380000  1.0 0.0991589331
H  H199  1  0.73170000  0.52090000  0.80530000  1.0 0.0817543441
H  H200  1  0.74270000  0.51050000  0.69630000  1.0 0.0991589331
H  H201  1  0.74400000  0.51360000  0.97840000  1.0 0.1180539032
H  H202  1  0.73790000  0.52090000  0.87430000  1.0 0.0901666406
H  H203  1  0.54130000  0.70930000  0.95030000  1.0 0.0991589331
H  H204  1  0.54740000  0.70220000  0.05440000  1.0 0.1180539032
H  H205  1  0.51030000  0.21510000  0.38410000  1.0 0.1180539032
H  H206  1  0.60610000  0.16650000  0.35970000  1.0 0.1180539032
H  H207  1  0.60800000  0.22760000  0.32480000  1.0 0.1180539032
H  H208  1  0.41000000  0.39300000  0.36480000  1.0 0.1464032633
H  H209  1  0.59180000  0.29360000  0.25220000  1.0 0.1090906619
H  H210  1  0.58930000  0.30250000  0.32170000  1.0 0.1090906619
H  H211  1  0.58020000  0.35260000  0.17460000  1.0 0.1180539032
H  H212  1  0.56970000  0.42130000  0.14710000  1.0 0.1274951555
H  H213  1  0.49990000  0.49250000  0.33650000  1.0 0.1274951555
H  H214  1  0.51410000  0.41810000  0.36850000  1.0 0.1274951555
H  H215  1  0.53180000  0.51860000  0.25260000  1.0 0.1090906619
H  H216  1  0.57740000  0.47640000  0.17860000  1.0 0.1090906619
H  H217  1  0.55970000  0.55130000  0.17170000  1.0 0.1274951555
H  H218  1  0.42530000  0.74370000  0.16370000  1.0 0.1180539032
H  H219  1  0.34670000  0.76510000  0.17730000  1.0 0.1090906619
H  H220  1  0.37630000  0.67970000  0.19210000  1.0 0.1274951555
H  H221  1  0.40130000  0.24730000  0.30810000  1.0 0.1090906619
H  H222  1  0.41550000  0.23490000  0.20010000  1.0 0.1274951555
H  H223  1  0.23880000  0.43420000  0.23420000  1.0 0.1384315678
H  H224  1  0.23080000  0.43880000  0.34260000  1.0 0.1180539032
H  H225  1  0.39700000  0.24440000  0.49720000  1.0 0.1090906619
H  H226  1  0.40970000  0.23090000  0.59670000  1.0 0.1274951555
H  H227  1  0.23410000  0.43110000  0.66230000  1.0 0.1180539032
H  H228  1  0.22700000  0.43920000  0.55880000  1.0 0.1180539032
H  H229  1  0.13110000  0.41490000  0.51550000  1.0 0.1180539032
H  H230  1  0.02220000  0.48640000  0.56360000  1.0 0.1090906619
H  H231  1  0.93620000  0.59940000  0.59680000  1.0 0.1274951555
H  H232  1  0.06810000  0.56990000  0.52950000  1.0 0.1384315678
H  H233  1  0.96870000  0.68930000  0.55090000  1.0 0.0991589331
H  H234  1  0.98490000  0.66250000  0.61630000  1.0 0.1090906619
H  H235  1  0.90570000  0.74030000  0.71950000  1.0 0.1180539032
H  H236  1  0.84530000  0.79970000  0.56770000  1.0 0.1180539032
H  H237  1  0.70740000  0.55640000  0.00140000  1.0 0.1180539032
H  H238  1  0.71780000  0.54540000  0.89300000  1.0 0.0991589331
H  H239  1  0.52090000  0.73170000  0.94210000  1.0 0.0817543441
H  H240  1  0.51050000  0.74270000  0.05050000  1.0 0.0991589331
H  H241  1  0.73640000  0.50600000  0.48600000  1.0 0.1180539032
H  H242  1  0.72910000  0.51210000  0.38310000  1.0 0.0901666406
H  H243  1  0.54070000  0.70870000  0.45090000  1.0 0.0991589331
H  H244  1  0.54780000  0.70260000  0.55400000  1.0 0.1180539032
H  H245  1  0.03490000  0.73970000  0.35950000  1.0 0.1180539032
H  H246  1  0.08350000  0.64390000  0.38230000  1.0 0.1180539032
H  H247  1  0.02240000  0.64200000  0.41040000  1.0 0.1180539032
H  H248  1  0.85700000  0.84000000  0.41780000  1.0 0.1464032633
H  H249  1  0.95640000  0.65820000  0.38760000  1.0 0.1090906619
H  H250  1  0.94750000  0.66070000  0.46350000  1.0 0.1090906619
H  H251  1  0.89740000  0.66980000  0.35740000  1.0 0.1180539032
H  H252  1  0.82870000  0.68030000  0.38810000  1.0 0.1274951555
H  H253  1  0.75750000  0.75010000  0.57890000  1.0 0.1274951555
H  H254  1  0.83190000  0.73590000  0.55070000  1.0 0.1274951555
H  H255  1  0.73140000  0.71820000  0.55300000  1.0 0.1090906619
H  H256  1  0.77360000  0.67260000  0.48240000  1.0 0.1090906619
H  H257  1  0.69870000  0.69030000  0.53270000  1.0 0.1274951555
H  H258  1  0.50630000  0.82470000  0.58270000  1.0 0.1180539032
H  H259  1  0.48490000  0.90330000  0.53910000  1.0 0.1090906619
H  H260  1  0.57030000  0.87370000  0.49810000  1.0 0.1384315678
H  H261  1  0.00270000  0.84870000  0.20670000  1.0 0.1090906619
H  H262  1  0.01510000  0.83450000  0.10050000  1.0 0.1274951555
H  H263  1  0.81580000  0.01120000  0.15720000  1.0 0.1384315678
H  H264  1  0.81120000  0.01920000  0.26220000  1.0 0.1180539032
H  H265  1  0.00560000  0.85300000  0.38860000  1.0 0.1090906619
H  H266  1  0.01910000  0.84030000  0.48730000  1.0 0.1274951555
H  H267  1  0.81890000  0.01590000  0.57750000  1.0 0.1180539032
H  H268  1  0.81080000  0.02300000  0.47500000  1.0 0.1180539032
H  H269  1  0.83510000  0.11890000  0.31150000  1.0 0.1180539032
H  H270  1  0.76360000  0.22780000  0.32220000  1.0 0.1090906619
H  H271  1  0.65060000  0.31380000  0.38240000  1.0 0.1274951555
H  H272  1  0.68010000  0.18190000  0.41750000  1.0 0.1384315678
H  H273  1  0.56070000  0.28130000  0.45890000  1.0 0.0991589331
H  H274  1  0.58750000  0.26510000  0.51370000  1.0 0.1090906619
H  H275  1  0.50970000  0.34430000  0.61550000  1.0 0.1180539032
H  H276  1  0.45030000  0.40470000  0.46270000  1.0 0.1180539032
H  H277  1  0.69360000  0.54260000  0.51520000  1.0 0.1180539032
H  H278  1  0.70460000  0.53220000  0.40620000  1.0 0.0991589331
H  H279  1  0.51830000  0.72910000  0.44470000  1.0 0.0817543441
H  H280  1  0.50730000  0.73950000  0.55370000  1.0 0.0991589331
H  H281  1  0.50600000  0.73640000  0.27160000  1.0 0.1180539032
H  H282  1  0.51210000  0.72910000  0.37570000  1.0 0.0901666406
H  H283  1  0.70870000  0.54070000  0.29970000  1.0 0.0991589331
H  H284  1  0.70260000  0.54780000  0.19560000  1.0 0.1180539032
H  H285  1  0.73970000  0.03490000  0.86590000  1.0 0.1180539032
H  H286  1  0.64390000  0.08350000  0.89030000  1.0 0.1180539032
H  H287  1  0.64200000  0.02240000  0.92520000  1.0 0.1180539032
H  H288  1  0.84000000  0.85700000  0.88520000  1.0 0.1464032633
H  H289  1  0.65820000  0.95640000  0.99780000  1.0 0.1090906619
H  H290  1  0.66070000  0.94750000  0.92830000  1.0 0.1090906619
H  H291  1  0.66980000  0.89740000  0.07540000  1.0 0.1180539032
H  H292  1  0.68030000  0.82870000  0.10290000  1.0 0.1274951555
H  H293  1  0.75010000  0.75750000  0.91350000  1.0 0.1274951555
H  H294  1  0.73590000  0.83190000  0.88150000  1.0 0.1274951555
H  H295  1  0.71820000  0.73140000  0.99740000  1.0 0.1090906619
H  H296  1  0.67260000  0.77360000  0.07140000  1.0 0.1090906619
H  H297  1  0.69030000  0.69870000  0.07830000  1.0 0.1274951555
H  H298  1  0.82470000  0.50630000  0.08630000  1.0 0.1180539032
H  H299  1  0.90330000  0.48490000  0.07270000  1.0 0.1090906619
H  H300  1  0.87370000  0.57030000  0.05790000  1.0 0.1274951555
H  H301  1  0.84870000  0.00270000  0.94190000  1.0 0.1090906619
H  H302  1  0.83450000  0.01510000  0.04990000  1.0 0.1274951555
H  H303  1  0.01120000  0.81580000  0.01580000  1.0 0.1384315678
H  H304  1  0.01920000  0.81120000  0.90740000  1.0 0.1180539032
H  H305  1  0.85300000  0.00560000  0.75280000  1.0 0.1090906619
H  H306  1  0.84030000  0.01910000  0.65330000  1.0 0.1274951555
H  H307  1  0.01590000  0.81890000  0.58770000  1.0 0.1180539032
H  H308  1  0.02300000  0.81080000  0.69120000  1.0 0.1180539032
H  H309  1  0.11890000  0.83510000  0.73450000  1.0 0.1180539032
H  H310  1  0.22780000  0.76360000  0.68640000  1.0 0.1090906619
H  H311  1  0.31380000  0.65060000  0.65320000  1.0 0.1274951555
H  H312  1  0.18190000  0.68010000  0.72050000  1.0 0.1384315678
H  H313  1  0.28130000  0.56070000  0.69910000  1.0 0.0991589331
H  H314  1  0.26510000  0.58750000  0.63370000  1.0 0.1090906619
H  H315  1  0.34430000  0.50970000  0.53050000  1.0 0.1180539032
H  H316  1  0.40470000  0.45030000  0.68230000  1.0 0.1180539032
H  H317  1  0.54260000  0.69360000  0.24860000  1.0 0.1180539032
H  H318  1  0.53220000  0.70460000  0.35700000  1.0 0.0991589331
H  H319  1  0.72910000  0.51830000  0.30790000  1.0 0.0817543441
H  H320  1  0.73950000  0.50730000  0.19950000  1.0 0.0991589331
H  H321  1  0.12860000  0.32900000  0.15740000  1.0 0.1180539032
H  H322  1  0.22680000  0.22840000  0.17220000  1.0 0.1274951555
H  H323  1  0.13170000  0.30370000  0.36850000  1.0 0.1274951555
H  H324  1  0.03520000  0.40220000  0.35060000  1.0 0.1090906619
H  H325  1  0.90680000  0.55940000  0.15620000  1.0 0.1090906619
H  H326  1  0.79930000  0.66710000  0.16750000  1.0 0.1274951555
H  H327  1  0.75080000  0.68820000  0.36660000  1.0 0.1274951555
H  H328  1  0.85720000  0.58100000  0.35020000  1.0 0.1090906619
H  H329  1  0.95810000  0.37910000  0.18190000  1.0 0.1180539032
H  H330  1  0.97790000  0.32530000  0.10210000  1.0 0.1090906619
H  H331  1  0.04380000  0.28980000  0.99200000  1.0 0.1384315678
H  H332  1  0.07480000  0.35840000  0.03600000  1.0 0.1464032633
H  H333  1  0.16330000  0.28490000  0.93850000  1.0 0.1180539032
H  H334  1  0.10500000  0.34920000  0.91360000  1.0 0.1180539032
H  H335  1  0.11450000  0.33310000  0.80010000  1.0 0.1274951555
H  H336  1  0.26870000  0.17890000  0.85670000  1.0 0.1274951555
H  H337  1  0.02290000  0.50030000  0.37390000  1.0 0.1180539032
H  H338  1  0.06610000  0.53010000  0.19490000  1.0 0.1274951555
H  H339  1  0.10720000  0.52740000  0.33820000  1.0 0.1274951555
H  H340  1  0.06800000  0.50520000  0.41000000  1.0 0.1090906619
H  H341  1  0.04880000  0.60700000  0.17780000  1.0 0.1090906619
H  H342  1  0.12160000  0.53700000  0.13000000  1.0 0.0991589331
H  H343  1  0.04390000  0.67070000  0.23210000  1.0 0.1180539032
H  H344  1  0.18230000  0.53730000  0.05250000  1.0 0.1180539032
H  H345  1  0.32900000  0.12860000  0.38500000  1.0 0.1180539032
H  H346  1  0.22840000  0.22680000  0.37260000  1.0 0.1274951555
H  H347  1  0.30370000  0.13170000  0.19610000  1.0 0.1274951555
H  H348  1  0.40220000  0.03520000  0.21200000  1.0 0.1090906619
H  H349  1  0.55940000  0.90680000  0.37760000  1.0 0.1090906619
H  H350  1  0.66710000  0.79930000  0.36610000  1.0 0.1274951555
H  H351  1  0.68820000  0.75080000  0.19440000  1.0 0.1274951555
H  H352  1  0.58100000  0.85720000  0.21160000  1.0 0.1090906619
H  H353  1  0.37910000  0.95810000  0.48090000  1.0 0.1180539032
H  H354  1  0.32530000  0.97790000  0.59470000  1.0 0.1090906619
H  H355  1  0.28980000  0.04380000  0.67440000  1.0 0.1384315678
H  H356  1  0.35840000  0.07480000  0.53080000  1.0 0.1464032633
H  H357  1  0.28490000  0.16330000  0.61330000  1.0 0.1180539032
H  H358  1  0.34920000  0.10500000  0.63220000  1.0 0.1180539032
H  H359  1  0.33310000  0.11450000  0.75230000  1.0 0.1274951555
H  H360  1  0.17890000  0.26870000  0.69570000  1.0 0.1180539032
H  H361  1  0.50030000  0.02290000  0.10290000  1.0 0.1180539032
H  H362  1  0.53010000  0.06610000  0.20890000  1.0 0.1274951555
H  H363  1  0.52740000  0.10720000  0.02720000  1.0 0.1274951555
H  H364  1  0.50520000  0.06800000  0.01680000  1.0 0.1090906619
H  H365  1  0.60700000  0.04880000  0.16640000  1.0 0.1090906619
H  H366  1  0.53700000  0.12160000  0.21140000  1.0 0.0991589331
H  H367  1  0.67070000  0.04390000  0.05330000  1.0 0.1180539032
H  H368  1  0.53730000  0.18230000  0.22790000  1.0 0.1180539032
H  H369  1  0.12140000  0.92100000  0.09260000  1.0 0.1180539032
H  H370  1  0.02320000  0.02160000  0.07780000  1.0 0.1274951555
H  H371  1  0.11830000  0.94630000  0.88150000  1.0 0.1274951555
H  H372  1  0.21480000  0.84780000  0.89940000  1.0 0.1090906619
H  H373  1  0.34320000  0.69060000  0.09380000  1.0 0.1090906619
H  H374  1  0.45070000  0.58290000  0.08250000  1.0 0.1274951555
H  H375  1  0.49920000  0.56180000  0.88340000  1.0 0.1274951555
H  H376  1  0.39280000  0.66900000  0.89980000  1.0 0.1090906619
H  H377  1  0.29190000  0.87090000  0.06810000  1.0 0.1180539032
H  H378  1  0.27210000  0.92470000  0.14790000  1.0 0.1090906619
H  H379  1  0.20620000  0.96020000  0.25800000  1.0 0.1384315678
H  H380  1  0.17520000  0.89160000  0.21400000  1.0 0.1464032633
H  H381  1  0.08670000  0.96510000  0.31150000  1.0 0.1180539032
H  H382  1  0.14500000  0.90080000  0.33640000  1.0 0.1180539032
H  H383  1  0.13550000  0.91690000  0.44990000  1.0 0.1180539032
H  H384  1  0.98130000  0.07110000  0.39330000  1.0 0.1180539032
H  H385  1  0.22710000  0.74970000  0.87610000  1.0 0.1180539032
H  H386  1  0.18390000  0.71990000  0.05510000  1.0 0.1274951555
H  H387  1  0.14280000  0.72260000  0.91180000  1.0 0.1274951555
H  H388  1  0.18200000  0.74480000  0.84000000  1.0 0.1090906619
H  H389  1  0.20120000  0.64300000  0.07220000  1.0 0.1090906619
H  H390  1  0.12840000  0.71300000  0.12000000  1.0 0.0991589331
H  H391  1  0.20610000  0.57930000  0.01790000  1.0 0.1180539032
H  H392  1  0.06770000  0.71270000  0.19750000  1.0 0.1180539032
H  H393  1  0.92100000  0.12140000  0.86500000  1.0 0.1180539032
H  H394  1  0.02160000  0.02320000  0.87740000  1.0 0.1274951555
H  H395  1  0.94630000  0.11830000  0.05390000  1.0 0.1274951555
H  H396  1  0.84780000  0.21480000  0.03800000  1.0 0.1090906619
H  H397  1  0.69060000  0.34320000  0.87240000  1.0 0.1090906619
H  H398  1  0.58290000  0.45070000  0.88390000  1.0 0.1274951555
H  H399  1  0.56180000  0.49920000  0.05560000  1.0 0.1274951555
H  H400  1  0.66900000  0.39280000  0.03840000  1.0 0.1090906619
H  H401  1  0.87090000  0.29190000  0.76910000  1.0 0.1180539032
H  H402  1  0.92470000  0.27210000  0.65530000  1.0 0.1090906619
H  H403  1  0.96020000  0.20620000  0.57560000  1.0 0.1384315678
H  H404  1  0.89160000  0.17520000  0.71920000  1.0 0.1464032633
H  H405  1  0.96510000  0.08670000  0.63670000  1.0 0.1180539032
H  H406  1  0.90080000  0.14500000  0.61780000  1.0 0.1180539032
H  H407  1  0.91690000  0.13550000  0.49770000  1.0 0.1274951555
H  H408  1  0.07110000  0.98130000  0.55430000  1.0 0.1274951555
H  H409  1  0.74970000  0.22710000  0.14710000  1.0 0.1180539032
H  H410  1  0.71990000  0.18390000  0.04110000  1.0 0.1274951555
H  H411  1  0.72260000  0.14280000  0.22280000  1.0 0.1274951555
H  H412  1  0.74480000  0.18200000  0.23320000  1.0 0.1090906619
H  H413  1  0.64300000  0.20120000  0.08360000  1.0 0.1090906619
H  H414  1  0.71300000  0.12840000  0.03860000  1.0 0.0991589331
H  H415  1  0.57930000  0.20610000  0.19670000  1.0 0.1180539032
H  H416  1  0.71270000  0.06770000  0.02210000  1.0 0.1180539032
H  H417  1  0.15740000  0.38500000  0.12860000  1.0 0.1180539032
H  H418  1  0.17220000  0.37260000  0.22680000  1.0 0.1274951555
H  H419  1  0.36850000  0.19610000  0.13170000  1.0 0.1274951555
H  H420  1  0.35060000  0.21200000  0.03520000  1.0 0.1090906619
H  H421  1  0.15620000  0.37760000  0.90680000  1.0 0.1090906619
H  H422  1  0.16750000  0.36610000  0.79930000  1.0 0.1274951555
H  H423  1  0.36660000  0.19440000  0.75080000  1.0 0.1274951555
H  H424  1  0.35020000  0.21160000  0.85720000  1.0 0.1090906619
H  H425  1  0.18190000  0.48090000  0.95810000  1.0 0.1180539032
H  H426  1  0.10210000  0.59470000  0.97790000  1.0 0.1090906619
H  H427  1  0.99200000  0.67440000  0.04380000  1.0 0.1384315678
H  H428  1  0.03600000  0.53080000  0.07480000  1.0 0.1464032633
H  H429  1  0.93850000  0.61330000  0.16330000  1.0 0.1180539032
H  H430  1  0.91360000  0.63220000  0.10500000  1.0 0.1180539032
H  H431  1  0.80010000  0.75230000  0.11450000  1.0 0.1274951555
H  H432  1  0.85670000  0.69570000  0.26870000  1.0 0.1274951555
H  H433  1  0.37390000  0.10290000  0.02290000  1.0 0.1180539032
H  H434  1  0.19490000  0.20890000  0.06610000  1.0 0.1274951555
H  H435  1  0.33820000  0.02720000  0.10720000  1.0 0.1274951555
H  H436  1  0.41000000  0.01680000  0.06800000  1.0 0.1090906619
H  H437  1  0.17780000  0.16640000  0.04880000  1.0 0.1090906619
H  H438  1  0.13000000  0.21140000  0.12160000  1.0 0.0991589331
H  H439  1  0.23210000  0.05330000  0.04390000  1.0 0.1180539032
H  H440  1  0.05250000  0.22790000  0.18230000  1.0 0.1180539032
H  H441  1  0.38500000  0.15740000  0.32900000  1.0 0.1180539032
H  H442  1  0.37260000  0.17220000  0.22840000  1.0 0.1274951555
H  H443  1  0.19610000  0.36850000  0.30370000  1.0 0.1274951555
H  H444  1  0.21200000  0.35060000  0.40220000  1.0 0.1090906619
H  H445  1  0.37760000  0.15620000  0.55940000  1.0 0.1090906619
H  H446  1  0.36610000  0.16750000  0.66710000  1.0 0.1274951555
H  H447  1  0.19440000  0.36660000  0.68820000  1.0 0.1274951555
H  H448  1  0.21160000  0.35020000  0.58100000  1.0 0.1090906619
H  H449  1  0.48090000  0.18190000  0.37910000  1.0 0.1180539032
H  H450  1  0.59470000  0.10210000  0.32530000  1.0 0.1090906619
H  H451  1  0.67440000  0.99200000  0.28980000  1.0 0.1384315678
H  H452  1  0.53080000  0.03600000  0.35840000  1.0 0.1464032633
H  H453  1  0.61330000  0.93850000  0.28490000  1.0 0.1180539032
H  H454  1  0.63220000  0.91360000  0.34920000  1.0 0.1180539032
H  H455  1  0.75230000  0.80010000  0.33310000  1.0 0.1274951555
H  H456  1  0.69570000  0.85670000  0.17890000  1.0 0.1180539032
H  H457  1  0.10290000  0.37390000  0.50030000  1.0 0.1180539032
H  H458  1  0.20890000  0.19490000  0.53010000  1.0 0.1180539032
H  H459  1  0.02720000  0.33820000  0.52740000  1.0 0.1274951555
H  H460  1  0.01680000  0.41000000  0.50520000  1.0 0.1090906619
H  H461  1  0.16640000  0.17780000  0.60700000  1.0 0.1090906619
H  H462  1  0.21140000  0.13000000  0.53700000  1.0 0.0991589331
H  H463  1  0.05330000  0.23210000  0.67070000  1.0 0.1180539032
H  H464  1  0.22790000  0.05250000  0.53730000  1.0 0.1180539032
H  H465  1  0.09260000  0.86500000  0.12140000  1.0 0.1180539032
H  H466  1  0.07780000  0.87740000  0.02320000  1.0 0.1274951555
H  H467  1  0.88150000  0.05390000  0.11830000  1.0 0.1274951555
H  H468  1  0.89940000  0.03800000  0.21480000  1.0 0.1090906619
H  H469  1  0.09380000  0.87240000  0.34320000  1.0 0.1090906619
H  H470  1  0.08250000  0.88390000  0.45070000  1.0 0.1274951555
H  H471  1  0.88340000  0.05560000  0.49920000  1.0 0.1274951555
H  H472  1  0.89980000  0.03840000  0.39280000  1.0 0.1090906619
H  H473  1  0.06810000  0.76910000  0.29190000  1.0 0.1180539032
H  H474  1  0.14790000  0.65530000  0.27210000  1.0 0.1090906619
H  H475  1  0.25800000  0.57560000  0.20620000  1.0 0.1384315678
H  H476  1  0.21400000  0.71920000  0.17520000  1.0 0.1464032633
H  H477  1  0.31150000  0.63670000  0.08670000  1.0 0.1180539032
H  H478  1  0.33640000  0.61780000  0.14500000  1.0 0.1180539032
H  H479  1  0.44990000  0.49770000  0.13550000  1.0 0.1274951555
H  H480  1  0.39330000  0.55430000  0.98130000  1.0 0.1180539032
H  H481  1  0.87610000  0.14710000  0.22710000  1.0 0.1180539032
H  H482  1  0.05510000  0.04110000  0.18390000  1.0 0.1274951555
H  H483  1  0.91180000  0.22280000  0.14280000  1.0 0.1274951555
H  H484  1  0.84000000  0.23320000  0.18200000  1.0 0.1090906619
H  H485  1  0.07220000  0.08360000  0.20120000  1.0 0.1090906619
H  H486  1  0.12000000  0.03860000  0.12840000  1.0 0.0991589331
H  H487  1  0.01790000  0.19670000  0.20610000  1.0 0.1180539032
H  H488  1  0.19750000  0.02210000  0.06770000  1.0 0.1180539032
H  H489  1  0.86500000  0.09260000  0.92100000  1.0 0.1180539032
H  H490  1  0.87740000  0.07780000  0.02160000  1.0 0.1274951555
H  H491  1  0.05390000  0.88150000  0.94630000  1.0 0.1274951555
H  H492  1  0.03800000  0.89940000  0.84780000  1.0 0.1090906619
H  H493  1  0.87240000  0.09380000  0.69060000  1.0 0.1090906619
H  H494  1  0.88390000  0.08250000  0.58290000  1.0 0.1274951555
H  H495  1  0.05560000  0.88340000  0.56180000  1.0 0.1274951555
H  H496  1  0.03840000  0.89980000  0.66900000  1.0 0.1090906619
H  H497  1  0.76910000  0.06810000  0.87090000  1.0 0.1180539032
H  H498  1  0.65530000  0.14790000  0.92470000  1.0 0.1090906619
H  H499  1  0.57560000  0.25800000  0.96020000  1.0 0.1384315678
H  H500  1  0.71920000  0.21400000  0.89160000  1.0 0.1464032633
H  H501  1  0.63670000  0.31150000  0.96510000  1.0 0.1180539032
H  H502  1  0.61780000  0.33640000  0.90080000  1.0 0.1180539032
H  H503  1  0.49770000  0.44990000  0.91690000  1.0 0.1274951555
H  H504  1  0.55430000  0.39330000  0.07110000  1.0 0.1180539032
H  H505  1  0.14710000  0.87610000  0.74970000  1.0 0.1180539032
H  H506  1  0.04110000  0.05510000  0.71990000  1.0 0.1274951555
H  H507  1  0.22280000  0.91180000  0.72260000  1.0 0.1274951555
H  H508  1  0.23320000  0.84000000  0.74480000  1.0 0.1090906619
H  H509  1  0.08360000  0.07220000  0.64300000  1.0 0.1090906619
H  H510  1  0.03860000  0.12000000  0.71300000  1.0 0.0991589331
H  H511  1  0.19670000  0.01790000  0.57930000  1.0 0.1180539032
H  H512  1  0.02210000  0.19750000  0.71270000  1.0 0.1180539032
C  C1  1  0.77100000  0.97280000  0.55280000  1.0 -0.0707434754
C  C2  1  0.83270000  0.91050000  0.55710000  1.0 -0.0507235679
C  C3  1  0.84320000  0.90200000  0.61580000  1.0 -0.0135885214
C  C4  1  0.79210000  0.95590000  0.67010000  1.0 -0.0311441207
C  C5  1  0.73030000  0.01830000  0.66590000  1.0 0.0681766522
C  C6  1  0.87563000  0.39583000  0.34137000  1.0 0.5281610852
C  C7  1  0.86330000  0.37710000  0.30830000  1.0 -0.0166290079
C  C8  1  0.87489000  0.37449000  0.24071000  1.0 -0.1712382296
C  C9  1  0.86323000  0.35803000  0.21117000  1.0 -0.0983726922
C  C10  1  0.84483000  0.33883000  0.24797000  1.0 -0.2271786099
C  C11  1  0.83464000  0.34084000  0.31456000  1.0 0.2305632299
C  C12  1  0.84168000  0.36148000  0.34712000  1.0 -0.2202336579
C  C13  1  0.81736000  0.29216000  0.32604000  1.0 -0.0507235679
C  C14  1  0.79893000  0.27373000  0.37947000  1.0 0.0681766522
C  C15  1  0.84792000  0.20752000  0.38028000  1.0 -0.1276805366
C  C16  1  0.82899000  0.19239000  0.42181000  1.0 -0.1476225714
C  C17  1  0.76616000  0.23656000  0.46524000  1.0 0.0817543441
C  C18  1  0.71534000  0.30454000  0.46426000  1.0 -0.1610465361
C  C19  1  0.73202000  0.32362000  0.42018000  1.0 -0.1276805366
C  C20  1  0.74504000  0.21524000  0.50456000  1.0 -0.0624181004
C  C21  1  0.73850000  0.18290000  0.60910000  1.0 0.2165243989
C  C22  1  0.71586000  0.17286000  0.59414000  1.0 -0.2489897104
C  C23  1  0.69092000  0.16432000  0.64588000  1.0 0.0313068996
C  C24  1  0.68624000  0.16744000  0.70976000  1.0 -0.1476225714
C  C25  1  0.71140000  0.17680000  0.72260000  1.0 -0.0831179144
C  C26  1  0.73627000  0.18507000  0.67133000  1.0 -0.1892585805
C  C27  1  0.66310000  0.15710000  0.63010000  1.0 0.3412301941
C  C28  1  0.05361000  0.29301000  0.28559000  1.0 0.0901666406
C  C29  1  0.11793000  0.22793000  0.27747000  1.0 -0.2030963516
C  C30  1  0.13571000  0.20371000  0.33309000  1.0 0.1090906619
C  C31  1  0.08459000  0.24799000  0.39481000  1.0 -0.1810817771
C  C32  1  0.02103000  0.31323000  0.39737000  1.0 0.0681766522
C  C33  1  0.82308000  0.53088000  0.28212000  1.0 0.0817543441
C  C34  1  0.76396000  0.59036000  0.27364000  1.0 -0.2202336579
C  C35  1  0.70556000  0.64136000  0.32964000  1.0 0.0901666406
C  C36  1  0.71029000  0.62929000  0.39251000  1.0 -0.2579039605
C  C37  1  0.77209000  0.56729000  0.39711000  1.0 0.040870586
C  C38  1  0.89833000  0.48041000  0.43919000  1.0 0.5241240328
C  C39  1  0.88810000  0.51586000  0.48494000  1.0 0.0163113018
C  C40  1  0.91522000  0.52778000  0.46062000  1.0 -0.1610465361
C  C41  1  0.90809000  0.55729000  0.50311000  1.0 -0.0902309511
C  C42  1  0.87189000  0.57749000  0.57011000  1.0 -0.2202336579
C  C43  1  0.84095000  0.56915000  0.59485000  1.0 0.2495032018
C  C44  1  0.85082000  0.53722000  0.55298000  1.0 -0.2420729557
C  C45  1  0.76279000  0.59599000  0.68901000  1.0 -0.0983726922
C  C46  1  0.71825000  0.63705000  0.75895000  1.0 0.0681766522
C  C47  1  0.65253000  0.70213000  0.77327000  1.0 -0.1892585805
C  C48  1  0.74288000  0.61208000  0.80832000  1.0 -0.1810817771
C  C49  1  0.74890000  0.98950000  0.59150000  1.0 0.0681766522
C  C50  1  0.81420000  0.92460000  0.58500000  1.0 -0.0311441207
C  C51  1  0.83540000  0.90680000  0.63740000  1.0 -0.0135885214
C  C52  1  0.79120000  0.95400000  0.69660000  1.0 -0.0507235679
C  C53  1  0.72580000  0.01900000  0.70320000  1.0 -0.0902309511
C  C54  1  0.97280000  0.77100000  0.70340000  1.0 -0.0707434754
C  C55  1  0.91050000  0.83270000  0.69970000  1.0 -0.0507235679
C  C56  1  0.90200000  0.84320000  0.63900000  1.0 -0.0135885214
C  C57  1  0.95590000  0.79210000  0.58190000  1.0 -0.0311441207
C  C58  1  0.01830000  0.73030000  0.58550000  1.0 0.0643845312
C  C59  1  0.39583000  0.87563000  0.38717000  1.0 0.5281610852
C  C60  1  0.37710000  0.86330000  0.45130000  1.0 -0.0166290079
C  C61  1  0.37449000  0.87489000  0.50991000  1.0 -0.1610465361
C  C62  1  0.35803000  0.86323000  0.56757000  1.0 -0.0983726922
C  C63  1  0.33883000  0.84483000  0.56837000  1.0 -0.2271786099
C  C64  1  0.34084000  0.83464000  0.50996000  1.0 0.2305632299
C  C65  1  0.36148000  0.84168000  0.44972000  1.0 -0.2202336579
C  C66  1  0.29216000  0.81736000  0.56444000  1.0 -0.0507235679
C  C67  1  0.27373000  0.79893000  0.54787000  1.0 0.0681766522
C  C68  1  0.20752000  0.84792000  0.56428000  1.0 -0.1276805366
C  C69  1  0.19239000  0.82899000  0.55681000  1.0 -0.1476225714
C  C70  1  0.23656000  0.76616000  0.53204000  1.0 0.0817543441
C  C71  1  0.30454000  0.71534000  0.51586000  1.0 -0.1610465361
C  C72  1  0.32362000  0.73202000  0.52418000  1.0 -0.1276805366
C  C73  1  0.21524000  0.74504000  0.53516000  1.0 -0.0624181004
C  C74  1  0.18290000  0.73850000  0.46950000  1.0 0.2165243989
C  C75  1  0.17286000  0.71586000  0.51714000  1.0 -0.2489897104
C  C76  1  0.16432000  0.69092000  0.49888000  1.0 0.0313068996
C  C77  1  0.16744000  0.68624000  0.43656000  1.0 -0.1476225714
C  C78  1  0.17680000  0.71140000  0.38920000  1.0 -0.0831179144
C  C79  1  0.18507000  0.73627000  0.40733000  1.0 -0.1892585805
C  C80  1  0.15710000  0.66310000  0.54970000  1.0 0.3412301941
C  C81  1  0.29301000  0.05361000  0.36779000  1.0 0.0901666406
C  C82  1  0.22793000  0.11793000  0.37667000  1.0 -0.2030963516
C  C83  1  0.20371000  0.13571000  0.32749000  1.0 0.1090906619
C  C84  1  0.24799000  0.08459000  0.27261000  1.0 -0.1810817771
C  C85  1  0.31323000  0.02103000  0.26837000  1.0 0.0681766522
C  C86  1  0.53088000  0.82308000  0.36392000  1.0 0.0817543441
C  C87  1  0.59036000  0.76396000  0.37204000  1.0 -0.2114764621
C  C88  1  0.64136000  0.70556000  0.32344000  1.0 0.0817543441
C  C89  1  0.62929000  0.71029000  0.26791000  1.0 -0.2579039605
C  C90  1  0.56729000  0.77209000  0.26351000  1.0 0.040870586
C  C91  1  0.48041000  0.89833000  0.18207000  1.0 0.5241240328
C  C92  1  0.51586000  0.88810000  0.11110000  1.0 0.0163113018
C  C93  1  0.52778000  0.91522000  0.09638000  1.0 -0.1610465361
C  C94  1  0.55729000  0.90809000  0.03151000  1.0 -0.0902309511
C  C95  1  0.57749000  0.87189000  0.98051000  1.0 -0.2202336579
C  C96  1  0.56915000  0.84095000  0.99505000  1.0 0.2495032018
C  C97  1  0.53722000  0.85082000  0.05898000  1.0 -0.2420729557
C  C98  1  0.59599000  0.76279000  0.95221000  1.0 -0.0983726922
C  C99  1  0.63705000  0.71825000  0.88575000  1.0 0.0681766522
C  C100  1  0.70213000  0.65253000  0.87207000  1.0 -0.1892585805
C  C101  1  0.61208000  0.74288000  0.83672000  1.0 -0.1810817771
C  C102  1  0.98950000  0.74890000  0.67010000  1.0 0.0681766522
C  C103  1  0.92460000  0.81420000  0.67620000  1.0 -0.0311441207
C  C104  1  0.90680000  0.83540000  0.62040000  1.0 -0.0135885214
C  C105  1  0.95400000  0.79120000  0.55820000  1.0 -0.0507235679
C  C106  1  0.01900000  0.72580000  0.55200000  1.0 -0.0902309511
C  C107  1  0.47900000  0.27720000  0.69720000  1.0 -0.0707434754
C  C108  1  0.41730000  0.33950000  0.69290000  1.0 -0.0507235679
C  C109  1  0.40680000  0.34800000  0.63420000  1.0 -0.0135885214
C  C110  1  0.45790000  0.29410000  0.57990000  1.0 -0.0311441207
C  C111  1  0.51970000  0.23170000  0.58410000  1.0 0.0643845312
C  C112  1  0.37437000  0.85417000  0.90863000  1.0 0.5281610852
C  C113  1  0.38670000  0.87290000  0.94170000  1.0 -0.0166290079
C  C114  1  0.37511000  0.87551000  0.00929000  1.0 -0.1610465361
C  C115  1  0.38677000  0.89197000  0.03883000  1.0 -0.0983726922
C  C116  1  0.40517000  0.91117000  0.00203000  1.0 -0.2271786099
C  C117  1  0.41536000  0.90916000  0.93544000  1.0 0.2305632299
C  C118  1  0.40832000  0.88852000  0.90288000  1.0 -0.2202336579
C  C119  1  0.43264000  0.95784000  0.92396000  1.0 -0.0507235679
C  C120  1  0.45107000  0.97627000  0.87053000  1.0 0.0643845312
C  C121  1  0.40208000  0.04248000  0.86972000  1.0 -0.1276805366
C  C122  1  0.42101000  0.05761000  0.82819000  1.0 -0.1476225714
C  C123  1  0.48384000  0.01344000  0.78476000  1.0 0.0817543441
C  C124  1  0.53466000  0.94546000  0.78574000  1.0 -0.1610465361
C  C125  1  0.51798000  0.92638000  0.82982000  1.0 -0.1276805366
C  C126  1  0.50496000  0.03476000  0.74544000  1.0 -0.0624181004
C  C127  1  0.51150000  0.06710000  0.64090000  1.0 0.2165243989
C  C128  1  0.53414000  0.07714000  0.65586000  1.0 -0.2489897104
C  C129  1  0.55908000  0.08568000  0.60412000  1.0 0.0313068996
C  C130  1  0.56376000  0.08256000  0.54024000  1.0 -0.1476225714
C  C131  1  0.53860000  0.07320000  0.52740000  1.0 -0.0831179144
C  C132  1  0.51373000  0.06493000  0.57867000  1.0 -0.1892585805
C  C133  1  0.58690000  0.09290000  0.61990000  1.0 0.3412301941
C  C134  1  0.19639000  0.95699000  0.96441000  1.0 0.0901666406
C  C135  1  0.13207000  0.02207000  0.97253000  1.0 -0.2030963516
C  C136  1  0.11429000  0.04629000  0.91691000  1.0 0.1090906619
C  C137  1  0.16541000  0.00201000  0.85519000  1.0 -0.1810817771
C  C138  1  0.22897000  0.93677000  0.85263000  1.0 0.0681766522
C  C139  1  0.42692000  0.71912000  0.96788000  1.0 0.0817543441
C  C140  1  0.48604000  0.65964000  0.97636000  1.0 -0.2202336579
C  C141  1  0.54444000  0.60864000  0.92036000  1.0 0.0817543441
C  C142  1  0.53971000  0.62071000  0.85749000  1.0 -0.2579039605
C  C143  1  0.47791000  0.68271000  0.85289000  1.0 0.040870586
C  C144  1  0.35167000  0.76959000  0.81081000  1.0 0.5241240328
C  C145  1  0.36190000  0.73414000  0.76506000  1.0 0.0163113018
C  C146  1  0.33478000  0.72222000  0.78938000  1.0 -0.1610465361
C  C147  1  0.34191000  0.69271000  0.74689000  1.0 -0.0902309511
C  C148  1  0.37811000  0.67251000  0.67989000  1.0 -0.2202336579
C  C149  1  0.40905000  0.68085000  0.65515000  1.0 0.2495032018
C  C150  1  0.39918000  0.71278000  0.69702000  1.0 -0.2420729557
C  C151  1  0.48721000  0.65401000  0.56099000  1.0 -0.0983726922
C  C152  1  0.53175000  0.61295000  0.49105000  1.0 0.0681766522
C  C153  1  0.59747000  0.54787000  0.47673000  1.0 -0.1892585805
C  C154  1  0.50712000  0.63792000  0.44168000  1.0 -0.1810817771
C  C155  1  0.50110000  0.26050000  0.65850000  1.0 0.0681766522
C  C156  1  0.43580000  0.32540000  0.66500000  1.0 -0.0311441207
C  C157  1  0.41460000  0.34320000  0.61260000  1.0 -0.0135885214
C  C158  1  0.45880000  0.29600000  0.55340000  1.0 -0.0507235679
C  C159  1  0.52420000  0.23100000  0.54680000  1.0 -0.0902309511
C  C160  1  0.27720000  0.47900000  0.54660000  1.0 -0.0707434754
C  C161  1  0.33950000  0.41730000  0.55030000  1.0 -0.0507235679
C  C162  1  0.34800000  0.40680000  0.61100000  1.0 -0.0135885214
C  C163  1  0.29410000  0.45790000  0.66810000  1.0 -0.0311441207
C  C164  1  0.23170000  0.51970000  0.66450000  1.0 0.0643845312
C  C165  1  0.85417000  0.37437000  0.86283000  1.0 0.5281610852
C  C166  1  0.87290000  0.38670000  0.79870000  1.0 -0.0166290079
C  C167  1  0.87551000  0.37511000  0.74009000  1.0 -0.1610465361
C  C168  1  0.89197000  0.38677000  0.68243000  1.0 -0.0983726922
C  C169  1  0.91117000  0.40517000  0.68163000  1.0 -0.2271786099
C  C170  1  0.90916000  0.41536000  0.74004000  1.0 0.2305632299
C  C171  1  0.88852000  0.40832000  0.80028000  1.0 -0.2202336579
C  C172  1  0.95784000  0.43264000  0.68556000  1.0 -0.0507235679
C  C173  1  0.97627000  0.45107000  0.70213000  1.0 0.0681766522
C  C174  1  0.04248000  0.40208000  0.68572000  1.0 -0.1276805366
C  C175  1  0.05761000  0.42101000  0.69319000  1.0 -0.1476225714
C  C176  1  0.01344000  0.48384000  0.71796000  1.0 0.0817543441
C  C177  1  0.94546000  0.53466000  0.73414000  1.0 -0.1610465361
C  C178  1  0.92638000  0.51798000  0.72582000  1.0 -0.1276805366
C  C179  1  0.03476000  0.50496000  0.71484000  1.0 -0.0624181004
C  C180  1  0.06710000  0.51150000  0.78050000  1.0 0.2165243989
C  C181  1  0.07714000  0.53414000  0.73286000  1.0 -0.2420729557
C  C182  1  0.08568000  0.55908000  0.75112000  1.0 0.0313068996
C  C183  1  0.08256000  0.56376000  0.81344000  1.0 -0.1476225714
C  C184  1  0.07320000  0.53860000  0.86080000  1.0 -0.0831179144
C  C185  1  0.06493000  0.51373000  0.84267000  1.0 -0.1892585805
C  C186  1  0.09290000  0.58690000  0.70030000  1.0 0.3412301941
C  C187  1  0.95699000  0.19639000  0.88221000  1.0 0.0901666406
C  C188  1  0.02207000  0.13207000  0.87333000  1.0 -0.2030963516
C  C189  1  0.04629000  0.11429000  0.92251000  1.0 0.1090906619
C  C190  1  0.00201000  0.16541000  0.97739000  1.0 -0.1810817771
C  C191  1  0.93677000  0.22897000  0.98163000  1.0 0.0681766522
C  C192  1  0.71912000  0.42692000  0.88608000  1.0 0.0817543441
C  C193  1  0.65964000  0.48604000  0.87796000  1.0 -0.2114764621
C  C194  1  0.60864000  0.54444000  0.92656000  1.0 0.0901666406
C  C195  1  0.62071000  0.53971000  0.98209000  1.0 -0.2579039605
C  C196  1  0.68271000  0.47791000  0.98649000  1.0 0.040870586
C  C197  1  0.76959000  0.35167000  0.06793000  1.0 0.5241240328
C  C198  1  0.73414000  0.36190000  0.13890000  1.0 0.0163113018
C  C199  1  0.72222000  0.33478000  0.15362000  1.0 -0.1610465361
C  C200  1  0.69271000  0.34191000  0.21849000  1.0 -0.0902309511
C  C201  1  0.67251000  0.37811000  0.26949000  1.0 -0.2202336579
C  C202  1  0.68085000  0.40905000  0.25495000  1.0 0.2495032018
C  C203  1  0.71278000  0.39918000  0.19102000  1.0 -0.2420729557
C  C204  1  0.65401000  0.48721000  0.29779000  1.0 -0.0983726922
C  C205  1  0.61295000  0.53175000  0.36425000  1.0 0.0681766522
C  C206  1  0.54787000  0.59747000  0.37793000  1.0 -0.1892585805
C  C207  1  0.63792000  0.50712000  0.41328000  1.0 -0.1810817771
C  C208  1  0.26050000  0.50110000  0.57990000  1.0 0.0681766522
C  C209  1  0.32540000  0.43580000  0.57380000  1.0 -0.0311441207
C  C210  1  0.34320000  0.41460000  0.62960000  1.0 -0.0135885214
C  C211  1  0.29600000  0.45880000  0.69180000  1.0 -0.0507235679
C  C212  1  0.23100000  0.52420000  0.69800000  1.0 -0.0902309511
C  C213  1  0.55280000  0.70340000  0.77100000  1.0 -0.0707434754
C  C214  1  0.55710000  0.69970000  0.83270000  1.0 -0.0507235679
C  C215  1  0.61580000  0.63900000  0.84320000  1.0 -0.0135885214
C  C216  1  0.67010000  0.58190000  0.79210000  1.0 -0.0311441207
C  C217  1  0.66590000  0.58550000  0.73030000  1.0 0.0643845312
C  C218  1  0.34137000  0.38717000  0.87563000  1.0 0.5281610852
C  C219  1  0.30830000  0.45130000  0.86330000  1.0 -0.0166290079
C  C220  1  0.24071000  0.50991000  0.87489000  1.0 -0.1610465361
C  C221  1  0.21117000  0.56757000  0.86323000  1.0 -0.0983726922
C  C222  1  0.24797000  0.56837000  0.84483000  1.0 -0.2271786099
C  C223  1  0.31456000  0.50996000  0.83464000  1.0 0.2305632299
C  C224  1  0.34712000  0.44972000  0.84168000  1.0 -0.2202336579
C  C225  1  0.32604000  0.56444000  0.81736000  1.0 -0.0507235679
C  C226  1  0.37947000  0.54787000  0.79893000  1.0 0.0681766522
C  C227  1  0.38028000  0.56428000  0.84792000  1.0 -0.1276805366
C  C228  1  0.42181000  0.55681000  0.82899000  1.0 -0.1476225714
C  C229  1  0.46524000  0.53204000  0.76616000  1.0 0.0817543441
C  C230  1  0.46426000  0.51586000  0.71534000  1.0 -0.1610465361
C  C231  1  0.42018000  0.52418000  0.73202000  1.0 -0.1276805366
C  C232  1  0.50456000  0.53516000  0.74504000  1.0 -0.0624181004
C  C233  1  0.60910000  0.46950000  0.73850000  1.0 0.2165243989
C  C234  1  0.59414000  0.51714000  0.71586000  1.0 -0.2489897104
C  C235  1  0.64588000  0.49888000  0.69092000  1.0 0.0313068996
C  C236  1  0.70976000  0.43656000  0.68624000  1.0 -0.1476225714
C  C237  1  0.72260000  0.38920000  0.71140000  1.0 -0.0831179144
C  C238  1  0.67133000  0.40733000  0.73627000  1.0 -0.1892585805
C  C239  1  0.63010000  0.54970000  0.66310000  1.0 0.3412301941
C  C240  1  0.28559000  0.36779000  0.05361000  1.0 0.0901666406
C  C241  1  0.27747000  0.37667000  0.11793000  1.0 -0.2030963516
C  C242  1  0.33309000  0.32749000  0.13571000  1.0 0.1090906619
C  C243  1  0.39481000  0.27261000  0.08459000  1.0 -0.1810817771
C  C244  1  0.39737000  0.26837000  0.02103000  1.0 0.0681766522
C  C245  1  0.28212000  0.36392000  0.82308000  1.0 0.0817543441
C  C246  1  0.27364000  0.37204000  0.76396000  1.0 -0.2202336579
C  C247  1  0.32964000  0.32344000  0.70556000  1.0 0.0817543441
C  C248  1  0.39251000  0.26791000  0.71029000  1.0 -0.2579039605
C  C249  1  0.39711000  0.26351000  0.77209000  1.0 0.040870586
C  C250  1  0.43919000  0.18207000  0.89833000  1.0 0.5241240328
C  C251  1  0.48494000  0.11110000  0.88810000  1.0 0.0163113018
C  C252  1  0.46062000  0.09638000  0.91522000  1.0 -0.1610465361
C  C253  1  0.50311000  0.03151000  0.90809000  1.0 -0.0902309511
C  C254  1  0.57011000  0.98051000  0.87189000  1.0 -0.2202336579
C  C255  1  0.59485000  0.99505000  0.84095000  1.0 0.2495032018
C  C256  1  0.55298000  0.05898000  0.85082000  1.0 -0.2420729557
C  C257  1  0.68901000  0.95221000  0.76279000  1.0 -0.0983726922
C  C258  1  0.75895000  0.88575000  0.71825000  1.0 0.0681766522
C  C259  1  0.77327000  0.87207000  0.65253000  1.0 -0.1892585805
C  C260  1  0.80832000  0.83672000  0.74288000  1.0 -0.1810817771
C  C261  1  0.59150000  0.67010000  0.74890000  1.0 0.0681766522
C  C262  1  0.58500000  0.67620000  0.81420000  1.0 -0.0311441207
C  C263  1  0.63740000  0.62040000  0.83540000  1.0 -0.0135885214
C  C264  1  0.69660000  0.55820000  0.79120000  1.0 -0.0507235679
C  C265  1  0.70320000  0.55200000  0.72580000  1.0 -0.0902309511
C  C266  1  0.70340000  0.55280000  0.97280000  1.0 -0.0707434754
C  C267  1  0.69970000  0.55710000  0.91050000  1.0 -0.0507235679
C  C268  1  0.63900000  0.61580000  0.90200000  1.0 -0.0135885214
C  C269  1  0.58190000  0.67010000  0.95590000  1.0 -0.0311441207
C  C270  1  0.58550000  0.66590000  0.01830000  1.0 0.0643845312
C  C271  1  0.38717000  0.34137000  0.39583000  1.0 0.5281610852
C  C272  1  0.45130000  0.30830000  0.37710000  1.0 -0.0166290079
C  C273  1  0.50991000  0.24071000  0.37449000  1.0 -0.1712382296
C  C274  1  0.56757000  0.21117000  0.35803000  1.0 -0.0983726922
C  C275  1  0.56837000  0.24797000  0.33883000  1.0 -0.2271786099
C  C276  1  0.50996000  0.31456000  0.34084000  1.0 0.2305632299
C  C277  1  0.44972000  0.34712000  0.36148000  1.0 -0.2202336579
C  C278  1  0.56444000  0.32604000  0.29216000  1.0 -0.0507235679
C  C279  1  0.54787000  0.37947000  0.27373000  1.0 0.0681766522
C  C280  1  0.56428000  0.38028000  0.20752000  1.0 -0.124924616
C  C281  1  0.55681000  0.42181000  0.19239000  1.0 -0.1476225714
C  C282  1  0.53204000  0.46524000  0.23656000  1.0 0.0817543441
C  C283  1  0.51586000  0.46426000  0.30454000  1.0 -0.1610465361
C  C284  1  0.52418000  0.42018000  0.32362000  1.0 -0.1276805366
C  C285  1  0.53516000  0.50456000  0.21524000  1.0 -0.0624181004
C  C286  1  0.46950000  0.60910000  0.18290000  1.0 0.2165243989
C  C287  1  0.51714000  0.59414000  0.17286000  1.0 -0.2420729557
C  C288  1  0.49888000  0.64588000  0.16432000  1.0 0.0313068996
C  C289  1  0.43656000  0.70976000  0.16744000  1.0 -0.1476225714
C  C290  1  0.38920000  0.72260000  0.17680000  1.0 -0.0831179144
C  C291  1  0.40733000  0.67133000  0.18507000  1.0 -0.1892585805
C  C292  1  0.54970000  0.63010000  0.15710000  1.0 0.3412301941
C  C293  1  0.36779000  0.28559000  0.29301000  1.0 0.0901666406
C  C294  1  0.37667000  0.27747000  0.22793000  1.0 -0.2030963516
C  C295  1  0.32749000  0.33309000  0.20371000  1.0 0.1090906619
C  C296  1  0.27261000  0.39481000  0.24799000  1.0 -0.1810817771
C  C297  1  0.26837000  0.39737000  0.31323000  1.0 0.0681766522
C  C298  1  0.36392000  0.28212000  0.53088000  1.0 0.0817543441
C  C299  1  0.37204000  0.27364000  0.59036000  1.0 -0.2114764621
C  C300  1  0.32344000  0.32964000  0.64136000  1.0 0.0817543441
C  C301  1  0.26791000  0.39251000  0.62929000  1.0 -0.2579039605
C  C302  1  0.26351000  0.39711000  0.56729000  1.0 0.040870586
C  C303  1  0.18207000  0.43919000  0.48041000  1.0 0.5241240328
C  C304  1  0.11110000  0.48494000  0.51586000  1.0 0.0163113018
C  C305  1  0.09638000  0.46062000  0.52778000  1.0 -0.1610465361
C  C306  1  0.03151000  0.50311000  0.55729000  1.0 -0.0902309511
C  C307  1  0.98051000  0.57011000  0.57749000  1.0 -0.2202336579
C  C308  1  0.99505000  0.59485000  0.56915000  1.0 0.2495032018
C  C309  1  0.05898000  0.55298000  0.53722000  1.0 -0.2420729557
C  C310  1  0.95221000  0.68901000  0.59599000  1.0 -0.0983726922
C  C311  1  0.88575000  0.75895000  0.63705000  1.0 0.0681766522
C  C312  1  0.87207000  0.77327000  0.70213000  1.0 -0.1892585805
C  C313  1  0.83672000  0.80832000  0.61208000  1.0 -0.1810817771
C  C314  1  0.67010000  0.59150000  0.98950000  1.0 0.0681766522
C  C315  1  0.67620000  0.58500000  0.92460000  1.0 -0.0311441207
C  C316  1  0.62040000  0.63740000  0.90680000  1.0 -0.0135885214
C  C317  1  0.55820000  0.69660000  0.95400000  1.0 -0.0507235679
C  C318  1  0.55200000  0.70320000  0.01900000  1.0 -0.0902309511
C  C319  1  0.69720000  0.54660000  0.47900000  1.0 -0.0707434754
C  C320  1  0.69290000  0.55030000  0.41730000  1.0 -0.0507235679
C  C321  1  0.63420000  0.61100000  0.40680000  1.0 -0.0135885214
C  C322  1  0.57990000  0.66810000  0.45790000  1.0 -0.0311441207
C  C323  1  0.58410000  0.66450000  0.51970000  1.0 0.0643845312
C  C324  1  0.90863000  0.86283000  0.37437000  1.0 0.5281610852
C  C325  1  0.94170000  0.79870000  0.38670000  1.0 -0.0166290079
C  C326  1  0.00929000  0.74009000  0.37511000  1.0 -0.1712382296
C  C327  1  0.03883000  0.68243000  0.38677000  1.0 -0.0983726922
C  C328  1  0.00203000  0.68163000  0.40517000  1.0 -0.2271786099
C  C329  1  0.93544000  0.74004000  0.41536000  1.0 0.2305632299
C  C330  1  0.90288000  0.80028000  0.40832000  1.0 -0.2202336579
C  C331  1  0.92396000  0.68556000  0.43264000  1.0 -0.0507235679
C  C332  1  0.87053000  0.70213000  0.45107000  1.0 0.0681766522
C  C333  1  0.86972000  0.68572000  0.40208000  1.0 -0.1276805366
C  C334  1  0.82819000  0.69319000  0.42101000  1.0 -0.1476225714
C  C335  1  0.78476000  0.71796000  0.48384000  1.0 0.0817543441
C  C336  1  0.78574000  0.73414000  0.53466000  1.0 -0.1610465361
C  C337  1  0.82982000  0.72582000  0.51798000  1.0 -0.1276805366
C  C338  1  0.74544000  0.71484000  0.50496000  1.0 -0.0624181004
C  C339  1  0.64090000  0.78050000  0.51150000  1.0 0.2165243989
C  C340  1  0.65586000  0.73286000  0.53414000  1.0 -0.2489897104
C  C341  1  0.60412000  0.75112000  0.55908000  1.0 0.0313068996
C  C342  1  0.54024000  0.81344000  0.56376000  1.0 -0.1476225714
C  C343  1  0.52740000  0.86080000  0.53860000  1.0 -0.0831179144
C  C344  1  0.57867000  0.84267000  0.51373000  1.0 -0.1892585805
C  C345  1  0.61990000  0.70030000  0.58690000  1.0 0.3412301941
C  C346  1  0.96441000  0.88221000  0.19639000  1.0 0.0901666406
C  C347  1  0.97253000  0.87333000  0.13207000  1.0 -0.2030963516
C  C348  1  0.91691000  0.92251000  0.11429000  1.0 0.1090906619
C  C349  1  0.85519000  0.97739000  0.16541000  1.0 -0.1810817771
C  C350  1  0.85263000  0.98163000  0.22897000  1.0 0.0681766522
C  C351  1  0.96788000  0.88608000  0.42692000  1.0 0.0817543441
C  C352  1  0.97636000  0.87796000  0.48604000  1.0 -0.2202336579
C  C353  1  0.92036000  0.92656000  0.54444000  1.0 0.0817543441
C  C354  1  0.85749000  0.98209000  0.53971000  1.0 -0.2579039605
C  C355  1  0.85289000  0.98649000  0.47791000  1.0 0.040870586
C  C356  1  0.81081000  0.06793000  0.35167000  1.0 0.5241240328
C  C357  1  0.76506000  0.13890000  0.36190000  1.0 0.0163113018
C  C358  1  0.78938000  0.15362000  0.33478000  1.0 -0.1610465361
C  C359  1  0.74689000  0.21849000  0.34191000  1.0 -0.0902309511
C  C360  1  0.67989000  0.26949000  0.37811000  1.0 -0.2202336579
C  C361  1  0.65515000  0.25495000  0.40905000  1.0 0.2495032018
C  C362  1  0.69702000  0.19102000  0.39918000  1.0 -0.2420729557
C  C363  1  0.56099000  0.29779000  0.48721000  1.0 -0.0983726922
C  C364  1  0.49105000  0.36425000  0.53175000  1.0 0.0681766522
C  C365  1  0.47673000  0.37793000  0.59747000  1.0 -0.1892585805
C  C366  1  0.44168000  0.41328000  0.50712000  1.0 -0.1810817771
C  C367  1  0.65850000  0.57990000  0.50110000  1.0 0.0681766522
C  C368  1  0.66500000  0.57380000  0.43580000  1.0 -0.0311441207
C  C369  1  0.61260000  0.62960000  0.41460000  1.0 -0.0135885214
C  C370  1  0.55340000  0.69180000  0.45880000  1.0 -0.0507235679
C  C371  1  0.54680000  0.69800000  0.52420000  1.0 -0.0902309511
C  C372  1  0.54660000  0.69720000  0.27720000  1.0 -0.0707434754
C  C373  1  0.55030000  0.69290000  0.33950000  1.0 -0.0507235679
C  C374  1  0.61100000  0.63420000  0.34800000  1.0 -0.0135885214
C  C375  1  0.66810000  0.57990000  0.29410000  1.0 -0.0311441207
C  C376  1  0.66450000  0.58410000  0.23170000  1.0 0.0643845312
C  C377  1  0.86283000  0.90863000  0.85417000  1.0 0.5281610852
C  C378  1  0.79870000  0.94170000  0.87290000  1.0 -0.0166290079
C  C379  1  0.74009000  0.00929000  0.87551000  1.0 -0.1712382296
C  C380  1  0.68243000  0.03883000  0.89197000  1.0 -0.0983726922
C  C381  1  0.68163000  0.00203000  0.91117000  1.0 -0.2271786099
C  C382  1  0.74004000  0.93544000  0.90916000  1.0 0.2305632299
C  C383  1  0.80028000  0.90288000  0.88852000  1.0 -0.2202336579
C  C384  1  0.68556000  0.92396000  0.95784000  1.0 -0.0507235679
C  C385  1  0.70213000  0.87053000  0.97627000  1.0 0.0681766522
C  C386  1  0.68572000  0.86972000  0.04248000  1.0 -0.1276805366
C  C387  1  0.69319000  0.82819000  0.05761000  1.0 -0.1476225714
C  C388  1  0.71796000  0.78476000  0.01344000  1.0 0.0817543441
C  C389  1  0.73414000  0.78574000  0.94546000  1.0 -0.1610465361
C  C390  1  0.72582000  0.82982000  0.92638000  1.0 -0.1276805366
C  C391  1  0.71484000  0.74544000  0.03476000  1.0 -0.0624181004
C  C392  1  0.78050000  0.64090000  0.06710000  1.0 0.2165243989
C  C393  1  0.73286000  0.65586000  0.07714000  1.0 -0.2420729557
C  C394  1  0.75112000  0.60412000  0.08568000  1.0 0.0313068996
C  C395  1  0.81344000  0.54024000  0.08256000  1.0 -0.1476225714
C  C396  1  0.86080000  0.52740000  0.07320000  1.0 -0.0831179144
C  C397  1  0.84267000  0.57867000  0.06493000  1.0 -0.1892585805
C  C398  1  0.70030000  0.61990000  0.09290000  1.0 0.3412301941
C  C399  1  0.88221000  0.96441000  0.95699000  1.0 0.0901666406
C  C400  1  0.87333000  0.97253000  0.02207000  1.0 -0.2030963516
C  C401  1  0.92251000  0.91691000  0.04629000  1.0 0.1090906619
C  C402  1  0.97739000  0.85519000  0.00201000  1.0 -0.1810817771
C  C403  1  0.98163000  0.85263000  0.93677000  1.0 0.0681766522
C  C404  1  0.88608000  0.96788000  0.71912000  1.0 0.0817543441
C  C405  1  0.87796000  0.97636000  0.65964000  1.0 -0.2114764621
C  C406  1  0.92656000  0.92036000  0.60864000  1.0 0.0817543441
C  C407  1  0.98209000  0.85749000  0.62071000  1.0 -0.2579039605
C  C408  1  0.98649000  0.85289000  0.68271000  1.0 0.040870586
C  C409  1  0.06793000  0.81081000  0.76959000  1.0 0.5241240328
C  C410  1  0.13890000  0.76506000  0.73414000  1.0 0.0163113018
C  C411  1  0.15362000  0.78938000  0.72222000  1.0 -0.1610465361
C  C412  1  0.21849000  0.74689000  0.69271000  1.0 -0.0902309511
C  C413  1  0.26949000  0.67989000  0.67251000  1.0 -0.2202336579
C  C414  1  0.25495000  0.65515000  0.68085000  1.0 0.2495032018
C  C415  1  0.19102000  0.69702000  0.71278000  1.0 -0.2420729557
C  C416  1  0.29779000  0.56099000  0.65401000  1.0 -0.0983726922
C  C417  1  0.36425000  0.49105000  0.61295000  1.0 0.0681766522
C  C418  1  0.37793000  0.47673000  0.54787000  1.0 -0.1892585805
C  C419  1  0.41328000  0.44168000  0.63792000  1.0 -0.1810817771
C  C420  1  0.57990000  0.65850000  0.26050000  1.0 0.0681766522
C  C421  1  0.57380000  0.66500000  0.32540000  1.0 -0.0311441207
C  C422  1  0.62960000  0.61260000  0.34320000  1.0 -0.0135885214
C  C423  1  0.69180000  0.55340000  0.29600000  1.0 -0.0507235679
C  C424  1  0.69800000  0.54680000  0.23100000  1.0 -0.0902309511
C  C425  1  0.12907000  0.32427000  0.20053000  1.0 0.0991589331
C  C426  1  0.18838000  0.26364000  0.20916000  1.0 -0.1892585805
C  C427  1  0.19071000  0.25531000  0.27229000  1.0 0.0991589331
C  C428  1  0.13224000  0.30804000  0.32496000  1.0 -0.1810817771
C  C429  1  0.07449000  0.36709000  0.31411000  1.0 0.0681766522
C  C430  1  0.87448000  0.58628000  0.19892000  1.0 0.0547683211
C  C431  1  0.81014000  0.65054000  0.20546000  1.0 -0.1892585805
C  C432  1  0.76035000  0.69159000  0.26981000  1.0 0.1090906619
C  C433  1  0.78155000  0.66283000  0.32297000  1.0 -0.1892585805
C  C434  1  0.84575000  0.59875000  0.31305000  1.0 0.0901666406
C  C435  1  0.99923000  0.41113000  0.16627000  1.0 0.541126742
C  C436  1  0.01354000  0.37486000  0.11594000  1.0 0.0001940874
C  C437  1  0.98480000  0.36480000  0.13720000  1.0 -0.1712382296
C  C438  1  0.99705000  0.33225000  0.08895000  1.0 -0.0902309511
C  C439  1  0.03661000  0.31061000  0.02339000  1.0 -0.2114764621
C  C440  1  0.06603000  0.31983000  0.00357000  1.0 0.2495032018
C  C441  1  0.05504000  0.35216000  0.04944000  1.0 -0.2489897104
C  C442  1  0.13779000  0.30239000  0.91241000  1.0 -0.0707434754
C  C443  1  0.18366000  0.26246000  0.84074000  1.0 0.0681766522
C  C444  1  0.15871000  0.28831000  0.79109000  1.0 -0.1424644557
C  C445  1  0.24979000  0.19719000  0.82441000  1.0 -0.1610465361
C  C446  1  0.01921000  0.50331000  0.25449000  1.0 0.5281610852
C  C447  1  0.04061000  0.50701000  0.34519000  1.0 -0.1610465361
C  C448  1  0.04103000  0.51337000  0.28103000  1.0 -0.0017880669
C  C449  1  0.06584000  0.52564000  0.23836000  1.0 -0.2489897104
C  C450  1  0.08916000  0.53116000  0.26124000  1.0 0.2305632299
C  C451  1  0.09044000  0.52384000  0.32416000  1.0 -0.2202336579
C  C452  1  0.06664000  0.51104000  0.36736000  1.0 -0.0983726922
C  C453  1  0.09612000  0.57132000  0.16588000  1.0 -0.0707434754
C  C454  1  0.11204000  0.59864000  0.14356000  1.0 0.0817543441
C  C455  1  0.07576000  0.65296000  0.19004000  1.0 -0.1424644557
C  C456  1  0.15955000  0.57235000  0.08125000  1.0 -0.1610465361
C  C457  1  0.32427000  0.12907000  0.34613000  1.0 0.0991589331
C  C458  1  0.26364000  0.18838000  0.33882000  1.0 -0.1892585805
C  C459  1  0.25531000  0.19071000  0.28169000  1.0 0.0991589331
C  C460  1  0.30804000  0.13224000  0.23476000  1.0 -0.1810817771
C  C461  1  0.36709000  0.07449000  0.24431000  1.0 0.0681766522
C  C462  1  0.58628000  0.87448000  0.34032000  1.0 0.0547683211
C  C463  1  0.65054000  0.81014000  0.33386000  1.0 -0.1892585805
C  C464  1  0.69159000  0.76035000  0.27825000  1.0 0.1090906619
C  C465  1  0.66283000  0.78155000  0.23265000  1.0 -0.1892585805
C  C466  1  0.59875000  0.84575000  0.24245000  1.0 0.0901666406
C  C467  1  0.41113000  0.99923000  0.42337000  1.0 0.541126742
C  C468  1  0.37486000  0.01354000  0.49566000  1.0 0.0001940874
C  C469  1  0.36480000  0.98480000  0.51320000  1.0 -0.1712382296
C  C470  1  0.33225000  0.99705000  0.58175000  1.0 -0.0902309511
C  C471  1  0.31061000  0.03661000  0.62939000  1.0 -0.2114764621
C  C472  1  0.31983000  0.06603000  0.61057000  1.0 0.2495032018
C  C473  1  0.35216000  0.05504000  0.54336000  1.0 -0.2489897104
C  C474  1  0.30239000  0.13779000  0.64741000  1.0 -0.0707434754
C  C475  1  0.26246000  0.18366000  0.71314000  1.0 0.0681766522
C  C476  1  0.28831000  0.15871000  0.76189000  1.0 -0.1424644557
C  C477  1  0.19719000  0.24979000  0.72861000  1.0 -0.1610465361
C  C478  1  0.50331000  0.01921000  0.22299000  1.0 0.5281610852
C  C479  1  0.50701000  0.04061000  0.10719000  1.0 -0.1610465361
C  C480  1  0.51337000  0.04103000  0.16457000  1.0 -0.0017880669
C  C481  1  0.52564000  0.06584000  0.17016000  1.0 -0.2489897104
C  C482  1  0.53116000  0.08916000  0.11844000  1.0 0.2305632299
C  C483  1  0.52384000  0.09044000  0.06156000  1.0 -0.2202336579
C  C484  1  0.51104000  0.06664000  0.05496000  1.0 -0.0983726922
C  C485  1  0.57132000  0.09612000  0.16668000  1.0 -0.0707434754
C  C486  1  0.59864000  0.11204000  0.14576000  1.0 0.0817543441
C  C487  1  0.65296000  0.07576000  0.08124000  1.0 -0.1424644557
C  C488  1  0.57235000  0.15955000  0.18685000  1.0 -0.1610465361
C  C489  1  0.12093000  0.92573000  0.04947000  1.0 0.0991589331
C  C490  1  0.06162000  0.98636000  0.04084000  1.0 -0.1892585805
C  C491  1  0.05929000  0.99469000  0.97771000  1.0 0.0991589331
C  C492  1  0.11776000  0.94196000  0.92504000  1.0 -0.1810817771
C  C493  1  0.17551000  0.88291000  0.93589000  1.0 0.0681766522
C  C494  1  0.37552000  0.66372000  0.05108000  1.0 0.0547683211
C  C495  1  0.43986000  0.59946000  0.04454000  1.0 -0.1892585805
C  C496  1  0.48965000  0.55841000  0.98019000  1.0 0.1090906619
C  C497  1  0.46845000  0.58717000  0.92703000  1.0 -0.1892585805
C  C498  1  0.40425000  0.65125000  0.93695000  1.0 0.0901666406
C  C499  1  0.25077000  0.83887000  0.08373000  1.0 0.541126742
C  C500  1  0.23646000  0.87514000  0.13406000  1.0 0.0001940874
C  C501  1  0.26520000  0.88520000  0.11280000  1.0 -0.1712382296
C  C502  1  0.25295000  0.91775000  0.16105000  1.0 -0.0902309511
C  C503  1  0.21339000  0.93939000  0.22661000  1.0 -0.2114764621
C  C504  1  0.18397000  0.93017000  0.24643000  1.0 0.2495032018
C  C505  1  0.19496000  0.89784000  0.20056000  1.0 -0.2489897104
C  C506  1  0.11221000  0.94761000  0.33759000  1.0 -0.0707434754
C  C507  1  0.06634000  0.98754000  0.40926000  1.0 0.0681766522
C  C508  1  0.09129000  0.96169000  0.45891000  1.0 -0.1424644557
C  C509  1  0.00021000  0.05281000  0.42559000  1.0 -0.1610465361
C  C510  1  0.23079000  0.74669000  0.99551000  1.0 0.5281610852
C  C511  1  0.20939000  0.74299000  0.90481000  1.0 -0.1610465361
C  C512  1  0.20897000  0.73663000  0.96897000  1.0 -0.0017880669
C  C513  1  0.18416000  0.72436000  0.01164000  1.0 -0.2489897104
C  C514  1  0.16084000  0.71884000  0.98876000  1.0 0.2305632299
C  C515  1  0.15956000  0.72616000  0.92584000  1.0 -0.2202336579
C  C516  1  0.18336000  0.73896000  0.88264000  1.0 -0.0983726922
C  C517  1  0.15388000  0.67868000  0.08412000  1.0 -0.0707434754
C  C518  1  0.13796000  0.65136000  0.10644000  1.0 0.0817543441
C  C519  1  0.17424000  0.59704000  0.05996000  1.0 -0.1424644557
C  C520  1  0.09045000  0.67765000  0.16875000  1.0 -0.1610465361
C  C521  1  0.92573000  0.12093000  0.90387000  1.0 0.0991589331
C  C522  1  0.98636000  0.06162000  0.91118000  1.0 -0.1892585805
C  C523  1  0.99469000  0.05929000  0.96831000  1.0 0.0991589331
C  C524  1  0.94196000  0.11776000  0.01524000  1.0 -0.1810817771
C  C525  1  0.88291000  0.17551000  0.00569000  1.0 0.0681766522
C  C526  1  0.66372000  0.37552000  0.90968000  1.0 0.0547683211
C  C527  1  0.59946000  0.43986000  0.91614000  1.0 -0.1892585805
C  C528  1  0.55841000  0.48965000  0.97175000  1.0 0.1090906619
C  C529  1  0.58717000  0.46845000  0.01735000  1.0 -0.1892585805
C  C530  1  0.65125000  0.40425000  0.00755000  1.0 0.0901666406
C  C531  1  0.83887000  0.25077000  0.82663000  1.0 0.541126742
C  C532  1  0.87514000  0.23646000  0.75434000  1.0 0.0001940874
C  C533  1  0.88520000  0.26520000  0.73680000  1.0 -0.1712382296
C  C534  1  0.91775000  0.25295000  0.66825000  1.0 -0.0902309511
C  C535  1  0.93939000  0.21339000  0.62061000  1.0 -0.2114764621
C  C536  1  0.93017000  0.18397000  0.63943000  1.0 0.2495032018
C  C537  1  0.89784000  0.19496000  0.70664000  1.0 -0.2420729557
C  C538  1  0.94761000  0.11221000  0.60259000  1.0 -0.0707434754
C  C539  1  0.98754000  0.06634000  0.53686000  1.0 0.0681766522
C  C540  1  0.96169000  0.09129000  0.48811000  1.0 -0.1424644557
C  C541  1  0.05281000  0.00021000  0.52139000  1.0 -0.1610465361
C  C542  1  0.74669000  0.23079000  0.02701000  1.0 0.5281610852
C  C543  1  0.74299000  0.20939000  0.14281000  1.0 -0.1610465361
C  C544  1  0.73663000  0.20897000  0.08543000  1.0 -0.0017880669
C  C545  1  0.72436000  0.18416000  0.07984000  1.0 -0.2489897104
C  C546  1  0.71884000  0.16084000  0.13156000  1.0 0.2305632299
C  C547  1  0.72616000  0.15956000  0.18844000  1.0 -0.2202336579
C  C548  1  0.73896000  0.18336000  0.19504000  1.0 -0.0983726922
C  C549  1  0.67868000  0.15388000  0.08332000  1.0 -0.0707434754
C  C550  1  0.65136000  0.13796000  0.10424000  1.0 0.0817543441
C  C551  1  0.59704000  0.17424000  0.16876000  1.0 -0.1424644557
C  C552  1  0.67765000  0.09045000  0.06315000  1.0 -0.1610465361
C  C553  1  0.20053000  0.34613000  0.12907000  1.0 0.0991589331
C  C554  1  0.20916000  0.33882000  0.18838000  1.0 -0.1892585805
C  C555  1  0.27229000  0.28169000  0.19071000  1.0 0.0991589331
C  C556  1  0.32496000  0.23476000  0.13224000  1.0 -0.1810817771
C  C557  1  0.31411000  0.24431000  0.07449000  1.0 0.0681766522
C  C558  1  0.19892000  0.34032000  0.87448000  1.0 0.0547683211
C  C559  1  0.20546000  0.33386000  0.81014000  1.0 -0.1892585805
C  C560  1  0.26981000  0.27825000  0.76035000  1.0 0.1090906619
C  C561  1  0.32297000  0.23265000  0.78155000  1.0 -0.1892585805
C  C562  1  0.31305000  0.24245000  0.84575000  1.0 0.0901666406
C  C563  1  0.16627000  0.42337000  0.99923000  1.0 0.541126742
C  C564  1  0.11594000  0.49566000  0.01354000  1.0 0.0001940874
C  C565  1  0.13720000  0.51320000  0.98480000  1.0 -0.1712382296
C  C566  1  0.08895000  0.58175000  0.99705000  1.0 -0.0902309511
C  C567  1  0.02339000  0.62939000  0.03661000  1.0 -0.2114764621
C  C568  1  0.00357000  0.61057000  0.06603000  1.0 0.2495032018
C  C569  1  0.04944000  0.54336000  0.05504000  1.0 -0.2489897104
C  C570  1  0.91241000  0.64741000  0.13779000  1.0 -0.0707434754
C  C571  1  0.84074000  0.71314000  0.18366000  1.0 0.0681766522
C  C572  1  0.79109000  0.76189000  0.15871000  1.0 -0.1424644557
C  C573  1  0.82441000  0.72861000  0.24979000  1.0 -0.1610465361
C  C574  1  0.25449000  0.22299000  0.01921000  1.0 0.5281610852
C  C575  1  0.34519000  0.10719000  0.04061000  1.0 -0.1610465361
C  C576  1  0.28103000  0.16457000  0.04103000  1.0 -0.0017880669
C  C577  1  0.23836000  0.17016000  0.06584000  1.0 -0.2489897104
C  C578  1  0.26124000  0.11844000  0.08916000  1.0 0.2305632299
C  C579  1  0.32416000  0.06156000  0.09044000  1.0 -0.2202336579
C  C580  1  0.36736000  0.05496000  0.06664000  1.0 -0.0983726922
C  C581  1  0.16588000  0.16668000  0.09612000  1.0 -0.0707434754
C  C582  1  0.14356000  0.14576000  0.11204000  1.0 0.0817543441
C  C583  1  0.19004000  0.08124000  0.07576000  1.0 -0.1424644557
C  C584  1  0.08125000  0.18685000  0.15955000  1.0 -0.1610465361
C  C585  1  0.34613000  0.20053000  0.32427000  1.0 0.0991589331
C  C586  1  0.33882000  0.20916000  0.26364000  1.0 -0.1892585805
C  C587  1  0.28169000  0.27229000  0.25531000  1.0 0.0991589331
C  C588  1  0.23476000  0.32496000  0.30804000  1.0 -0.1810817771
C  C589  1  0.24431000  0.31411000  0.36709000  1.0 0.0681766522
C  C590  1  0.34032000  0.19892000  0.58628000  1.0 0.0547683211
C  C591  1  0.33386000  0.20546000  0.65054000  1.0 -0.1892585805
C  C592  1  0.27825000  0.26981000  0.69159000  1.0 0.1090906619
C  C593  1  0.23265000  0.32297000  0.66283000  1.0 -0.1892585805
C  C594  1  0.24245000  0.31305000  0.59875000  1.0 0.0901666406
C  C595  1  0.42337000  0.16627000  0.41113000  1.0 0.541126742
C  C596  1  0.49566000  0.11594000  0.37486000  1.0 0.0001940874
C  C597  1  0.51320000  0.13720000  0.36480000  1.0 -0.1712382296
C  C598  1  0.58175000  0.08895000  0.33225000  1.0 -0.0902309511
C  C599  1  0.62939000  0.02339000  0.31061000  1.0 -0.2114764621
C  C600  1  0.61057000  0.00357000  0.31983000  1.0 0.2495032018
C  C601  1  0.54336000  0.04944000  0.35216000  1.0 -0.2489897104
C  C602  1  0.64741000  0.91241000  0.30239000  1.0 -0.0707434754
C  C603  1  0.71314000  0.84074000  0.26246000  1.0 0.0681766522
C  C604  1  0.76189000  0.79109000  0.28831000  1.0 -0.1424644557
C  C605  1  0.72861000  0.82441000  0.19719000  1.0 -0.1610465361
C  C606  1  0.22299000  0.25449000  0.50331000  1.0 0.5281610852
C  C607  1  0.10719000  0.34519000  0.50701000  1.0 -0.1610465361
C  C608  1  0.16457000  0.28103000  0.51337000  1.0 -0.0017880669
C  C609  1  0.17016000  0.23836000  0.52564000  1.0 -0.2489897104
C  C610  1  0.11844000  0.26124000  0.53116000  1.0 0.2305632299
C  C611  1  0.06156000  0.32416000  0.52384000  1.0 -0.2202336579
C  C612  1  0.05496000  0.36736000  0.51104000  1.0 -0.0983726922
C  C613  1  0.16668000  0.16588000  0.57132000  1.0 -0.0707434754
C  C614  1  0.14576000  0.14356000  0.59864000  1.0 0.0817543441
C  C615  1  0.08124000  0.19004000  0.65296000  1.0 -0.1424644557
C  C616  1  0.18685000  0.08125000  0.57235000  1.0 -0.1610465361
C  C617  1  0.04947000  0.90387000  0.12093000  1.0 0.0991589331
C  C618  1  0.04084000  0.91118000  0.06162000  1.0 -0.1892585805
C  C619  1  0.97771000  0.96831000  0.05929000  1.0 0.0991589331
C  C620  1  0.92504000  0.01524000  0.11776000  1.0 -0.1810817771
C  C621  1  0.93589000  0.00569000  0.17551000  1.0 0.0681766522
C  C622  1  0.05108000  0.90968000  0.37552000  1.0 0.0547683211
C  C623  1  0.04454000  0.91614000  0.43986000  1.0 -0.1892585805
C  C624  1  0.98019000  0.97175000  0.48965000  1.0 0.1090906619
C  C625  1  0.92703000  0.01735000  0.46845000  1.0 -0.1892585805
C  C626  1  0.93695000  0.00755000  0.40425000  1.0 0.0901666406
C  C627  1  0.08373000  0.82663000  0.25077000  1.0 0.541126742
C  C628  1  0.13406000  0.75434000  0.23646000  1.0 0.0001940874
C  C629  1  0.11280000  0.73680000  0.26520000  1.0 -0.1712382296
C  C630  1  0.16105000  0.66825000  0.25295000  1.0 -0.0902309511
C  C631  1  0.22661000  0.62061000  0.21339000  1.0 -0.2114764621
C  C632  1  0.24643000  0.63943000  0.18397000  1.0 0.2495032018
C  C633  1  0.20056000  0.70664000  0.19496000  1.0 -0.2489897104
C  C634  1  0.33759000  0.60259000  0.11221000  1.0 -0.0707434754
C  C635  1  0.40926000  0.53686000  0.06634000  1.0 0.0681766522
C  C636  1  0.45891000  0.48811000  0.09129000  1.0 -0.1424644557
C  C637  1  0.42559000  0.52139000  0.00021000  1.0 -0.1610465361
C  C638  1  0.99551000  0.02701000  0.23079000  1.0 0.5281610852
C  C639  1  0.90481000  0.14281000  0.20939000  1.0 -0.1610465361
C  C640  1  0.96897000  0.08543000  0.20897000  1.0 -0.0017880669
C  C641  1  0.01164000  0.07984000  0.18416000  1.0 -0.2489897104
C  C642  1  0.98876000  0.13156000  0.16084000  1.0 0.2305632299
C  C643  1  0.92584000  0.18844000  0.15956000  1.0 -0.2202336579
C  C644  1  0.88264000  0.19504000  0.18336000  1.0 -0.0983726922
C  C645  1  0.08412000  0.08332000  0.15388000  1.0 -0.0707434754
C  C646  1  0.10644000  0.10424000  0.13796000  1.0 0.0817543441
C  C647  1  0.05996000  0.16876000  0.17424000  1.0 -0.1424644557
C  C648  1  0.16875000  0.06315000  0.09045000  1.0 -0.1610465361
C  C649  1  0.90387000  0.04947000  0.92573000  1.0 0.0991589331
C  C650  1  0.91118000  0.04084000  0.98636000  1.0 -0.1892585805
C  C651  1  0.96831000  0.97771000  0.99469000  1.0 0.0991589331
C  C652  1  0.01524000  0.92504000  0.94196000  1.0 -0.1810817771
C  C653  1  0.00569000  0.93589000  0.88291000  1.0 0.0681766522
C  C654  1  0.90968000  0.05108000  0.66372000  1.0 0.0547683211
C  C655  1  0.91614000  0.04454000  0.59946000  1.0 -0.1892585805
C  C656  1  0.97175000  0.98019000  0.55841000  1.0 0.1090906619
C  C657  1  0.01735000  0.92703000  0.58717000  1.0 -0.1892585805
C  C658  1  0.00755000  0.93695000  0.65125000  1.0 0.0901666406
C  C659  1  0.82663000  0.08373000  0.83887000  1.0 0.541126742
C  C660  1  0.75434000  0.13406000  0.87514000  1.0 0.0001940874
C  C661  1  0.73680000  0.11280000  0.88520000  1.0 -0.1712382296
C  C662  1  0.66825000  0.16105000  0.91775000  1.0 -0.0902309511
C  C663  1  0.62061000  0.22661000  0.93939000  1.0 -0.2114764621
C  C664  1  0.63943000  0.24643000  0.93017000  1.0 0.2495032018
C  C665  1  0.70664000  0.20056000  0.89784000  1.0 -0.2489897104
C  C666  1  0.60259000  0.33759000  0.94761000  1.0 -0.0707434754
C  C667  1  0.53686000  0.40926000  0.98754000  1.0 0.0681766522
C  C668  1  0.48811000  0.45891000  0.96169000  1.0 -0.1424644557
C  C669  1  0.52139000  0.42559000  0.05281000  1.0 -0.1610465361
C  C670  1  0.02701000  0.99551000  0.74669000  1.0 0.5281610852
C  C671  1  0.14281000  0.90481000  0.74299000  1.0 -0.1610465361
C  C672  1  0.08543000  0.96897000  0.73663000  1.0 -0.0017880669
C  C673  1  0.07984000  0.01164000  0.72436000  1.0 -0.2489897104
C  C674  1  0.13156000  0.98876000  0.71884000  1.0 0.2305632299
C  C675  1  0.18844000  0.92584000  0.72616000  1.0 -0.2202336579
C  C676  1  0.19504000  0.88264000  0.73896000  1.0 -0.0983726922
C  C677  1  0.08332000  0.08412000  0.67868000  1.0 -0.0707434754
C  C678  1  0.10424000  0.10644000  0.65136000  1.0 0.0817543441
C  C679  1  0.16876000  0.05996000  0.59704000  1.0 -0.1424644557
C  C680  1  0.06315000  0.16875000  0.67765000  1.0 -0.1610465361
N  N1  1  0.82798000  0.51912000  0.34208000  1.0 -0.2114764621
N  N2  1  0.00609000  0.33509000  0.34291000  1.0 -0.1810817771
N  N3  1  0.71987000  0.02667000  0.60713000  1.0 -0.0359557919
N  N4  1  0.70468000  0.03668000  0.65072000  1.0 -0.0311441207
N  N5  1  0.51912000  0.82798000  0.31082000  1.0 -0.2114764621
N  N6  1  0.33509000  0.00609000  0.31591000  1.0 -0.1810817771
N  N7  1  0.02667000  0.71987000  0.64633000  1.0 -0.0359557919
N  N8  1  0.03668000  0.70468000  0.60792000  1.0 -0.0311441207
N  N9  1  0.42202000  0.73088000  0.90792000  1.0 -0.2114764621
N  N10  1  0.24391000  0.91491000  0.90709000  1.0 -0.1810817771
N  N11  1  0.53013000  0.22333000  0.64287000  1.0 -0.0359557919
N  N12  1  0.54532000  0.21332000  0.59928000  1.0 -0.0311441207
N  N13  1  0.73088000  0.42202000  0.93918000  1.0 -0.2114764621
N  N14  1  0.91491000  0.24391000  0.93409000  1.0 -0.1810817771
N  N15  1  0.22333000  0.53013000  0.60367000  1.0 -0.0359557919
N  N16  1  0.21332000  0.54532000  0.64208000  1.0 -0.0311441207
N  N17  1  0.34208000  0.31082000  0.82798000  1.0 -0.2114764621
N  N18  1  0.34291000  0.31591000  0.00609000  1.0 -0.1810817771
N  N19  1  0.60713000  0.64633000  0.71987000  1.0 -0.0359557919
N  N20  1  0.65072000  0.60792000  0.70468000  1.0 -0.0311441207
N  N21  1  0.31082000  0.34208000  0.51912000  1.0 -0.2114764621
N  N22  1  0.31591000  0.34291000  0.33509000  1.0 -0.1810817771
N  N23  1  0.64633000  0.60713000  0.02667000  1.0 -0.0359557919
N  N24  1  0.60792000  0.65072000  0.03668000  1.0 -0.0311441207
N  N25  1  0.90792000  0.93918000  0.42202000  1.0 -0.2114764621
N  N26  1  0.90709000  0.93409000  0.24391000  1.0 -0.1810817771
N  N27  1  0.64287000  0.60367000  0.53013000  1.0 -0.0311441207
N  N28  1  0.59928000  0.64208000  0.54532000  1.0 -0.0311441207
N  N29  1  0.93918000  0.90792000  0.73088000  1.0 -0.2114764621
N  N30  1  0.93409000  0.90709000  0.91491000  1.0 -0.1810817771
N  N31  1  0.60367000  0.64287000  0.22333000  1.0 -0.0359557919
N  N32  1  0.64208000  0.59928000  0.21332000  1.0 -0.0311441207
N  N33  1  0.89287000  0.56029000  0.25271000  1.0 -0.2202336579
N  N34  1  0.07304000  0.37568000  0.25132000  1.0 -0.2202336579
N  N35  1  0.56029000  0.89287000  0.29413000  1.0 -0.2202336579
N  N36  1  0.37568000  0.07304000  0.29996000  1.0 -0.2202336579
N  N37  1  0.35713000  0.68971000  0.99729000  1.0 -0.2202336579
N  N38  1  0.17696000  0.87432000  0.99868000  1.0 -0.2202336579
N  N39  1  0.68971000  0.35713000  0.95587000  1.0 -0.2202336579
N  N40  1  0.87432000  0.17696000  0.95004000  1.0 -0.2202336579
N  N41  1  0.25271000  0.29413000  0.89287000  1.0 -0.2202336579
N  N42  1  0.25132000  0.29996000  0.07304000  1.0 -0.2202336579
N  N43  1  0.29413000  0.25271000  0.56029000  1.0 -0.2202336579
N  N44  1  0.29996000  0.25132000  0.37568000  1.0 -0.2202336579
N  N45  1  0.99729000  0.95587000  0.35713000  1.0 -0.2202336579
N  N46  1  0.99868000  0.95004000  0.17696000  1.0 -0.2202336579
N  N47  1  0.95587000  0.99729000  0.68971000  1.0 -0.2202336579
N  N48  1  0.95004000  0.99868000  0.87432000  1.0 -0.2202336579
O  O1  1  0.91116000  0.39296000  0.30180000  1.0 -0.5225977137
O  O2  1  0.85180000  0.41400000  0.40200000  1.0 -0.5225977137
O  O3  1  0.81362000  0.32502000  0.35778000  1.0 -0.1810817771
O  O4  1  0.76355000  0.19455000  0.56125000  1.0 -0.2202336579
O  O5  1  0.62809000  0.16249000  0.68211000  1.0 -0.499077973
O  O6  1  0.67781000  0.14061000  0.57339000  1.0 -0.4129679585
O  O7  1  0.92597000  0.46829000  0.37643000  1.0 -0.5711609433
O  O8  1  0.87895000  0.46533000  0.46421000  1.0 -0.5422711267
O  O9  1  0.80319000  0.59481000  0.66219000  1.0 -0.1810817771
O  O10  1  0.39296000  0.91116000  0.39408000  1.0 -0.5225977137
O  O11  1  0.41400000  0.85180000  0.33220000  1.0 -0.5225977137
O  O12  1  0.32502000  0.81362000  0.50358000  1.0 -0.1810817771
O  O13  1  0.19455000  0.76355000  0.48065000  1.0 -0.2202336579
O  O14  1  0.16249000  0.62809000  0.52731000  1.0 -0.499077973
O  O15  1  0.14061000  0.67781000  0.60819000  1.0 -0.4129679585
O  O16  1  0.46829000  0.92597000  0.22931000  1.0 -0.5711609433
O  O17  1  0.46533000  0.87895000  0.19151000  1.0 -0.5422711267
O  O18  1  0.59481000  0.80319000  0.93981000  1.0 -0.1810817771
O  O19  1  0.33884000  0.85704000  0.94820000  1.0 -0.5225977137
O  O20  1  0.39820000  0.83600000  0.84800000  1.0 -0.5225977137
O  O21  1  0.43638000  0.92498000  0.89222000  1.0 -0.1810817771
O  O22  1  0.48645000  0.05545000  0.68875000  1.0 -0.2202336579
O  O23  1  0.62191000  0.08751000  0.56789000  1.0 -0.499077973
O  O24  1  0.57219000  0.10939000  0.67661000  1.0 -0.4129679585
O  O25  1  0.32403000  0.78171000  0.87357000  1.0 -0.5711609433
O  O26  1  0.37105000  0.78467000  0.78579000  1.0 -0.5422711267
O  O27  1  0.44681000  0.65519000  0.58781000  1.0 -0.1810817771
O  O28  1  0.85704000  0.33884000  0.85592000  1.0 -0.5225977137
O  O29  1  0.83600000  0.39820000  0.91780000  1.0 -0.5225977137
O  O30  1  0.92498000  0.43638000  0.74642000  1.0 -0.1810817771
O  O31  1  0.05545000  0.48645000  0.76935000  1.0 -0.2202336579
O  O32  1  0.08751000  0.62191000  0.72269000  1.0 -0.499077973
O  O33  1  0.10939000  0.57219000  0.64181000  1.0 -0.4129679585
O  O34  1  0.78171000  0.32403000  0.02069000  1.0 -0.5711609433
O  O35  1  0.78467000  0.37105000  0.05849000  1.0 -0.5422711267
O  O36  1  0.65519000  0.44681000  0.31019000  1.0 -0.1810817771
O  O37  1  0.30180000  0.39408000  0.91116000  1.0 -0.5225977137
O  O38  1  0.40200000  0.33220000  0.85180000  1.0 -0.5225977137
O  O39  1  0.35778000  0.50358000  0.81362000  1.0 -0.1810817771
O  O40  1  0.56125000  0.48065000  0.76355000  1.0 -0.2202336579
O  O41  1  0.68211000  0.52731000  0.62809000  1.0 -0.499077973
O  O42  1  0.57339000  0.60819000  0.67781000  1.0 -0.4129679585
O  O43  1  0.37643000  0.22931000  0.92597000  1.0 -0.5711609433
O  O44  1  0.46421000  0.19151000  0.87895000  1.0 -0.5422711267
O  O45  1  0.66219000  0.93981000  0.80319000  1.0 -0.1892585805
O  O46  1  0.39408000  0.30180000  0.39296000  1.0 -0.5225977137
O  O47  1  0.33220000  0.40200000  0.41400000  1.0 -0.5225977137
O  O48  1  0.50358000  0.35778000  0.32502000  1.0 -0.1810817771
O  O49  1  0.48065000  0.56125000  0.19455000  1.0 -0.2202336579
O  O50  1  0.52731000  0.68211000  0.16249000  1.0 -0.499077973
O  O51  1  0.60819000  0.57339000  0.14061000  1.0 -0.4129679585
O  O52  1  0.22931000  0.37643000  0.46829000  1.0 -0.5711609433
O  O53  1  0.19151000  0.46421000  0.46533000  1.0 -0.5422711267
O  O54  1  0.93981000  0.66219000  0.59481000  1.0 -0.1810817771
O  O55  1  0.94820000  0.85592000  0.33884000  1.0 -0.5225977137
O  O56  1  0.84800000  0.91780000  0.39820000  1.0 -0.5225977137
O  O57  1  0.89222000  0.74642000  0.43638000  1.0 -0.1810817771
O  O58  1  0.68875000  0.76935000  0.48645000  1.0 -0.2202336579
O  O59  1  0.56789000  0.72269000  0.62191000  1.0 -0.499077973
O  O60  1  0.67661000  0.64181000  0.57219000  1.0 -0.4129679585
O  O61  1  0.87357000  0.02069000  0.32403000  1.0 -0.5711609433
O  O62  1  0.78579000  0.05849000  0.37105000  1.0 -0.5422711267
O  O63  1  0.58781000  0.31019000  0.44681000  1.0 -0.1810817771
O  O64  1  0.85592000  0.94820000  0.85704000  1.0 -0.5225977137
O  O65  1  0.91780000  0.84800000  0.83600000  1.0 -0.5225977137
O  O66  1  0.74642000  0.89222000  0.92498000  1.0 -0.1810817771
O  O67  1  0.76935000  0.68875000  0.05545000  1.0 -0.2202336579
O  O68  1  0.72269000  0.56789000  0.08751000  1.0 -0.499077973
O  O69  1  0.64181000  0.67661000  0.10939000  1.0 -0.4129679585
O  O70  1  0.02069000  0.87357000  0.78171000  1.0 -0.5711609433
O  O71  1  0.05849000  0.78579000  0.78467000  1.0 -0.5422711267
O  O72  1  0.31019000  0.58781000  0.65519000  1.0 -0.1810817771
O  O73  1  0.97340000  0.42054000  0.22748000  1.0 -0.5899711484
O  O74  1  0.01436000  0.43176000  0.14492000  1.0 -0.5225977137
O  O75  1  0.10571000  0.29485000  0.93755000  1.0 -0.1476225714
O  O76  1  0.98729000  0.50311000  0.29703000  1.0 -0.5309643382
O  O77  1  0.03441000  0.49313000  0.19327000  1.0 -0.5422711267
O  O78  1  0.11485000  0.54325000  0.22335000  1.0 -0.2114764621
O  O79  1  0.42054000  0.97340000  0.37858000  1.0 -0.5899711484
O  O80  1  0.43176000  0.01436000  0.40896000  1.0 -0.5225977137
O  O81  1  0.29485000  0.10571000  0.66189000  1.0 -0.1476225714
O  O82  1  0.50311000  0.98729000  0.21257000  1.0 -0.5309643382
O  O83  1  0.49313000  0.03441000  0.27919000  1.0 -0.5422711267
O  O84  1  0.54325000  0.11485000  0.11855000  1.0 -0.2114764621
O  O85  1  0.27660000  0.82946000  0.02252000  1.0 -0.5899711484
O  O86  1  0.23564000  0.81824000  0.10508000  1.0 -0.5225977137
O  O87  1  0.14429000  0.95515000  0.31245000  1.0 -0.1476225714
O  O88  1  0.26271000  0.74689000  0.95297000  1.0 -0.5309643382
O  O89  1  0.21559000  0.75687000  0.05673000  1.0 -0.5422711267
O  O90  1  0.13515000  0.70675000  0.02665000  1.0 -0.2114764621
O  O91  1  0.82946000  0.27660000  0.87142000  1.0 -0.5899711484
O  O92  1  0.81824000  0.23564000  0.84104000  1.0 -0.5225977137
O  O93  1  0.95515000  0.14429000  0.58811000  1.0 -0.1424644557
O  O94  1  0.74689000  0.26271000  0.03743000  1.0 -0.5309643382
O  O95  1  0.75687000  0.21559000  0.97081000  1.0 -0.5422711267
O  O96  1  0.70675000  0.13515000  0.13145000  1.0 -0.2114764621
O  O97  1  0.22748000  0.37858000  0.97340000  1.0 -0.5899711484
O  O98  1  0.14492000  0.40896000  0.01436000  1.0 -0.5225977137
O  O99  1  0.93755000  0.66189000  0.10571000  1.0 -0.1424644557
O  O100  1  0.29703000  0.21257000  0.98729000  1.0 -0.5309643382
O  O101  1  0.19327000  0.27919000  0.03441000  1.0 -0.5451475317
O  O102  1  0.22335000  0.11855000  0.11485000  1.0 -0.2114764621
O  O103  1  0.37858000  0.22748000  0.42054000  1.0 -0.5899711484
O  O104  1  0.40896000  0.14492000  0.43176000  1.0 -0.5225977137
O  O105  1  0.66189000  0.93755000  0.29485000  1.0 -0.1476225714
O  O106  1  0.21257000  0.29703000  0.50311000  1.0 -0.5309643382
O  O107  1  0.27919000  0.19327000  0.49313000  1.0 -0.5422711267
O  O108  1  0.11855000  0.22335000  0.54325000  1.0 -0.2114764621
O  O109  1  0.02252000  0.87142000  0.27660000  1.0 -0.5899711484
O  O110  1  0.10508000  0.84104000  0.23564000  1.0 -0.5225977137
O  O111  1  0.31245000  0.58811000  0.14429000  1.0 -0.1476225714
O  O112  1  0.95297000  0.03743000  0.26271000  1.0 -0.5309643382
O  O113  1  0.05673000  0.97081000  0.21559000  1.0 -0.5422711267
O  O114  1  0.02665000  0.13145000  0.13515000  1.0 -0.2114764621
O  O115  1  0.87142000  0.02252000  0.82946000  1.0 -0.5899711484
O  O116  1  0.84104000  0.10508000  0.81824000  1.0 -0.5225977137
O  O117  1  0.58811000  0.31245000  0.95515000  1.0 -0.1476225714
O  O118  1  0.03743000  0.95297000  0.74689000  1.0 -0.5309643382
O  O119  1  0.97081000  0.05673000  0.75687000  1.0 -0.5422711267
O  O120  1  0.13145000  0.02665000  0.70675000  1.0 -0.2114764621
