# DDEC6 charges by PACMAN v1.1 (https://github.com/mtap-research/PACMAN-charge/)
data_BUQSOY_FSR_pacman
_symmetry_space_group_name_H-M   'P 1'
_cell_length_a   12.42890000
_cell_length_b   15.68610000
_cell_length_c   26.45200000
_cell_angle_alpha   76.84000000
_cell_angle_beta   85.53000000
_cell_angle_gamma   79.32400000
_symmetry_Int_Tables_number   1
_chemical_formula_structural   Zn3H73C84(N4O5)3
_chemical_formula_sum   'Zn6 H146 C168 N24 O30'
_cell_volume   4931.30213202
_cell_formula_units_Z   2
loop_
 _symmetry_equiv_pos_site_id
 _symmetry_equiv_pos_as_xyz
  1  'x, y, z'
loop_
 _atom_site_type_symbol
 _atom_site_label
 _atom_site_symmetry_multiplicity
 _atom_site_fract_x
 _atom_site_fract_y
 _atom_site_fract_z
 _atom_site_occupancy
 _atom_site_charge
Zn  Zn1  1  0.25992000  0.38184000  0.34536000  1.0 0.7308178844
Zn  Zn2  1  0.12317000  0.88350000  0.32423000  1.0 0.7089828552
Zn  Zn3  1  0.74712000  0.24990000  0.00081000  1.0 0.7010205688
Zn  Zn4  1  0.74008000  0.61816000  0.65464000  1.0 0.7308178844
Zn  Zn5  1  0.87683000  0.11650000  0.67577000  1.0 0.7089828552
Zn  Zn6  1  0.25288000  0.75010000  0.99919000  1.0 0.7010205688
H  H1  1  0.18690000  0.44660000  0.23900000  1.0 0.1104280331
H  H2  1  0.08580000  0.56080000  0.18710000  1.0 0.1403058632
H  H3  1  0.00080000  0.67150000  0.31010000  1.0 0.1403058632
H  H4  1  0.10250000  0.54810000  0.35990000  1.0 0.119274956
H  H5  1  0.87700000  0.76840000  0.26070000  1.0 0.119274956
H  H6  1  0.97430000  0.82260000  0.23890000  1.0 0.119274956
H  H7  1  0.08270000  0.69550000  0.14360000  1.0 0.119274956
H  H8  1  0.95460000  0.70860000  0.13300000  1.0 0.119274956
H  H9  1  0.01800000  0.83270000  0.09340000  1.0 0.119274956
H  H10  1  0.07120000  0.83740000  0.14530000  1.0 0.1104280331
H  H11  1  0.81120000  0.89490000  0.20550000  1.0 0.1104280331
H  H12  1  0.80050000  0.81150000  0.18210000  1.0 0.1104280331
H  H13  1  0.73010000  0.99770000  0.14820000  1.0 0.1403058632
H  H14  1  0.67630000  0.13320000  0.09450000  1.0 0.1020005322
H  H15  1  0.95500000  0.11060000  0.01890000  1.0 0.119274956
H  H16  1  0.00870000  0.97570000  0.06580000  1.0 0.1470315533
H  H17  1  0.09880000  0.27590000  0.33270000  1.0 0.1104280331
H  H18  1  0.03520000  0.14760000  0.37340000  1.0 0.1403058632
H  H19  1  0.18270000  0.15350000  0.50320000  1.0 0.129930829
H  H20  1  0.25710000  0.27740000  0.45700000  1.0 0.1104280331
H  H21  1  0.15140000  0.02690000  0.53320000  1.0 0.119274956
H  H22  1  0.03320000  0.08250000  0.54220000  1.0 0.119274956
H  H23  1  0.90380000  0.09450000  0.45130000  1.0 0.119274956
H  H24  1  0.97930000  0.04310000  0.41240000  1.0 0.129930829
H  H25  1  0.25980000  0.69540000  0.34830000  1.0 0.119274956
H  H26  1  0.35360000  0.59590000  0.30560000  1.0 0.129930829
H  H27  1  0.26620000  0.76590000  0.17180000  1.0 0.129930829
H  H28  1  0.17990000  0.86400000  0.21760000  1.0 0.1104280331
H  H29  1  0.44420000  0.65030000  0.13450000  1.0 0.1104280331
H  H30  1  0.31250000  0.67110000  0.13520000  1.0 0.119274956
H  H31  1  0.40230000  0.48660000  0.25120000  1.0 0.119274956
H  H32  1  0.49410000  0.54480000  0.25290000  1.0 0.119274956
H  H33  1  0.58750000  0.50400000  0.19000000  1.0 0.119274956
H  H34  1  0.53280000  0.41830000  0.21190000  1.0 0.119274956
H  H35  1  0.35790000  0.55440000  0.09730000  1.0 0.119274956
H  H36  1  0.31850000  0.51310000  0.15540000  1.0 0.1104280331
H  H37  1  0.41890000  0.45390000  0.05780000  1.0 0.1403058632
H  H38  1  0.51990000  0.37020000  0.00430000  1.0 0.119274956
H  H39  1  0.72310000  0.26420000  0.11050000  1.0 0.1020005322
H  H40  1  0.66200000  0.39620000  0.15270000  1.0 0.1403058632
H  H41  1  0.22380000  0.80270000  0.42910000  1.0 0.119274956
H  H42  1  0.32760000  0.83890000  0.48560000  1.0 0.1403058632
H  H43  1  0.24470000  0.02520000  0.32610000  1.0 0.1104280331
H  H44  1  0.44000000  0.09520000  0.42810000  1.0 0.119274956
H  H45  1  0.54840000  0.02380000  0.42630000  1.0 0.119274956
H  H46  1  0.39800000  0.89470000  0.53360000  1.0 0.119274956
H  H47  1  0.51580000  0.86710000  0.50750000  1.0 0.129930829
H  H48  1  0.45990000  0.09080000  0.28670000  1.0 0.1104280331
H  H49  1  0.50700000  0.03250000  0.20840000  1.0 0.1403058632
H  H50  1  0.37980000  0.25360000  0.12420000  1.0 0.1470315533
H  H51  1  0.33630000  0.31580000  0.19520000  1.0 0.119274956
H  H52  1  0.30030000  0.04690000  0.15070000  1.0 0.129930829
H  H53  1  0.23210000  0.94320000  0.11970000  1.0 0.1104280331
H  H54  1  0.50540000  0.88670000  0.03990000  1.0 0.129930829
H  H55  1  0.58160000  0.00060000  0.06730000  1.0 0.129930829
H  H56  1  0.30140000  0.55150000  0.48150000  1.0 0.119274956
H  H57  1  0.40370000  0.64880000  0.50560000  1.0 0.129930829
H  H58  1  0.61890000  0.62340000  0.38750000  1.0 0.129930829
H  H59  1  0.52500000  0.51490000  0.36730000  1.0 0.1104280331
H  H60  1  0.75650000  0.60020000  0.46560000  1.0 0.1403058632
H  H61  1  0.92970000  0.63720000  0.43470000  1.0 0.129930829
H  H62  1  0.77990000  0.88760000  0.37510000  1.0 0.129930829
H  H63  1  0.61090000  0.85450000  0.40590000  1.0 0.129930829
H  H64  1  0.06180000  0.05610000  0.17690000  1.0 0.1104280331
H  H65  1  0.02690000  0.16670000  0.10110000  1.0 0.1403058632
H  H66  1  0.91240000  0.34420000  0.19370000  1.0 0.129930829
H  H67  1  0.95650000  0.23020000  0.26790000  1.0 0.1104280331
H  H68  1  0.10450000  0.36850000  0.13670000  1.0 0.1104280331
H  H69  1  0.18480000  0.49980000  0.10070000  1.0 0.0902327562
H  H70  1  0.94460000  0.60150000  0.00480000  1.0 0.1403058632
H  H71  1  0.85930000  0.47110000  0.02460000  1.0 0.119274956
H  H72  1  0.29370000  0.06980000  0.39690000  1.0 0.1403058632
H  H73  1  0.39780000  0.02370000  0.36790000  1.0 0.1403058632
H  H74  1  0.81310000  0.55340000  0.76100000  1.0 0.1104280331
H  H75  1  0.91420000  0.43920000  0.81290000  1.0 0.1403058632
H  H76  1  0.99920000  0.32850000  0.68990000  1.0 0.129930829
H  H77  1  0.89750000  0.45190000  0.64010000  1.0 0.119274956
H  H78  1  0.12300000  0.23160000  0.73930000  1.0 0.119274956
H  H79  1  0.02570000  0.17740000  0.76110000  1.0 0.119274956
H  H80  1  0.91730000  0.30450000  0.85640000  1.0 0.119274956
H  H81  1  0.04540000  0.29140000  0.86700000  1.0 0.119274956
H  H82  1  0.98200000  0.16730000  0.90660000  1.0 0.119274956
H  H83  1  0.92880000  0.16260000  0.85470000  1.0 0.1104280331
H  H84  1  0.18880000  0.10510000  0.79450000  1.0 0.1104280331
H  H85  1  0.19950000  0.18850000  0.81790000  1.0 0.1104280331
H  H86  1  0.26990000  0.00230000  0.85180000  1.0 0.1403058632
H  H87  1  0.32370000  0.86680000  0.90550000  1.0 0.1020005322
H  H88  1  0.04500000  0.88940000  0.98110000  1.0 0.119274956
H  H89  1  0.99130000  0.02430000  0.93420000  1.0 0.1470315533
H  H90  1  0.90120000  0.72410000  0.66730000  1.0 0.1104280331
H  H91  1  0.96480000  0.85240000  0.62660000  1.0 0.1403058632
H  H92  1  0.81730000  0.84650000  0.49680000  1.0 0.129930829
H  H93  1  0.74290000  0.72260000  0.54300000  1.0 0.1104280331
H  H94  1  0.84860000  0.97310000  0.46680000  1.0 0.119274956
H  H95  1  0.96680000  0.91750000  0.45780000  1.0 0.119274956
H  H96  1  0.09620000  0.90550000  0.54870000  1.0 0.119274956
H  H97  1  0.02070000  0.95690000  0.58760000  1.0 0.129930829
H  H98  1  0.74020000  0.30460000  0.65170000  1.0 0.119274956
H  H99  1  0.64640000  0.40410000  0.69440000  1.0 0.129930829
H  H100  1  0.73380000  0.23410000  0.82820000  1.0 0.129930829
H  H101  1  0.82010000  0.13600000  0.78240000  1.0 0.1104280331
H  H102  1  0.55580000  0.34970000  0.86550000  1.0 0.1104280331
H  H103  1  0.68750000  0.32890000  0.86480000  1.0 0.119274956
H  H104  1  0.59770000  0.51340000  0.74880000  1.0 0.119274956
H  H105  1  0.50590000  0.45520000  0.74710000  1.0 0.119274956
H  H106  1  0.41250000  0.49600000  0.81000000  1.0 0.119274956
H  H107  1  0.46720000  0.58170000  0.78810000  1.0 0.119274956
H  H108  1  0.64210000  0.44560000  0.90270000  1.0 0.119274956
H  H109  1  0.68150000  0.48690000  0.84460000  1.0 0.1104280331
H  H110  1  0.58110000  0.54610000  0.94220000  1.0 0.1403058632
H  H111  1  0.48010000  0.62980000  0.99570000  1.0 0.119274956
H  H112  1  0.27690000  0.73580000  0.88950000  1.0 0.1020005322
H  H113  1  0.33800000  0.60380000  0.84730000  1.0 0.1403058632
H  H114  1  0.77620000  0.19730000  0.57090000  1.0 0.119274956
H  H115  1  0.67240000  0.16110000  0.51440000  1.0 0.1403058632
H  H116  1  0.75530000  0.97480000  0.67390000  1.0 0.1104280331
H  H117  1  0.56000000  0.90480000  0.57190000  1.0 0.119274956
H  H118  1  0.45160000  0.97620000  0.57370000  1.0 0.119274956
H  H119  1  0.60200000  0.10530000  0.46640000  1.0 0.119274956
H  H120  1  0.48420000  0.13290000  0.49250000  1.0 0.129930829
H  H121  1  0.54010000  0.90920000  0.71330000  1.0 0.1104280331
H  H122  1  0.49300000  0.96750000  0.79160000  1.0 0.1403058632
H  H123  1  0.62020000  0.74640000  0.87580000  1.0 0.1470315533
H  H124  1  0.66370000  0.68420000  0.80480000  1.0 0.119274956
H  H125  1  0.69970000  0.95310000  0.84930000  1.0 0.129930829
H  H126  1  0.76790000  0.05680000  0.88030000  1.0 0.1104280331
H  H127  1  0.49460000  0.11330000  0.96010000  1.0 0.129930829
H  H128  1  0.41840000  0.99940000  0.93270000  1.0 0.129930829
H  H129  1  0.69860000  0.44850000  0.51850000  1.0 0.119274956
H  H130  1  0.59630000  0.35120000  0.49440000  1.0 0.129930829
H  H131  1  0.38110000  0.37660000  0.61250000  1.0 0.129930829
H  H132  1  0.47500000  0.48510000  0.63270000  1.0 0.1104280331
H  H133  1  0.24350000  0.39980000  0.53440000  1.0 0.1403058632
H  H134  1  0.07030000  0.36280000  0.56530000  1.0 0.129930829
H  H135  1  0.22010000  0.11240000  0.62490000  1.0 0.129930829
H  H136  1  0.38910000  0.14550000  0.59410000  1.0 0.129930829
H  H137  1  0.93820000  0.94390000  0.82310000  1.0 0.1104280331
H  H138  1  0.97310000  0.83330000  0.89890000  1.0 0.1403058632
H  H139  1  0.08760000  0.65580000  0.80630000  1.0 0.129930829
H  H140  1  0.04350000  0.76980000  0.73210000  1.0 0.1104280331
H  H141  1  0.89550000  0.63150000  0.86330000  1.0 0.1104280331
H  H142  1  0.81520000  0.50020000  0.89930000  1.0 0.0902327562
H  H143  1  0.05540000  0.39850000  0.99520000  1.0 0.1403058632
H  H144  1  0.14070000  0.52890000  0.97540000  1.0 0.119274956
H  H145  1  0.70630000  0.93020000  0.60310000  1.0 0.1403058632
H  H146  1  0.60220000  0.97630000  0.63210000  1.0 0.1403058632
C  C1  1  0.14700000  0.49330000  0.25380000  1.0 0.0613387049
C  C2  1  0.09060000  0.56250000  0.22250000  1.0 -0.2692320233
C  C3  1  0.03550000  0.64160000  0.24070000  1.0 0.2387175711
C  C4  1  0.04030000  0.62720000  0.29330000  1.0 -0.2692320233
C  C5  1  0.09940000  0.55170000  0.32370000  1.0 0.0902327562
C  C6  1  0.92190000  0.78910000  0.22930000  1.0 -0.1495519964
C  C7  1  0.00940000  0.72880000  0.15060000  1.0 -0.1635669915
C  C8  1  0.00710000  0.82200000  0.13170000  1.0 -0.1099590315
C  C9  1  0.85340000  0.84530000  0.19100000  1.0 -0.1191392111
C  C10  1  0.87840000  0.96920000  0.11190000  1.0 0.2119382473
C  C11  1  0.77780000  0.01980000  0.12040000  1.0 -0.2413106367
C  C12  1  0.74720000  0.10090000  0.08900000  1.0 0.0613387049
C  C13  1  0.90600000  0.08710000  0.04550000  1.0 0.0902327562
C  C14  1  0.93870000  0.00720000  0.07360000  1.0 -0.2305056546
C  C15  1  0.11890000  0.24910000  0.36740000  1.0 0.1020005322
C  C16  1  0.07790000  0.17360000  0.39190000  1.0 -0.2875009401
C  C17  1  0.09950000  0.13470000  0.44520000  1.0 0.2387175711
C  C18  1  0.16610000  0.17640000  0.46770000  1.0 -0.3049952684
C  C19  1  0.21040000  0.25150000  0.44040000  1.0 0.0824499132
C  C20  1  0.07300000  0.03420000  0.52590000  1.0 -0.1398438148
C  C21  1  0.96400000  0.04430000  0.44960000  1.0 -0.1398438148
C  C22  1  0.26240000  0.71120000  0.31140000  1.0 0.0824499132
C  C23  1  0.31770000  0.65140000  0.28650000  1.0 -0.2305056546
C  C24  1  0.32310000  0.66960000  0.23230000  1.0 0.2206991913
C  C25  1  0.26770000  0.75030000  0.20860000  1.0 -0.2305056546
C  C26  1  0.21570000  0.80790000  0.23610000  1.0 0.0313146935
C  C27  1  0.37700000  0.62670000  0.14870000  1.0 -0.1191392111
C  C28  1  0.44700000  0.52820000  0.22940000  1.0 -0.127792691
C  C29  1  0.51710000  0.48180000  0.19420000  1.0 -0.1398438148
C  C30  1  0.37570000  0.54310000  0.13430000  1.0 -0.1495519964
C  C31  1  0.53590000  0.43480000  0.11140000  1.0 0.2119382473
C  C32  1  0.49100000  0.42430000  0.06670000  1.0 -0.2692320233
C  C33  1  0.54930000  0.37250000  0.03600000  1.0 -0.0014824351
C  C34  1  0.67430000  0.31520000  0.09390000  1.0 0.119274956
C  C35  1  0.62480000  0.38800000  0.12460000  1.0 -0.2806081323
C  C36  1  0.25040000  0.85740000  0.41950000  1.0 0.0613387049
C  C37  1  0.31440000  0.87660000  0.45230000  1.0 -0.2569936413
C  C38  1  0.36280000  0.95520000  0.43600000  1.0 0.129930829
C  C39  1  0.33050000  0.01240000  0.38900000  1.0 -0.2806081323
C  C40  1  0.26320000  0.98750000  0.35890000  1.0 0.0379251225
C  C41  1  0.48900000  0.04580000  0.44980000  1.0 -0.1191392111
C  C42  1  0.46300000  0.91810000  0.51580000  1.0 -0.1398438148
C  C43  1  0.37590000  0.25220000  0.29270000  1.0 0.5658195914
C  C44  1  0.39970000  0.21220000  0.24630000  1.0 -0.0384220777
C  C45  1  0.44530000  0.12720000  0.25310000  1.0 -0.1005893944
C  C46  1  0.47190000  0.09250000  0.20560000  1.0 -0.2482140882
C  C47  1  0.44880000  0.14140000  0.16040000  1.0 0.230066471
C  C48  1  0.40010000  0.21900000  0.15740000  1.0 -0.2187470519
C  C49  1  0.37400000  0.25620000  0.20000000  1.0 -0.1005893944
C  C50  1  0.44640000  0.03650000  0.10650000  1.0 0.230066471
C  C51  1  0.34170000  0.01700000  0.12620000  1.0 -0.1919148712
C  C52  1  0.30370000  0.95430000  0.10870000  1.0 -0.1099590315
C  C53  1  0.36360000  0.90540000  0.07550000  1.0 -0.02910622
C  C54  1  0.46200000  0.92130000  0.06160000  1.0 -0.1005893944
C  C55  1  0.50920000  0.99060000  0.07770000  1.0 -0.1919148712
C  C56  1  0.31990000  0.83420000  0.05530000  1.0 0.5238346757
C  C57  1  0.33640000  0.47150000  0.40510000  1.0 0.5444731416
C  C58  1  0.40080000  0.52860000  0.42160000  1.0 -0.0805364505
C  C59  1  0.36630000  0.56460000  0.46220000  1.0 -0.0704466376
C  C60  1  0.42810000  0.62360000  0.47640000  1.0 -0.2305056546
C  C61  1  0.52060000  0.64440000  0.44930000  1.0 0.256573558
C  C62  1  0.55600000  0.60770000  0.40770000  1.0 -0.2569936413
C  C63  1  0.49750000  0.54480000  0.39430000  1.0 -0.0805364505
C  C64  1  0.66910000  0.72540000  0.44200000  1.0 0.246194482
C  C65  1  0.76260000  0.65940000  0.44840000  1.0 -0.2070523498
C  C66  1  0.86430000  0.68000000  0.42960000  1.0 -0.0884644499
C  C67  1  0.86450000  0.76870000  0.40250000  1.0 -0.02910622
C  C68  1  0.77440000  0.82940000  0.39430000  1.0 -0.1005893944
C  C69  1  0.67500000  0.81070000  0.41270000  1.0 -0.2187470519
C  C70  1  0.98090000  0.79230000  0.38080000  1.0 0.5063909592
C  C71  1  0.03520000  0.05570000  0.27220000  1.0 0.5063909592
C  C72  1  0.01380000  0.12950000  0.23070000  1.0 -0.127792691
C  C73  1  0.03190000  0.11480000  0.18030000  1.0 -0.0704466376
C  C74  1  0.00960000  0.17920000  0.13460000  1.0 -0.2305056546
C  C75  1  0.96000000  0.26340000  0.14180000  1.0 0.2731112244
C  C76  1  0.94190000  0.28520000  0.19050000  1.0 -0.2413106367
C  C77  1  0.96900000  0.21680000  0.23440000  1.0 -0.0639914384
C  C78  1  0.97920000  0.42700000  0.08320000  1.0 0.119274956
C  C79  1  0.07410000  0.41760000  0.11060000  1.0 -0.1836505382
C  C80  1  0.11410000  0.49680000  0.09070000  1.0 -0.1398438148
C  C81  1  0.05910000  0.57190000  0.05740000  1.0 -0.1191392111
C  C82  1  0.97230000  0.55500000  0.03270000  1.0 -0.1005893944
C  C83  1  0.91900000  0.48120000  0.04160000  1.0 -0.1737779675
C  C84  1  0.09980000  0.65180000  0.03940000  1.0 0.4996871652
C  C85  1  0.85300000  0.50670000  0.74620000  1.0 0.0613387049
C  C86  1  0.90940000  0.43750000  0.77750000  1.0 -0.2692320233
C  C87  1  0.96450000  0.35840000  0.75930000  1.0 0.2387175711
C  C88  1  0.95970000  0.37280000  0.70670000  1.0 -0.2692320233
C  C89  1  0.90060000  0.44830000  0.67630000  1.0 0.0902327562
C  C90  1  0.07810000  0.21090000  0.77070000  1.0 -0.1495519964
C  C91  1  0.99060000  0.27120000  0.84940000  1.0 -0.1635669915
C  C92  1  0.99290000  0.17800000  0.86830000  1.0 -0.1099590315
C  C93  1  0.14660000  0.15470000  0.80900000  1.0 -0.1191392111
C  C94  1  0.12160000  0.03080000  0.88810000  1.0 0.2119382473
C  C95  1  0.22220000  0.98020000  0.87960000  1.0 -0.2413106367
C  C96  1  0.25280000  0.89910000  0.91100000  1.0 0.0613387049
C  C97  1  0.09400000  0.91290000  0.95450000  1.0 0.0902327562
C  C98  1  0.06130000  0.99280000  0.92640000  1.0 -0.2413106367
C  C99  1  0.88110000  0.75090000  0.63260000  1.0 0.1020005322
C  C100  1  0.92210000  0.82640000  0.60810000  1.0 -0.2875009401
C  C101  1  0.90050000  0.86530000  0.55480000  1.0 0.2387175711
C  C102  1  0.83390000  0.82360000  0.53230000  1.0 -0.3049952684
C  C103  1  0.78960000  0.74850000  0.55960000  1.0 0.0824499132
C  C104  1  0.92700000  0.96580000  0.47410000  1.0 -0.1495519964
C  C105  1  0.03600000  0.95570000  0.55040000  1.0 -0.1398438148
C  C106  1  0.73760000  0.28880000  0.68860000  1.0 0.0824499132
C  C107  1  0.68230000  0.34860000  0.71350000  1.0 -0.2305056546
C  C108  1  0.67690000  0.33040000  0.76770000  1.0 0.2206991913
C  C109  1  0.73230000  0.24970000  0.79140000  1.0 -0.2305056546
C  C110  1  0.78430000  0.19210000  0.76390000  1.0 0.0313146935
C  C111  1  0.62300000  0.37330000  0.85130000  1.0 -0.1191392111
C  C112  1  0.55300000  0.47180000  0.77060000  1.0 -0.127792691
C  C113  1  0.48290000  0.51820000  0.80580000  1.0 -0.1398438148
C  C114  1  0.62430000  0.45690000  0.86570000  1.0 -0.1495519964
C  C115  1  0.46410000  0.56520000  0.88860000  1.0 0.2119382473
C  C116  1  0.50900000  0.57570000  0.93330000  1.0 -0.2692320233
C  C117  1  0.45070000  0.62750000  0.96400000  1.0 -0.0014824351
C  C118  1  0.32570000  0.68480000  0.90610000  1.0 0.119274956
C  C119  1  0.37520000  0.61200000  0.87540000  1.0 -0.2806081323
C  C120  1  0.74960000  0.14260000  0.58050000  1.0 0.0613387049
C  C121  1  0.68560000  0.12340000  0.54770000  1.0 -0.2569936413
C  C122  1  0.63720000  0.04480000  0.56400000  1.0 0.129930829
C  C123  1  0.66950000  0.98760000  0.61100000  1.0 -0.2806081323
C  C124  1  0.73680000  0.01250000  0.64110000  1.0 0.0379251225
C  C125  1  0.51100000  0.95420000  0.55020000  1.0 -0.1191392111
C  C126  1  0.53700000  0.08190000  0.48420000  1.0 -0.1398438148
C  C127  1  0.62410000  0.74780000  0.70730000  1.0 0.5658195914
C  C128  1  0.60030000  0.78780000  0.75370000  1.0 -0.0384220777
C  C129  1  0.55470000  0.87280000  0.74690000  1.0 -0.1005893944
C  C130  1  0.52810000  0.90750000  0.79440000  1.0 -0.2482140882
C  C131  1  0.55120000  0.85860000  0.83960000  1.0 0.230066471
C  C132  1  0.59990000  0.78100000  0.84260000  1.0 -0.2187470519
C  C133  1  0.62600000  0.74380000  0.80000000  1.0 -0.1005893944
C  C134  1  0.55360000  0.96350000  0.89350000  1.0 0.230066471
C  C135  1  0.65830000  0.98300000  0.87380000  1.0 -0.1919148712
C  C136  1  0.69630000  0.04570000  0.89130000  1.0 -0.1005893944
C  C137  1  0.63640000  0.09460000  0.92450000  1.0 -0.02910622
C  C138  1  0.53800000  0.07870000  0.93840000  1.0 -0.1005893944
C  C139  1  0.49080000  0.00940000  0.92230000  1.0 -0.1919148712
C  C140  1  0.68010000  0.16580000  0.94470000  1.0 0.5238346757
C  C141  1  0.66360000  0.52850000  0.59490000  1.0 0.5444731416
C  C142  1  0.59920000  0.47140000  0.57840000  1.0 -0.0805364505
C  C143  1  0.63370000  0.43540000  0.53780000  1.0 -0.0704466376
C  C144  1  0.57190000  0.37640000  0.52360000  1.0 -0.2305056546
C  C145  1  0.47940000  0.35560000  0.55070000  1.0 0.256573558
C  C146  1  0.44400000  0.39230000  0.59230000  1.0 -0.2569936413
C  C147  1  0.50250000  0.45520000  0.60570000  1.0 -0.0805364505
C  C148  1  0.33090000  0.27460000  0.55800000  1.0 0.246194482
C  C149  1  0.23740000  0.34060000  0.55160000  1.0 -0.2070523498
C  C150  1  0.13570000  0.32000000  0.57040000  1.0 -0.0884644499
C  C151  1  0.13550000  0.23130000  0.59750000  1.0 -0.02910622
C  C152  1  0.22560000  0.17060000  0.60570000  1.0 -0.1005893944
C  C153  1  0.32500000  0.18930000  0.58730000  1.0 -0.2187470519
C  C154  1  0.01910000  0.20770000  0.61920000  1.0 0.5063909592
C  C155  1  0.96480000  0.94430000  0.72780000  1.0 0.5063909592
C  C156  1  0.98620000  0.87050000  0.76930000  1.0 -0.127792691
C  C157  1  0.96810000  0.88520000  0.81970000  1.0 -0.0805364505
C  C158  1  0.99040000  0.82080000  0.86540000  1.0 -0.2305056546
C  C159  1  0.04000000  0.73660000  0.85820000  1.0 0.2731112244
C  C160  1  0.05810000  0.71480000  0.80950000  1.0 -0.2413106367
C  C161  1  0.03100000  0.78320000  0.76560000  1.0 -0.0639914384
C  C162  1  0.02080000  0.57300000  0.91680000  1.0 0.119274956
C  C163  1  0.92590000  0.58240000  0.88940000  1.0 -0.1836505382
C  C164  1  0.88590000  0.50320000  0.90930000  1.0 -0.1398438148
C  C165  1  0.94090000  0.42810000  0.94260000  1.0 -0.1191392111
C  C166  1  0.02770000  0.44500000  0.96730000  1.0 -0.1005893944
C  C167  1  0.08100000  0.51880000  0.95840000  1.0 -0.1737779675
C  C168  1  0.90020000  0.34820000  0.96060000  1.0 0.4996871652
N  N1  1  0.15100000  0.48540000  0.30420000  1.0 -0.2482140882
N  N2  1  0.98250000  0.71190000  0.21030000  1.0 -0.0168595471
N  N3  1  0.91300000  0.88270000  0.14290000  1.0 -0.127792691
N  N4  1  0.81140000  0.13670000  0.05140000  1.0 -0.2187470519
N  N5  1  0.18450000  0.28610000  0.38940000  1.0 -0.2569936413
N  N6  1  0.06200000  0.06370000  0.46940000  1.0 -0.0509702375
N  N7  1  0.21030000  0.79160000  0.28920000  1.0 -0.2692320233
N  N8  1  0.37390000  0.60760000  0.20500000  1.0 -0.1099590315
N  N9  1  0.48180000  0.48600000  0.14260000  1.0 -0.02910622
N  N10  1  0.65220000  0.32210000  0.05010000  1.0 -0.1919148712
N  N11  1  0.22160000  0.91170000  0.37370000  1.0 -0.2482140882
N  N12  1  0.42990000  0.97840000  0.46820000  1.0 -0.0805364505
N  N13  1  0.84900000  0.51460000  0.69580000  1.0 -0.2482140882
N  N14  1  0.01750000  0.28810000  0.78970000  1.0 -0.0143829955
N  N15  1  0.08700000  0.11730000  0.85710000  1.0 -0.127792691
N  N16  1  0.18860000  0.86330000  0.94860000  1.0 -0.2187470519
N  N17  1  0.81550000  0.71390000  0.61060000  1.0 -0.2569936413
N  N18  1  0.93800000  0.93630000  0.53060000  1.0 -0.0509702375
N  N19  1  0.78970000  0.20840000  0.71080000  1.0 -0.2692320233
N  N20  1  0.62610000  0.39240000  0.79500000  1.0 -0.1099590315
N  N21  1  0.51820000  0.51400000  0.85740000  1.0 -0.02910622
N  N22  1  0.34780000  0.67790000  0.94990000  1.0 -0.1919148712
N  N23  1  0.77840000  0.08830000  0.62630000  1.0 -0.2482140882
N  N24  1  0.57010000  0.02160000  0.53180000  1.0 -0.0805364505
O  O1  1  0.32050000  0.32850000  0.28580000  1.0 -0.5533706246
O  O2  1  0.40650000  0.20930000  0.33740000  1.0 -0.5734402237
O  O3  1  0.48170000  0.11090000  0.11740000  1.0 -0.2305056546
O  O4  1  0.37910000  0.79110000  0.02690000  1.0 -0.5113364456
O  O5  1  0.22220000  0.83140000  0.06580000  1.0 -0.5298424957
O  O6  1  0.37440000  0.43300000  0.36690000  1.0 -0.5593137143
O  O7  1  0.24540000  0.46060000  0.42640000  1.0 -0.5533706246
O  O8  1  0.56840000  0.70430000  0.46640000  1.0 -0.2413106367
O  O9  1  0.97630000  0.86070000  0.34910000  1.0 -0.4808848051
O  O10  1  0.06210000  0.74460000  0.40020000  1.0 -0.5298424957
O  O11  1  0.09600000  0.98760000  0.26900000  1.0 -0.4674343167
O  O12  1  0.00010000  0.06050000  0.31550000  1.0 -0.4674343167
O  O13  1  0.93510000  0.32490000  0.09370000  1.0 -0.2875009401
O  O14  1  0.19630000  0.64640000  0.04060000  1.0 -0.4421673862
O  O15  1  0.04770000  0.72430000  0.01650000  1.0 -0.4897095261
O  O16  1  0.67950000  0.67150000  0.71420000  1.0 -0.5533706246
O  O17  1  0.59350000  0.79070000  0.66260000  1.0 -0.5734402237
O  O18  1  0.51830000  0.88910000  0.88260000  1.0 -0.2305056546
O  O19  1  0.62090000  0.20890000  0.97310000  1.0 -0.5113364456
O  O20  1  0.77780000  0.16860000  0.93420000  1.0 -0.5298424957
O  O21  1  0.62560000  0.56700000  0.63310000  1.0 -0.5593137143
O  O22  1  0.75460000  0.53940000  0.57360000  1.0 -0.5533706246
O  O23  1  0.43160000  0.29570000  0.53360000  1.0 -0.2413106367
O  O24  1  0.02370000  0.13930000  0.65090000  1.0 -0.4808848051
O  O25  1  0.93790000  0.25540000  0.59980000  1.0 -0.5298424957
O  O26  1  0.90400000  0.01240000  0.73100000  1.0 -0.4674343167
O  O27  1  0.99990000  0.93950000  0.68450000  1.0 -0.4674343167
O  O28  1  0.06490000  0.67510000  0.90630000  1.0 -0.2875009401
O  O29  1  0.80370000  0.35360000  0.95940000  1.0 -0.4421673862
O  O30  1  0.95230000  0.27570000  0.98350000  1.0 -0.4897095261
