# DDEC6 charges by PACMAN v1.1 (https://github.com/mtap-research/PACMAN-charge/)
data_BURQIQ_FSR_pacman
_symmetry_space_group_name_H-M   'P 1'
_cell_length_a   25.45000000
_cell_length_b   11.92800000
_cell_length_c   25.83500000
_cell_angle_alpha   90.00000000
_cell_angle_beta   116.77700000
_cell_angle_gamma   90.00000000
_symmetry_Int_Tables_number   1
_chemical_formula_structural   Na2Cd5H116C112(N3O8)4
_chemical_formula_sum   'Na4 Cd10 H232 C224 N24 O64'
_cell_volume   7001.67399076
_cell_formula_units_Z   2
loop_
 _symmetry_equiv_pos_site_id
 _symmetry_equiv_pos_as_xyz
  1  'x, y, z'
loop_
 _atom_site_type_symbol
 _atom_site_label
 _atom_site_symmetry_multiplicity
 _atom_site_fract_x
 _atom_site_fract_y
 _atom_site_fract_z
 _atom_site_occupancy
 _atom_site_charge
Na  Na1  1  0.02061000  0.48750000  0.07304000  1.0 0.855090432
Na  Na2  1  0.97939000  0.48750000  0.42696000  1.0 0.855090432
Na  Na3  1  0.97939000  0.51250000  0.92696000  1.0 0.855090432
Na  Na4  1  0.02061000  0.51250000  0.57304000  1.0 0.855090432
Cd  Cd1  1  0.50000000  0.76590000  0.75000000  1.0 1.0720978902
Cd  Cd2  1  0.50000000  0.23410000  0.25000000  1.0 1.0720978902
Cd  Cd3  1  0.52250000  0.82465000  0.90909000  1.0 0.9517999814
Cd  Cd4  1  0.47750000  0.82465000  0.59091000  1.0 0.9517999814
Cd  Cd5  1  0.47750000  0.17535000  0.09091000  1.0 0.9517999814
Cd  Cd6  1  0.52250000  0.17535000  0.40909000  1.0 0.9517999814
Cd  Cd7  1  0.92987000  0.25272000  0.48905000  1.0 0.9303231464
Cd  Cd8  1  0.07013000  0.25272000  0.01095000  1.0 0.9303231464
Cd  Cd9  1  0.07013000  0.74728000  0.51095000  1.0 0.9303231464
Cd  Cd10  1  0.92987000  0.74728000  0.98905000  1.0 0.9303231464
H  H1  1  0.61730000  0.07230000  0.07240000  1.0 0.1205325516
H  H2  1  0.38270000  0.07230000  0.42760000  1.0 0.1205325516
H  H3  1  0.38270000  0.92770000  0.92760000  1.0 0.1205325516
H  H4  1  0.61730000  0.92770000  0.57240000  1.0 0.1205325516
H  H5  1  0.68700000  0.20010000  0.13250000  1.0 0.1375313635
H  H6  1  0.31300000  0.20010000  0.36750000  1.0 0.1375313635
H  H7  1  0.31300000  0.79990000  0.86750000  1.0 0.1375313635
H  H8  1  0.68700000  0.79990000  0.63250000  1.0 0.1375313635
H  H9  1  0.76230000  0.20370000  0.02770000  1.0 0.1292680903
H  H10  1  0.23770000  0.20370000  0.47230000  1.0 0.1292680903
H  H11  1  0.23770000  0.79630000  0.97230000  1.0 0.1292680903
H  H12  1  0.76230000  0.79630000  0.52770000  1.0 0.1292680903
H  H13  1  0.69450000  0.07990000  0.96650000  1.0 0.1205325516
H  H14  1  0.30550000  0.07990000  0.53350000  1.0 0.1205325516
H  H15  1  0.30550000  0.92010000  0.03350000  1.0 0.1205325516
H  H16  1  0.69450000  0.92010000  0.46650000  1.0 0.1205325516
H  H17  1  0.81820000  0.43760000  0.20240000  1.0 0.1292680903
H  H18  1  0.18180000  0.43760000  0.29760000  1.0 0.1292680903
H  H19  1  0.18180000  0.56240000  0.79760000  1.0 0.1292680903
H  H20  1  0.81820000  0.56240000  0.70240000  1.0 0.1292680903
H  H21  1  0.86440000  0.43230000  0.29950000  1.0 0.1205325516
H  H22  1  0.13560000  0.43230000  0.20050000  1.0 0.1205325516
H  H23  1  0.13560000  0.56770000  0.70050000  1.0 0.1205325516
H  H24  1  0.86440000  0.56770000  0.79950000  1.0 0.1205325516
H  H25  1  0.83220000  0.10440000  0.29270000  1.0 0.1205325516
H  H26  1  0.16780000  0.10440000  0.20730000  1.0 0.1205325516
H  H27  1  0.16780000  0.89560000  0.70730000  1.0 0.1205325516
H  H28  1  0.83220000  0.89560000  0.79270000  1.0 0.1205325516
H  H29  1  0.79130000  0.11050000  0.19460000  1.0 0.1375313635
H  H30  1  0.20870000  0.11050000  0.30540000  1.0 0.1375313635
H  H31  1  0.20870000  0.88950000  0.80540000  1.0 0.1375313635
H  H32  1  0.79130000  0.88950000  0.69460000  1.0 0.1375313635
H  H33  1  0.93000000  0.45400000  0.11860000  1.0 0.1205325516
H  H34  1  0.07000000  0.45400000  0.38140000  1.0 0.1205325516
H  H35  1  0.07000000  0.54600000  0.88140000  1.0 0.1205325516
H  H36  1  0.93000000  0.54600000  0.61860000  1.0 0.1205325516
H  H37  1  0.88980000  0.31420000  0.14940000  1.0 0.1292680903
H  H38  1  0.11020000  0.31420000  0.35060000  1.0 0.1292680903
H  H39  1  0.11020000  0.68580000  0.85060000  1.0 0.1292680903
H  H40  1  0.88980000  0.68580000  0.64940000  1.0 0.1292680903
H  H41  1  0.72800000  0.43350000  0.04800000  1.0 0.1292680903
H  H42  1  0.27200000  0.43350000  0.45200000  1.0 0.1292680903
H  H43  1  0.27200000  0.56650000  0.95200000  1.0 0.1292680903
H  H44  1  0.72800000  0.56650000  0.54800000  1.0 0.1292680903
H  H45  1  0.76870000  0.55880000  0.00760000  1.0 0.1292680903
H  H46  1  0.23130000  0.55880000  0.49240000  1.0 0.1292680903
H  H47  1  0.23130000  0.44120000  0.99240000  1.0 0.1292680903
H  H48  1  0.76870000  0.44120000  0.50760000  1.0 0.1292680903
H  H49  1  0.55160000  0.50360000  0.77590000  1.0 0.1205325516
H  H50  1  0.44840000  0.50360000  0.72410000  1.0 0.1205325516
H  H51  1  0.44840000  0.49640000  0.22410000  1.0 0.1205325516
H  H52  1  0.55160000  0.49640000  0.27590000  1.0 0.1205325516
H  H53  1  0.60600000  0.35570000  0.77200000  1.0 0.1292680903
H  H54  1  0.39400000  0.35570000  0.72800000  1.0 0.1292680903
H  H55  1  0.39400000  0.64430000  0.22800000  1.0 0.1292680903
H  H56  1  0.60600000  0.64430000  0.27200000  1.0 0.1292680903
H  H57  1  0.70160000  0.36650000  0.94240000  1.0 0.1205325516
H  H58  1  0.29840000  0.36650000  0.55760000  1.0 0.1205325516
H  H59  1  0.29840000  0.63350000  0.05760000  1.0 0.1205325516
H  H60  1  0.70160000  0.63350000  0.44240000  1.0 0.1205325516
H  H61  1  0.64840000  0.51880000  0.94760000  1.0 0.1205325516
H  H62  1  0.35160000  0.51880000  0.55240000  1.0 0.1205325516
H  H63  1  0.35160000  0.48120000  0.05240000  1.0 0.1205325516
H  H64  1  0.64840000  0.48120000  0.44760000  1.0 0.1205325516
H  H65  1  0.60720000  0.15080000  0.84330000  1.0 0.1292680903
H  H66  1  0.39280000  0.15080000  0.65670000  1.0 0.1292680903
H  H67  1  0.39280000  0.84920000  0.15670000  1.0 0.1292680903
H  H68  1  0.60720000  0.84920000  0.34330000  1.0 0.1292680903
H  H69  1  0.55210000  0.01290000  0.78120000  1.0 0.1205325516
H  H70  1  0.44790000  0.01290000  0.71880000  1.0 0.1205325516
H  H71  1  0.44790000  0.98710000  0.21880000  1.0 0.1205325516
H  H72  1  0.55210000  0.98710000  0.28120000  1.0 0.1205325516
H  H73  1  0.65990000  0.02370000  0.70760000  1.0 0.1292680903
H  H74  1  0.34010000  0.02370000  0.79240000  1.0 0.1292680903
H  H75  1  0.34010000  0.97630000  0.29240000  1.0 0.1292680903
H  H76  1  0.65990000  0.97630000  0.20760000  1.0 0.1292680903
H  H77  1  0.71470000  0.16040000  0.77190000  1.0 0.1292680903
H  H78  1  0.28530000  0.16040000  0.72810000  1.0 0.1292680903
H  H79  1  0.28530000  0.83960000  0.22810000  1.0 0.1292680903
H  H80  1  0.71470000  0.83960000  0.27190000  1.0 0.1292680903
H  H81  1  0.77360000  0.09430000  0.89070000  1.0 0.1292680903
H  H82  1  0.22640000  0.09430000  0.60930000  1.0 0.1292680903
H  H83  1  0.22640000  0.90570000  0.10930000  1.0 0.1292680903
H  H84  1  0.77360000  0.90570000  0.39070000  1.0 0.1292680903
H  H85  1  0.87340000  0.10750000  0.94110000  1.0 0.1205325516
H  H86  1  0.12660000  0.10750000  0.55890000  1.0 0.1205325516
H  H87  1  0.12660000  0.89250000  0.05890000  1.0 0.1205325516
H  H88  1  0.87340000  0.89250000  0.44110000  1.0 0.1205325516
H  H89  1  0.86720000  0.43730000  0.93800000  1.0 0.1205325516
H  H90  1  0.13280000  0.43730000  0.56200000  1.0 0.1205325516
H  H91  1  0.13280000  0.56270000  0.06200000  1.0 0.1205325516
H  H92  1  0.86720000  0.56270000  0.43800000  1.0 0.1205325516
H  H93  1  0.76510000  0.43310000  0.88530000  1.0 0.1292680903
H  H94  1  0.23490000  0.43310000  0.61470000  1.0 0.1292680903
H  H95  1  0.23490000  0.56690000  0.11470000  1.0 0.1292680903
H  H96  1  0.76510000  0.56690000  0.38530000  1.0 0.1292680903
H  H97  1  0.76090000  0.68630000  0.87440000  1.0 0.0819846444
H  H98  1  0.23910000  0.68630000  0.62560000  1.0 0.0819846444
H  H99  1  0.23910000  0.31370000  0.12560000  1.0 0.0819846444
H  H100  1  0.76090000  0.31370000  0.37440000  1.0 0.0819846444
H  H101  1  0.70780000  0.67700000  0.81230000  1.0 0.0669801833
H  H102  1  0.29220000  0.67700000  0.68770000  1.0 0.0669801833
H  H103  1  0.29220000  0.32300000  0.18770000  1.0 0.0669801833
H  H104  1  0.70780000  0.32300000  0.31230000  1.0 0.0669801833
H  H105  1  0.70400000  0.62090000  0.86540000  1.0 0.1094150479
H  H106  1  0.29600000  0.62090000  0.63460000  1.0 0.1094150479
H  H107  1  0.29600000  0.37910000  0.13460000  1.0 0.1094150479
H  H108  1  0.70400000  0.37910000  0.36540000  1.0 0.1094150479
H  H109  1  0.77370000  0.81410000  0.92210000  1.0 0.1292680903
H  H110  1  0.22630000  0.81410000  0.57790000  1.0 0.1292680903
H  H111  1  0.22630000  0.18590000  0.07790000  1.0 0.1292680903
H  H112  1  0.77370000  0.18590000  0.42210000  1.0 0.1292680903
H  H113  1  0.72460000  0.82650000  0.94250000  1.0 0.1292680903
H  H114  1  0.27540000  0.82650000  0.55750000  1.0 0.1292680903
H  H115  1  0.27540000  0.17350000  0.05750000  1.0 0.1292680903
H  H116  1  0.72460000  0.17350000  0.44250000  1.0 0.1292680903
H  H117  1  0.73160000  0.91820000  0.90260000  1.0 0.1094150479
H  H118  1  0.26840000  0.91820000  0.59740000  1.0 0.1094150479
H  H119  1  0.26840000  0.08180000  0.09740000  1.0 0.1094150479
H  H120  1  0.73160000  0.08180000  0.40260000  1.0 0.1094150479
H  H121  1  0.62410000  0.85090000  0.85540000  1.0 0.1094150479
H  H122  1  0.37590000  0.85090000  0.64460000  1.0 0.1094150479
H  H123  1  0.37590000  0.14910000  0.14460000  1.0 0.1094150479
H  H124  1  0.62410000  0.14910000  0.35540000  1.0 0.1094150479
H  H125  1  0.50980000  0.85570000  0.01830000  1.0 0.1292680903
H  H126  1  0.49020000  0.85570000  0.48170000  1.0 0.1292680903
H  H127  1  0.49020000  0.14430000  0.98170000  1.0 0.1292680903
H  H128  1  0.50980000  0.14430000  0.51830000  1.0 0.1292680903
H  H129  1  0.48170000  0.73320000  0.12480000  1.0 0.1292680903
H  H130  1  0.51830000  0.73320000  0.37520000  1.0 0.1292680903
H  H131  1  0.51830000  0.26680000  0.87520000  1.0 0.1292680903
H  H132  1  0.48170000  0.26680000  0.62480000  1.0 0.1292680903
H  H133  1  0.46680000  0.84920000  0.09290000  1.0 0.1292680903
H  H134  1  0.53320000  0.84920000  0.40710000  1.0 0.1292680903
H  H135  1  0.53320000  0.15080000  0.90710000  1.0 0.1292680903
H  H136  1  0.46680000  0.15080000  0.59290000  1.0 0.1292680903
H  H137  1  0.53230000  0.80790000  0.12470000  1.0 0.1292680903
H  H138  1  0.46770000  0.80790000  0.37530000  1.0 0.1292680903
H  H139  1  0.46770000  0.19210000  0.87530000  1.0 0.1292680903
H  H140  1  0.53230000  0.19210000  0.62470000  1.0 0.1292680903
H  H141  1  0.44780000  0.61170000  0.07030000  1.0 0.1205325516
H  H142  1  0.55220000  0.61170000  0.42970000  1.0 0.1205325516
H  H143  1  0.55220000  0.38830000  0.92970000  1.0 0.1205325516
H  H144  1  0.44780000  0.38830000  0.57030000  1.0 0.1205325516
H  H145  1  0.47200000  0.58230000  0.02590000  1.0 0.1375313635
H  H146  1  0.52800000  0.58230000  0.47410000  1.0 0.1375313635
H  H147  1  0.52800000  0.41770000  0.97410000  1.0 0.1375313635
H  H148  1  0.47200000  0.41770000  0.52590000  1.0 0.1375313635
H  H149  1  0.41470000  0.65440000  0.00620000  1.0 0.1205325516
H  H150  1  0.58530000  0.65440000  0.49380000  1.0 0.1205325516
H  H151  1  0.58530000  0.34560000  0.99380000  1.0 0.1205325516
H  H152  1  0.41470000  0.34560000  0.50620000  1.0 0.1205325516
H  H153  1  0.96660000  0.80930000  0.63330000  1.0 0.1205325516
H  H154  1  0.03340000  0.80930000  0.86670000  1.0 0.1205325516
H  H155  1  0.03340000  0.19070000  0.36670000  1.0 0.1205325516
H  H156  1  0.96660000  0.19070000  0.13330000  1.0 0.1205325516
H  H157  1  0.01810000  0.88510000  0.63590000  1.0 0.1205325516
H  H158  1  0.98190000  0.88510000  0.86410000  1.0 0.1205325516
H  H159  1  0.98190000  0.11490000  0.36410000  1.0 0.1205325516
H  H160  1  0.01810000  0.11490000  0.13590000  1.0 0.1205325516
H  H161  1  0.98080000  0.81390000  0.58030000  1.0 0.1205325516
H  H162  1  0.01920000  0.81390000  0.91970000  1.0 0.1205325516
H  H163  1  0.01920000  0.18610000  0.41970000  1.0 0.1205325516
H  H164  1  0.98080000  0.18610000  0.08030000  1.0 0.1205325516
H  H165  1  0.87860000  0.86100000  0.59230000  1.0 0.0669801833
H  H166  1  0.12140000  0.86100000  0.90770000  1.0 0.0669801833
H  H167  1  0.12140000  0.13900000  0.40770000  1.0 0.0669801833
H  H168  1  0.87860000  0.13900000  0.09230000  1.0 0.0669801833
H  H169  1  0.86750000  0.89080000  0.52910000  1.0 0.0941334889
H  H170  1  0.13250000  0.89080000  0.97090000  1.0 0.0941334889
H  H171  1  0.13250000  0.10920000  0.47090000  1.0 0.0941334889
H  H172  1  0.86750000  0.10920000  0.02910000  1.0 0.0941334889
H  H173  1  0.86130000  0.98360000  0.56900000  1.0 0.1205325516
H  H174  1  0.13870000  0.98360000  0.93100000  1.0 0.1205325516
H  H175  1  0.13870000  0.01640000  0.43100000  1.0 0.1205325516
H  H176  1  0.86130000  0.01640000  0.06900000  1.0 0.1205325516
H  H177  1  0.97940000  0.01590000  0.54670000  1.0 0.1094150479
H  H178  1  0.02060000  0.01590000  0.95330000  1.0 0.1094150479
H  H179  1  0.02060000  0.98410000  0.45330000  1.0 0.1094150479
H  H180  1  0.97940000  0.98410000  0.04670000  1.0 0.1094150479
H  H181  1  0.19080000  0.77600000  0.24670000  1.0 0.1205325516
H  H182  1  0.80920000  0.77600000  0.25330000  1.0 0.1205325516
H  H183  1  0.80920000  0.22400000  0.75330000  1.0 0.1205325516
H  H184  1  0.19080000  0.22400000  0.74670000  1.0 0.1205325516
H  H185  1  0.17840000  0.68500000  0.19880000  1.0 0.1292680903
H  H186  1  0.82160000  0.68500000  0.30120000  1.0 0.1292680903
H  H187  1  0.82160000  0.31500000  0.80120000  1.0 0.1292680903
H  H188  1  0.17840000  0.31500000  0.69880000  1.0 0.1292680903
H  H189  1  0.16400000  0.65980000  0.25060000  1.0 0.1375313635
H  H190  1  0.83600000  0.65980000  0.24940000  1.0 0.1375313635
H  H191  1  0.83600000  0.34020000  0.74940000  1.0 0.1375313635
H  H192  1  0.16400000  0.34020000  0.75060000  1.0 0.1375313635
H  H193  1  0.13700000  0.90840000  0.21770000  1.0 0.1292680903
H  H194  1  0.86300000  0.90840000  0.28230000  1.0 0.1292680903
H  H195  1  0.86300000  0.09160000  0.78230000  1.0 0.1292680903
H  H196  1  0.13700000  0.09160000  0.71770000  1.0 0.1292680903
H  H197  1  0.07000000  0.89090000  0.20020000  1.0 0.1292680903
H  H198  1  0.93000000  0.89090000  0.29980000  1.0 0.1292680903
H  H199  1  0.93000000  0.10910000  0.79980000  1.0 0.1292680903
H  H200  1  0.07000000  0.10910000  0.70020000  1.0 0.1292680903
H  H201  1  0.09150000  0.89830000  0.15220000  1.0 0.1292680903
H  H202  1  0.90850000  0.89830000  0.34780000  1.0 0.1292680903
H  H203  1  0.90850000  0.10170000  0.84780000  1.0 0.1292680903
H  H204  1  0.09150000  0.10170000  0.65220000  1.0 0.1292680903
H  H205  1  0.03010000  0.72820000  0.13610000  1.0 0.1094150479
H  H206  1  0.96990000  0.72820000  0.36390000  1.0 0.1094150479
H  H207  1  0.96990000  0.27180000  0.86390000  1.0 0.1094150479
H  H208  1  0.03010000  0.27180000  0.63610000  1.0 0.1094150479
H  H209  1  0.75990000  0.71470000  0.85450000  1.0 0.0819846444
H  H210  1  0.24010000  0.71470000  0.64550000  1.0 0.0819846444
H  H211  1  0.24010000  0.28530000  0.14550000  1.0 0.0819846444
H  H212  1  0.75990000  0.28530000  0.35450000  1.0 0.0819846444
H  H213  1  0.70950000  0.75980000  0.79630000  1.0 0.1094150479
H  H214  1  0.29050000  0.75980000  0.70370000  1.0 0.1094150479
H  H215  1  0.29050000  0.24020000  0.20370000  1.0 0.1094150479
H  H216  1  0.70950000  0.24020000  0.29630000  1.0 0.1094150479
H  H217  1  0.70070000  0.64820000  0.82340000  1.0 0.0819846444
H  H218  1  0.29930000  0.64820000  0.67660000  1.0 0.0819846444
H  H219  1  0.29930000  0.35180000  0.17660000  1.0 0.0819846444
H  H220  1  0.70070000  0.35180000  0.32340000  1.0 0.0819846444
H  H221  1  0.89820000  0.89900000  0.62980000  1.0 0.0819846444
H  H222  1  0.10180000  0.89900000  0.87020000  1.0 0.0819846444
H  H223  1  0.10180000  0.10100000  0.37020000  1.0 0.0819846444
H  H224  1  0.89820000  0.10100000  0.12980000  1.0 0.0819846444
H  H225  1  0.86110000  0.96910000  0.57370000  1.0 0.1205325516
H  H226  1  0.13890000  0.96910000  0.92630000  1.0 0.1205325516
H  H227  1  0.13890000  0.03090000  0.42630000  1.0 0.1205325516
H  H228  1  0.86110000  0.03090000  0.07370000  1.0 0.1205325516
H  H229  1  0.90780000  0.02880000  0.62960000  1.0 0.1016053679
H  H230  1  0.09220000  0.02880000  0.87040000  1.0 0.1016053679
H  H231  1  0.09220000  0.97120000  0.37040000  1.0 0.1016053679
H  H232  1  0.90780000  0.97120000  0.12960000  1.0 0.1016053679
C  C1  1  0.60190000  0.98260000  0.97150000  1.0 0.5273390935
C  C2  1  0.39810000  0.98260000  0.52850000  1.0 0.5273390935
C  C3  1  0.39810000  0.01740000  0.02850000  1.0 0.5273390935
C  C4  1  0.60190000  0.01740000  0.47150000  1.0 0.5273390935
C  C5  1  0.64820000  0.06460000  0.01180000  1.0 -0.0262183052
C  C6  1  0.35180000  0.06460000  0.48820000  1.0 -0.0262183052
C  C7  1  0.35180000  0.93540000  0.98820000  1.0 -0.0262183052
C  C8  1  0.64820000  0.93540000  0.51180000  1.0 -0.0262183052
C  C9  1  0.64650000  0.09890000  0.06320000  1.0 -0.0880729199
C  C10  1  0.35350000  0.09890000  0.43680000  1.0 -0.0880729199
C  C11  1  0.35350000  0.90110000  0.93680000  1.0 -0.0880729199
C  C12  1  0.64650000  0.90110000  0.56320000  1.0 -0.0880729199
C  C13  1  0.68900000  0.17290000  0.09970000  1.0 -0.1737241315
C  C14  1  0.31100000  0.17290000  0.40030000  1.0 -0.1737241315
C  C15  1  0.31100000  0.82710000  0.90030000  1.0 -0.1737241315
C  C16  1  0.68900000  0.82710000  0.59970000  1.0 -0.1737241315
C  C17  1  0.73350000  0.20610000  0.08780000  1.0 0.1526058379
C  C18  1  0.26650000  0.20610000  0.41220000  1.0 0.1526058379
C  C19  1  0.26650000  0.79390000  0.91220000  1.0 0.1526058379
C  C20  1  0.73350000  0.79390000  0.58780000  1.0 0.1526058379
C  C21  1  0.73360000  0.17510000  0.03710000  1.0 -0.1995454802
C  C22  1  0.26640000  0.17510000  0.46290000  1.0 -0.1995454802
C  C23  1  0.26640000  0.82490000  0.96290000  1.0 -0.1995454802
C  C24  1  0.73360000  0.82490000  0.53710000  1.0 -0.1995454802
C  C25  1  0.69260000  0.10320000  0.00000000  1.0 -0.1109155546
C  C26  1  0.30740000  0.10320000  0.50000000  1.0 -0.1109155546
C  C27  1  0.30740000  0.89680000  0.00000000  1.0 -0.1109155546
C  C28  1  0.69260000  0.89680000  0.50000000  1.0 -0.1109155546
C  C29  1  0.80010000  0.27450000  0.18810000  1.0 0.1526058379
C  C30  1  0.19990000  0.27450000  0.31190000  1.0 0.1526058379
C  C31  1  0.19990000  0.72550000  0.81190000  1.0 0.1526058379
C  C32  1  0.80010000  0.72550000  0.68810000  1.0 0.1526058379
C  C33  1  0.82190000  0.36930000  0.22110000  1.0 -0.1737241315
C  C34  1  0.17810000  0.36930000  0.27890000  1.0 -0.1737241315
C  C35  1  0.17810000  0.63070000  0.77890000  1.0 -0.1737241315
C  C36  1  0.82190000  0.63070000  0.72110000  1.0 -0.1737241315
C  C37  1  0.84830000  0.36690000  0.27870000  1.0 -0.0880729199
C  C38  1  0.15170000  0.36690000  0.22130000  1.0 -0.0880729199
C  C39  1  0.15170000  0.63310000  0.72130000  1.0 -0.0880729199
C  C40  1  0.84830000  0.63310000  0.77870000  1.0 -0.0880729199
C  C41  1  0.85210000  0.26700000  0.30850000  1.0 -0.038724424
C  C42  1  0.14790000  0.26700000  0.19150000  1.0 -0.038724424
C  C43  1  0.14790000  0.73300000  0.69150000  1.0 -0.038724424
C  C44  1  0.85210000  0.73300000  0.80850000  1.0 -0.038724424
C  C45  1  0.83000000  0.17290000  0.27460000  1.0 -0.1109155546
C  C46  1  0.17000000  0.17290000  0.22540000  1.0 -0.1109155546
C  C47  1  0.17000000  0.82710000  0.72540000  1.0 -0.1109155546
C  C48  1  0.83000000  0.82710000  0.77460000  1.0 -0.1109155546
C  C49  1  0.80500000  0.17620000  0.21580000  1.0 -0.1794899912
C  C50  1  0.19500000  0.17620000  0.28420000  1.0 -0.1794899912
C  C51  1  0.19500000  0.82380000  0.78420000  1.0 -0.1794899912
C  C52  1  0.80500000  0.82380000  0.71580000  1.0 -0.1794899912
C  C53  1  0.88050000  0.26290000  0.37250000  1.0 0.5373246596
C  C54  1  0.11950000  0.26290000  0.12750000  1.0 0.5373246596
C  C55  1  0.11950000  0.73710000  0.62750000  1.0 0.5373246596
C  C56  1  0.88050000  0.73710000  0.87250000  1.0 0.5373246596
C  C57  1  0.88000000  0.59820000  0.03260000  1.0 0.5458788798
C  C58  1  0.12000000  0.59820000  0.46740000  1.0 0.5458788798
C  C59  1  0.12000000  0.40180000  0.96740000  1.0 0.5458788798
C  C60  1  0.88000000  0.40180000  0.53260000  1.0 0.5458788798
C  C61  1  0.85260000  0.51570000  0.05810000  1.0 -0.0262183052
C  C62  1  0.14740000  0.51570000  0.44190000  1.0 -0.0262183052
C  C63  1  0.14740000  0.48430000  0.94190000  1.0 -0.0262183052
C  C64  1  0.85260000  0.48430000  0.55810000  1.0 -0.0262183052
C  C65  1  0.88940000  0.44600000  0.10260000  1.0 -0.0974923126
C  C66  1  0.11060000  0.44600000  0.39740000  1.0 -0.0974923126
C  C67  1  0.11060000  0.55400000  0.89740000  1.0 -0.0974923126
C  C68  1  0.88940000  0.55400000  0.60260000  1.0 -0.0974923126
C  C69  1  0.86540000  0.36630000  0.12250000  1.0 -0.1897183637
C  C70  1  0.13460000  0.36630000  0.37750000  1.0 -0.1897183637
C  C71  1  0.13460000  0.63370000  0.87750000  1.0 -0.1897183637
C  C72  1  0.86540000  0.63370000  0.62250000  1.0 -0.1897183637
C  C73  1  0.80440000  0.36060000  0.10330000  1.0 0.1665923447
C  C74  1  0.19560000  0.36060000  0.39670000  1.0 0.1665923447
C  C75  1  0.19560000  0.63940000  0.89670000  1.0 0.1665923447
C  C76  1  0.80440000  0.63940000  0.60330000  1.0 0.1665923447
C  C77  1  0.76850000  0.43490000  0.06080000  1.0 -0.1897183637
C  C78  1  0.23150000  0.43490000  0.43920000  1.0 -0.1897183637
C  C79  1  0.23150000  0.56510000  0.93920000  1.0 -0.1897183637
C  C80  1  0.76850000  0.56510000  0.56080000  1.0 -0.1897183637
C  C81  1  0.79280000  0.51110000  0.03730000  1.0 -0.0880729199
C  C82  1  0.20720000  0.51110000  0.46270000  1.0 -0.0880729199
C  C83  1  0.20720000  0.48890000  0.96270000  1.0 -0.0880729199
C  C84  1  0.79280000  0.48890000  0.53730000  1.0 -0.0880729199
C  C85  1  0.55490000  0.61890000  0.86540000  1.0 0.5594479964
C  C86  1  0.44510000  0.61890000  0.63460000  1.0 0.5594479964
C  C87  1  0.44510000  0.38110000  0.13460000  1.0 0.5594479964
C  C88  1  0.55490000  0.38110000  0.36540000  1.0 0.5594479964
C  C89  1  0.59140000  0.52480000  0.86090000  1.0 -0.038724424
C  C90  1  0.40860000  0.52480000  0.63910000  1.0 -0.038724424
C  C91  1  0.40860000  0.47520000  0.13910000  1.0 -0.038724424
C  C92  1  0.59140000  0.47520000  0.36090000  1.0 -0.038724424
C  C93  1  0.58180000  0.47640000  0.81010000  1.0 -0.0815589948
C  C94  1  0.41820000  0.47640000  0.68990000  1.0 -0.0815589948
C  C95  1  0.41820000  0.52360000  0.18990000  1.0 -0.0815589948
C  C96  1  0.58180000  0.52360000  0.31010000  1.0 -0.0815589948
C  C97  1  0.61500000  0.38910000  0.80750000  1.0 -0.1794899912
C  C98  1  0.38500000  0.38910000  0.69250000  1.0 -0.1794899912
C  C99  1  0.38500000  0.61090000  0.19250000  1.0 -0.1794899912
C  C100  1  0.61500000  0.61090000  0.30750000  1.0 -0.1794899912
C  C101  1  0.66230000  0.34920000  0.85740000  1.0 0.1665923447
C  C102  1  0.33770000  0.34920000  0.64260000  1.0 0.1665923447
C  C103  1  0.33770000  0.65080000  0.14260000  1.0 0.1665923447
C  C104  1  0.66230000  0.65080000  0.35740000  1.0 0.1665923447
C  C105  1  0.67190000  0.39560000  0.90840000  1.0 -0.1897183637
C  C106  1  0.32810000  0.39560000  0.59160000  1.0 -0.1897183637
C  C107  1  0.32810000  0.60440000  0.09160000  1.0 -0.1897183637
C  C108  1  0.67190000  0.60440000  0.40840000  1.0 -0.1897183637
C  C109  1  0.63910000  0.48520000  0.91200000  1.0 -0.0974923126
C  C110  1  0.36090000  0.48520000  0.58800000  1.0 -0.0974923126
C  C111  1  0.36090000  0.51480000  0.08800000  1.0 -0.0974923126
C  C112  1  0.63910000  0.51480000  0.41200000  1.0 -0.0974923126
C  C113  1  0.66640000  0.16870000  0.81400000  1.0 0.1526058379
C  C114  1  0.33360000  0.16870000  0.68600000  1.0 0.1526058379
C  C115  1  0.33360000  0.83130000  0.18600000  1.0 0.1526058379
C  C116  1  0.66640000  0.83130000  0.31400000  1.0 0.1526058379
C  C117  1  0.61780000  0.12470000  0.81540000  1.0 -0.1737241315
C  C118  1  0.38220000  0.12470000  0.68460000  1.0 -0.1737241315
C  C119  1  0.38220000  0.87530000  0.18460000  1.0 -0.1737241315
C  C120  1  0.61780000  0.87530000  0.31540000  1.0 -0.1737241315
C  C121  1  0.58390000  0.04390000  0.77760000  1.0 -0.0974923126
C  C122  1  0.41610000  0.04390000  0.72240000  1.0 -0.0974923126
C  C123  1  0.41610000  0.95610000  0.22240000  1.0 -0.0974923126
C  C124  1  0.58390000  0.95610000  0.27760000  1.0 -0.0974923126
C  C125  1  0.59760000  0.00880000  0.73400000  1.0 -0.0552728734
C  C126  1  0.40240000  0.00880000  0.76600000  1.0 -0.0552728734
C  C127  1  0.40240000  0.99120000  0.26600000  1.0 -0.0552728734
C  C128  1  0.59760000  0.99120000  0.23400000  1.0 -0.0552728734
C  C129  1  0.64800000  0.05060000  0.73440000  1.0 -0.0880729199
C  C130  1  0.35200000  0.05060000  0.76560000  1.0 -0.0880729199
C  C131  1  0.35200000  0.94940000  0.26560000  1.0 -0.0880729199
C  C132  1  0.64800000  0.94940000  0.23440000  1.0 -0.0880729199
C  C133  1  0.68160000  0.13160000  0.77360000  1.0 -0.1794899912
C  C134  1  0.31840000  0.13160000  0.72640000  1.0 -0.1794899912
C  C135  1  0.31840000  0.86840000  0.22640000  1.0 -0.1794899912
C  C136  1  0.68160000  0.86840000  0.27360000  1.0 -0.1794899912
C  C137  1  0.75960000  0.26500000  0.88150000  1.0 0.1593233869
C  C138  1  0.24040000  0.26500000  0.61850000  1.0 0.1593233869
C  C139  1  0.24040000  0.73500000  0.11850000  1.0 0.1593233869
C  C140  1  0.75960000  0.73500000  0.38150000  1.0 0.1593233869
C  C141  1  0.79210000  0.16380000  0.89920000  1.0 -0.1995454802
C  C142  1  0.20790000  0.16380000  0.60080000  1.0 -0.1995454802
C  C143  1  0.20790000  0.83620000  0.10080000  1.0 -0.1995454802
C  C144  1  0.79210000  0.83620000  0.39920000  1.0 -0.1995454802
C  C145  1  0.85130000  0.17300000  0.92890000  1.0 -0.0974923126
C  C146  1  0.14870000  0.17300000  0.57110000  1.0 -0.0880729199
C  C147  1  0.14870000  0.82700000  0.07110000  1.0 -0.0974923126
C  C148  1  0.85130000  0.82700000  0.42890000  1.0 -0.0880729199
C  C149  1  0.88040000  0.27240000  0.94190000  1.0 -0.038724424
C  C150  1  0.11960000  0.27240000  0.55810000  1.0 -0.038724424
C  C151  1  0.11960000  0.72760000  0.05810000  1.0 -0.038724424
C  C152  1  0.88040000  0.72760000  0.44190000  1.0 -0.038724424
C  C153  1  0.84800000  0.36870000  0.92700000  1.0 -0.121080622
C  C154  1  0.15200000  0.36870000  0.57300000  1.0 -0.121080622
C  C155  1  0.15200000  0.63130000  0.07300000  1.0 -0.121080622
C  C156  1  0.84800000  0.63130000  0.42700000  1.0 -0.121080622
C  C157  1  0.78670000  0.36700000  0.89590000  1.0 -0.2057250327
C  C158  1  0.21330000  0.36700000  0.60410000  1.0 -0.2057250327
C  C159  1  0.21330000  0.63300000  0.10410000  1.0 -0.2057250327
C  C160  1  0.78670000  0.63300000  0.39590000  1.0 -0.2057250327
C  C161  1  0.94740000  0.28240000  0.97290000  1.0 0.5594479964
C  C162  1  0.05260000  0.28240000  0.52710000  1.0 0.5594479964
C  C163  1  0.05260000  0.71760000  0.02710000  1.0 0.5594479964
C  C164  1  0.94740000  0.71760000  0.47290000  1.0 0.5594479964
C  C165  1  0.55630000  0.93450000  0.68840000  1.0 0.5652930961
C  C166  1  0.44370000  0.93450000  0.81160000  1.0 0.5652930961
C  C167  1  0.44370000  0.06550000  0.31160000  1.0 0.5652930961
C  C168  1  0.55630000  0.06550000  0.18840000  1.0 0.5652930961
C  C169  1  0.71880000  0.68400000  0.85290000  1.0 -0.1423877104
C  C170  1  0.28120000  0.68400000  0.64710000  1.0 -0.1423877104
C  C171  1  0.28120000  0.31600000  0.14710000  1.0 -0.1423877104
C  C172  1  0.71880000  0.31600000  0.35290000  1.0 -0.1423877104
C  C173  1  0.73430000  0.83950000  0.91110000  1.0 -0.3312280102
C  C174  1  0.26570000  0.83950000  0.58890000  1.0 -0.3312280102
C  C175  1  0.26570000  0.16050000  0.08890000  1.0 -0.3312280102
C  C176  1  0.73430000  0.16050000  0.41110000  1.0 -0.3312280102
C  C177  1  0.63780000  0.79870000  0.83760000  1.0 0.1016053679
C  C178  1  0.36220000  0.79870000  0.66240000  1.0 0.1016053679
C  C179  1  0.36220000  0.20130000  0.16240000  1.0 0.1016053679
C  C180  1  0.63780000  0.20130000  0.33760000  1.0 0.1016053679
C  C181  1  0.49650000  0.78200000  0.01210000  1.0 0.2298479528
C  C182  1  0.50350000  0.78200000  0.48790000  1.0 0.2298479528
C  C183  1  0.50350000  0.21800000  0.98790000  1.0 0.2298479528
C  C184  1  0.49650000  0.21800000  0.51210000  1.0 0.2298479528
C  C185  1  0.49210000  0.78480000  0.10250000  1.0 -0.2923974021
C  C186  1  0.50790000  0.78480000  0.39750000  1.0 -0.2923974021
C  C187  1  0.50790000  0.21520000  0.89750000  1.0 -0.2923974021
C  C188  1  0.49210000  0.21520000  0.60250000  1.0 -0.2923974021
C  C189  1  0.45260000  0.63850000  0.03770000  1.0 -0.2791159003
C  C190  1  0.54740000  0.63850000  0.46230000  1.0 -0.2791159003
C  C191  1  0.54740000  0.36150000  0.96230000  1.0 -0.2791159003
C  C192  1  0.45260000  0.36150000  0.53770000  1.0 -0.2791159003
C  C193  1  0.97950000  0.85660000  0.61120000  1.0 -0.335996814
C  C194  1  0.02050000  0.85660000  0.88880000  1.0 -0.335996814
C  C195  1  0.02050000  0.14340000  0.38880000  1.0 -0.335996814
C  C196  1  0.97950000  0.14340000  0.11120000  1.0 -0.335996814
C  C197  1  0.88280000  0.91800000  0.56820000  1.0 -0.1897183637
C  C198  1  0.11720000  0.91800000  0.93180000  1.0 -0.1897183637
C  C199  1  0.11720000  0.08200000  0.43180000  1.0 -0.1897183637
C  C200  1  0.88280000  0.08200000  0.06820000  1.0 -0.1897183637
C  C201  1  0.94810000  0.02330000  0.55570000  1.0 0.0669801833
C  C202  1  0.05190000  0.02330000  0.94430000  1.0 0.0669801833
C  C203  1  0.05190000  0.97670000  0.44430000  1.0 0.0669801833
C  C204  1  0.94810000  0.97670000  0.05570000  1.0 0.0669801833
C  C205  1  0.16480000  0.71680000  0.22470000  1.0 -0.2791159003
C  C206  1  0.83520000  0.71680000  0.27530000  1.0 -0.2791159003
C  C207  1  0.83520000  0.28320000  0.77530000  1.0 -0.2791159003
C  C208  1  0.16480000  0.28320000  0.72470000  1.0 -0.2791159003
C  C209  1  0.10140000  0.87260000  0.19070000  1.0 -0.3180520459
C  C210  1  0.89860000  0.87260000  0.30930000  1.0 -0.3180520459
C  C211  1  0.89860000  0.12740000  0.80930000  1.0 -0.3180520459
C  C212  1  0.10140000  0.12740000  0.69070000  1.0 -0.3180520459
C  C213  1  0.06560000  0.69340000  0.15960000  1.0 0.250680633
C  C214  1  0.93440000  0.69340000  0.34040000  1.0 0.250680633
C  C215  1  0.93440000  0.30660000  0.84040000  1.0 0.250680633
C  C216  1  0.06560000  0.30660000  0.65960000  1.0 0.250680633
C  C217  1  0.71810000  0.72150000  0.83190000  1.0 -0.1493673659
C  C218  1  0.28190000  0.72150000  0.66810000  1.0 -0.1493673659
C  C219  1  0.28190000  0.27850000  0.16810000  1.0 -0.1493673659
C  C220  1  0.71810000  0.27850000  0.33190000  1.0 -0.1493673659
C  C221  1  0.89890000  0.96200000  0.60670000  1.0 -0.1897183637
C  C222  1  0.10110000  0.96200000  0.89330000  1.0 -0.1897183637
C  C223  1  0.10110000  0.03800000  0.39330000  1.0 -0.1897183637
C  C224  1  0.89890000  0.03800000  0.10670000  1.0 -0.1897183637
N  N1  1  0.77820000  0.28100000  0.12510000  1.0 -0.1737241315
N  N2  1  0.22180000  0.28100000  0.37490000  1.0 -0.1737241315
N  N3  1  0.22180000  0.71900000  0.87490000  1.0 -0.1737241315
N  N4  1  0.77820000  0.71900000  0.62510000  1.0 -0.1737241315
N  N5  1  0.69560000  0.25940000  0.85390000  1.0 -0.1897183637
N  N6  1  0.30440000  0.25940000  0.64610000  1.0 -0.1897183637
N  N7  1  0.30440000  0.74060000  0.14610000  1.0 -0.1897183637
N  N8  1  0.69560000  0.74060000  0.35390000  1.0 -0.1897183637
N  N9  1  0.69540000  0.78120000  0.86250000  1.0 0.0423511305
N  N10  1  0.30460000  0.78120000  0.63750000  1.0 0.0423511305
N  N11  1  0.30460000  0.21880000  0.13750000  1.0 0.0423511305
N  N12  1  0.69540000  0.21880000  0.36250000  1.0 0.0423511305
N  N13  1  0.48570000  0.73390000  0.05280000  1.0 0.0331590587
N  N14  1  0.51430000  0.73390000  0.44720000  1.0 0.0331590587
N  N15  1  0.51430000  0.26610000  0.94720000  1.0 0.0331590587
N  N16  1  0.48570000  0.26610000  0.55280000  1.0 0.0331590587
N  N17  1  0.94100000  0.94440000  0.58840000  1.0 0.0669801833
N  N18  1  0.05900000  0.94440000  0.91160000  1.0 0.0669801833
N  N19  1  0.05900000  0.05560000  0.41160000  1.0 0.0669801833
N  N20  1  0.94100000  0.05560000  0.08840000  1.0 0.0669801833
N  N21  1  0.10940000  0.75880000  0.19340000  1.0 0.0237196117
N  N22  1  0.89060000  0.75880000  0.30660000  1.0 0.0237196117
N  N23  1  0.89060000  0.24120000  0.80660000  1.0 0.0237196117
N  N24  1  0.10940000  0.24120000  0.69340000  1.0 0.0237196117
O  O1  1  0.51050000  0.89560000  0.68970000  1.0 -0.5912702604
O  O2  1  0.48950000  0.89560000  0.81030000  1.0 -0.5912702604
O  O3  1  0.48950000  0.10440000  0.31030000  1.0 -0.5912702604
O  O4  1  0.51050000  0.10440000  0.18970000  1.0 -0.5912702604
O  O5  1  0.56740000  0.90980000  0.64610000  1.0 -0.530537255
O  O6  1  0.43260000  0.90980000  0.85390000  1.0 -0.530537255
O  O7  1  0.43260000  0.09020000  0.35390000  1.0 -0.530537255
O  O8  1  0.56740000  0.09020000  0.14610000  1.0 -0.530537255
O  O9  1  0.56190000  0.95080000  0.98440000  1.0 -0.5835925712
O  O10  1  0.43810000  0.95080000  0.51560000  1.0 -0.5835925712
O  O11  1  0.43810000  0.04920000  0.01560000  1.0 -0.5835925712
O  O12  1  0.56190000  0.04920000  0.48440000  1.0 -0.5835925712
O  O13  1  0.60550000  0.94370000  0.92820000  1.0 -0.5647800042
O  O14  1  0.39450000  0.94370000  0.57180000  1.0 -0.5647800042
O  O15  1  0.39450000  0.05630000  0.07180000  1.0 -0.5647800042
O  O16  1  0.60550000  0.05630000  0.42820000  1.0 -0.5647800042
O  O17  1  0.57260000  0.67220000  0.91140000  1.0 -0.530537255
O  O18  1  0.42740000  0.67220000  0.58860000  1.0 -0.530537255
O  O19  1  0.42740000  0.32780000  0.08860000  1.0 -0.530537255
O  O20  1  0.57260000  0.32780000  0.41140000  1.0 -0.530537255
O  O21  1  0.50740000  0.64190000  0.81970000  1.0 -0.6030872339
O  O22  1  0.49260000  0.64190000  0.68030000  1.0 -0.6030872339
O  O23  1  0.49260000  0.35810000  0.18030000  1.0 -0.6030872339
O  O24  1  0.50740000  0.35810000  0.31970000  1.0 -0.6030872339
O  O25  1  0.97690000  0.19030000  0.97840000  1.0 -0.6030872339
O  O26  1  0.02310000  0.19030000  0.52160000  1.0 -0.6030872339
O  O27  1  0.02310000  0.80970000  0.02160000  1.0 -0.6030872339
O  O28  1  0.97690000  0.80970000  0.47840000  1.0 -0.6030872339
O  O29  1  0.97140000  0.37500000  0.99050000  1.0 -0.6780065371
O  O30  1  0.02860000  0.37500000  0.50950000  1.0 -0.6780065371
O  O31  1  0.02860000  0.62500000  0.00950000  1.0 -0.6780065371
O  O32  1  0.97140000  0.62500000  0.49050000  1.0 -0.6780065371
O  O33  1  0.84750000  0.66430000  0.99490000  1.0 -0.5152363254
O  O34  1  0.15250000  0.66430000  0.50510000  1.0 -0.5152363254
O  O35  1  0.15250000  0.33570000  0.00510000  1.0 -0.5152363254
O  O36  1  0.84750000  0.33570000  0.49490000  1.0 -0.5152363254
O  O37  1  0.93470000  0.60040000  0.05230000  1.0 -0.6055617108
O  O38  1  0.06530000  0.60040000  0.44770000  1.0 -0.6055617108
O  O39  1  0.06530000  0.39960000  0.94770000  1.0 -0.6055617108
O  O40  1  0.93470000  0.39960000  0.55230000  1.0 -0.6055617108
O  O41  1  0.87950000  0.17370000  0.39800000  1.0 -0.530537255
O  O42  1  0.12050000  0.17370000  0.10200000  1.0 -0.530537255
O  O43  1  0.12050000  0.82630000  0.60200000  1.0 -0.530537255
O  O44  1  0.87950000  0.82630000  0.89800000  1.0 -0.530537255
O  O45  1  0.90600000  0.34890000  0.40060000  1.0 -0.6030872339
O  O46  1  0.09400000  0.34890000  0.09940000  1.0 -0.6030872339
O  O47  1  0.09400000  0.65110000  0.59940000  1.0 -0.6030872339
O  O48  1  0.90600000  0.65110000  0.90060000  1.0 -0.6030872339
O  O49  1  0.60120000  0.75430000  0.79440000  1.0 -0.4366809129
O  O50  1  0.39880000  0.75430000  0.70560000  1.0 -0.4366809129
O  O51  1  0.39880000  0.24570000  0.20560000  1.0 -0.4366809129
O  O52  1  0.60120000  0.24570000  0.29440000  1.0 -0.4366809129
O  O53  1  0.49040000  0.73760000  0.96780000  1.0 -0.4231512322
O  O54  1  0.50960000  0.73760000  0.53220000  1.0 -0.4231512322
O  O55  1  0.50960000  0.26240000  0.03220000  1.0 -0.4231512322
O  O56  1  0.49040000  0.26240000  0.46780000  1.0 -0.4231512322
O  O57  1  0.91650000  0.10360000  0.53700000  1.0 -0.4320163726
O  O58  1  0.08350000  0.10360000  0.96300000  1.0 -0.4320163726
O  O59  1  0.08350000  0.89640000  0.46300000  1.0 -0.4320163726
O  O60  1  0.91650000  0.89640000  0.03700000  1.0 -0.4320163726
O  O61  1  0.06720000  0.59310000  0.15610000  1.0 -0.481417924
O  O62  1  0.93280000  0.59310000  0.34390000  1.0 -0.481417924
O  O63  1  0.93280000  0.40690000  0.84390000  1.0 -0.481417924
O  O64  1  0.06720000  0.40690000  0.65610000  1.0 -0.481417924
