# DDEC6 charges by PACMAN v1.1 (https://github.com/mtap-research/PACMAN-charge/)
data_BUSPIP_ASR_pacman
_symmetry_space_group_name_H-M   'P 1'
_cell_length_a   50.69040000
_cell_length_b   50.69040000
_cell_length_c   50.69040000
_cell_angle_alpha   60.00000000
_cell_angle_beta   60.00000000
_cell_angle_gamma   60.00000000
_symmetry_Int_Tables_number   1
_chemical_formula_structural   Al51H102W78(C153O133)2
_chemical_formula_sum   'Al204 H408 W312 C1224 O1064'
_cell_volume   92100.53585265
_cell_formula_units_Z   4
loop_
 _symmetry_equiv_pos_site_id
 _symmetry_equiv_pos_as_xyz
  1  'x, y, z'
loop_
 _atom_site_type_symbol
 _atom_site_label
 _atom_site_symmetry_multiplicity
 _atom_site_fract_x
 _atom_site_fract_y
 _atom_site_fract_z
 _atom_site_occupancy
 _atom_site_charge
Al  Al1  1  0.99566000  0.13858000  0.93288000  1.0 1.5997980726
Al  Al2  1  0.93288000  0.93288000  0.13858000  1.0 1.5997980726
Al  Al3  1  0.13858000  0.99566000  0.93288000  1.0 1.5997980726
Al  Al4  1  0.93288000  0.93288000  0.99566000  1.0 1.5997980726
Al  Al5  1  0.31712000  0.31712000  0.25434000  1.0 1.5997980726
Al  Al6  1  0.25434000  0.11142000  0.31712000  1.0 1.5997980726
Al  Al7  1  0.31712000  0.31712000  0.11142000  1.0 1.5997980726
Al  Al8  1  0.11142000  0.25434000  0.31712000  1.0 1.5997980726
Al  Al9  1  0.13858000  0.93288000  0.99566000  1.0 1.5997980726
Al  Al10  1  0.93288000  0.13858000  0.93288000  1.0 1.5997980726
Al  Al11  1  0.93288000  0.99566000  0.93288000  1.0 1.5997980726
Al  Al12  1  0.99566000  0.93288000  0.13858000  1.0 1.5997980726
Al  Al13  1  0.31712000  0.25434000  0.11142000  1.0 1.5997980726
Al  Al14  1  0.31712000  0.11142000  0.25434000  1.0 1.5997980726
Al  Al15  1  0.25434000  0.31712000  0.31712000  1.0 1.5997980726
Al  Al16  1  0.11142000  0.31712000  0.31712000  1.0 1.5997980726
Al  Al17  1  0.93288000  0.99566000  0.13858000  1.0 1.5997980726
Al  Al18  1  0.13858000  0.93288000  0.93288000  1.0 1.5997980726
Al  Al19  1  0.99566000  0.93288000  0.93288000  1.0 1.5997980726
Al  Al20  1  0.93288000  0.13858000  0.99566000  1.0 1.5997980726
Al  Al21  1  0.25434000  0.31712000  0.11142000  1.0 1.5997980726
Al  Al22  1  0.31712000  0.11142000  0.31712000  1.0 1.5997980726
Al  Al23  1  0.11142000  0.31712000  0.25434000  1.0 1.5997980726
Al  Al24  1  0.31712000  0.25434000  0.31712000  1.0 1.5997980726
Al  Al25  1  0.81779000  0.40729000  0.61119000  1.0 1.5924348509
Al  Al26  1  0.16373000  0.61119000  0.40729000  1.0 1.5924348509
Al  Al27  1  0.40729000  0.81779000  0.16373000  1.0 1.5924348509
Al  Al28  1  0.61119000  0.16373000  0.81779000  1.0 1.5924348509
Al  Al29  1  0.08627000  0.63881000  0.43221000  1.0 1.5924348509
Al  Al30  1  0.43221000  0.84271000  0.08627000  1.0 1.5924348509
Al  Al31  1  0.63881000  0.08627000  0.84271000  1.0 1.5924348509
Al  Al32  1  0.84271000  0.43221000  0.63881000  1.0 1.5924348509
Al  Al33  1  0.40729000  0.61119000  0.81779000  1.0 1.5924348509
Al  Al34  1  0.61119000  0.40729000  0.16373000  1.0 1.5924348509
Al  Al35  1  0.16373000  0.81779000  0.61119000  1.0 1.5924348509
Al  Al36  1  0.81779000  0.16373000  0.40729000  1.0 1.5924348509
Al  Al37  1  0.08627000  0.43221000  0.84271000  1.0 1.5924348509
Al  Al38  1  0.63881000  0.84271000  0.43221000  1.0 1.5924348509
Al  Al39  1  0.43221000  0.08627000  0.63881000  1.0 1.5924348509
Al  Al40  1  0.84271000  0.63881000  0.08627000  1.0 1.5924348509
Al  Al41  1  0.61119000  0.81779000  0.40729000  1.0 1.5924348509
Al  Al42  1  0.40729000  0.16373000  0.61119000  1.0 1.5924348509
Al  Al43  1  0.81779000  0.61119000  0.16373000  1.0 1.5924348509
Al  Al44  1  0.16373000  0.40729000  0.81779000  1.0 1.5924348509
Al  Al45  1  0.43221000  0.63881000  0.84271000  1.0 1.5924348509
Al  Al46  1  0.08627000  0.84271000  0.63881000  1.0 1.5924348509
Al  Al47  1  0.84271000  0.08627000  0.43221000  1.0 1.5924348509
Al  Al48  1  0.63881000  0.43221000  0.08627000  1.0 1.5924348509
Al  Al49  1  0.43221000  0.84271000  0.63881000  1.0 1.5924348509
Al  Al50  1  0.08627000  0.63881000  0.84271000  1.0 1.5924348509
Al  Al51  1  0.84271000  0.43221000  0.08627000  1.0 1.5924348509
Al  Al52  1  0.63881000  0.08627000  0.43221000  1.0 1.5924348509
Al  Al53  1  0.16373000  0.61119000  0.81779000  1.0 1.5924348509
Al  Al54  1  0.81779000  0.40729000  0.16373000  1.0 1.5924348509
Al  Al55  1  0.61119000  0.16373000  0.40729000  1.0 1.5924348509
Al  Al56  1  0.40729000  0.81779000  0.61119000  1.0 1.5924348509
Al  Al57  1  0.84271000  0.63881000  0.43221000  1.0 1.5924348509
Al  Al58  1  0.63881000  0.84271000  0.08627000  1.0 1.5924348509
Al  Al59  1  0.08627000  0.43221000  0.63881000  1.0 1.5924348509
Al  Al60  1  0.43221000  0.08627000  0.84271000  1.0 1.5924348509
Al  Al61  1  0.16373000  0.81779000  0.40729000  1.0 1.5924348509
Al  Al62  1  0.61119000  0.40729000  0.81779000  1.0 1.5924348509
Al  Al63  1  0.81779000  0.16373000  0.61119000  1.0 1.5924348509
Al  Al64  1  0.40729000  0.61119000  0.16373000  1.0 1.5924348509
Al  Al65  1  0.63881000  0.43221000  0.84271000  1.0 1.5924348509
Al  Al66  1  0.84271000  0.08627000  0.63881000  1.0 1.5924348509
Al  Al67  1  0.43221000  0.63881000  0.08627000  1.0 1.5924348509
Al  Al68  1  0.08627000  0.84271000  0.43221000  1.0 1.5924348509
Al  Al69  1  0.81779000  0.61119000  0.40729000  1.0 1.5924348509
Al  Al70  1  0.16373000  0.40729000  0.61119000  1.0 1.5924348509
Al  Al71  1  0.40729000  0.16373000  0.81779000  1.0 1.5924348509
Al  Al72  1  0.61119000  0.81779000  0.16373000  1.0 1.5924348509
Al  Al73  1  0.77171000  0.25937000  0.70955000  1.0 1.5924348509
Al  Al74  1  0.25937000  0.70955000  0.25937000  1.0 1.5924348509
Al  Al75  1  0.25937000  0.77171000  0.25937000  1.0 1.5924348509
Al  Al76  1  0.70955000  0.25937000  0.77171000  1.0 1.5924348509
Al  Al77  1  0.99063000  0.54045000  0.47829000  1.0 1.5924348509
Al  Al78  1  0.47829000  0.99063000  0.99063000  1.0 1.5924348509
Al  Al79  1  0.54045000  0.99063000  0.99063000  1.0 1.5924348509
Al  Al80  1  0.99063000  0.47829000  0.54045000  1.0 1.5924348509
Al  Al81  1  0.25937000  0.70955000  0.77171000  1.0 1.5924348509
Al  Al82  1  0.70955000  0.25937000  0.25937000  1.0 1.5924348509
Al  Al83  1  0.25937000  0.77171000  0.70955000  1.0 1.5924348509
Al  Al84  1  0.77171000  0.25937000  0.25937000  1.0 1.5924348509
Al  Al85  1  0.99063000  0.47829000  0.99063000  1.0 1.5924348509
Al  Al86  1  0.54045000  0.99063000  0.47829000  1.0 1.5924348509
Al  Al87  1  0.47829000  0.99063000  0.54045000  1.0 1.5924348509
Al  Al88  1  0.99063000  0.54045000  0.99063000  1.0 1.5924348509
Al  Al89  1  0.70955000  0.77171000  0.25937000  1.0 1.5924348509
Al  Al90  1  0.25937000  0.25937000  0.70955000  1.0 1.5924348509
Al  Al91  1  0.77171000  0.70955000  0.25937000  1.0 1.5924348509
Al  Al92  1  0.25937000  0.25937000  0.77171000  1.0 1.5924348509
Al  Al93  1  0.47829000  0.54045000  0.99063000  1.0 1.5924348509
Al  Al94  1  0.99063000  0.99063000  0.54045000  1.0 1.5924348509
Al  Al95  1  0.99063000  0.99063000  0.47829000  1.0 1.5924348509
Al  Al96  1  0.54045000  0.47829000  0.99063000  1.0 1.5924348509
Al  Al97  1  0.85796000  0.34296000  0.79524000  1.0 1.6074456773
Al  Al98  1  0.00384000  0.79524000  0.34296000  1.0 1.6074456773
Al  Al99  1  0.34296000  0.85796000  0.00384000  1.0 1.6074456773
Al  Al100  1  0.79524000  0.00384000  0.85796000  1.0 1.6074456773
Al  Al101  1  0.24616000  0.45476000  0.39204000  1.0 1.6074456773
Al  Al102  1  0.39204000  0.90704000  0.24616000  1.0 1.6074456773
Al  Al103  1  0.45476000  0.24616000  0.90704000  1.0 1.6074456773
Al  Al104  1  0.90704000  0.39204000  0.45476000  1.0 1.6074456773
Al  Al105  1  0.34296000  0.79524000  0.85796000  1.0 1.6074456773
Al  Al106  1  0.79524000  0.34296000  0.00384000  1.0 1.6074456773
Al  Al107  1  0.00384000  0.85796000  0.79524000  1.0 1.6074456773
Al  Al108  1  0.85796000  0.00384000  0.34296000  1.0 1.6074456773
Al  Al109  1  0.24616000  0.39204000  0.90704000  1.0 1.6074456773
Al  Al110  1  0.45476000  0.90704000  0.39204000  1.0 1.6074456773
Al  Al111  1  0.39204000  0.24616000  0.45476000  1.0 1.6074456773
Al  Al112  1  0.90704000  0.45476000  0.24616000  1.0 1.6074456773
Al  Al113  1  0.79524000  0.85796000  0.34296000  1.0 1.6074456773
Al  Al114  1  0.34296000  0.00384000  0.79524000  1.0 1.6074456773
Al  Al115  1  0.85796000  0.79524000  0.00384000  1.0 1.6074456773
Al  Al116  1  0.00384000  0.34296000  0.85796000  1.0 1.6074456773
Al  Al117  1  0.39204000  0.45476000  0.90704000  1.0 1.6074456773
Al  Al118  1  0.24616000  0.90704000  0.45476000  1.0 1.6074456773
Al  Al119  1  0.90704000  0.24616000  0.39204000  1.0 1.6074456773
Al  Al120  1  0.45476000  0.39204000  0.24616000  1.0 1.6074456773
Al  Al121  1  0.39204000  0.90704000  0.45476000  1.0 1.6074456773
Al  Al122  1  0.24616000  0.45476000  0.90704000  1.0 1.6074456773
Al  Al123  1  0.90704000  0.39204000  0.24616000  1.0 1.6074456773
Al  Al124  1  0.45476000  0.24616000  0.39204000  1.0 1.6074456773
Al  Al125  1  0.00384000  0.79524000  0.85796000  1.0 1.6074456773
Al  Al126  1  0.85796000  0.34296000  0.00384000  1.0 1.6074456773
Al  Al127  1  0.79524000  0.00384000  0.34296000  1.0 1.6074456773
Al  Al128  1  0.34296000  0.85796000  0.79524000  1.0 1.6074456773
Al  Al129  1  0.90704000  0.45476000  0.39204000  1.0 1.6074456773
Al  Al130  1  0.45476000  0.90704000  0.24616000  1.0 1.6074456773
Al  Al131  1  0.24616000  0.39204000  0.45476000  1.0 1.6074456773
Al  Al132  1  0.39204000  0.24616000  0.90704000  1.0 1.6074456773
Al  Al133  1  0.00384000  0.85796000  0.34296000  1.0 1.6074456773
Al  Al134  1  0.79524000  0.34296000  0.85796000  1.0 1.6074456773
Al  Al135  1  0.85796000  0.00384000  0.79524000  1.0 1.6074456773
Al  Al136  1  0.34296000  0.79524000  0.00384000  1.0 1.6074456773
Al  Al137  1  0.45476000  0.39204000  0.90704000  1.0 1.6074456773
Al  Al138  1  0.90704000  0.24616000  0.45476000  1.0 1.6074456773
Al  Al139  1  0.39204000  0.45476000  0.24616000  1.0 1.6074456773
Al  Al140  1  0.24616000  0.90704000  0.39204000  1.0 1.6074456773
Al  Al141  1  0.85796000  0.79524000  0.34296000  1.0 1.6074456773
Al  Al142  1  0.00384000  0.34296000  0.79524000  1.0 1.6074456773
Al  Al143  1  0.34296000  0.00384000  0.85796000  1.0 1.6074456773
Al  Al144  1  0.79524000  0.85796000  0.00384000  1.0 1.6074456773
Al  Al145  1  0.77618000  0.47382000  0.62500000  1.0 1.6299738627
Al  Al146  1  0.12500000  0.62500000  0.47382000  1.0 1.6299738627
Al  Al147  1  0.47382000  0.77618000  0.12500000  1.0 1.6299738627
Al  Al148  1  0.62500000  0.12500000  0.77618000  1.0 1.6299738627
Al  Al149  1  0.47382000  0.62500000  0.77618000  1.0 1.6299738627
Al  Al150  1  0.62500000  0.47382000  0.12500000  1.0 1.6299738627
Al  Al151  1  0.12500000  0.77618000  0.62500000  1.0 1.6299738627
Al  Al152  1  0.77618000  0.12500000  0.47382000  1.0 1.6299738627
Al  Al153  1  0.12500000  0.47382000  0.77618000  1.0 1.6299738627
Al  Al154  1  0.62500000  0.77618000  0.47382000  1.0 1.6299738627
Al  Al155  1  0.47382000  0.12500000  0.62500000  1.0 1.6299738627
Al  Al156  1  0.77618000  0.62500000  0.12500000  1.0 1.6299738627
Al  Al157  1  0.47382000  0.77618000  0.62500000  1.0 1.6299738627
Al  Al158  1  0.12500000  0.62500000  0.77618000  1.0 1.6299738627
Al  Al159  1  0.77618000  0.47382000  0.12500000  1.0 1.6299738627
Al  Al160  1  0.62500000  0.12500000  0.47382000  1.0 1.6299738627
Al  Al161  1  0.77618000  0.62500000  0.47382000  1.0 1.6299738627
Al  Al162  1  0.62500000  0.77618000  0.12500000  1.0 1.6299738627
Al  Al163  1  0.12500000  0.47382000  0.62500000  1.0 1.6299738627
Al  Al164  1  0.47382000  0.12500000  0.77618000  1.0 1.6299738627
Al  Al165  1  0.12500000  0.77618000  0.47382000  1.0 1.6299738627
Al  Al166  1  0.62500000  0.47382000  0.77618000  1.0 1.6299738627
Al  Al167  1  0.77618000  0.12500000  0.62500000  1.0 1.6299738627
Al  Al168  1  0.47382000  0.62500000  0.12500000  1.0 1.6299738627
Al  Al169  1  0.77935000  0.22065000  0.77935000  1.0 1.6074456773
Al  Al170  1  0.22065000  0.77935000  0.22065000  1.0 1.6074456773
Al  Al171  1  0.02935000  0.47065000  0.47065000  1.0 1.6074456773
Al  Al172  1  0.47065000  0.02935000  0.02935000  1.0 1.6074456773
Al  Al173  1  0.22065000  0.77935000  0.77935000  1.0 1.6074456773
Al  Al174  1  0.77935000  0.22065000  0.22065000  1.0 1.6074456773
Al  Al175  1  0.02935000  0.47065000  0.02935000  1.0 1.6074456773
Al  Al176  1  0.47065000  0.02935000  0.47065000  1.0 1.6074456773
Al  Al177  1  0.77935000  0.77935000  0.22065000  1.0 1.6074456773
Al  Al178  1  0.22065000  0.22065000  0.77935000  1.0 1.6074456773
Al  Al179  1  0.47065000  0.47065000  0.02935000  1.0 1.6074456773
Al  Al180  1  0.02935000  0.02935000  0.47065000  1.0 1.6074456773
Al  Al181  1  0.83894000  0.27864000  0.83894000  1.0 1.5997980726
Al  Al182  1  0.04348000  0.83894000  0.27864000  1.0 1.5997980726
Al  Al183  1  0.27864000  0.83894000  0.04348000  1.0 1.5997980726
Al  Al184  1  0.83894000  0.04348000  0.83894000  1.0 1.5997980726
Al  Al185  1  0.20652000  0.41106000  0.41106000  1.0 1.5997980726
Al  Al186  1  0.41106000  0.97136000  0.20652000  1.0 1.5997980726
Al  Al187  1  0.41106000  0.20652000  0.97136000  1.0 1.5997980726
Al  Al188  1  0.97136000  0.41106000  0.41106000  1.0 1.5997980726
Al  Al189  1  0.27864000  0.83894000  0.83894000  1.0 1.5997980726
Al  Al190  1  0.83894000  0.27864000  0.04348000  1.0 1.5997980726
Al  Al191  1  0.04348000  0.83894000  0.83894000  1.0 1.5997980726
Al  Al192  1  0.83894000  0.04348000  0.27864000  1.0 1.5997980726
Al  Al193  1  0.20652000  0.41106000  0.97136000  1.0 1.5997980726
Al  Al194  1  0.41106000  0.97136000  0.41106000  1.0 1.5997980726
Al  Al195  1  0.41106000  0.20652000  0.41106000  1.0 1.5997980726
Al  Al196  1  0.97136000  0.41106000  0.20652000  1.0 1.5997980726
Al  Al197  1  0.83894000  0.83894000  0.27864000  1.0 1.5997980726
Al  Al198  1  0.27864000  0.04348000  0.83894000  1.0 1.5997980726
Al  Al199  1  0.83894000  0.83894000  0.04348000  1.0 1.5997980726
Al  Al200  1  0.04348000  0.27864000  0.83894000  1.0 1.5997980726
Al  Al201  1  0.41106000  0.41106000  0.97136000  1.0 1.5997980726
Al  Al202  1  0.20652000  0.97136000  0.41106000  1.0 1.5997980726
Al  Al203  1  0.97136000  0.20652000  0.41106000  1.0 1.5997980726
Al  Al204  1  0.41106000  0.41106000  0.20652000  1.0 1.5997980726
H  H1  1  0.69710000  0.44150000  0.69710000  1.0 0.1267278624
H  H2  1  0.16430000  0.69710000  0.44150000  1.0 0.1267278624
H  H3  1  0.44150000  0.69710000  0.16430000  1.0 0.1267278624
H  H4  1  0.69710000  0.16430000  0.69710000  1.0 0.1267278624
H  H5  1  0.08570000  0.55290000  0.55290000  1.0 0.1267278624
H  H6  1  0.55290000  0.80850000  0.08570000  1.0 0.1267278624
H  H7  1  0.55290000  0.08570000  0.80850000  1.0 0.1267278624
H  H8  1  0.80850000  0.55290000  0.55290000  1.0 0.1267278624
H  H9  1  0.44150000  0.69710000  0.69710000  1.0 0.1267278624
H  H10  1  0.69710000  0.44150000  0.16430000  1.0 0.1267278624
H  H11  1  0.16430000  0.69710000  0.69710000  1.0 0.1267278624
H  H12  1  0.69710000  0.16430000  0.44150000  1.0 0.1267278624
H  H13  1  0.08570000  0.55290000  0.80850000  1.0 0.1267278624
H  H14  1  0.55290000  0.80850000  0.55290000  1.0 0.1267278624
H  H15  1  0.55290000  0.08570000  0.55290000  1.0 0.1267278624
H  H16  1  0.80850000  0.55290000  0.08570000  1.0 0.1267278624
H  H17  1  0.69710000  0.69710000  0.44150000  1.0 0.1267278624
H  H18  1  0.44150000  0.16430000  0.69710000  1.0 0.1267278624
H  H19  1  0.69710000  0.69710000  0.16430000  1.0 0.1267278624
H  H20  1  0.16430000  0.44150000  0.69710000  1.0 0.1267278624
H  H21  1  0.55290000  0.55290000  0.80850000  1.0 0.1267278624
H  H22  1  0.08570000  0.80850000  0.55290000  1.0 0.1267278624
H  H23  1  0.80850000  0.08570000  0.55290000  1.0 0.1267278624
H  H24  1  0.55290000  0.55290000  0.08570000  1.0 0.1267278624
H  H25  1  0.75310000  0.35910000  0.67130000  1.0 0.1188372826
H  H26  1  0.21650000  0.67130000  0.35910000  1.0 0.1188372826
H  H27  1  0.35910000  0.75310000  0.21650000  1.0 0.1188372826
H  H28  1  0.67130000  0.21650000  0.75310000  1.0 0.1188372826
H  H29  1  0.03350000  0.57870000  0.49690000  1.0 0.1188372826
H  H30  1  0.49690000  0.89090000  0.03350000  1.0 0.1188372826
H  H31  1  0.57870000  0.03350000  0.89090000  1.0 0.1188372826
H  H32  1  0.89090000  0.49690000  0.57870000  1.0 0.1188372826
H  H33  1  0.35910000  0.67130000  0.75310000  1.0 0.1188372826
H  H34  1  0.67130000  0.35910000  0.21650000  1.0 0.1188372826
H  H35  1  0.21650000  0.75310000  0.67130000  1.0 0.1188372826
H  H36  1  0.75310000  0.21650000  0.35910000  1.0 0.1188372826
H  H37  1  0.03350000  0.49690000  0.89090000  1.0 0.1188372826
H  H38  1  0.57870000  0.89090000  0.49690000  1.0 0.1188372826
H  H39  1  0.49690000  0.03350000  0.57870000  1.0 0.1188372826
H  H40  1  0.89090000  0.57870000  0.03350000  1.0 0.1188372826
H  H41  1  0.67130000  0.75310000  0.35910000  1.0 0.1188372826
H  H42  1  0.35910000  0.21650000  0.67130000  1.0 0.1188372826
H  H43  1  0.75310000  0.67130000  0.21650000  1.0 0.1188372826
H  H44  1  0.21650000  0.35910000  0.75310000  1.0 0.1188372826
H  H45  1  0.49690000  0.57870000  0.89090000  1.0 0.1188372826
H  H46  1  0.03350000  0.89090000  0.57870000  1.0 0.1188372826
H  H47  1  0.89090000  0.03350000  0.49690000  1.0 0.1188372826
H  H48  1  0.57870000  0.49690000  0.03350000  1.0 0.1188372826
H  H49  1  0.49690000  0.89090000  0.57870000  1.0 0.1188372826
H  H50  1  0.03350000  0.57870000  0.89090000  1.0 0.1188372826
H  H51  1  0.89090000  0.49690000  0.03350000  1.0 0.1188372826
H  H52  1  0.57870000  0.03350000  0.49690000  1.0 0.1188372826
H  H53  1  0.21650000  0.67130000  0.75310000  1.0 0.1188372826
H  H54  1  0.75310000  0.35910000  0.21650000  1.0 0.1188372826
H  H55  1  0.67130000  0.21650000  0.35910000  1.0 0.1188372826
H  H56  1  0.35910000  0.75310000  0.67130000  1.0 0.1188372826
H  H57  1  0.89090000  0.57870000  0.49690000  1.0 0.1188372826
H  H58  1  0.57870000  0.89090000  0.03350000  1.0 0.1188372826
H  H59  1  0.03350000  0.49690000  0.57870000  1.0 0.1188372826
H  H60  1  0.49690000  0.03350000  0.89090000  1.0 0.1188372826
H  H61  1  0.21650000  0.75310000  0.35910000  1.0 0.1188372826
H  H62  1  0.67130000  0.35910000  0.75310000  1.0 0.1188372826
H  H63  1  0.75310000  0.21650000  0.67130000  1.0 0.1188372826
H  H64  1  0.35910000  0.67130000  0.21650000  1.0 0.1188372826
H  H65  1  0.57870000  0.49690000  0.89090000  1.0 0.1188372826
H  H66  1  0.89090000  0.03350000  0.57870000  1.0 0.1188372826
H  H67  1  0.49690000  0.57870000  0.03350000  1.0 0.1188372826
H  H68  1  0.03350000  0.89090000  0.49690000  1.0 0.1188372826
H  H69  1  0.75310000  0.67130000  0.35910000  1.0 0.1188372826
H  H70  1  0.21650000  0.35910000  0.67130000  1.0 0.1188372826
H  H71  1  0.35910000  0.21650000  0.75310000  1.0 0.1188372826
H  H72  1  0.67130000  0.75310000  0.21650000  1.0 0.1188372826
H  H73  1  0.81090000  0.41970000  0.73010000  1.0 0.1267278624
H  H74  1  0.03930000  0.73010000  0.41970000  1.0 0.1267278624
H  H75  1  0.41970000  0.81090000  0.03930000  1.0 0.1267278624
H  H76  1  0.73010000  0.03930000  0.81090000  1.0 0.1267278624
H  H77  1  0.21070000  0.51990000  0.43910000  1.0 0.1267278624
H  H78  1  0.43910000  0.83030000  0.21070000  1.0 0.1267278624
H  H79  1  0.51990000  0.21070000  0.83030000  1.0 0.1267278624
H  H80  1  0.83030000  0.43910000  0.51990000  1.0 0.1267278624
H  H81  1  0.41970000  0.73010000  0.81090000  1.0 0.1267278624
H  H82  1  0.73010000  0.41970000  0.03930000  1.0 0.1267278624
H  H83  1  0.03930000  0.81090000  0.73010000  1.0 0.1267278624
H  H84  1  0.81090000  0.03930000  0.41970000  1.0 0.1267278624
H  H85  1  0.21070000  0.43910000  0.83030000  1.0 0.1267278624
H  H86  1  0.51990000  0.83030000  0.43910000  1.0 0.1267278624
H  H87  1  0.43910000  0.21070000  0.51990000  1.0 0.1267278624
H  H88  1  0.83030000  0.51990000  0.21070000  1.0 0.1267278624
H  H89  1  0.73010000  0.81090000  0.41970000  1.0 0.1267278624
H  H90  1  0.41970000  0.03930000  0.73010000  1.0 0.1267278624
H  H91  1  0.81090000  0.73010000  0.03930000  1.0 0.1267278624
H  H92  1  0.03930000  0.41970000  0.81090000  1.0 0.1267278624
H  H93  1  0.43910000  0.51990000  0.83030000  1.0 0.1267278624
H  H94  1  0.21070000  0.83030000  0.51990000  1.0 0.1267278624
H  H95  1  0.83030000  0.21070000  0.43910000  1.0 0.1267278624
H  H96  1  0.51990000  0.43910000  0.21070000  1.0 0.1267278624
H  H97  1  0.43910000  0.83030000  0.51990000  1.0 0.1267278624
H  H98  1  0.21070000  0.51990000  0.83030000  1.0 0.1267278624
H  H99  1  0.83030000  0.43910000  0.21070000  1.0 0.1267278624
H  H100  1  0.51990000  0.21070000  0.43910000  1.0 0.1267278624
H  H101  1  0.03930000  0.73010000  0.81090000  1.0 0.1267278624
H  H102  1  0.81090000  0.41970000  0.03930000  1.0 0.1267278624
H  H103  1  0.73010000  0.03930000  0.41970000  1.0 0.1267278624
H  H104  1  0.41970000  0.81090000  0.73010000  1.0 0.1267278624
H  H105  1  0.83030000  0.51990000  0.43910000  1.0 0.1267278624
H  H106  1  0.51990000  0.83030000  0.21070000  1.0 0.1267278624
H  H107  1  0.21070000  0.43910000  0.51990000  1.0 0.1267278624
H  H108  1  0.43910000  0.21070000  0.83030000  1.0 0.1267278624
H  H109  1  0.03930000  0.81090000  0.41970000  1.0 0.1267278624
H  H110  1  0.73010000  0.41970000  0.81090000  1.0 0.1267278624
H  H111  1  0.81090000  0.03930000  0.73010000  1.0 0.1267278624
H  H112  1  0.41970000  0.73010000  0.03930000  1.0 0.1267278624
H  H113  1  0.51990000  0.43910000  0.83030000  1.0 0.1267278624
H  H114  1  0.83030000  0.21070000  0.51990000  1.0 0.1267278624
H  H115  1  0.43910000  0.51990000  0.21070000  1.0 0.1267278624
H  H116  1  0.21070000  0.83030000  0.43910000  1.0 0.1267278624
H  H117  1  0.81090000  0.73010000  0.41970000  1.0 0.1267278624
H  H118  1  0.03930000  0.41970000  0.73010000  1.0 0.1267278624
H  H119  1  0.41970000  0.03930000  0.81090000  1.0 0.1267278624
H  H120  1  0.73010000  0.81090000  0.03930000  1.0 0.1267278624
H  H121  1  0.72210000  0.46950000  0.72210000  1.0 0.1267278624
H  H122  1  0.08630000  0.72210000  0.46950000  1.0 0.1267278624
H  H123  1  0.46950000  0.72210000  0.08630000  1.0 0.1267278624
H  H124  1  0.72210000  0.08630000  0.72210000  1.0 0.1267278624
H  H125  1  0.16370000  0.52790000  0.52790000  1.0 0.1267278624
H  H126  1  0.52790000  0.78050000  0.16370000  1.0 0.1267278624
H  H127  1  0.52790000  0.16370000  0.78050000  1.0 0.1267278624
H  H128  1  0.78050000  0.52790000  0.52790000  1.0 0.1267278624
H  H129  1  0.46950000  0.72210000  0.72210000  1.0 0.1267278624
H  H130  1  0.72210000  0.46950000  0.08630000  1.0 0.1267278624
H  H131  1  0.08630000  0.72210000  0.72210000  1.0 0.1267278624
H  H132  1  0.72210000  0.08630000  0.46950000  1.0 0.1267278624
H  H133  1  0.16370000  0.52790000  0.78050000  1.0 0.1267278624
H  H134  1  0.52790000  0.78050000  0.52790000  1.0 0.1267278624
H  H135  1  0.52790000  0.16370000  0.52790000  1.0 0.1267278624
H  H136  1  0.78050000  0.52790000  0.16370000  1.0 0.1267278624
H  H137  1  0.72210000  0.72210000  0.46950000  1.0 0.1267278624
H  H138  1  0.46950000  0.08630000  0.72210000  1.0 0.1267278624
H  H139  1  0.72210000  0.72210000  0.08630000  1.0 0.1267278624
H  H140  1  0.08630000  0.46950000  0.72210000  1.0 0.1267278624
H  H141  1  0.52790000  0.52790000  0.78050000  1.0 0.1267278624
H  H142  1  0.16370000  0.78050000  0.52790000  1.0 0.1267278624
H  H143  1  0.78050000  0.16370000  0.52790000  1.0 0.1267278624
H  H144  1  0.52790000  0.52790000  0.16370000  1.0 0.1267278624
H  H145  1  0.83510000  0.26470000  0.76810000  1.0 0.1188372826
H  H146  1  0.13210000  0.76810000  0.26470000  1.0 0.1188372826
H  H147  1  0.26470000  0.83510000  0.13210000  1.0 0.1188372826
H  H148  1  0.76810000  0.13210000  0.83510000  1.0 0.1188372826
H  H149  1  0.11790000  0.48190000  0.41490000  1.0 0.1188372826
H  H150  1  0.41490000  0.98530000  0.11790000  1.0 0.1188372826
H  H151  1  0.48190000  0.11790000  0.98530000  1.0 0.1188372826
H  H152  1  0.98530000  0.41490000  0.48190000  1.0 0.1188372826
H  H153  1  0.26470000  0.76810000  0.83510000  1.0 0.1188372826
H  H154  1  0.76810000  0.26470000  0.13210000  1.0 0.1188372826
H  H155  1  0.13210000  0.83510000  0.76810000  1.0 0.1188372826
H  H156  1  0.83510000  0.13210000  0.26470000  1.0 0.1188372826
H  H157  1  0.11790000  0.41490000  0.98530000  1.0 0.1188372826
H  H158  1  0.48190000  0.98530000  0.41490000  1.0 0.1188372826
H  H159  1  0.41490000  0.11790000  0.48190000  1.0 0.1188372826
H  H160  1  0.98530000  0.48190000  0.11790000  1.0 0.1188372826
H  H161  1  0.76810000  0.83510000  0.26470000  1.0 0.1188372826
H  H162  1  0.26470000  0.13210000  0.76810000  1.0 0.1188372826
H  H163  1  0.83510000  0.76810000  0.13210000  1.0 0.1188372826
H  H164  1  0.13210000  0.26470000  0.83510000  1.0 0.1188372826
H  H165  1  0.41490000  0.48190000  0.98530000  1.0 0.1188372826
H  H166  1  0.11790000  0.98530000  0.48190000  1.0 0.1188372826
H  H167  1  0.98530000  0.11790000  0.41490000  1.0 0.1188372826
H  H168  1  0.48190000  0.41490000  0.11790000  1.0 0.1188372826
H  H169  1  0.41490000  0.98530000  0.48190000  1.0 0.1188372826
H  H170  1  0.11790000  0.48190000  0.98530000  1.0 0.1188372826
H  H171  1  0.98530000  0.41490000  0.11790000  1.0 0.1188372826
H  H172  1  0.48190000  0.11790000  0.41490000  1.0 0.1188372826
H  H173  1  0.13210000  0.76810000  0.83510000  1.0 0.1188372826
H  H174  1  0.83510000  0.26470000  0.13210000  1.0 0.1188372826
H  H175  1  0.76810000  0.13210000  0.26470000  1.0 0.1188372826
H  H176  1  0.26470000  0.83510000  0.76810000  1.0 0.1188372826
H  H177  1  0.98530000  0.48190000  0.41490000  1.0 0.1188372826
H  H178  1  0.48190000  0.98530000  0.11790000  1.0 0.1188372826
H  H179  1  0.11790000  0.41490000  0.48190000  1.0 0.1188372826
H  H180  1  0.41490000  0.11790000  0.98530000  1.0 0.1188372826
H  H181  1  0.13210000  0.83510000  0.26470000  1.0 0.1188372826
H  H182  1  0.76810000  0.26470000  0.83510000  1.0 0.1188372826
H  H183  1  0.83510000  0.13210000  0.76810000  1.0 0.1188372826
H  H184  1  0.26470000  0.76810000  0.13210000  1.0 0.1188372826
H  H185  1  0.48190000  0.41490000  0.98530000  1.0 0.1188372826
H  H186  1  0.98530000  0.11790000  0.48190000  1.0 0.1188372826
H  H187  1  0.41490000  0.48190000  0.11790000  1.0 0.1188372826
H  H188  1  0.11790000  0.98530000  0.41490000  1.0 0.1188372826
H  H189  1  0.83510000  0.76810000  0.26470000  1.0 0.1188372826
H  H190  1  0.13210000  0.26470000  0.76810000  1.0 0.1188372826
H  H191  1  0.26470000  0.13210000  0.83510000  1.0 0.1188372826
H  H192  1  0.76810000  0.83510000  0.13210000  1.0 0.1188372826
H  H193  1  0.82550000  0.31730000  0.67870000  1.0 0.1267278624
H  H194  1  0.17850000  0.67870000  0.31730000  1.0 0.1267278624
H  H195  1  0.31730000  0.82550000  0.17850000  1.0 0.1267278624
H  H196  1  0.67870000  0.17850000  0.82550000  1.0 0.1267278624
H  H197  1  0.07150000  0.57130000  0.42450000  1.0 0.1267278624
H  H198  1  0.42450000  0.93270000  0.07150000  1.0 0.1188372826
H  H199  1  0.57130000  0.07150000  0.93270000  1.0 0.1267278624
H  H200  1  0.93270000  0.42450000  0.57130000  1.0 0.1267278624
H  H201  1  0.31730000  0.67870000  0.82550000  1.0 0.1267278624
H  H202  1  0.67870000  0.31730000  0.17850000  1.0 0.1188372826
H  H203  1  0.17850000  0.82550000  0.67870000  1.0 0.1267278624
H  H204  1  0.82550000  0.17850000  0.31730000  1.0 0.1267278624
H  H205  1  0.07150000  0.42450000  0.93270000  1.0 0.1267278624
H  H206  1  0.57130000  0.93270000  0.42450000  1.0 0.1267278624
H  H207  1  0.42450000  0.07150000  0.57130000  1.0 0.1267278624
H  H208  1  0.93270000  0.57130000  0.07150000  1.0 0.1267278624
H  H209  1  0.67870000  0.82550000  0.31730000  1.0 0.1267278624
H  H210  1  0.31730000  0.17850000  0.67870000  1.0 0.1267278624
H  H211  1  0.82550000  0.67870000  0.17850000  1.0 0.1267278624
H  H212  1  0.17850000  0.31730000  0.82550000  1.0 0.1267278624
H  H213  1  0.42450000  0.57130000  0.93270000  1.0 0.1267278624
H  H214  1  0.07150000  0.93270000  0.57130000  1.0 0.1267278624
H  H215  1  0.93270000  0.07150000  0.42450000  1.0 0.1267278624
H  H216  1  0.57130000  0.42450000  0.07150000  1.0 0.1188372826
H  H217  1  0.42450000  0.93270000  0.57130000  1.0 0.1188372826
H  H218  1  0.07150000  0.57130000  0.93270000  1.0 0.1267278624
H  H219  1  0.93270000  0.42450000  0.07150000  1.0 0.1267278624
H  H220  1  0.57130000  0.07150000  0.42450000  1.0 0.1267278624
H  H221  1  0.17850000  0.67870000  0.82550000  1.0 0.1267278624
H  H222  1  0.82550000  0.31730000  0.17850000  1.0 0.1188372826
H  H223  1  0.67870000  0.17850000  0.31730000  1.0 0.1267278624
H  H224  1  0.31730000  0.82550000  0.67870000  1.0 0.1267278624
H  H225  1  0.93270000  0.57130000  0.42450000  1.0 0.1267278624
H  H226  1  0.57130000  0.93270000  0.07150000  1.0 0.1188372826
H  H227  1  0.07150000  0.42450000  0.57130000  1.0 0.1267278624
H  H228  1  0.42450000  0.07150000  0.93270000  1.0 0.1188372826
H  H229  1  0.17850000  0.82550000  0.31730000  1.0 0.1267278624
H  H230  1  0.67870000  0.31730000  0.82550000  1.0 0.1267278624
H  H231  1  0.82550000  0.17850000  0.67870000  1.0 0.1267278624
H  H232  1  0.31730000  0.67870000  0.17850000  1.0 0.1267278624
H  H233  1  0.57130000  0.42450000  0.93270000  1.0 0.1267278624
H  H234  1  0.93270000  0.07150000  0.57130000  1.0 0.1267278624
H  H235  1  0.42450000  0.57130000  0.07150000  1.0 0.1188372826
H  H236  1  0.07150000  0.93270000  0.42450000  1.0 0.1267278624
H  H237  1  0.82550000  0.67870000  0.31730000  1.0 0.1267278624
H  H238  1  0.17850000  0.31730000  0.67870000  1.0 0.1267278624
H  H239  1  0.31730000  0.17850000  0.82550000  1.0 0.1267278624
H  H240  1  0.67870000  0.82550000  0.17850000  1.0 0.1267278624
H  H241  1  0.85590000  0.34910000  0.71410000  1.0 0.1027796156
H  H242  1  0.08090000  0.71410000  0.34910000  1.0 0.1027796156
H  H243  1  0.34910000  0.85590000  0.08090000  1.0 0.1027796156
H  H244  1  0.71410000  0.08090000  0.85590000  1.0 0.1027796156
H  H245  1  0.16910000  0.53590000  0.39410000  1.0 0.1027796156
H  H246  1  0.39410000  0.90090000  0.16910000  1.0 0.1027796156
H  H247  1  0.53590000  0.16910000  0.90090000  1.0 0.1027796156
H  H248  1  0.90090000  0.39410000  0.53590000  1.0 0.1027796156
H  H249  1  0.34910000  0.71410000  0.85590000  1.0 0.1027796156
H  H250  1  0.71410000  0.34910000  0.08090000  1.0 0.1027796156
H  H251  1  0.08090000  0.85590000  0.71410000  1.0 0.1027796156
H  H252  1  0.85590000  0.08090000  0.34910000  1.0 0.1027796156
H  H253  1  0.16910000  0.39410000  0.90090000  1.0 0.1027796156
H  H254  1  0.53590000  0.90090000  0.39410000  1.0 0.1027796156
H  H255  1  0.39410000  0.16910000  0.53590000  1.0 0.1027796156
H  H256  1  0.90090000  0.53590000  0.16910000  1.0 0.1027796156
H  H257  1  0.71410000  0.85590000  0.34910000  1.0 0.1027796156
H  H258  1  0.34910000  0.08090000  0.71410000  1.0 0.1027796156
H  H259  1  0.85590000  0.71410000  0.08090000  1.0 0.1027796156
H  H260  1  0.08090000  0.34910000  0.85590000  1.0 0.1027796156
H  H261  1  0.39410000  0.53590000  0.90090000  1.0 0.1027796156
H  H262  1  0.16910000  0.90090000  0.53590000  1.0 0.1027796156
H  H263  1  0.90090000  0.16910000  0.39410000  1.0 0.1027796156
H  H264  1  0.53590000  0.39410000  0.16910000  1.0 0.1027796156
H  H265  1  0.39410000  0.90090000  0.53590000  1.0 0.1027796156
H  H266  1  0.16910000  0.53590000  0.90090000  1.0 0.1027796156
H  H267  1  0.90090000  0.39410000  0.16910000  1.0 0.1027796156
H  H268  1  0.53590000  0.16910000  0.39410000  1.0 0.1027796156
H  H269  1  0.08090000  0.71410000  0.85590000  1.0 0.1027796156
H  H270  1  0.85590000  0.34910000  0.08090000  1.0 0.1027796156
H  H271  1  0.71410000  0.08090000  0.34910000  1.0 0.1027796156
H  H272  1  0.34910000  0.85590000  0.71410000  1.0 0.1027796156
H  H273  1  0.90090000  0.53590000  0.39410000  1.0 0.1027796156
H  H274  1  0.53590000  0.90090000  0.16910000  1.0 0.1027796156
H  H275  1  0.16910000  0.39410000  0.53590000  1.0 0.1027796156
H  H276  1  0.39410000  0.16910000  0.90090000  1.0 0.1027796156
H  H277  1  0.08090000  0.85590000  0.34910000  1.0 0.1027796156
H  H278  1  0.71410000  0.34910000  0.85590000  1.0 0.1027796156
H  H279  1  0.85590000  0.08090000  0.71410000  1.0 0.1027796156
H  H280  1  0.34910000  0.71410000  0.08090000  1.0 0.1027796156
H  H281  1  0.53590000  0.39410000  0.90090000  1.0 0.1027796156
H  H282  1  0.90090000  0.16910000  0.53590000  1.0 0.1027796156
H  H283  1  0.39410000  0.53590000  0.16910000  1.0 0.1027796156
H  H284  1  0.16910000  0.90090000  0.39410000  1.0 0.1027796156
H  H285  1  0.85590000  0.71410000  0.34910000  1.0 0.1027796156
H  H286  1  0.08090000  0.34910000  0.71410000  1.0 0.1027796156
H  H287  1  0.34910000  0.08090000  0.85590000  1.0 0.1027796156
H  H288  1  0.71410000  0.85590000  0.08090000  1.0 0.1027796156
H  H289  1  0.90470000  0.36550000  0.82510000  1.0 0.1188372826
H  H290  1  0.90470000  0.82510000  0.36550000  1.0 0.1188372826
H  H291  1  0.36550000  0.90470000  0.90470000  1.0 0.1188372826
H  H292  1  0.82510000  0.90470000  0.90470000  1.0 0.1188372826
H  H293  1  0.34530000  0.42490000  0.34530000  1.0 0.1188372826
H  H294  1  0.34530000  0.88450000  0.34530000  1.0 0.1188372826
H  H295  1  0.42490000  0.34530000  0.88450000  1.0 0.1188372826
H  H296  1  0.88450000  0.34530000  0.42490000  1.0 0.1188372826
H  H297  1  0.36550000  0.82510000  0.90470000  1.0 0.1188372826
H  H298  1  0.82510000  0.36550000  0.90470000  1.0 0.1188372826
H  H299  1  0.90470000  0.90470000  0.82510000  1.0 0.1188372826
H  H300  1  0.90470000  0.90470000  0.36550000  1.0 0.1188372826
H  H301  1  0.34530000  0.34530000  0.88450000  1.0 0.1188372826
H  H302  1  0.42490000  0.88450000  0.34530000  1.0 0.1188372826
H  H303  1  0.34530000  0.34530000  0.42490000  1.0 0.1188372826
H  H304  1  0.88450000  0.42490000  0.34530000  1.0 0.1188372826
H  H305  1  0.82510000  0.90470000  0.36550000  1.0 0.1188372826
H  H306  1  0.36550000  0.90470000  0.82510000  1.0 0.1188372826
H  H307  1  0.90470000  0.82510000  0.90470000  1.0 0.1188372826
H  H308  1  0.90470000  0.36550000  0.90470000  1.0 0.1188372826
H  H309  1  0.34530000  0.42490000  0.88450000  1.0 0.1188372826
H  H310  1  0.34530000  0.88450000  0.42490000  1.0 0.1188372826
H  H311  1  0.88450000  0.34530000  0.34530000  1.0 0.1188372826
H  H312  1  0.42490000  0.34530000  0.34530000  1.0 0.1188372826
H  H313  1  0.94950000  0.30010000  0.80090000  1.0 0.1188372826
H  H314  1  0.94950000  0.80090000  0.30010000  1.0 0.1188372826
H  H315  1  0.30010000  0.94950000  0.94950000  1.0 0.1188372826
H  H316  1  0.80090000  0.94950000  0.94950000  1.0 0.1188372826
H  H317  1  0.30050000  0.44910000  0.30050000  1.0 0.1188372826
H  H318  1  0.30050000  0.94990000  0.30050000  1.0 0.1188372826
H  H319  1  0.44910000  0.30050000  0.94990000  1.0 0.1188372826
H  H320  1  0.94990000  0.30050000  0.44910000  1.0 0.1188372826
H  H321  1  0.30010000  0.80090000  0.94950000  1.0 0.1188372826
H  H322  1  0.80090000  0.30010000  0.94950000  1.0 0.1188372826
H  H323  1  0.94950000  0.94950000  0.80090000  1.0 0.1188372826
H  H324  1  0.94950000  0.94950000  0.30010000  1.0 0.1188372826
H  H325  1  0.30050000  0.30050000  0.94990000  1.0 0.1188372826
H  H326  1  0.44910000  0.94990000  0.30050000  1.0 0.1188372826
H  H327  1  0.30050000  0.30050000  0.44910000  1.0 0.1188372826
H  H328  1  0.94990000  0.44910000  0.30050000  1.0 0.1188372826
H  H329  1  0.80090000  0.94950000  0.30010000  1.0 0.1188372826
H  H330  1  0.30010000  0.94950000  0.80090000  1.0 0.1188372826
H  H331  1  0.94950000  0.80090000  0.94950000  1.0 0.1188372826
H  H332  1  0.94950000  0.30010000  0.94950000  1.0 0.1188372826
H  H333  1  0.30050000  0.44910000  0.94990000  1.0 0.1188372826
H  H334  1  0.30050000  0.94990000  0.44910000  1.0 0.1188372826
H  H335  1  0.94990000  0.30050000  0.30050000  1.0 0.1188372826
H  H336  1  0.44910000  0.30050000  0.30050000  1.0 0.1188372826
H  H337  1  0.92280000  0.22000000  0.85620000  1.0 0.1188372826
H  H338  1  0.00100000  0.85620000  0.22000000  1.0 0.1188372826
H  H339  1  0.22000000  0.92280000  0.00100000  1.0 0.1188372826
H  H340  1  0.85620000  0.00100000  0.92280000  1.0 0.1188372826
H  H341  1  0.24900000  0.39380000  0.32720000  1.0 0.1188372826
H  H342  1  0.32720000  0.03000000  0.24900000  1.0 0.1188372826
H  H343  1  0.39380000  0.24900000  0.03000000  1.0 0.1188372826
H  H344  1  0.03000000  0.32720000  0.39380000  1.0 0.1188372826
H  H345  1  0.22000000  0.85620000  0.92280000  1.0 0.1188372826
H  H346  1  0.85620000  0.22000000  0.00100000  1.0 0.1188372826
H  H347  1  0.00100000  0.92280000  0.85620000  1.0 0.1188372826
H  H348  1  0.92280000  0.00100000  0.22000000  1.0 0.1188372826
H  H349  1  0.24900000  0.32720000  0.03000000  1.0 0.1188372826
H  H350  1  0.39380000  0.03000000  0.32720000  1.0 0.1188372826
H  H351  1  0.32720000  0.24900000  0.39380000  1.0 0.1188372826
H  H352  1  0.03000000  0.39380000  0.24900000  1.0 0.1188372826
H  H353  1  0.85620000  0.92280000  0.22000000  1.0 0.1188372826
H  H354  1  0.22000000  0.00100000  0.85620000  1.0 0.1188372826
H  H355  1  0.92280000  0.85620000  0.00100000  1.0 0.1188372826
H  H356  1  0.00100000  0.22000000  0.92280000  1.0 0.1188372826
H  H357  1  0.32720000  0.39380000  0.03000000  1.0 0.1188372826
H  H358  1  0.24900000  0.03000000  0.39380000  1.0 0.1188372826
H  H359  1  0.03000000  0.24900000  0.32720000  1.0 0.1188372826
H  H360  1  0.39380000  0.32720000  0.24900000  1.0 0.1188372826
H  H361  1  0.32720000  0.03000000  0.39380000  1.0 0.1188372826
H  H362  1  0.24900000  0.39380000  0.03000000  1.0 0.1188372826
H  H363  1  0.03000000  0.32720000  0.24900000  1.0 0.1188372826
H  H364  1  0.39380000  0.24900000  0.32720000  1.0 0.1188372826
H  H365  1  0.00100000  0.85620000  0.92280000  1.0 0.1188372826
H  H366  1  0.92280000  0.22000000  0.00100000  1.0 0.1188372826
H  H367  1  0.85620000  0.00100000  0.22000000  1.0 0.1188372826
H  H368  1  0.22000000  0.92280000  0.85620000  1.0 0.1188372826
H  H369  1  0.03000000  0.39380000  0.32720000  1.0 0.1188372826
H  H370  1  0.39380000  0.03000000  0.24900000  1.0 0.1188372826
H  H371  1  0.24900000  0.32720000  0.39380000  1.0 0.1188372826
H  H372  1  0.32720000  0.24900000  0.03000000  1.0 0.1188372826
H  H373  1  0.00100000  0.92280000  0.22000000  1.0 0.1188372826
H  H374  1  0.85620000  0.22000000  0.92280000  1.0 0.1188372826
H  H375  1  0.92280000  0.00100000  0.85620000  1.0 0.1188372826
H  H376  1  0.22000000  0.85620000  0.00100000  1.0 0.1188372826
H  H377  1  0.39380000  0.32720000  0.03000000  1.0 0.1188372826
H  H378  1  0.03000000  0.24900000  0.39380000  1.0 0.1188372826
H  H379  1  0.32720000  0.39380000  0.24900000  1.0 0.1188372826
H  H380  1  0.24900000  0.03000000  0.32720000  1.0 0.1188372826
H  H381  1  0.92280000  0.85620000  0.22000000  1.0 0.1188372826
H  H382  1  0.00100000  0.22000000  0.85620000  1.0 0.1188372826
H  H383  1  0.22000000  0.00100000  0.92280000  1.0 0.1188372826
H  H384  1  0.85620000  0.92280000  0.00100000  1.0 0.1188372826
H  H385  1  0.97630000  0.05690000  0.05690000  1.0 0.1188372826
H  H386  1  0.90990000  0.05690000  0.05690000  1.0 0.1188372826
H  H387  1  0.05690000  0.97630000  0.90990000  1.0 0.1188372826
H  H388  1  0.05690000  0.90990000  0.97630000  1.0 0.1188372826
H  H389  1  0.34010000  0.19310000  0.27370000  1.0 0.1188372826
H  H390  1  0.27370000  0.19310000  0.34010000  1.0 0.1188372826
H  H391  1  0.19310000  0.34010000  0.19310000  1.0 0.1188372826
H  H392  1  0.19310000  0.27370000  0.19310000  1.0 0.1188372826
H  H393  1  0.05690000  0.05690000  0.97630000  1.0 0.1188372826
H  H394  1  0.05690000  0.05690000  0.90990000  1.0 0.1188372826
H  H395  1  0.90990000  0.97630000  0.05690000  1.0 0.1188372826
H  H396  1  0.97630000  0.90990000  0.05690000  1.0 0.1188372826
H  H397  1  0.34010000  0.27370000  0.19310000  1.0 0.1188372826
H  H398  1  0.19310000  0.19310000  0.27370000  1.0 0.1188372826
H  H399  1  0.27370000  0.34010000  0.19310000  1.0 0.1188372826
H  H400  1  0.19310000  0.19310000  0.34010000  1.0 0.1188372826
H  H401  1  0.05690000  0.97630000  0.05690000  1.0 0.1188372826
H  H402  1  0.05690000  0.90990000  0.05690000  1.0 0.1188372826
H  H403  1  0.97630000  0.05690000  0.90990000  1.0 0.1188372826
H  H404  1  0.90990000  0.05690000  0.97630000  1.0 0.1188372826
H  H405  1  0.27370000  0.19310000  0.19310000  1.0 0.1188372826
H  H406  1  0.34010000  0.19310000  0.19310000  1.0 0.1188372826
H  H407  1  0.19310000  0.34010000  0.27370000  1.0 0.1188372826
H  H408  1  0.19310000  0.27370000  0.34010000  1.0 0.1188372826
W  W1  1  0.09120000  0.09120000  0.89020000  1.0 0.0327525727
W  W2  1  0.92740000  0.89020000  0.09120000  1.0 0.0367223933
W  W3  1  0.09120000  0.09120000  0.92740000  1.0 0.0327525727
W  W4  1  0.89020000  0.92740000  0.09120000  1.0 0.0367223933
W  W5  1  0.32260000  0.35980000  0.15880000  1.0 0.0367223933
W  W6  1  0.15880000  0.15880000  0.32260000  1.0 0.0367223933
W  W7  1  0.35980000  0.32260000  0.15880000  1.0 0.0367223933
W  W8  1  0.15880000  0.15880000  0.35980000  1.0 0.0367223933
W  W9  1  0.09120000  0.89020000  0.09120000  1.0 0.0367223933
W  W10  1  0.89020000  0.09120000  0.92740000  1.0 0.0327525727
W  W11  1  0.92740000  0.09120000  0.89020000  1.0 0.0327525727
W  W12  1  0.09120000  0.92740000  0.09120000  1.0 0.0367223933
W  W13  1  0.32260000  0.15880000  0.15880000  1.0 0.0367223933
W  W14  1  0.35980000  0.15880000  0.15880000  1.0 0.0367223933
W  W15  1  0.15880000  0.32260000  0.35980000  1.0 0.0367223933
W  W16  1  0.15880000  0.35980000  0.32260000  1.0 0.0367223933
W  W17  1  0.89020000  0.09120000  0.09120000  1.0 0.0367223933
W  W18  1  0.09120000  0.92740000  0.89020000  1.0 0.0327525727
W  W19  1  0.09120000  0.89020000  0.92740000  1.0 0.0327525727
W  W20  1  0.92740000  0.09120000  0.09120000  1.0 0.0367223933
W  W21  1  0.15880000  0.35980000  0.15880000  1.0 0.0367223933
W  W22  1  0.32260000  0.15880000  0.35980000  1.0 0.0367223933
W  W23  1  0.15880000  0.32260000  0.15880000  1.0 0.0367223933
W  W24  1  0.35980000  0.15880000  0.32260000  1.0 0.0367223933
W  W25  1  0.85400000  0.18060000  0.89860000  1.0 0.2381967186
W  W26  1  0.06680000  0.89860000  0.18060000  1.0 0.2288693364
W  W27  1  0.18060000  0.85400000  0.06680000  1.0 0.2288693364
W  W28  1  0.89860000  0.06680000  0.85400000  1.0 0.2288693364
W  W29  1  0.18320000  0.35140000  0.39600000  1.0 0.2288693364
W  W30  1  0.39600000  0.06940000  0.18320000  1.0 0.2288693364
W  W31  1  0.35140000  0.18320000  0.06940000  1.0 0.2288693364
W  W32  1  0.06940000  0.39600000  0.35140000  1.0 0.2288693364
W  W33  1  0.18060000  0.89860000  0.85400000  1.0 0.2288693364
W  W34  1  0.89860000  0.18060000  0.06680000  1.0 0.2288693364
W  W35  1  0.06680000  0.85400000  0.89860000  1.0 0.2288693364
W  W36  1  0.85400000  0.06680000  0.18060000  1.0 0.2288693364
W  W37  1  0.18320000  0.39600000  0.06940000  1.0 0.2288693364
W  W38  1  0.35140000  0.06940000  0.39600000  1.0 0.2288693364
W  W39  1  0.39600000  0.18320000  0.35140000  1.0 0.2288693364
W  W40  1  0.06940000  0.35140000  0.18320000  1.0 0.2288693364
W  W41  1  0.89860000  0.85400000  0.18060000  1.0 0.2288693364
W  W42  1  0.18060000  0.06680000  0.89860000  1.0 0.2381967186
W  W43  1  0.85400000  0.89860000  0.06680000  1.0 0.2288693364
W  W44  1  0.06680000  0.18060000  0.85400000  1.0 0.2288693364
W  W45  1  0.39600000  0.35140000  0.06940000  1.0 0.2288693364
W  W46  1  0.18320000  0.06940000  0.35140000  1.0 0.2288693364
W  W47  1  0.06940000  0.18320000  0.39600000  1.0 0.2288693364
W  W48  1  0.35140000  0.39600000  0.18320000  1.0 0.2288693364
W  W49  1  0.39600000  0.06940000  0.35140000  1.0 0.2288693364
W  W50  1  0.18320000  0.35140000  0.06940000  1.0 0.2288693364
W  W51  1  0.06940000  0.39600000  0.18320000  1.0 0.2288693364
W  W52  1  0.35140000  0.18320000  0.39600000  1.0 0.2288693364
W  W53  1  0.06680000  0.89860000  0.85400000  1.0 0.2288693364
W  W54  1  0.85400000  0.18060000  0.06680000  1.0 0.2288693364
W  W55  1  0.89860000  0.06680000  0.18060000  1.0 0.2288693364
W  W56  1  0.18060000  0.85400000  0.89860000  1.0 0.2288693364
W  W57  1  0.06940000  0.35140000  0.39600000  1.0 0.2288693364
W  W58  1  0.35140000  0.06940000  0.18320000  1.0 0.2288693364
W  W59  1  0.18320000  0.39600000  0.35140000  1.0 0.2288693364
W  W60  1  0.39600000  0.18320000  0.06940000  1.0 0.2288693364
W  W61  1  0.06680000  0.85400000  0.18060000  1.0 0.2288693364
W  W62  1  0.89860000  0.18060000  0.85400000  1.0 0.2133900167
W  W63  1  0.85400000  0.06680000  0.89860000  1.0 0.2288693364
W  W64  1  0.18060000  0.89860000  0.06680000  1.0 0.2288693364
W  W65  1  0.35140000  0.39600000  0.06940000  1.0 0.2288693364
W  W66  1  0.06940000  0.18320000  0.35140000  1.0 0.2288693364
W  W67  1  0.39600000  0.35140000  0.18320000  1.0 0.2288693364
W  W68  1  0.18320000  0.06940000  0.39600000  1.0 0.2288693364
W  W69  1  0.85400000  0.89860000  0.18060000  1.0 0.2288693364
W  W70  1  0.06680000  0.18060000  0.89860000  1.0 0.2288693364
W  W71  1  0.18060000  0.06680000  0.85400000  1.0 0.2133900167
W  W72  1  0.89860000  0.85400000  0.06680000  1.0 0.2288693364
W  W73  1  0.80660000  0.20680000  0.85160000  1.0 0.0888254008
W  W74  1  0.13500000  0.85160000  0.20680000  1.0 0.0888254008
W  W75  1  0.20680000  0.80660000  0.13500000  1.0 0.0888254008
W  W76  1  0.85160000  0.13500000  0.80660000  1.0 0.0888254008
W  W77  1  0.11500000  0.39840000  0.44340000  1.0 0.0888254008
W  W78  1  0.44340000  0.04320000  0.11500000  1.0 0.0888254008
W  W79  1  0.39840000  0.11500000  0.04320000  1.0 0.0888254008
W  W80  1  0.04320000  0.44340000  0.39840000  1.0 0.0888254008
W  W81  1  0.20680000  0.85160000  0.80660000  1.0 0.0888254008
W  W82  1  0.85160000  0.20680000  0.13500000  1.0 0.0888254008
W  W83  1  0.13500000  0.80660000  0.85160000  1.0 0.0888254008
W  W84  1  0.80660000  0.13500000  0.20680000  1.0 0.0888254008
W  W85  1  0.11500000  0.44340000  0.04320000  1.0 0.0888254008
W  W86  1  0.39840000  0.04320000  0.44340000  1.0 0.0888254008
W  W87  1  0.44340000  0.11500000  0.39840000  1.0 0.0888254008
W  W88  1  0.04320000  0.39840000  0.11500000  1.0 0.0888254008
W  W89  1  0.85160000  0.80660000  0.20680000  1.0 0.0888254008
W  W90  1  0.20680000  0.13500000  0.85160000  1.0 0.0888254008
W  W91  1  0.80660000  0.85160000  0.13500000  1.0 0.0888254008
W  W92  1  0.13500000  0.20680000  0.80660000  1.0 0.0888254008
W  W93  1  0.44340000  0.39840000  0.04320000  1.0 0.0888254008
W  W94  1  0.11500000  0.04320000  0.39840000  1.0 0.0888254008
W  W95  1  0.04320000  0.11500000  0.44340000  1.0 0.0888254008
W  W96  1  0.39840000  0.44340000  0.11500000  1.0 0.0888254008
W  W97  1  0.44340000  0.04320000  0.39840000  1.0 0.0888254008
W  W98  1  0.11500000  0.39840000  0.04320000  1.0 0.0888254008
W  W99  1  0.04320000  0.44340000  0.11500000  1.0 0.0888254008
W  W100  1  0.39840000  0.11500000  0.44340000  1.0 0.0888254008
W  W101  1  0.13500000  0.85160000  0.80660000  1.0 0.0888254008
W  W102  1  0.80660000  0.20680000  0.13500000  1.0 0.0888254008
W  W103  1  0.85160000  0.13500000  0.20680000  1.0 0.0888254008
W  W104  1  0.20680000  0.80660000  0.85160000  1.0 0.0888254008
W  W105  1  0.04320000  0.39840000  0.44340000  1.0 0.0888254008
W  W106  1  0.39840000  0.04320000  0.11500000  1.0 0.0888254008
W  W107  1  0.11500000  0.44340000  0.39840000  1.0 0.0888254008
W  W108  1  0.44340000  0.11500000  0.04320000  1.0 0.0888254008
W  W109  1  0.13500000  0.80660000  0.20680000  1.0 0.0888254008
W  W110  1  0.85160000  0.20680000  0.80660000  1.0 0.0888254008
W  W111  1  0.80660000  0.13500000  0.85160000  1.0 0.0888254008
W  W112  1  0.20680000  0.85160000  0.13500000  1.0 0.0888254008
W  W113  1  0.39840000  0.44340000  0.04320000  1.0 0.0888254008
W  W114  1  0.04320000  0.11500000  0.39840000  1.0 0.0888254008
W  W115  1  0.44340000  0.39840000  0.11500000  1.0 0.0888254008
W  W116  1  0.11500000  0.04320000  0.44340000  1.0 0.0888254008
W  W117  1  0.80660000  0.85160000  0.20680000  1.0 0.0888254008
W  W118  1  0.13500000  0.20680000  0.85160000  1.0 0.0888254008
W  W119  1  0.20680000  0.13500000  0.80660000  1.0 0.0888254008
W  W120  1  0.85160000  0.80660000  0.13500000  1.0 0.0888254008
W  W121  1  0.78820000  0.25540000  0.61920000  1.0 0.2196456049
W  W122  1  0.33720000  0.61920000  0.25540000  1.0 0.2196456049
W  W123  1  0.25540000  0.78820000  0.33720000  1.0 0.2196456049
W  W124  1  0.61920000  0.33720000  0.78820000  1.0 0.2196456049
W  W125  1  0.91280000  0.63080000  0.46180000  1.0 0.2196456049
W  W126  1  0.46180000  0.99460000  0.91280000  1.0 0.2196456049
W  W127  1  0.63080000  0.91280000  0.99460000  1.0 0.2133900167
W  W128  1  0.99460000  0.46180000  0.63080000  1.0 0.2381967186
W  W129  1  0.25540000  0.61920000  0.78820000  1.0 0.2196456049
W  W130  1  0.61920000  0.25540000  0.33720000  1.0 0.2196456049
W  W131  1  0.33720000  0.78820000  0.61920000  1.0 0.2196456049
W  W132  1  0.78820000  0.33720000  0.25540000  1.0 0.2196456049
W  W133  1  0.91280000  0.46180000  0.99460000  1.0 0.2133900167
W  W134  1  0.63080000  0.99460000  0.46180000  1.0 0.2196456049
W  W135  1  0.46180000  0.91280000  0.63080000  1.0 0.2196456049
W  W136  1  0.99460000  0.63080000  0.91280000  1.0 0.2196456049
W  W137  1  0.61920000  0.78820000  0.25540000  1.0 0.2196456049
W  W138  1  0.25540000  0.33720000  0.61920000  1.0 0.2196456049
W  W139  1  0.78820000  0.61920000  0.33720000  1.0 0.2196456049
W  W140  1  0.33720000  0.25540000  0.78820000  1.0 0.2196456049
W  W141  1  0.46180000  0.63080000  0.99460000  1.0 0.2133900167
W  W142  1  0.91280000  0.99460000  0.63080000  1.0 0.2196456049
W  W143  1  0.99460000  0.91280000  0.46180000  1.0 0.2196456049
W  W144  1  0.63080000  0.46180000  0.91280000  1.0 0.2196456049
W  W145  1  0.46180000  0.99460000  0.63080000  1.0 0.2288693364
W  W146  1  0.91280000  0.63080000  0.99460000  1.0 0.2133900167
W  W147  1  0.99460000  0.46180000  0.91280000  1.0 0.2196456049
W  W148  1  0.63080000  0.91280000  0.46180000  1.0 0.2196456049
W  W149  1  0.33720000  0.61920000  0.78820000  1.0 0.2196456049
W  W150  1  0.78820000  0.25540000  0.33720000  1.0 0.2196456049
W  W151  1  0.61920000  0.33720000  0.25540000  1.0 0.2196456049
W  W152  1  0.25540000  0.78820000  0.61920000  1.0 0.2196456049
W  W153  1  0.99460000  0.63080000  0.46180000  1.0 0.2196456049
W  W154  1  0.63080000  0.99460000  0.91280000  1.0 0.2133900167
W  W155  1  0.91280000  0.46180000  0.63080000  1.0 0.2381967186
W  W156  1  0.46180000  0.91280000  0.99460000  1.0 0.2133900167
W  W157  1  0.33720000  0.78820000  0.25540000  1.0 0.2196456049
W  W158  1  0.61920000  0.25540000  0.78820000  1.0 0.2196456049
W  W159  1  0.78820000  0.33720000  0.61920000  1.0 0.2196456049
W  W160  1  0.25540000  0.61920000  0.33720000  1.0 0.2196456049
W  W161  1  0.63080000  0.46180000  0.99460000  1.0 0.2133900167
W  W162  1  0.99460000  0.91280000  0.63080000  1.0 0.2196456049
W  W163  1  0.46180000  0.63080000  0.91280000  1.0 0.2196456049
W  W164  1  0.91280000  0.99460000  0.46180000  1.0 0.2196456049
W  W165  1  0.78820000  0.61920000  0.25540000  1.0 0.2196456049
W  W166  1  0.33720000  0.25540000  0.61920000  1.0 0.2196456049
W  W167  1  0.25540000  0.33720000  0.78820000  1.0 0.2196456049
W  W168  1  0.61920000  0.78820000  0.33720000  1.0 0.2196456049
W  W169  1  0.87760000  0.34520000  0.55680000  1.0 0.7828850742
W  W170  1  0.22040000  0.55680000  0.34520000  1.0 0.7828850742
W  W171  1  0.34520000  0.87760000  0.22040000  1.0 0.7828850742
W  W172  1  0.55680000  0.22040000  0.87760000  1.0 0.7828850742
W  W173  1  0.02960000  0.69320000  0.37240000  1.0 0.7828850742
W  W174  1  0.37240000  0.90480000  0.02960000  1.0 0.7857489301
W  W175  1  0.69320000  0.02960000  0.90480000  1.0 0.7828850742
W  W176  1  0.90480000  0.37240000  0.69320000  1.0 0.7857489301
W  W177  1  0.34520000  0.55680000  0.87760000  1.0 0.7828850742
W  W178  1  0.55680000  0.34520000  0.22040000  1.0 0.7828850742
W  W179  1  0.22040000  0.87760000  0.55680000  1.0 0.7828850742
W  W180  1  0.87760000  0.22040000  0.34520000  1.0 0.7828850742
W  W181  1  0.02960000  0.37240000  0.90480000  1.0 0.7828850742
W  W182  1  0.69320000  0.90480000  0.37240000  1.0 0.7828850742
W  W183  1  0.37240000  0.02960000  0.69320000  1.0 0.7857489301
W  W184  1  0.90480000  0.69320000  0.02960000  1.0 0.7857489301
W  W185  1  0.55680000  0.87760000  0.34520000  1.0 0.7828850742
W  W186  1  0.34520000  0.22040000  0.55680000  1.0 0.7828850742
W  W187  1  0.87760000  0.55680000  0.22040000  1.0 0.7828850742
W  W188  1  0.22040000  0.34520000  0.87760000  1.0 0.7828850742
W  W189  1  0.37240000  0.69320000  0.90480000  1.0 0.7828850742
W  W190  1  0.02960000  0.90480000  0.69320000  1.0 0.7828850742
W  W191  1  0.90480000  0.02960000  0.37240000  1.0 0.7828850742
W  W192  1  0.69320000  0.37240000  0.02960000  1.0 0.7828850742
W  W193  1  0.37240000  0.90480000  0.69320000  1.0 0.7828850742
W  W194  1  0.02960000  0.69320000  0.90480000  1.0 0.7828850742
W  W195  1  0.90480000  0.37240000  0.02960000  1.0 0.7857489301
W  W196  1  0.69320000  0.02960000  0.37240000  1.0 0.7828850742
W  W197  1  0.22040000  0.55680000  0.87760000  1.0 0.7828850742
W  W198  1  0.87760000  0.34520000  0.22040000  1.0 0.7828850742
W  W199  1  0.55680000  0.22040000  0.34520000  1.0 0.7828850742
W  W200  1  0.34520000  0.87760000  0.55680000  1.0 0.7828850742
W  W201  1  0.90480000  0.69320000  0.37240000  1.0 0.7828850742
W  W202  1  0.69320000  0.90480000  0.02960000  1.0 0.7857489301
W  W203  1  0.02960000  0.37240000  0.69320000  1.0 0.7857489301
W  W204  1  0.37240000  0.02960000  0.90480000  1.0 0.7828850742
W  W205  1  0.22040000  0.87760000  0.34520000  1.0 0.7828850742
W  W206  1  0.55680000  0.34520000  0.87760000  1.0 0.7828850742
W  W207  1  0.87760000  0.22040000  0.55680000  1.0 0.7828850742
W  W208  1  0.34520000  0.55680000  0.22040000  1.0 0.7828850742
W  W209  1  0.69320000  0.37240000  0.90480000  1.0 0.7828850742
W  W210  1  0.90480000  0.02960000  0.69320000  1.0 0.7828850742
W  W211  1  0.37240000  0.69320000  0.02960000  1.0 0.7828850742
W  W212  1  0.02960000  0.90480000  0.37240000  1.0 0.7828850742
W  W213  1  0.87760000  0.55680000  0.34520000  1.0 0.7828850742
W  W214  1  0.22040000  0.34520000  0.55680000  1.0 0.7828850742
W  W215  1  0.34520000  0.22040000  0.87760000  1.0 0.7828850742
W  W216  1  0.55680000  0.87760000  0.22040000  1.0 0.7828850742
W  W217  1  0.83060000  0.23600000  0.62480000  1.0 -0.0415640086
W  W218  1  0.30860000  0.62480000  0.23600000  1.0 -0.0415640086
W  W219  1  0.23600000  0.83060000  0.30860000  1.0 -0.0415640086
W  W220  1  0.62480000  0.30860000  0.83060000  1.0 -0.0415640086
W  W221  1  0.94140000  0.62520000  0.41940000  1.0 -0.0415640086
W  W222  1  0.41940000  0.01400000  0.94140000  1.0 -0.0415640086
W  W223  1  0.62520000  0.94140000  0.01400000  1.0 -0.0415640086
W  W224  1  0.01400000  0.41940000  0.62520000  1.0 -0.0484122813
W  W225  1  0.23600000  0.62480000  0.83060000  1.0 -0.0415640086
W  W226  1  0.62480000  0.23600000  0.30860000  1.0 -0.0415640086
W  W227  1  0.30860000  0.83060000  0.62480000  1.0 -0.0415640086
W  W228  1  0.83060000  0.30860000  0.23600000  1.0 -0.0415640086
W  W229  1  0.94140000  0.41940000  0.01400000  1.0 -0.0415640086
W  W230  1  0.62520000  0.01400000  0.41940000  1.0 -0.0415640086
W  W231  1  0.41940000  0.94140000  0.62520000  1.0 -0.0415640086
W  W232  1  0.01400000  0.62520000  0.94140000  1.0 -0.0415640086
W  W233  1  0.62480000  0.83060000  0.23600000  1.0 -0.0415640086
W  W234  1  0.23600000  0.30860000  0.62480000  1.0 -0.0415640086
W  W235  1  0.83060000  0.62480000  0.30860000  1.0 -0.0415640086
W  W236  1  0.30860000  0.23600000  0.83060000  1.0 -0.0415640086
W  W237  1  0.41940000  0.62520000  0.01400000  1.0 -0.0415640086
W  W238  1  0.94140000  0.01400000  0.62520000  1.0 -0.0415640086
W  W239  1  0.01400000  0.94140000  0.41940000  1.0 -0.0415640086
W  W240  1  0.62520000  0.41940000  0.94140000  1.0 -0.0484122813
W  W241  1  0.41940000  0.01400000  0.62520000  1.0 -0.0484122813
W  W242  1  0.94140000  0.62520000  0.01400000  1.0 -0.0415640086
W  W243  1  0.01400000  0.41940000  0.94140000  1.0 -0.0415640086
W  W244  1  0.62520000  0.94140000  0.41940000  1.0 -0.0415640086
W  W245  1  0.30860000  0.62480000  0.83060000  1.0 -0.0415640086
W  W246  1  0.83060000  0.23600000  0.30860000  1.0 -0.0415640086
W  W247  1  0.62480000  0.30860000  0.23600000  1.0 -0.0415640086
W  W248  1  0.23600000  0.83060000  0.62480000  1.0 -0.0415640086
W  W249  1  0.01400000  0.62520000  0.41940000  1.0 -0.0415640086
W  W250  1  0.62520000  0.01400000  0.94140000  1.0 -0.0415640086
W  W251  1  0.94140000  0.41940000  0.62520000  1.0 -0.0484122813
W  W252  1  0.41940000  0.94140000  0.01400000  1.0 -0.0415640086
W  W253  1  0.30860000  0.83060000  0.23600000  1.0 -0.0415640086
W  W254  1  0.62480000  0.23600000  0.83060000  1.0 -0.0415640086
W  W255  1  0.83060000  0.30860000  0.62480000  1.0 -0.0415640086
W  W256  1  0.23600000  0.62480000  0.30860000  1.0 -0.0415640086
W  W257  1  0.62520000  0.41940000  0.01400000  1.0 -0.0415640086
W  W258  1  0.01400000  0.94140000  0.62520000  1.0 -0.0415640086
W  W259  1  0.41940000  0.62520000  0.94140000  1.0 -0.0484122813
W  W260  1  0.94140000  0.01400000  0.41940000  1.0 -0.0415640086
W  W261  1  0.83060000  0.62480000  0.23600000  1.0 -0.0415640086
W  W262  1  0.30860000  0.23600000  0.62480000  1.0 -0.0415640086
W  W263  1  0.23600000  0.30860000  0.83060000  1.0 -0.0415640086
W  W264  1  0.62480000  0.83060000  0.30860000  1.0 -0.0415640086
W  W265  1  0.86550000  0.32130000  0.49190000  1.0 0.0888254008
W  W266  1  0.32130000  0.49190000  0.32130000  1.0 0.0888254008
W  W267  1  0.32130000  0.86550000  0.32130000  1.0 0.0888254008
W  W268  1  0.49190000  0.32130000  0.86550000  1.0 0.0888254008
W  W269  1  0.92870000  0.75810000  0.38450000  1.0 0.0888254008
W  W270  1  0.38450000  0.92870000  0.92870000  1.0 0.0888254008
W  W271  1  0.75810000  0.92870000  0.92870000  1.0 0.0888254008
W  W272  1  0.92870000  0.38450000  0.75810000  1.0 0.0888254008
W  W273  1  0.32130000  0.49190000  0.86550000  1.0 0.0888254008
W  W274  1  0.49190000  0.32130000  0.32130000  1.0 0.0888254008
W  W275  1  0.32130000  0.86550000  0.49190000  1.0 0.0888254008
W  W276  1  0.86550000  0.32130000  0.32130000  1.0 0.0888254008
W  W277  1  0.92870000  0.38450000  0.92870000  1.0 0.0888254008
W  W278  1  0.75810000  0.92870000  0.38450000  1.0 0.0888254008
W  W279  1  0.38450000  0.92870000  0.75810000  1.0 0.0888254008
W  W280  1  0.92870000  0.75810000  0.92870000  1.0 0.0888254008
W  W281  1  0.49190000  0.86550000  0.32130000  1.0 0.0888254008
W  W282  1  0.32130000  0.32130000  0.49190000  1.0 0.0888254008
W  W283  1  0.86550000  0.49190000  0.32130000  1.0 0.0888254008
W  W284  1  0.32130000  0.32130000  0.86550000  1.0 0.0888254008
W  W285  1  0.38450000  0.75810000  0.92870000  1.0 0.0888254008
W  W286  1  0.92870000  0.92870000  0.75810000  1.0 0.0888254008
W  W287  1  0.92870000  0.92870000  0.38450000  1.0 0.0888254008
W  W288  1  0.75810000  0.38450000  0.92870000  1.0 0.0888254008
W  W289  1  0.89330000  0.29990000  0.50690000  1.0 -0.0484122813
W  W290  1  0.29990000  0.50690000  0.29990000  1.0 -0.0484122813
W  W291  1  0.29990000  0.89330000  0.29990000  1.0 -0.0484122813
W  W292  1  0.50690000  0.29990000  0.89330000  1.0 -0.0484122813
W  W293  1  0.95010000  0.74310000  0.35670000  1.0 -0.0484122813
W  W294  1  0.35670000  0.95010000  0.95010000  1.0 -0.0484122813
W  W295  1  0.74310000  0.95010000  0.95010000  1.0 -0.0484122813
W  W296  1  0.95010000  0.35670000  0.74310000  1.0 -0.0484122813
W  W297  1  0.29990000  0.50690000  0.89330000  1.0 -0.0601243021
W  W298  1  0.50690000  0.29990000  0.29990000  1.0 -0.0484122813
W  W299  1  0.29990000  0.89330000  0.50690000  1.0 -0.0484122813
W  W300  1  0.89330000  0.29990000  0.29990000  1.0 -0.0484122813
W  W301  1  0.95010000  0.35670000  0.95010000  1.0 -0.0484122813
W  W302  1  0.74310000  0.95010000  0.35670000  1.0 -0.0484122813
W  W303  1  0.35670000  0.95010000  0.74310000  1.0 -0.0484122813
W  W304  1  0.95010000  0.74310000  0.95010000  1.0 -0.0484122813
W  W305  1  0.50690000  0.89330000  0.29990000  1.0 -0.0484122813
W  W306  1  0.29990000  0.29990000  0.50690000  1.0 -0.0484122813
W  W307  1  0.89330000  0.50690000  0.29990000  1.0 -0.0484122813
W  W308  1  0.29990000  0.29990000  0.89330000  1.0 -0.0484122813
W  W309  1  0.35670000  0.74310000  0.95010000  1.0 -0.0484122813
W  W310  1  0.95010000  0.95010000  0.74310000  1.0 -0.0484122813
W  W311  1  0.95010000  0.95010000  0.35670000  1.0 -0.0484122813
W  W312  1  0.74310000  0.35670000  0.95010000  1.0 -0.0484122813
C  C1  1  0.75280000  0.41900000  0.65200000  1.0 0.6122409431
C  C2  1  0.17620000  0.65200000  0.41900000  1.0 0.6122409431
C  C3  1  0.41900000  0.75280000  0.17620000  1.0 0.6122409431
C  C4  1  0.65200000  0.17620000  0.75280000  1.0 0.6122409431
C  C5  1  0.07380000  0.59800000  0.49720000  1.0 0.6122409431
C  C6  1  0.49720000  0.83100000  0.07380000  1.0 0.6122409431
C  C7  1  0.59800000  0.07380000  0.83100000  1.0 0.6122409431
C  C8  1  0.83100000  0.49720000  0.59800000  1.0 0.6122409431
C  C9  1  0.41900000  0.65200000  0.75280000  1.0 0.6122409431
C  C10  1  0.65200000  0.41900000  0.17620000  1.0 0.6122409431
C  C11  1  0.17620000  0.75280000  0.65200000  1.0 0.6122409431
C  C12  1  0.75280000  0.17620000  0.41900000  1.0 0.6122409431
C  C13  1  0.07380000  0.49720000  0.83100000  1.0 0.6122409431
C  C14  1  0.59800000  0.83100000  0.49720000  1.0 0.6122409431
C  C15  1  0.49720000  0.07380000  0.59800000  1.0 0.6122409431
C  C16  1  0.83100000  0.59800000  0.07380000  1.0 0.6122409431
C  C17  1  0.65200000  0.75280000  0.41900000  1.0 0.6122409431
C  C18  1  0.41900000  0.17620000  0.65200000  1.0 0.6122409431
C  C19  1  0.75280000  0.65200000  0.17620000  1.0 0.6122409431
C  C20  1  0.17620000  0.41900000  0.75280000  1.0 0.6122409431
C  C21  1  0.49720000  0.59800000  0.83100000  1.0 0.6122409431
C  C22  1  0.07380000  0.83100000  0.59800000  1.0 0.6122409431
C  C23  1  0.83100000  0.07380000  0.49720000  1.0 0.6178572564
C  C24  1  0.59800000  0.49720000  0.07380000  1.0 0.6122409431
C  C25  1  0.49720000  0.83100000  0.59800000  1.0 0.6122409431
C  C26  1  0.07380000  0.59800000  0.83100000  1.0 0.6122409431
C  C27  1  0.83100000  0.49720000  0.07380000  1.0 0.6122409431
C  C28  1  0.59800000  0.07380000  0.49720000  1.0 0.6178572564
C  C29  1  0.17620000  0.65200000  0.75280000  1.0 0.6122409431
C  C30  1  0.75280000  0.41900000  0.17620000  1.0 0.6122409431
C  C31  1  0.65200000  0.17620000  0.41900000  1.0 0.6122409431
C  C32  1  0.41900000  0.75280000  0.65200000  1.0 0.6122409431
C  C33  1  0.83100000  0.59800000  0.49720000  1.0 0.6122409431
C  C34  1  0.59800000  0.83100000  0.07380000  1.0 0.6122409431
C  C35  1  0.07380000  0.49720000  0.59800000  1.0 0.6122409431
C  C36  1  0.49720000  0.07380000  0.83100000  1.0 0.6122409431
C  C37  1  0.17620000  0.75280000  0.41900000  1.0 0.6122409431
C  C38  1  0.65200000  0.41900000  0.75280000  1.0 0.6122409431
C  C39  1  0.75280000  0.17620000  0.65200000  1.0 0.6122409431
C  C40  1  0.41900000  0.65200000  0.17620000  1.0 0.6122409431
C  C41  1  0.59800000  0.49720000  0.83100000  1.0 0.6122409431
C  C42  1  0.83100000  0.07380000  0.59800000  1.0 0.6122409431
C  C43  1  0.49720000  0.59800000  0.07380000  1.0 0.6122409431
C  C44  1  0.07380000  0.83100000  0.49720000  1.0 0.6122409431
C  C45  1  0.75280000  0.65200000  0.41900000  1.0 0.6122409431
C  C46  1  0.17620000  0.41900000  0.65200000  1.0 0.6122409431
C  C47  1  0.41900000  0.17620000  0.75280000  1.0 0.6122409431
C  C48  1  0.65200000  0.75280000  0.17620000  1.0 0.6122409431
C  C49  1  0.72720000  0.40320000  0.67980000  1.0 -0.0200896382
C  C50  1  0.18980000  0.67980000  0.40320000  1.0 -0.0200896382
C  C51  1  0.40320000  0.72720000  0.18980000  1.0 -0.0200896382
C  C52  1  0.67980000  0.18980000  0.72720000  1.0 -0.0200896382
C  C53  1  0.06020000  0.57020000  0.52280000  1.0 -0.0200896382
C  C54  1  0.52280000  0.84680000  0.06020000  1.0 -0.0200896382
C  C55  1  0.57020000  0.06020000  0.84680000  1.0 -0.0200896382
C  C56  1  0.84680000  0.52280000  0.57020000  1.0 -0.0200896382
C  C57  1  0.40320000  0.67980000  0.72720000  1.0 -0.0200896382
C  C58  1  0.67980000  0.40320000  0.18980000  1.0 -0.0200896382
C  C59  1  0.18980000  0.72720000  0.67980000  1.0 -0.0200896382
C  C60  1  0.72720000  0.18980000  0.40320000  1.0 -0.0200896382
C  C61  1  0.06020000  0.52280000  0.84680000  1.0 -0.0200896382
C  C62  1  0.57020000  0.84680000  0.52280000  1.0 -0.0200896382
C  C63  1  0.52280000  0.06020000  0.57020000  1.0 -0.0200896382
C  C64  1  0.84680000  0.57020000  0.06020000  1.0 -0.0200896382
C  C65  1  0.67980000  0.72720000  0.40320000  1.0 -0.0200896382
C  C66  1  0.40320000  0.18980000  0.67980000  1.0 -0.0200896382
C  C67  1  0.72720000  0.67980000  0.18980000  1.0 -0.0200896382
C  C68  1  0.18980000  0.40320000  0.72720000  1.0 -0.0200896382
C  C69  1  0.52280000  0.57020000  0.84680000  1.0 -0.0200896382
C  C70  1  0.06020000  0.84680000  0.57020000  1.0 -0.0200896382
C  C71  1  0.84680000  0.06020000  0.52280000  1.0 -0.0200896382
C  C72  1  0.57020000  0.52280000  0.06020000  1.0 -0.0200896382
C  C73  1  0.52280000  0.84680000  0.57020000  1.0 -0.0200896382
C  C74  1  0.06020000  0.57020000  0.84680000  1.0 -0.0200896382
C  C75  1  0.84680000  0.52280000  0.06020000  1.0 -0.0200896382
C  C76  1  0.57020000  0.06020000  0.52280000  1.0 -0.0200896382
C  C77  1  0.18980000  0.67980000  0.72720000  1.0 -0.0200896382
C  C78  1  0.72720000  0.40320000  0.18980000  1.0 -0.0200896382
C  C79  1  0.67980000  0.18980000  0.40320000  1.0 -0.0200896382
C  C80  1  0.40320000  0.72720000  0.67980000  1.0 -0.0200896382
C  C81  1  0.84680000  0.57020000  0.52280000  1.0 -0.0200896382
C  C82  1  0.57020000  0.84680000  0.06020000  1.0 -0.0200896382
C  C83  1  0.06020000  0.52280000  0.57020000  1.0 -0.0200896382
C  C84  1  0.52280000  0.06020000  0.84680000  1.0 -0.0200896382
C  C85  1  0.18980000  0.72720000  0.40320000  1.0 -0.0200896382
C  C86  1  0.67980000  0.40320000  0.72720000  1.0 -0.0200896382
C  C87  1  0.72720000  0.18980000  0.67980000  1.0 -0.0200896382
C  C88  1  0.40320000  0.67980000  0.18980000  1.0 -0.0200896382
C  C89  1  0.57020000  0.52280000  0.84680000  1.0 -0.0200896382
C  C90  1  0.84680000  0.06020000  0.57020000  1.0 -0.0200896382
C  C91  1  0.52280000  0.57020000  0.06020000  1.0 -0.0200896382
C  C92  1  0.06020000  0.84680000  0.52280000  1.0 -0.0200896382
C  C93  1  0.72720000  0.67980000  0.40320000  1.0 -0.0200896382
C  C94  1  0.18980000  0.40320000  0.67980000  1.0 -0.0200896382
C  C95  1  0.40320000  0.18980000  0.72720000  1.0 -0.0200896382
C  C96  1  0.67980000  0.72720000  0.18980000  1.0 -0.0200896382
C  C97  1  0.70070000  0.41990000  0.70070000  1.0 -0.137127869
C  C98  1  0.17870000  0.70070000  0.41990000  1.0 -0.137127869
C  C99  1  0.41990000  0.70070000  0.17870000  1.0 -0.137127869
C  C100  1  0.70070000  0.17870000  0.70070000  1.0 -0.137127869
C  C101  1  0.07130000  0.54930000  0.54930000  1.0 -0.137127869
C  C102  1  0.54930000  0.83010000  0.07130000  1.0 -0.137127869
C  C103  1  0.54930000  0.07130000  0.83010000  1.0 -0.137127869
C  C104  1  0.83010000  0.54930000  0.54930000  1.0 -0.137127869
C  C105  1  0.41990000  0.70070000  0.70070000  1.0 -0.137127869
C  C106  1  0.70070000  0.41990000  0.17870000  1.0 -0.137127869
C  C107  1  0.17870000  0.70070000  0.70070000  1.0 -0.137127869
C  C108  1  0.70070000  0.17870000  0.41990000  1.0 -0.137127869
C  C109  1  0.07130000  0.54930000  0.83010000  1.0 -0.137127869
C  C110  1  0.54930000  0.83010000  0.54930000  1.0 -0.137127869
C  C111  1  0.54930000  0.07130000  0.54930000  1.0 -0.137127869
C  C112  1  0.83010000  0.54930000  0.07130000  1.0 -0.137127869
C  C113  1  0.70070000  0.70070000  0.41990000  1.0 -0.137127869
C  C114  1  0.41990000  0.17870000  0.70070000  1.0 -0.137127869
C  C115  1  0.70070000  0.70070000  0.17870000  1.0 -0.137127869
C  C116  1  0.17870000  0.41990000  0.70070000  1.0 -0.137127869
C  C117  1  0.54930000  0.54930000  0.83010000  1.0 -0.137127869
C  C118  1  0.07130000  0.83010000  0.54930000  1.0 -0.137127869
C  C119  1  0.83010000  0.07130000  0.54930000  1.0 -0.137127869
C  C120  1  0.54930000  0.54930000  0.07130000  1.0 -0.137127869
C  C121  1  0.73440000  0.37000000  0.68540000  1.0 -0.137127869
C  C122  1  0.21020000  0.68540000  0.37000000  1.0 -0.137127869
C  C123  1  0.37000000  0.73440000  0.21020000  1.0 -0.137127869
C  C124  1  0.68540000  0.21020000  0.73440000  1.0 -0.137127869
C  C125  1  0.03980000  0.56460000  0.51560000  1.0 -0.137127869
C  C126  1  0.51560000  0.88000000  0.03980000  1.0 -0.137127869
C  C127  1  0.56460000  0.03980000  0.88000000  1.0 -0.137127869
C  C128  1  0.88000000  0.51560000  0.56460000  1.0 -0.137127869
C  C129  1  0.37000000  0.68540000  0.73440000  1.0 -0.137127869
C  C130  1  0.68540000  0.37000000  0.21020000  1.0 -0.137127869
C  C131  1  0.21020000  0.73440000  0.68540000  1.0 -0.137127869
C  C132  1  0.73440000  0.21020000  0.37000000  1.0 -0.137127869
C  C133  1  0.03980000  0.51560000  0.88000000  1.0 -0.137127869
C  C134  1  0.56460000  0.88000000  0.51560000  1.0 -0.137127869
C  C135  1  0.51560000  0.03980000  0.56460000  1.0 -0.137127869
C  C136  1  0.88000000  0.56460000  0.03980000  1.0 -0.137127869
C  C137  1  0.68540000  0.73440000  0.37000000  1.0 -0.137127869
C  C138  1  0.37000000  0.21020000  0.68540000  1.0 -0.137127869
C  C139  1  0.73440000  0.68540000  0.21020000  1.0 -0.137127869
C  C140  1  0.21020000  0.37000000  0.73440000  1.0 -0.137127869
C  C141  1  0.51560000  0.56460000  0.88000000  1.0 -0.137127869
C  C142  1  0.03980000  0.88000000  0.56460000  1.0 -0.137127869
C  C143  1  0.88000000  0.03980000  0.51560000  1.0 -0.137127869
C  C144  1  0.56460000  0.51560000  0.03980000  1.0 -0.137127869
C  C145  1  0.51560000  0.88000000  0.56460000  1.0 -0.137127869
C  C146  1  0.03980000  0.56460000  0.88000000  1.0 -0.137127869
C  C147  1  0.88000000  0.51560000  0.03980000  1.0 -0.137127869
C  C148  1  0.56460000  0.03980000  0.51560000  1.0 -0.137127869
C  C149  1  0.21020000  0.68540000  0.73440000  1.0 -0.137127869
C  C150  1  0.73440000  0.37000000  0.21020000  1.0 -0.137127869
C  C151  1  0.68540000  0.21020000  0.37000000  1.0 -0.137127869
C  C152  1  0.37000000  0.73440000  0.68540000  1.0 -0.137127869
C  C153  1  0.88000000  0.56460000  0.51560000  1.0 -0.137127869
C  C154  1  0.56460000  0.88000000  0.03980000  1.0 -0.137127869
C  C155  1  0.03980000  0.51560000  0.56460000  1.0 -0.137127869
C  C156  1  0.51560000  0.03980000  0.88000000  1.0 -0.137127869
C  C157  1  0.21020000  0.73440000  0.37000000  1.0 -0.137127869
C  C158  1  0.68540000  0.37000000  0.73440000  1.0 -0.137127869
C  C159  1  0.73440000  0.21020000  0.68540000  1.0 -0.137127869
C  C160  1  0.37000000  0.68540000  0.21020000  1.0 -0.137127869
C  C161  1  0.56460000  0.51560000  0.88000000  1.0 -0.137127869
C  C162  1  0.88000000  0.03980000  0.56460000  1.0 -0.137127869
C  C163  1  0.51560000  0.56460000  0.03980000  1.0 -0.137127869
C  C164  1  0.03980000  0.88000000  0.51560000  1.0 -0.137127869
C  C165  1  0.73440000  0.68540000  0.37000000  1.0 -0.137127869
C  C166  1  0.21020000  0.37000000  0.68540000  1.0 -0.137127869
C  C167  1  0.37000000  0.21020000  0.73440000  1.0 -0.137127869
C  C168  1  0.68540000  0.73440000  0.21020000  1.0 -0.137127869
C  C169  1  0.71270000  0.35390000  0.71270000  1.0 -0.0269563487
C  C170  1  0.22070000  0.71270000  0.35390000  1.0 -0.0269563487
C  C171  1  0.35390000  0.71270000  0.22070000  1.0 -0.0269563487
C  C172  1  0.71270000  0.22070000  0.71270000  1.0 -0.0269563487
C  C173  1  0.02930000  0.53730000  0.53730000  1.0 -0.0269563487
C  C174  1  0.53730000  0.89610000  0.02930000  1.0 -0.0269563487
C  C175  1  0.53730000  0.02930000  0.89610000  1.0 -0.0269563487
C  C176  1  0.89610000  0.53730000  0.53730000  1.0 -0.0269563487
C  C177  1  0.35390000  0.71270000  0.71270000  1.0 -0.0269563487
C  C178  1  0.71270000  0.35390000  0.22070000  1.0 -0.0269563487
C  C179  1  0.22070000  0.71270000  0.71270000  1.0 -0.0269563487
C  C180  1  0.71270000  0.22070000  0.35390000  1.0 -0.0269563487
C  C181  1  0.02930000  0.53730000  0.89610000  1.0 -0.0269563487
C  C182  1  0.53730000  0.89610000  0.53730000  1.0 -0.0269563487
C  C183  1  0.53730000  0.02930000  0.53730000  1.0 -0.0269563487
C  C184  1  0.89610000  0.53730000  0.02930000  1.0 -0.0269563487
C  C185  1  0.71270000  0.71270000  0.35390000  1.0 -0.0269563487
C  C186  1  0.35390000  0.22070000  0.71270000  1.0 -0.0269563487
C  C187  1  0.71270000  0.71270000  0.22070000  1.0 -0.0269563487
C  C188  1  0.22070000  0.35390000  0.71270000  1.0 -0.0269563487
C  C189  1  0.53730000  0.53730000  0.89610000  1.0 -0.0269563487
C  C190  1  0.02930000  0.89610000  0.53730000  1.0 -0.0269563487
C  C191  1  0.89610000  0.02930000  0.53730000  1.0 -0.0269563487
C  C192  1  0.53730000  0.53730000  0.02930000  1.0 -0.0269563487
C  C193  1  0.72080000  0.31800000  0.72080000  1.0 0.6178572564
C  C194  1  0.24040000  0.72080000  0.31800000  1.0 0.6178572564
C  C195  1  0.31800000  0.72080000  0.24040000  1.0 0.6178572564
C  C196  1  0.72080000  0.24040000  0.72080000  1.0 0.6178572564
C  C197  1  0.00960000  0.52920000  0.52920000  1.0 0.6178572564
C  C198  1  0.52920000  0.93200000  0.00960000  1.0 0.6178572564
C  C199  1  0.52920000  0.00960000  0.93200000  1.0 0.6178572564
C  C200  1  0.93200000  0.52920000  0.52920000  1.0 0.6178572564
C  C201  1  0.31800000  0.72080000  0.72080000  1.0 0.6178572564
C  C202  1  0.72080000  0.31800000  0.24040000  1.0 0.6178572564
C  C203  1  0.24040000  0.72080000  0.72080000  1.0 0.6178572564
C  C204  1  0.72080000  0.24040000  0.31800000  1.0 0.6178572564
C  C205  1  0.00960000  0.52920000  0.93200000  1.0 0.6178572564
C  C206  1  0.52920000  0.93200000  0.52920000  1.0 0.6178572564
C  C207  1  0.52920000  0.00960000  0.52920000  1.0 0.6178572564
C  C208  1  0.93200000  0.52920000  0.00960000  1.0 0.6178572564
C  C209  1  0.72080000  0.72080000  0.31800000  1.0 0.6178572564
C  C210  1  0.31800000  0.24040000  0.72080000  1.0 0.6178572564
C  C211  1  0.72080000  0.72080000  0.24040000  1.0 0.6178572564
C  C212  1  0.24040000  0.31800000  0.72080000  1.0 0.6178572564
C  C213  1  0.52920000  0.52920000  0.93200000  1.0 0.6178572564
C  C214  1  0.00960000  0.93200000  0.52920000  1.0 0.6178572564
C  C215  1  0.93200000  0.00960000  0.52920000  1.0 0.6178572564
C  C216  1  0.52920000  0.52920000  0.00960000  1.0 0.6178572564
C  C217  1  0.78450000  0.45510000  0.68490000  1.0 0.626570707
C  C218  1  0.07550000  0.68490000  0.45510000  1.0 0.626570707
C  C219  1  0.45510000  0.78450000  0.07550000  1.0 0.626570707
C  C220  1  0.68490000  0.07550000  0.78450000  1.0 0.626570707
C  C221  1  0.17450000  0.56510000  0.46550000  1.0 0.626570707
C  C222  1  0.46550000  0.79490000  0.17450000  1.0 0.626570707
C  C223  1  0.56510000  0.17450000  0.79490000  1.0 0.626570707
C  C224  1  0.79490000  0.46550000  0.56510000  1.0 0.626570707
C  C225  1  0.45510000  0.68490000  0.78450000  1.0 0.626570707
C  C226  1  0.68490000  0.45510000  0.07550000  1.0 0.626570707
C  C227  1  0.07550000  0.78450000  0.68490000  1.0 0.626570707
C  C228  1  0.78450000  0.07550000  0.45510000  1.0 0.626570707
C  C229  1  0.17450000  0.46550000  0.79490000  1.0 0.626570707
C  C230  1  0.56510000  0.79490000  0.46550000  1.0 0.626570707
C  C231  1  0.46550000  0.17450000  0.56510000  1.0 0.626570707
C  C232  1  0.79490000  0.56510000  0.17450000  1.0 0.626570707
C  C233  1  0.68490000  0.78450000  0.45510000  1.0 0.626570707
C  C234  1  0.45510000  0.07550000  0.68490000  1.0 0.626570707
C  C235  1  0.78450000  0.68490000  0.07550000  1.0 0.626570707
C  C236  1  0.07550000  0.45510000  0.78450000  1.0 0.626570707
C  C237  1  0.46550000  0.56510000  0.79490000  1.0 0.626570707
C  C238  1  0.17450000  0.79490000  0.56510000  1.0 0.626570707
C  C239  1  0.79490000  0.17450000  0.46550000  1.0 0.626570707
C  C240  1  0.56510000  0.46550000  0.17450000  1.0 0.626570707
C  C241  1  0.46550000  0.79490000  0.56510000  1.0 0.626570707
C  C242  1  0.17450000  0.56510000  0.79490000  1.0 0.626570707
C  C243  1  0.79490000  0.46550000  0.17450000  1.0 0.626570707
C  C244  1  0.56510000  0.17450000  0.46550000  1.0 0.626570707
C  C245  1  0.07550000  0.68490000  0.78450000  1.0 0.626570707
C  C246  1  0.78450000  0.45510000  0.07550000  1.0 0.626570707
C  C247  1  0.68490000  0.07550000  0.45510000  1.0 0.626570707
C  C248  1  0.45510000  0.78450000  0.68490000  1.0 0.626570707
C  C249  1  0.79490000  0.56510000  0.46550000  1.0 0.626570707
C  C250  1  0.56510000  0.79490000  0.17450000  1.0 0.626570707
C  C251  1  0.17450000  0.46550000  0.56510000  1.0 0.626570707
C  C252  1  0.46550000  0.17450000  0.79490000  1.0 0.626570707
C  C253  1  0.07550000  0.78450000  0.45510000  1.0 0.626570707
C  C254  1  0.68490000  0.45510000  0.78450000  1.0 0.626570707
C  C255  1  0.78450000  0.07550000  0.68490000  1.0 0.626570707
C  C256  1  0.45510000  0.68490000  0.07550000  1.0 0.626570707
C  C257  1  0.56510000  0.46550000  0.79490000  1.0 0.626570707
C  C258  1  0.79490000  0.17450000  0.56510000  1.0 0.626570707
C  C259  1  0.46550000  0.56510000  0.17450000  1.0 0.626570707
C  C260  1  0.17450000  0.79490000  0.46550000  1.0 0.626570707
C  C261  1  0.78450000  0.68490000  0.45510000  1.0 0.626570707
C  C262  1  0.07550000  0.45510000  0.68490000  1.0 0.626570707
C  C263  1  0.45510000  0.07550000  0.78450000  1.0 0.626570707
C  C264  1  0.68490000  0.78450000  0.07550000  1.0 0.626570707
C  C265  1  0.76862000  0.44656000  0.72134000  1.0 -0.0415640086
C  C266  1  0.06348000  0.72134000  0.44656000  1.0 -0.0415640086
C  C267  1  0.44656000  0.76862000  0.06348000  1.0 -0.0415640086
C  C268  1  0.72134000  0.06348000  0.76862000  1.0 -0.0415640086
C  C269  1  0.18652000  0.52866000  0.48138000  1.0 -0.0415640086
C  C270  1  0.48138000  0.80344000  0.18652000  1.0 -0.0415640086
C  C271  1  0.52866000  0.18652000  0.80344000  1.0 -0.0415640086
C  C272  1  0.80344000  0.48138000  0.52866000  1.0 -0.0415640086
C  C273  1  0.44656000  0.72134000  0.76862000  1.0 -0.0415640086
C  C274  1  0.72134000  0.44656000  0.06348000  1.0 -0.0415640086
C  C275  1  0.06348000  0.76862000  0.72134000  1.0 -0.0415640086
C  C276  1  0.76862000  0.06348000  0.44656000  1.0 -0.0415640086
C  C277  1  0.18652000  0.48138000  0.80344000  1.0 -0.0415640086
C  C278  1  0.52866000  0.80344000  0.48138000  1.0 -0.0415640086
C  C279  1  0.48138000  0.18652000  0.52866000  1.0 -0.0415640086
C  C280  1  0.80344000  0.52866000  0.18652000  1.0 -0.0415640086
C  C281  1  0.72134000  0.76862000  0.44656000  1.0 -0.0415640086
C  C282  1  0.44656000  0.06348000  0.72134000  1.0 -0.0415640086
C  C283  1  0.76862000  0.72134000  0.06348000  1.0 -0.0415640086
C  C284  1  0.06348000  0.44656000  0.76862000  1.0 -0.0415640086
C  C285  1  0.48138000  0.52866000  0.80344000  1.0 -0.0415640086
C  C286  1  0.18652000  0.80344000  0.52866000  1.0 -0.0415640086
C  C287  1  0.80344000  0.18652000  0.48138000  1.0 -0.0415640086
C  C288  1  0.52866000  0.48138000  0.18652000  1.0 -0.0415640086
C  C289  1  0.48138000  0.80344000  0.52866000  1.0 -0.0415640086
C  C290  1  0.18652000  0.52866000  0.80344000  1.0 -0.0415640086
C  C291  1  0.80344000  0.48138000  0.18652000  1.0 -0.0415640086
C  C292  1  0.52866000  0.18652000  0.48138000  1.0 -0.0415640086
C  C293  1  0.06348000  0.72134000  0.76862000  1.0 -0.0415640086
C  C294  1  0.76862000  0.44656000  0.06348000  1.0 -0.0415640086
C  C295  1  0.72134000  0.06348000  0.44656000  1.0 -0.0415640086
C  C296  1  0.44656000  0.76862000  0.72134000  1.0 -0.0415640086
C  C297  1  0.80344000  0.52866000  0.48138000  1.0 -0.0415640086
C  C298  1  0.52866000  0.80344000  0.18652000  1.0 -0.0415640086
C  C299  1  0.18652000  0.48138000  0.52866000  1.0 -0.0415640086
C  C300  1  0.48138000  0.18652000  0.80344000  1.0 -0.0415640086
C  C301  1  0.06348000  0.76862000  0.44656000  1.0 -0.0415640086
C  C302  1  0.72134000  0.44656000  0.76862000  1.0 -0.0415640086
C  C303  1  0.76862000  0.06348000  0.72134000  1.0 -0.0415640086
C  C304  1  0.44656000  0.72134000  0.06348000  1.0 -0.0415640086
C  C305  1  0.52866000  0.48138000  0.80344000  1.0 -0.0415640086
C  C306  1  0.80344000  0.18652000  0.52866000  1.0 -0.0415640086
C  C307  1  0.48138000  0.52866000  0.18652000  1.0 -0.0415640086
C  C308  1  0.18652000  0.80344000  0.48138000  1.0 -0.0415640086
C  C309  1  0.76862000  0.72134000  0.44656000  1.0 -0.0415640086
C  C310  1  0.06348000  0.44656000  0.72134000  1.0 -0.0415640086
C  C311  1  0.44656000  0.06348000  0.76862000  1.0 -0.0415640086
C  C312  1  0.72134000  0.76862000  0.06348000  1.0 -0.0415640086
C  C313  1  0.78807000  0.42627000  0.74017000  1.0 -0.108350898
C  C314  1  0.04549000  0.74017000  0.42627000  1.0 -0.108350898
C  C315  1  0.42627000  0.78807000  0.04549000  1.0 -0.108350898
C  C316  1  0.74017000  0.04549000  0.78807000  1.0 -0.108350898
C  C317  1  0.20451000  0.50983000  0.46193000  1.0 -0.108350898
C  C318  1  0.46193000  0.82373000  0.20451000  1.0 -0.108350898
C  C319  1  0.50983000  0.20451000  0.82373000  1.0 -0.108350898
C  C320  1  0.82373000  0.46193000  0.50983000  1.0 -0.108350898
C  C321  1  0.42627000  0.74017000  0.78807000  1.0 -0.108350898
C  C322  1  0.74017000  0.42627000  0.04549000  1.0 -0.108350898
C  C323  1  0.04549000  0.78807000  0.74017000  1.0 -0.108350898
C  C324  1  0.78807000  0.04549000  0.42627000  1.0 -0.108350898
C  C325  1  0.20451000  0.46193000  0.82373000  1.0 -0.108350898
C  C326  1  0.50983000  0.82373000  0.46193000  1.0 -0.108350898
C  C327  1  0.46193000  0.20451000  0.50983000  1.0 -0.108350898
C  C328  1  0.82373000  0.50983000  0.20451000  1.0 -0.108350898
C  C329  1  0.74017000  0.78807000  0.42627000  1.0 -0.108350898
C  C330  1  0.42627000  0.04549000  0.74017000  1.0 -0.108350898
C  C331  1  0.78807000  0.74017000  0.04549000  1.0 -0.108350898
C  C332  1  0.04549000  0.42627000  0.78807000  1.0 -0.108350898
C  C333  1  0.46193000  0.50983000  0.82373000  1.0 -0.108350898
C  C334  1  0.20451000  0.82373000  0.50983000  1.0 -0.108350898
C  C335  1  0.82373000  0.20451000  0.46193000  1.0 -0.108350898
C  C336  1  0.50983000  0.46193000  0.20451000  1.0 -0.108350898
C  C337  1  0.46193000  0.82373000  0.50983000  1.0 -0.108350898
C  C338  1  0.20451000  0.50983000  0.82373000  1.0 -0.108350898
C  C339  1  0.82373000  0.46193000  0.20451000  1.0 -0.108350898
C  C340  1  0.50983000  0.20451000  0.46193000  1.0 -0.108350898
C  C341  1  0.04549000  0.74017000  0.78807000  1.0 -0.108350898
C  C342  1  0.78807000  0.42627000  0.04549000  1.0 -0.108350898
C  C343  1  0.74017000  0.04549000  0.42627000  1.0 -0.108350898
C  C344  1  0.42627000  0.78807000  0.74017000  1.0 -0.108350898
C  C345  1  0.82373000  0.50983000  0.46193000  1.0 -0.108350898
C  C346  1  0.50983000  0.82373000  0.20451000  1.0 -0.108350898
C  C347  1  0.20451000  0.46193000  0.50983000  1.0 -0.108350898
C  C348  1  0.46193000  0.20451000  0.82373000  1.0 -0.108350898
C  C349  1  0.04549000  0.78807000  0.42627000  1.0 -0.108350898
C  C350  1  0.74017000  0.42627000  0.78807000  1.0 -0.108350898
C  C351  1  0.78807000  0.04549000  0.74017000  1.0 -0.108350898
C  C352  1  0.42627000  0.74017000  0.04549000  1.0 -0.108350898
C  C353  1  0.50983000  0.46193000  0.82373000  1.0 -0.108350898
C  C354  1  0.82373000  0.20451000  0.50983000  1.0 -0.108350898
C  C355  1  0.46193000  0.50983000  0.20451000  1.0 -0.108350898
C  C356  1  0.20451000  0.82373000  0.46193000  1.0 -0.108350898
C  C357  1  0.78807000  0.74017000  0.42627000  1.0 -0.108350898
C  C358  1  0.04549000  0.42627000  0.74017000  1.0 -0.108350898
C  C359  1  0.42627000  0.04549000  0.78807000  1.0 -0.108350898
C  C360  1  0.74017000  0.78807000  0.04549000  1.0 -0.108350898
C  C361  1  0.73540000  0.45616000  0.73540000  1.0 -0.0960273959
C  C362  1  0.07304000  0.73540000  0.45616000  1.0 -0.0960273959
C  C363  1  0.45616000  0.73540000  0.07304000  1.0 -0.0960273959
C  C364  1  0.73540000  0.07304000  0.73540000  1.0 -0.0960273959
C  C365  1  0.17696000  0.51460000  0.51460000  1.0 -0.0960273959
C  C366  1  0.51460000  0.79384000  0.17696000  1.0 -0.0960273959
C  C367  1  0.51460000  0.17696000  0.79384000  1.0 -0.0960273959
C  C368  1  0.79384000  0.51460000  0.51460000  1.0 -0.0960273959
C  C369  1  0.45616000  0.73540000  0.73540000  1.0 -0.0960273959
C  C370  1  0.73540000  0.45616000  0.07304000  1.0 -0.0960273959
C  C371  1  0.07304000  0.73540000  0.73540000  1.0 -0.0960273959
C  C372  1  0.73540000  0.07304000  0.45616000  1.0 -0.0960273959
C  C373  1  0.17696000  0.51460000  0.79384000  1.0 -0.0960273959
C  C374  1  0.51460000  0.79384000  0.51460000  1.0 -0.0960273959
C  C375  1  0.51460000  0.17696000  0.51460000  1.0 -0.0960273959
C  C376  1  0.79384000  0.51460000  0.17696000  1.0 -0.0960273959
C  C377  1  0.73540000  0.73540000  0.45616000  1.0 -0.0960273959
C  C378  1  0.45616000  0.07304000  0.73540000  1.0 -0.0960273959
C  C379  1  0.73540000  0.73540000  0.07304000  1.0 -0.0960273959
C  C380  1  0.07304000  0.45616000  0.73540000  1.0 -0.0960273959
C  C381  1  0.51460000  0.51460000  0.79384000  1.0 -0.0960273959
C  C382  1  0.17696000  0.79384000  0.51460000  1.0 -0.0960273959
C  C383  1  0.79384000  0.17696000  0.51460000  1.0 -0.0960273959
C  C384  1  0.51460000  0.51460000  0.17696000  1.0 -0.0960273959
C  C385  1  0.77460000  0.41497000  0.77460000  1.0 -0.0415640086
C  C386  1  0.03583000  0.77460000  0.41497000  1.0 -0.0415640086
C  C387  1  0.41497000  0.77460000  0.03583000  1.0 -0.0415640086
C  C388  1  0.77460000  0.03583000  0.77460000  1.0 -0.0415640086
C  C389  1  0.21417000  0.47540000  0.47540000  1.0 -0.0415640086
C  C390  1  0.47540000  0.83503000  0.21417000  1.0 -0.0415640086
C  C391  1  0.47540000  0.21417000  0.83503000  1.0 -0.0415640086
C  C392  1  0.83503000  0.47540000  0.47540000  1.0 -0.0415640086
C  C393  1  0.41497000  0.77460000  0.77460000  1.0 -0.0415640086
C  C394  1  0.77460000  0.41497000  0.03583000  1.0 -0.0415640086
C  C395  1  0.03583000  0.77460000  0.77460000  1.0 -0.0415640086
C  C396  1  0.77460000  0.03583000  0.41497000  1.0 -0.0415640086
C  C397  1  0.21417000  0.47540000  0.83503000  1.0 -0.0415640086
C  C398  1  0.47540000  0.83503000  0.47540000  1.0 -0.0415640086
C  C399  1  0.47540000  0.21417000  0.47540000  1.0 -0.0415640086
C  C400  1  0.83503000  0.47540000  0.21417000  1.0 -0.0415640086
C  C401  1  0.77460000  0.77460000  0.41497000  1.0 -0.0415640086
C  C402  1  0.41497000  0.03583000  0.77460000  1.0 -0.0415640086
C  C403  1  0.77460000  0.77460000  0.03583000  1.0 -0.0415640086
C  C404  1  0.03583000  0.41497000  0.77460000  1.0 -0.0415640086
C  C405  1  0.47540000  0.47540000  0.83503000  1.0 -0.0415640086
C  C406  1  0.21417000  0.83503000  0.47540000  1.0 -0.0415640086
C  C407  1  0.83503000  0.21417000  0.47540000  1.0 -0.0415640086
C  C408  1  0.47540000  0.47540000  0.21417000  1.0 -0.0415640086
C  C409  1  0.79520000  0.38977000  0.79520000  1.0 0.6036231187
C  C410  1  0.01983000  0.79520000  0.38977000  1.0 0.6036231187
C  C411  1  0.38977000  0.79520000  0.01983000  1.0 0.6036231187
C  C412  1  0.79520000  0.01983000  0.79520000  1.0 0.6036231187
C  C413  1  0.23017000  0.45480000  0.45480000  1.0 0.6036231187
C  C414  1  0.45480000  0.86023000  0.23017000  1.0 0.6036231187
C  C415  1  0.45480000  0.23017000  0.86023000  1.0 0.6036231187
C  C416  1  0.86023000  0.45480000  0.45480000  1.0 0.6036231187
C  C417  1  0.38977000  0.79520000  0.79520000  1.0 0.6036231187
C  C418  1  0.79520000  0.38977000  0.01983000  1.0 0.6036231187
C  C419  1  0.01983000  0.79520000  0.79520000  1.0 0.6036231187
C  C420  1  0.79520000  0.01983000  0.38977000  1.0 0.6036231187
C  C421  1  0.23017000  0.45480000  0.86023000  1.0 0.6036231187
C  C422  1  0.45480000  0.86023000  0.45480000  1.0 0.6036231187
C  C423  1  0.45480000  0.23017000  0.45480000  1.0 0.6036231187
C  C424  1  0.86023000  0.45480000  0.23017000  1.0 0.6036231187
C  C425  1  0.79520000  0.79520000  0.38977000  1.0 0.6036231187
C  C426  1  0.38977000  0.01983000  0.79520000  1.0 0.6036231187
C  C427  1  0.79520000  0.79520000  0.01983000  1.0 0.6036231187
C  C428  1  0.01983000  0.38977000  0.79520000  1.0 0.6036231187
C  C429  1  0.45480000  0.45480000  0.86023000  1.0 0.6036231187
C  C430  1  0.23017000  0.86023000  0.45480000  1.0 0.6036231187
C  C431  1  0.86023000  0.23017000  0.45480000  1.0 0.6036231187
C  C432  1  0.45480000  0.45480000  0.23017000  1.0 0.6036231187
C  C433  1  0.85252000  0.30408000  0.77208000  1.0 0.6122409431
C  C434  1  0.07132000  0.77208000  0.30408000  1.0 0.6122409431
C  C435  1  0.30408000  0.85252000  0.07132000  1.0 0.6122409431
C  C436  1  0.77208000  0.07132000  0.85252000  1.0 0.6122409431
C  C437  1  0.17868000  0.47792000  0.39748000  1.0 0.6122409431
C  C438  1  0.39748000  0.94592000  0.17868000  1.0 0.6122409431
C  C439  1  0.47792000  0.17868000  0.94592000  1.0 0.6122409431
C  C440  1  0.94592000  0.39748000  0.47792000  1.0 0.6122409431
C  C441  1  0.30408000  0.77208000  0.85252000  1.0 0.6122409431
C  C442  1  0.77208000  0.30408000  0.07132000  1.0 0.6122409431
C  C443  1  0.07132000  0.85252000  0.77208000  1.0 0.6122409431
C  C444  1  0.85252000  0.07132000  0.30408000  1.0 0.6122409431
C  C445  1  0.17868000  0.39748000  0.94592000  1.0 0.6122409431
C  C446  1  0.47792000  0.94592000  0.39748000  1.0 0.6122409431
C  C447  1  0.39748000  0.17868000  0.47792000  1.0 0.6122409431
C  C448  1  0.94592000  0.47792000  0.17868000  1.0 0.6122409431
C  C449  1  0.77208000  0.85252000  0.30408000  1.0 0.6122409431
C  C450  1  0.30408000  0.07132000  0.77208000  1.0 0.6122409431
C  C451  1  0.85252000  0.77208000  0.07132000  1.0 0.6122409431
C  C452  1  0.07132000  0.30408000  0.85252000  1.0 0.6122409431
C  C453  1  0.39748000  0.47792000  0.94592000  1.0 0.6122409431
C  C454  1  0.17868000  0.94592000  0.47792000  1.0 0.6122409431
C  C455  1  0.94592000  0.17868000  0.39748000  1.0 0.6122409431
C  C456  1  0.47792000  0.39748000  0.17868000  1.0 0.6122409431
C  C457  1  0.39748000  0.94592000  0.47792000  1.0 0.6122409431
C  C458  1  0.17868000  0.47792000  0.94592000  1.0 0.6122409431
C  C459  1  0.94592000  0.39748000  0.17868000  1.0 0.6122409431
C  C460  1  0.47792000  0.17868000  0.39748000  1.0 0.6122409431
C  C461  1  0.07132000  0.77208000  0.85252000  1.0 0.6122409431
C  C462  1  0.85252000  0.30408000  0.07132000  1.0 0.6122409431
C  C463  1  0.77208000  0.07132000  0.30408000  1.0 0.6122409431
C  C464  1  0.30408000  0.85252000  0.77208000  1.0 0.6122409431
C  C465  1  0.94592000  0.47792000  0.39748000  1.0 0.6122409431
C  C466  1  0.47792000  0.94592000  0.17868000  1.0 0.6122409431
C  C467  1  0.17868000  0.39748000  0.47792000  1.0 0.6122409431
C  C468  1  0.39748000  0.17868000  0.94592000  1.0 0.6122409431
C  C469  1  0.07132000  0.85252000  0.30408000  1.0 0.6122409431
C  C470  1  0.77208000  0.30408000  0.85252000  1.0 0.6122409431
C  C471  1  0.85252000  0.07132000  0.77208000  1.0 0.6122409431
C  C472  1  0.30408000  0.77208000  0.07132000  1.0 0.6122409431
C  C473  1  0.47792000  0.39748000  0.94592000  1.0 0.6122409431
C  C474  1  0.94592000  0.17868000  0.47792000  1.0 0.6122409431
C  C475  1  0.39748000  0.47792000  0.17868000  1.0 0.6122409431
C  C476  1  0.17868000  0.94592000  0.39748000  1.0 0.6122409431
C  C477  1  0.85252000  0.77208000  0.30408000  1.0 0.6122409431
C  C478  1  0.07132000  0.30408000  0.77208000  1.0 0.6122409431
C  C479  1  0.30408000  0.07132000  0.85252000  1.0 0.6122409431
C  C480  1  0.77208000  0.85252000  0.07132000  1.0 0.6122409431
C  C481  1  0.84650000  0.30696000  0.74406000  1.0 -0.0200896382
C  C482  1  0.10248000  0.74406000  0.30696000  1.0 -0.0200896382
C  C483  1  0.30696000  0.84650000  0.10248000  1.0 -0.0200896382
C  C484  1  0.74406000  0.10248000  0.84650000  1.0 -0.0200896382
C  C485  1  0.14752000  0.50594000  0.40350000  1.0 -0.0200896382
C  C486  1  0.40350000  0.94304000  0.14752000  1.0 -0.0200896382
C  C487  1  0.50594000  0.14752000  0.94304000  1.0 -0.0200896382
C  C488  1  0.94304000  0.40350000  0.50594000  1.0 -0.0200896382
C  C489  1  0.30696000  0.74406000  0.84650000  1.0 -0.0200896382
C  C490  1  0.74406000  0.30696000  0.10248000  1.0 -0.0200896382
C  C491  1  0.10248000  0.84650000  0.74406000  1.0 -0.0200896382
C  C492  1  0.84650000  0.10248000  0.30696000  1.0 -0.0200896382
C  C493  1  0.14752000  0.40350000  0.94304000  1.0 -0.0200896382
C  C494  1  0.50594000  0.94304000  0.40350000  1.0 -0.0200896382
C  C495  1  0.40350000  0.14752000  0.50594000  1.0 -0.0200896382
C  C496  1  0.94304000  0.50594000  0.14752000  1.0 -0.0200896382
C  C497  1  0.74406000  0.84650000  0.30696000  1.0 -0.0200896382
C  C498  1  0.30696000  0.10248000  0.74406000  1.0 -0.0200896382
C  C499  1  0.84650000  0.74406000  0.10248000  1.0 -0.0200896382
C  C500  1  0.10248000  0.30696000  0.84650000  1.0 -0.0200896382
C  C501  1  0.40350000  0.50594000  0.94304000  1.0 -0.0200896382
C  C502  1  0.14752000  0.94304000  0.50594000  1.0 -0.0200896382
C  C503  1  0.94304000  0.14752000  0.40350000  1.0 -0.0200896382
C  C504  1  0.50594000  0.40350000  0.14752000  1.0 -0.0200896382
C  C505  1  0.40350000  0.94304000  0.50594000  1.0 -0.0200896382
C  C506  1  0.14752000  0.50594000  0.94304000  1.0 -0.0200896382
C  C507  1  0.94304000  0.40350000  0.14752000  1.0 -0.0200896382
C  C508  1  0.50594000  0.14752000  0.40350000  1.0 -0.0200896382
C  C509  1  0.10248000  0.74406000  0.84650000  1.0 -0.0200896382
C  C510  1  0.84650000  0.30696000  0.10248000  1.0 -0.0200896382
C  C511  1  0.74406000  0.10248000  0.30696000  1.0 -0.0200896382
C  C512  1  0.30696000  0.84650000  0.74406000  1.0 -0.0200896382
C  C513  1  0.94304000  0.50594000  0.40350000  1.0 -0.0200896382
C  C514  1  0.50594000  0.94304000  0.14752000  1.0 -0.0200896382
C  C515  1  0.14752000  0.40350000  0.50594000  1.0 -0.0200896382
C  C516  1  0.40350000  0.14752000  0.94304000  1.0 -0.0200896382
C  C517  1  0.10248000  0.84650000  0.30696000  1.0 -0.0200896382
C  C518  1  0.74406000  0.30696000  0.84650000  1.0 -0.0200896382
C  C519  1  0.84650000  0.10248000  0.74406000  1.0 -0.0200896382
C  C520  1  0.30696000  0.74406000  0.10248000  1.0 -0.0200896382
C  C521  1  0.50594000  0.40350000  0.94304000  1.0 -0.0200896382
C  C522  1  0.94304000  0.14752000  0.50594000  1.0 -0.0200896382
C  C523  1  0.40350000  0.50594000  0.14752000  1.0 -0.0200896382
C  C524  1  0.14752000  0.94304000  0.40350000  1.0 -0.0200896382
C  C525  1  0.84650000  0.74406000  0.30696000  1.0 -0.0200896382
C  C526  1  0.10248000  0.30696000  0.74406000  1.0 -0.0200896382
C  C527  1  0.30696000  0.10248000  0.84650000  1.0 -0.0200896382
C  C528  1  0.74406000  0.84650000  0.10248000  1.0 -0.0200896382
C  C529  1  0.83600000  0.28320000  0.74920000  1.0 -0.1209178572
C  C530  1  0.13160000  0.74920000  0.28320000  1.0 -0.1209178572
C  C531  1  0.28320000  0.83600000  0.13160000  1.0 -0.1209178572
C  C532  1  0.74920000  0.13160000  0.83600000  1.0 -0.1209178572
C  C533  1  0.11840000  0.50080000  0.41400000  1.0 -0.1209178572
C  C534  1  0.41400000  0.96680000  0.11840000  1.0 -0.1209178572
C  C535  1  0.50080000  0.11840000  0.96680000  1.0 -0.1209178572
C  C536  1  0.96680000  0.41400000  0.50080000  1.0 -0.1209178572
C  C537  1  0.28320000  0.74920000  0.83600000  1.0 -0.1209178572
C  C538  1  0.74920000  0.28320000  0.13160000  1.0 -0.1209178572
C  C539  1  0.13160000  0.83600000  0.74920000  1.0 -0.1209178572
C  C540  1  0.83600000  0.13160000  0.28320000  1.0 -0.1209178572
C  C541  1  0.11840000  0.41400000  0.96680000  1.0 -0.1209178572
C  C542  1  0.50080000  0.96680000  0.41400000  1.0 -0.1209178572
C  C543  1  0.41400000  0.11840000  0.50080000  1.0 -0.1209178572
C  C544  1  0.96680000  0.50080000  0.11840000  1.0 -0.1209178572
C  C545  1  0.74920000  0.83600000  0.28320000  1.0 -0.1209178572
C  C546  1  0.28320000  0.13160000  0.74920000  1.0 -0.1209178572
C  C547  1  0.83600000  0.74920000  0.13160000  1.0 -0.1209178572
C  C548  1  0.13160000  0.28320000  0.83600000  1.0 -0.1209178572
C  C549  1  0.41400000  0.50080000  0.96680000  1.0 -0.1209178572
C  C550  1  0.11840000  0.96680000  0.50080000  1.0 -0.1209178572
C  C551  1  0.96680000  0.11840000  0.41400000  1.0 -0.1209178572
C  C552  1  0.50080000  0.41400000  0.11840000  1.0 -0.1209178572
C  C553  1  0.41400000  0.96680000  0.50080000  1.0 -0.1209178572
C  C554  1  0.11840000  0.50080000  0.96680000  1.0 -0.1209178572
C  C555  1  0.96680000  0.41400000  0.11840000  1.0 -0.1209178572
C  C556  1  0.50080000  0.11840000  0.41400000  1.0 -0.1209178572
C  C557  1  0.13160000  0.74920000  0.83600000  1.0 -0.1209178572
C  C558  1  0.83600000  0.28320000  0.13160000  1.0 -0.1209178572
C  C559  1  0.74920000  0.13160000  0.28320000  1.0 -0.1209178572
C  C560  1  0.28320000  0.83600000  0.74920000  1.0 -0.1209178572
C  C561  1  0.96680000  0.50080000  0.41400000  1.0 -0.1209178572
C  C562  1  0.50080000  0.96680000  0.11840000  1.0 -0.1209178572
C  C563  1  0.11840000  0.41400000  0.50080000  1.0 -0.1209178572
C  C564  1  0.41400000  0.11840000  0.96680000  1.0 -0.1209178572
C  C565  1  0.13160000  0.83600000  0.28320000  1.0 -0.1209178572
C  C566  1  0.74920000  0.28320000  0.83600000  1.0 -0.1209178572
C  C567  1  0.83600000  0.13160000  0.74920000  1.0 -0.1209178572
C  C568  1  0.28320000  0.74920000  0.13160000  1.0 -0.1209178572
C  C569  1  0.50080000  0.41400000  0.96680000  1.0 -0.1209178572
C  C570  1  0.96680000  0.11840000  0.50080000  1.0 -0.1209178572
C  C571  1  0.41400000  0.50080000  0.11840000  1.0 -0.1209178572
C  C572  1  0.11840000  0.96680000  0.41400000  1.0 -0.1209178572
C  C573  1  0.83600000  0.74920000  0.28320000  1.0 -0.1209178572
C  C574  1  0.13160000  0.28320000  0.74920000  1.0 -0.1209178572
C  C575  1  0.28320000  0.13160000  0.83600000  1.0 -0.1209178572
C  C576  1  0.74920000  0.83600000  0.13160000  1.0 -0.1209178572
C  C577  1  0.82680000  0.28900000  0.72380000  1.0 -0.0269563487
C  C578  1  0.16040000  0.72380000  0.28900000  1.0 -0.0269563487
C  C579  1  0.28900000  0.82680000  0.16040000  1.0 -0.0269563487
C  C580  1  0.72380000  0.16040000  0.82680000  1.0 -0.0269563487
C  C581  1  0.08960000  0.52620000  0.42320000  1.0 -0.0269563487
C  C582  1  0.42320000  0.96100000  0.08960000  1.0 -0.0269563487
C  C583  1  0.52620000  0.08960000  0.96100000  1.0 -0.0269563487
C  C584  1  0.96100000  0.42320000  0.52620000  1.0 -0.0269563487
C  C585  1  0.28900000  0.72380000  0.82680000  1.0 -0.0269563487
C  C586  1  0.72380000  0.28900000  0.16040000  1.0 -0.0269563487
C  C587  1  0.16040000  0.82680000  0.72380000  1.0 -0.0269563487
C  C588  1  0.82680000  0.16040000  0.28900000  1.0 -0.0269563487
C  C589  1  0.08960000  0.42320000  0.96100000  1.0 -0.0269563487
C  C590  1  0.52620000  0.96100000  0.42320000  1.0 -0.0269563487
C  C591  1  0.42320000  0.08960000  0.52620000  1.0 -0.0269563487
C  C592  1  0.96100000  0.52620000  0.08960000  1.0 -0.0269563487
C  C593  1  0.72380000  0.82680000  0.28900000  1.0 -0.0269563487
C  C594  1  0.28900000  0.16040000  0.72380000  1.0 -0.0269563487
C  C595  1  0.82680000  0.72380000  0.16040000  1.0 -0.0269563487
C  C596  1  0.16040000  0.28900000  0.82680000  1.0 -0.0269563487
C  C597  1  0.42320000  0.52620000  0.96100000  1.0 -0.0269563487
C  C598  1  0.08960000  0.96100000  0.52620000  1.0 -0.0269563487
C  C599  1  0.96100000  0.08960000  0.42320000  1.0 -0.0269563487
C  C600  1  0.52620000  0.42320000  0.08960000  1.0 -0.0269563487
C  C601  1  0.42320000  0.96100000  0.52620000  1.0 -0.0269563487
C  C602  1  0.08960000  0.52620000  0.96100000  1.0 -0.0269563487
C  C603  1  0.96100000  0.42320000  0.08960000  1.0 -0.0269563487
C  C604  1  0.52620000  0.08960000  0.42320000  1.0 -0.0269563487
C  C605  1  0.16040000  0.72380000  0.82680000  1.0 -0.0269563487
C  C606  1  0.82680000  0.28900000  0.16040000  1.0 -0.0269563487
C  C607  1  0.72380000  0.16040000  0.28900000  1.0 -0.0269563487
C  C608  1  0.28900000  0.82680000  0.72380000  1.0 -0.0269563487
C  C609  1  0.96100000  0.52620000  0.42320000  1.0 -0.0269563487
C  C610  1  0.52620000  0.96100000  0.08960000  1.0 -0.0269563487
C  C611  1  0.08960000  0.42320000  0.52620000  1.0 -0.0269563487
C  C612  1  0.42320000  0.08960000  0.96100000  1.0 -0.0269563487
C  C613  1  0.16040000  0.82680000  0.28900000  1.0 -0.0269563487
C  C614  1  0.72380000  0.28900000  0.82680000  1.0 -0.0269563487
C  C615  1  0.82680000  0.16040000  0.72380000  1.0 -0.0269563487
C  C616  1  0.28900000  0.72380000  0.16040000  1.0 -0.0269563487
C  C617  1  0.52620000  0.42320000  0.96100000  1.0 -0.0269563487
C  C618  1  0.96100000  0.08960000  0.52620000  1.0 -0.0269563487
C  C619  1  0.42320000  0.52620000  0.08960000  1.0 -0.0269563487
C  C620  1  0.08960000  0.96100000  0.42320000  1.0 -0.0269563487
C  C621  1  0.82680000  0.72380000  0.28900000  1.0 -0.0269563487
C  C622  1  0.16040000  0.28900000  0.72380000  1.0 -0.0269563487
C  C623  1  0.28900000  0.16040000  0.82680000  1.0 -0.0269563487
C  C624  1  0.72380000  0.82680000  0.16040000  1.0 -0.0269563487
C  C625  1  0.83030000  0.31470000  0.69590000  1.0 -0.108350898
C  C626  1  0.15910000  0.69590000  0.31470000  1.0 -0.108350898
C  C627  1  0.31470000  0.83030000  0.15910000  1.0 -0.108350898
C  C628  1  0.69590000  0.15910000  0.83030000  1.0 -0.108350898
C  C629  1  0.09090000  0.55410000  0.41970000  1.0 -0.108350898
C  C630  1  0.41970000  0.93530000  0.09090000  1.0 -0.108350898
C  C631  1  0.55410000  0.09090000  0.93530000  1.0 -0.108350898
C  C632  1  0.93530000  0.41970000  0.55410000  1.0 -0.108350898
C  C633  1  0.31470000  0.69590000  0.83030000  1.0 -0.108350898
C  C634  1  0.69590000  0.31470000  0.15910000  1.0 -0.108350898
C  C635  1  0.15910000  0.83030000  0.69590000  1.0 -0.108350898
C  C636  1  0.83030000  0.15910000  0.31470000  1.0 -0.108350898
C  C637  1  0.09090000  0.41970000  0.93530000  1.0 -0.108350898
C  C638  1  0.55410000  0.93530000  0.41970000  1.0 -0.108350898
C  C639  1  0.41970000  0.09090000  0.55410000  1.0 -0.108350898
C  C640  1  0.93530000  0.55410000  0.09090000  1.0 -0.108350898
C  C641  1  0.69590000  0.83030000  0.31470000  1.0 -0.108350898
C  C642  1  0.31470000  0.15910000  0.69590000  1.0 -0.108350898
C  C643  1  0.83030000  0.69590000  0.15910000  1.0 -0.108350898
C  C644  1  0.15910000  0.31470000  0.83030000  1.0 -0.108350898
C  C645  1  0.41970000  0.55410000  0.93530000  1.0 -0.108350898
C  C646  1  0.09090000  0.93530000  0.55410000  1.0 -0.108350898
C  C647  1  0.93530000  0.09090000  0.41970000  1.0 -0.108350898
C  C648  1  0.55410000  0.41970000  0.09090000  1.0 -0.108350898
C  C649  1  0.41970000  0.93530000  0.55410000  1.0 -0.108350898
C  C650  1  0.09090000  0.55410000  0.93530000  1.0 -0.108350898
C  C651  1  0.93530000  0.41970000  0.09090000  1.0 -0.108350898
C  C652  1  0.55410000  0.09090000  0.41970000  1.0 -0.108350898
C  C653  1  0.15910000  0.69590000  0.83030000  1.0 -0.108350898
C  C654  1  0.83030000  0.31470000  0.15910000  1.0 -0.108350898
C  C655  1  0.69590000  0.15910000  0.31470000  1.0 -0.108350898
C  C656  1  0.31470000  0.83030000  0.69590000  1.0 -0.108350898
C  C657  1  0.93530000  0.55410000  0.41970000  1.0 -0.108350898
C  C658  1  0.55410000  0.93530000  0.09090000  1.0 -0.108350898
C  C659  1  0.09090000  0.41970000  0.55410000  1.0 -0.108350898
C  C660  1  0.41970000  0.09090000  0.93530000  1.0 -0.108350898
C  C661  1  0.15910000  0.83030000  0.31470000  1.0 -0.108350898
C  C662  1  0.69590000  0.31470000  0.83030000  1.0 -0.108350898
C  C663  1  0.83030000  0.15910000  0.69590000  1.0 -0.108350898
C  C664  1  0.31470000  0.69590000  0.15910000  1.0 -0.108350898
C  C665  1  0.55410000  0.41970000  0.93530000  1.0 -0.108350898
C  C666  1  0.93530000  0.09090000  0.55410000  1.0 -0.108350898
C  C667  1  0.41970000  0.55410000  0.09090000  1.0 -0.108350898
C  C668  1  0.09090000  0.93530000  0.41970000  1.0 -0.108350898
C  C669  1  0.83030000  0.69590000  0.31470000  1.0 -0.108350898
C  C670  1  0.15910000  0.31470000  0.69590000  1.0 -0.108350898
C  C671  1  0.31470000  0.15910000  0.83030000  1.0 -0.108350898
C  C672  1  0.69590000  0.83030000  0.15910000  1.0 -0.108350898
C  C673  1  0.84070000  0.33768000  0.69246000  1.0 -0.0484122813
C  C674  1  0.12916000  0.69246000  0.33768000  1.0 -0.0484122813
C  C675  1  0.33768000  0.84070000  0.12916000  1.0 -0.0484122813
C  C676  1  0.69246000  0.12916000  0.84070000  1.0 -0.0484122813
C  C677  1  0.12084000  0.55754000  0.40930000  1.0 -0.0484122813
C  C678  1  0.40930000  0.91232000  0.12084000  1.0 -0.0484122813
C  C679  1  0.55754000  0.12084000  0.91232000  1.0 -0.0484122813
C  C680  1  0.91232000  0.40930000  0.55754000  1.0 -0.0484122813
C  C681  1  0.33768000  0.69246000  0.84070000  1.0 -0.0484122813
C  C682  1  0.69246000  0.33768000  0.12916000  1.0 -0.0484122813
C  C683  1  0.12916000  0.84070000  0.69246000  1.0 -0.0484122813
C  C684  1  0.84070000  0.12916000  0.33768000  1.0 -0.0484122813
C  C685  1  0.12084000  0.40930000  0.91232000  1.0 -0.0484122813
C  C686  1  0.55754000  0.91232000  0.40930000  1.0 -0.0484122813
C  C687  1  0.40930000  0.12084000  0.55754000  1.0 -0.0484122813
C  C688  1  0.91232000  0.55754000  0.12084000  1.0 -0.0484122813
C  C689  1  0.69246000  0.84070000  0.33768000  1.0 -0.0484122813
C  C690  1  0.33768000  0.12916000  0.69246000  1.0 -0.0484122813
C  C691  1  0.84070000  0.69246000  0.12916000  1.0 -0.0484122813
C  C692  1  0.12916000  0.33768000  0.84070000  1.0 -0.0484122813
C  C693  1  0.40930000  0.55754000  0.91232000  1.0 -0.0484122813
C  C694  1  0.12084000  0.91232000  0.55754000  1.0 -0.0484122813
C  C695  1  0.91232000  0.12084000  0.40930000  1.0 -0.0484122813
C  C696  1  0.55754000  0.40930000  0.12084000  1.0 -0.0484122813
C  C697  1  0.40930000  0.91232000  0.55754000  1.0 -0.0484122813
C  C698  1  0.12084000  0.55754000  0.91232000  1.0 -0.0484122813
C  C699  1  0.91232000  0.40930000  0.12084000  1.0 -0.0484122813
C  C700  1  0.55754000  0.12084000  0.40930000  1.0 -0.0484122813
C  C701  1  0.12916000  0.69246000  0.84070000  1.0 -0.0484122813
C  C702  1  0.84070000  0.33768000  0.12916000  1.0 -0.0484122813
C  C703  1  0.69246000  0.12916000  0.33768000  1.0 -0.0484122813
C  C704  1  0.33768000  0.84070000  0.69246000  1.0 -0.0484122813
C  C705  1  0.91232000  0.55754000  0.40930000  1.0 -0.0484122813
C  C706  1  0.55754000  0.91232000  0.12084000  1.0 -0.0484122813
C  C707  1  0.12084000  0.40930000  0.55754000  1.0 -0.0484122813
C  C708  1  0.40930000  0.12084000  0.91232000  1.0 -0.0484122813
C  C709  1  0.12916000  0.84070000  0.33768000  1.0 -0.0484122813
C  C710  1  0.69246000  0.33768000  0.84070000  1.0 -0.0484122813
C  C711  1  0.84070000  0.12916000  0.69246000  1.0 -0.0484122813
C  C712  1  0.33768000  0.69246000  0.12916000  1.0 -0.0484122813
C  C713  1  0.55754000  0.40930000  0.91232000  1.0 -0.0484122813
C  C714  1  0.91232000  0.12084000  0.55754000  1.0 -0.0484122813
C  C715  1  0.40930000  0.55754000  0.12084000  1.0 -0.0484122813
C  C716  1  0.12084000  0.91232000  0.40930000  1.0 -0.0484122813
C  C717  1  0.84070000  0.69246000  0.33768000  1.0 -0.0484122813
C  C718  1  0.12916000  0.33768000  0.69246000  1.0 -0.0484122813
C  C719  1  0.33768000  0.12916000  0.84070000  1.0 -0.0484122813
C  C720  1  0.69246000  0.84070000  0.12916000  1.0 -0.0484122813
C  C721  1  0.84880000  0.33370000  0.71630000  1.0 -0.1209178572
C  C722  1  0.10120000  0.71630000  0.33370000  1.0 -0.1209178572
C  C723  1  0.33370000  0.84880000  0.10120000  1.0 -0.1209178572
C  C724  1  0.71630000  0.10120000  0.84880000  1.0 -0.1209178572
C  C725  1  0.14880000  0.53370000  0.40120000  1.0 -0.1209178572
C  C726  1  0.40120000  0.91630000  0.14880000  1.0 -0.1209178572
C  C727  1  0.53370000  0.14880000  0.91630000  1.0 -0.1209178572
C  C728  1  0.91630000  0.40120000  0.53370000  1.0 -0.1209178572
C  C729  1  0.33370000  0.71630000  0.84880000  1.0 -0.1209178572
C  C730  1  0.71630000  0.33370000  0.10120000  1.0 -0.1209178572
C  C731  1  0.10120000  0.84880000  0.71630000  1.0 -0.1209178572
C  C732  1  0.84880000  0.10120000  0.33370000  1.0 -0.1209178572
C  C733  1  0.14880000  0.40120000  0.91630000  1.0 -0.1209178572
C  C734  1  0.53370000  0.91630000  0.40120000  1.0 -0.1209178572
C  C735  1  0.40120000  0.14880000  0.53370000  1.0 -0.1209178572
C  C736  1  0.91630000  0.53370000  0.14880000  1.0 -0.1209178572
C  C737  1  0.71630000  0.84880000  0.33370000  1.0 -0.1209178572
C  C738  1  0.33370000  0.10120000  0.71630000  1.0 -0.1209178572
C  C739  1  0.84880000  0.71630000  0.10120000  1.0 -0.1209178572
C  C740  1  0.10120000  0.33370000  0.84880000  1.0 -0.1209178572
C  C741  1  0.40120000  0.53370000  0.91630000  1.0 -0.1209178572
C  C742  1  0.14880000  0.91630000  0.53370000  1.0 -0.1209178572
C  C743  1  0.91630000  0.14880000  0.40120000  1.0 -0.1209178572
C  C744  1  0.53370000  0.40120000  0.14880000  1.0 -0.1209178572
C  C745  1  0.40120000  0.91630000  0.53370000  1.0 -0.1209178572
C  C746  1  0.14880000  0.53370000  0.91630000  1.0 -0.1209178572
C  C747  1  0.91630000  0.40120000  0.14880000  1.0 -0.1209178572
C  C748  1  0.53370000  0.14880000  0.40120000  1.0 -0.1209178572
C  C749  1  0.10120000  0.71630000  0.84880000  1.0 -0.1209178572
C  C750  1  0.84880000  0.33370000  0.10120000  1.0 -0.1209178572
C  C751  1  0.71630000  0.10120000  0.33370000  1.0 -0.1209178572
C  C752  1  0.33370000  0.84880000  0.71630000  1.0 -0.1209178572
C  C753  1  0.91630000  0.53370000  0.40120000  1.0 -0.1209178572
C  C754  1  0.53370000  0.91630000  0.14880000  1.0 -0.1209178572
C  C755  1  0.14880000  0.40120000  0.53370000  1.0 -0.1209178572
C  C756  1  0.40120000  0.14880000  0.91630000  1.0 -0.1209178572
C  C757  1  0.10120000  0.84880000  0.33370000  1.0 -0.1209178572
C  C758  1  0.71630000  0.33370000  0.84880000  1.0 -0.1209178572
C  C759  1  0.84880000  0.10120000  0.71630000  1.0 -0.1209178572
C  C760  1  0.33370000  0.71630000  0.10120000  1.0 -0.1209178572
C  C761  1  0.53370000  0.40120000  0.91630000  1.0 -0.1209178572
C  C762  1  0.91630000  0.14880000  0.53370000  1.0 -0.1209178572
C  C763  1  0.40120000  0.53370000  0.14880000  1.0 -0.1209178572
C  C764  1  0.14880000  0.91630000  0.40120000  1.0 -0.1209178572
C  C765  1  0.84880000  0.71630000  0.33370000  1.0 -0.1209178572
C  C766  1  0.10120000  0.33370000  0.71630000  1.0 -0.1209178572
C  C767  1  0.33370000  0.10120000  0.84880000  1.0 -0.1209178572
C  C768  1  0.71630000  0.84880000  0.10120000  1.0 -0.1209178572
C  C769  1  0.84580000  0.36201000  0.84580000  1.0 0.6178572564
C  C770  1  0.94639000  0.84580000  0.36201000  1.0 0.6178572564
C  C771  1  0.36201000  0.84580000  0.94639000  1.0 0.6178572564
C  C772  1  0.84580000  0.94639000  0.84580000  1.0 0.6178572564
C  C773  1  0.30361000  0.40420000  0.40420000  1.0 0.6178572564
C  C774  1  0.40420000  0.88799000  0.30361000  1.0 0.6178572564
C  C775  1  0.40420000  0.30361000  0.88799000  1.0 0.6178572564
C  C776  1  0.88799000  0.40420000  0.40420000  1.0 0.6178572564
C  C777  1  0.36201000  0.84580000  0.84580000  1.0 0.6178572564
C  C778  1  0.84580000  0.36201000  0.94639000  1.0 0.6178572564
C  C779  1  0.94639000  0.84580000  0.84580000  1.0 0.6178572564
C  C780  1  0.84580000  0.94639000  0.36201000  1.0 0.6178572564
C  C781  1  0.30361000  0.40420000  0.88799000  1.0 0.6178572564
C  C782  1  0.40420000  0.88799000  0.40420000  1.0 0.6178572564
C  C783  1  0.40420000  0.30361000  0.40420000  1.0 0.6178572564
C  C784  1  0.88799000  0.40420000  0.30361000  1.0 0.6178572564
C  C785  1  0.84580000  0.84580000  0.36201000  1.0 0.6178572564
C  C786  1  0.36201000  0.94639000  0.84580000  1.0 0.6178572564
C  C787  1  0.84580000  0.84580000  0.94639000  1.0 0.6178572564
C  C788  1  0.94639000  0.36201000  0.84580000  1.0 0.6178572564
C  C789  1  0.40420000  0.40420000  0.88799000  1.0 0.6178572564
C  C790  1  0.30361000  0.88799000  0.40420000  1.0 0.6178572564
C  C791  1  0.88799000  0.30361000  0.40420000  1.0 0.6178572564
C  C792  1  0.40420000  0.40420000  0.30361000  1.0 0.6178572564
C  C793  1  0.86280000  0.36444000  0.86280000  1.0 -0.0269563487
C  C794  1  0.90996000  0.86280000  0.36444000  1.0 -0.0269563487
C  C795  1  0.36444000  0.86280000  0.90996000  1.0 -0.0269563487
C  C796  1  0.86280000  0.90996000  0.86280000  1.0 -0.0269563487
C  C797  1  0.34004000  0.38720000  0.38720000  1.0 -0.0269563487
C  C798  1  0.38720000  0.88556000  0.34004000  1.0 -0.0269563487
C  C799  1  0.38720000  0.34004000  0.88556000  1.0 -0.0269563487
C  C800  1  0.88556000  0.38720000  0.38720000  1.0 -0.0269563487
C  C801  1  0.36444000  0.86280000  0.86280000  1.0 -0.0269563487
C  C802  1  0.86280000  0.36444000  0.90996000  1.0 -0.0269563487
C  C803  1  0.90996000  0.86280000  0.86280000  1.0 -0.0269563487
C  C804  1  0.86280000  0.90996000  0.36444000  1.0 -0.0269563487
C  C805  1  0.34004000  0.38720000  0.88556000  1.0 -0.0269563487
C  C806  1  0.38720000  0.88556000  0.38720000  1.0 -0.0269563487
C  C807  1  0.38720000  0.34004000  0.38720000  1.0 -0.0269563487
C  C808  1  0.88556000  0.38720000  0.34004000  1.0 -0.0269563487
C  C809  1  0.86280000  0.86280000  0.36444000  1.0 -0.0269563487
C  C810  1  0.36444000  0.90996000  0.86280000  1.0 -0.0269563487
C  C811  1  0.86280000  0.86280000  0.90996000  1.0 -0.0269563487
C  C812  1  0.90996000  0.36444000  0.86280000  1.0 -0.0269563487
C  C813  1  0.38720000  0.38720000  0.88556000  1.0 -0.0269563487
C  C814  1  0.34004000  0.88556000  0.38720000  1.0 -0.0269563487
C  C815  1  0.88556000  0.34004000  0.38720000  1.0 -0.0269563487
C  C816  1  0.38720000  0.38720000  0.34004000  1.0 -0.0269563487
C  C817  1  0.89410000  0.36490000  0.84690000  1.0 -0.108350898
C  C818  1  0.89410000  0.84690000  0.36490000  1.0 -0.108350898
C  C819  1  0.36490000  0.89410000  0.89410000  1.0 -0.108350898
C  C820  1  0.84690000  0.89410000  0.89410000  1.0 -0.108350898
C  C821  1  0.35590000  0.40310000  0.35590000  1.0 -0.108350898
C  C822  1  0.35590000  0.88510000  0.35590000  1.0 -0.108350898
C  C823  1  0.40310000  0.35590000  0.88510000  1.0 -0.108350898
C  C824  1  0.88510000  0.35590000  0.40310000  1.0 -0.108350898
C  C825  1  0.36490000  0.84690000  0.89410000  1.0 -0.108350898
C  C826  1  0.84690000  0.36490000  0.89410000  1.0 -0.108350898
C  C827  1  0.89410000  0.89410000  0.84690000  1.0 -0.108350898
C  C828  1  0.89410000  0.89410000  0.36490000  1.0 -0.108350898
C  C829  1  0.35590000  0.35590000  0.88510000  1.0 -0.108350898
C  C830  1  0.40310000  0.88510000  0.35590000  1.0 -0.108350898
C  C831  1  0.35590000  0.35590000  0.40310000  1.0 -0.108350898
C  C832  1  0.88510000  0.40310000  0.35590000  1.0 -0.108350898
C  C833  1  0.84690000  0.89410000  0.36490000  1.0 -0.108350898
C  C834  1  0.36490000  0.89410000  0.84690000  1.0 -0.108350898
C  C835  1  0.89410000  0.84690000  0.89410000  1.0 -0.108350898
C  C836  1  0.89410000  0.36490000  0.89410000  1.0 -0.108350898
C  C837  1  0.35590000  0.40310000  0.88510000  1.0 -0.108350898
C  C838  1  0.35590000  0.88510000  0.40310000  1.0 -0.108350898
C  C839  1  0.88510000  0.35590000  0.35590000  1.0 -0.108350898
C  C840  1  0.40310000  0.35590000  0.35590000  1.0 -0.108350898
C  C841  1  0.90150000  0.28090000  0.81838000  1.0 0.6122409431
C  C842  1  0.99922000  0.81838000  0.28090000  1.0 0.6122409431
C  C843  1  0.28090000  0.90150000  0.99922000  1.0 0.6122409431
C  C844  1  0.81838000  0.99922000  0.90150000  1.0 0.6122409431
C  C845  1  0.25078000  0.43162000  0.34850000  1.0 0.6122409431
C  C846  1  0.34850000  0.96910000  0.25078000  1.0 0.6122409431
C  C847  1  0.43162000  0.25078000  0.96910000  1.0 0.6122409431
C  C848  1  0.96910000  0.34850000  0.43162000  1.0 0.6122409431
C  C849  1  0.28090000  0.81838000  0.90150000  1.0 0.6122409431
C  C850  1  0.81838000  0.28090000  0.99922000  1.0 0.6122409431
C  C851  1  0.99922000  0.90150000  0.81838000  1.0 0.6122409431
C  C852  1  0.90150000  0.99922000  0.28090000  1.0 0.6122409431
C  C853  1  0.25078000  0.34850000  0.96910000  1.0 0.6122409431
C  C854  1  0.43162000  0.96910000  0.34850000  1.0 0.6122409431
C  C855  1  0.34850000  0.25078000  0.43162000  1.0 0.6122409431
C  C856  1  0.96910000  0.43162000  0.25078000  1.0 0.6122409431
C  C857  1  0.81838000  0.90150000  0.28090000  1.0 0.6122409431
C  C858  1  0.28090000  0.99922000  0.81838000  1.0 0.6122409431
C  C859  1  0.90150000  0.81838000  0.99922000  1.0 0.6122409431
C  C860  1  0.99922000  0.28090000  0.90150000  1.0 0.6122409431
C  C861  1  0.34850000  0.43162000  0.96910000  1.0 0.6122409431
C  C862  1  0.25078000  0.96910000  0.43162000  1.0 0.6122409431
C  C863  1  0.96910000  0.25078000  0.34850000  1.0 0.6122409431
C  C864  1  0.43162000  0.34850000  0.25078000  1.0 0.6122409431
C  C865  1  0.34850000  0.96910000  0.43162000  1.0 0.6122409431
C  C866  1  0.25078000  0.43162000  0.96910000  1.0 0.6122409431
C  C867  1  0.96910000  0.34850000  0.25078000  1.0 0.6122409431
C  C868  1  0.43162000  0.25078000  0.34850000  1.0 0.6122409431
C  C869  1  0.99922000  0.81838000  0.90150000  1.0 0.6122409431
C  C870  1  0.90150000  0.28090000  0.99922000  1.0 0.6122409431
C  C871  1  0.81838000  0.99922000  0.28090000  1.0 0.6122409431
C  C872  1  0.28090000  0.90150000  0.81838000  1.0 0.6122409431
C  C873  1  0.96910000  0.43162000  0.34850000  1.0 0.6122409431
C  C874  1  0.43162000  0.96910000  0.25078000  1.0 0.6122409431
C  C875  1  0.25078000  0.34850000  0.43162000  1.0 0.6122409431
C  C876  1  0.34850000  0.25078000  0.96910000  1.0 0.6122409431
C  C877  1  0.99922000  0.90150000  0.28090000  1.0 0.6122409431
C  C878  1  0.81838000  0.28090000  0.90150000  1.0 0.6122409431
C  C879  1  0.90150000  0.99922000  0.81838000  1.0 0.6122409431
C  C880  1  0.28090000  0.81838000  0.99922000  1.0 0.6122409431
C  C881  1  0.43162000  0.34850000  0.96910000  1.0 0.6122409431
C  C882  1  0.96910000  0.25078000  0.43162000  1.0 0.6122409431
C  C883  1  0.34850000  0.43162000  0.25078000  1.0 0.6122409431
C  C884  1  0.25078000  0.96910000  0.34850000  1.0 0.6122409431
C  C885  1  0.90150000  0.81838000  0.28090000  1.0 0.6122409431
C  C886  1  0.99922000  0.28090000  0.81838000  1.0 0.6122409431
C  C887  1  0.28090000  0.99922000  0.90150000  1.0 0.6122409431
C  C888  1  0.81838000  0.90150000  0.99922000  1.0 0.6122409431
C  C889  1  0.93087000  0.26283000  0.82689000  1.0 -0.0601243021
C  C890  1  0.97941000  0.82689000  0.26283000  1.0 -0.0601243021
C  C891  1  0.26283000  0.93087000  0.97941000  1.0 -0.0601243021
C  C892  1  0.82689000  0.97941000  0.93087000  1.0 -0.0601243021
C  C893  1  0.27059000  0.42311000  0.31913000  1.0 -0.0601243021
C  C894  1  0.31913000  0.98717000  0.27059000  1.0 -0.0601243021
C  C895  1  0.42311000  0.27059000  0.98717000  1.0 -0.0601243021
C  C896  1  0.98717000  0.31913000  0.42311000  1.0 -0.0601243021
C  C897  1  0.26283000  0.82689000  0.93087000  1.0 -0.0601243021
C  C898  1  0.82689000  0.26283000  0.97941000  1.0 -0.0601243021
C  C899  1  0.97941000  0.93087000  0.82689000  1.0 -0.0601243021
C  C900  1  0.93087000  0.97941000  0.26283000  1.0 -0.0601243021
C  C901  1  0.27059000  0.31913000  0.98717000  1.0 -0.0601243021
C  C902  1  0.42311000  0.98717000  0.31913000  1.0 -0.0601243021
C  C903  1  0.31913000  0.27059000  0.42311000  1.0 -0.0601243021
C  C904  1  0.98717000  0.42311000  0.27059000  1.0 -0.0601243021
C  C905  1  0.82689000  0.93087000  0.26283000  1.0 -0.0601243021
C  C906  1  0.26283000  0.97941000  0.82689000  1.0 -0.0601243021
C  C907  1  0.93087000  0.82689000  0.97941000  1.0 -0.0601243021
C  C908  1  0.97941000  0.26283000  0.93087000  1.0 -0.0601243021
C  C909  1  0.31913000  0.42311000  0.98717000  1.0 -0.0601243021
C  C910  1  0.27059000  0.98717000  0.42311000  1.0 -0.0601243021
C  C911  1  0.98717000  0.27059000  0.31913000  1.0 -0.0601243021
C  C912  1  0.42311000  0.31913000  0.27059000  1.0 -0.0601243021
C  C913  1  0.31913000  0.98717000  0.42311000  1.0 -0.0601243021
C  C914  1  0.27059000  0.42311000  0.98717000  1.0 -0.0601243021
C  C915  1  0.98717000  0.31913000  0.27059000  1.0 -0.0601243021
C  C916  1  0.42311000  0.27059000  0.31913000  1.0 -0.0601243021
C  C917  1  0.97941000  0.82689000  0.93087000  1.0 -0.0601243021
C  C918  1  0.93087000  0.26283000  0.97941000  1.0 -0.0601243021
C  C919  1  0.82689000  0.97941000  0.26283000  1.0 -0.0601243021
C  C920  1  0.26283000  0.93087000  0.82689000  1.0 -0.0601243021
C  C921  1  0.98717000  0.42311000  0.31913000  1.0 -0.0601243021
C  C922  1  0.42311000  0.98717000  0.27059000  1.0 -0.0601243021
C  C923  1  0.27059000  0.31913000  0.42311000  1.0 -0.0601243021
C  C924  1  0.31913000  0.27059000  0.98717000  1.0 -0.0601243021
C  C925  1  0.97941000  0.93087000  0.26283000  1.0 -0.0601243021
C  C926  1  0.82689000  0.26283000  0.93087000  1.0 -0.0601243021
C  C927  1  0.93087000  0.97941000  0.82689000  1.0 -0.0601243021
C  C928  1  0.26283000  0.82689000  0.97941000  1.0 -0.0601243021
C  C929  1  0.42311000  0.31913000  0.98717000  1.0 -0.0601243021
C  C930  1  0.98717000  0.27059000  0.42311000  1.0 -0.0601243021
C  C931  1  0.31913000  0.42311000  0.27059000  1.0 -0.0601243021
C  C932  1  0.27059000  0.98717000  0.31913000  1.0 -0.0601243021
C  C933  1  0.93087000  0.82689000  0.26283000  1.0 -0.0601243021
C  C934  1  0.97941000  0.26283000  0.82689000  1.0 -0.0601243021
C  C935  1  0.26283000  0.97941000  0.93087000  1.0 -0.0601243021
C  C936  1  0.82689000  0.93087000  0.97941000  1.0 -0.0601243021
C  C937  1  0.95270000  0.27867000  0.81593000  1.0 -0.083075251
C  C938  1  0.95270000  0.81593000  0.27867000  1.0 -0.083075251
C  C939  1  0.27867000  0.95270000  0.95270000  1.0 -0.083075251
C  C940  1  0.81593000  0.95270000  0.95270000  1.0 -0.083075251
C  C941  1  0.29730000  0.43407000  0.29730000  1.0 -0.083075251
C  C942  1  0.29730000  0.97133000  0.29730000  1.0 -0.083075251
C  C943  1  0.43407000  0.29730000  0.97133000  1.0 -0.083075251
C  C944  1  0.97133000  0.29730000  0.43407000  1.0 -0.083075251
C  C945  1  0.27867000  0.81593000  0.95270000  1.0 -0.083075251
C  C946  1  0.81593000  0.27867000  0.95270000  1.0 -0.083075251
C  C947  1  0.95270000  0.95270000  0.81593000  1.0 -0.083075251
C  C948  1  0.95270000  0.95270000  0.27867000  1.0 -0.083075251
C  C949  1  0.29730000  0.29730000  0.97133000  1.0 -0.083075251
C  C950  1  0.43407000  0.97133000  0.29730000  1.0 -0.083075251
C  C951  1  0.29730000  0.29730000  0.43407000  1.0 -0.083075251
C  C952  1  0.97133000  0.43407000  0.29730000  1.0 -0.083075251
C  C953  1  0.81593000  0.95270000  0.27867000  1.0 -0.083075251
C  C954  1  0.27867000  0.95270000  0.81593000  1.0 -0.083075251
C  C955  1  0.95270000  0.81593000  0.95270000  1.0 -0.083075251
C  C956  1  0.95270000  0.27867000  0.95270000  1.0 -0.083075251
C  C957  1  0.29730000  0.43407000  0.97133000  1.0 -0.083075251
C  C958  1  0.29730000  0.97133000  0.43407000  1.0 -0.083075251
C  C959  1  0.97133000  0.29730000  0.29730000  1.0 -0.083075251
C  C960  1  0.43407000  0.29730000  0.29730000  1.0 -0.083075251
C  C961  1  0.93722000  0.23102000  0.84834000  1.0 -0.0923350076
C  C962  1  0.98342000  0.84834000  0.23102000  1.0 -0.0923350076
C  C963  1  0.23102000  0.93722000  0.98342000  1.0 -0.0923350076
C  C964  1  0.84834000  0.98342000  0.93722000  1.0 -0.0923350076
C  C965  1  0.26658000  0.40166000  0.31278000  1.0 -0.0923350076
C  C966  1  0.31278000  0.01898000  0.26658000  1.0 -0.0923350076
C  C967  1  0.40166000  0.26658000  0.01898000  1.0 -0.0923350076
C  C968  1  0.01898000  0.31278000  0.40166000  1.0 -0.0923350076
C  C969  1  0.23102000  0.84834000  0.93722000  1.0 -0.0923350076
C  C970  1  0.84834000  0.23102000  0.98342000  1.0 -0.0923350076
C  C971  1  0.98342000  0.93722000  0.84834000  1.0 -0.0923350076
C  C972  1  0.93722000  0.98342000  0.23102000  1.0 -0.0923350076
C  C973  1  0.26658000  0.31278000  0.01898000  1.0 -0.0923350076
C  C974  1  0.40166000  0.01898000  0.31278000  1.0 -0.0923350076
C  C975  1  0.31278000  0.26658000  0.40166000  1.0 -0.0923350076
C  C976  1  0.01898000  0.40166000  0.26658000  1.0 -0.0923350076
C  C977  1  0.84834000  0.93722000  0.23102000  1.0 -0.0923350076
C  C978  1  0.23102000  0.98342000  0.84834000  1.0 -0.0923350076
C  C979  1  0.93722000  0.84834000  0.98342000  1.0 -0.0923350076
C  C980  1  0.98342000  0.23102000  0.93722000  1.0 -0.0923350076
C  C981  1  0.31278000  0.40166000  0.01898000  1.0 -0.0923350076
C  C982  1  0.26658000  0.01898000  0.40166000  1.0 -0.0923350076
C  C983  1  0.01898000  0.26658000  0.31278000  1.0 -0.0923350076
C  C984  1  0.40166000  0.31278000  0.26658000  1.0 -0.0923350076
C  C985  1  0.31278000  0.01898000  0.40166000  1.0 -0.0923350076
C  C986  1  0.26658000  0.40166000  0.01898000  1.0 -0.0923350076
C  C987  1  0.01898000  0.31278000  0.26658000  1.0 -0.0923350076
C  C988  1  0.40166000  0.26658000  0.31278000  1.0 -0.0923350076
C  C989  1  0.98342000  0.84834000  0.93722000  1.0 -0.0923350076
C  C990  1  0.93722000  0.23102000  0.98342000  1.0 -0.0923350076
C  C991  1  0.84834000  0.98342000  0.23102000  1.0 -0.0923350076
C  C992  1  0.23102000  0.93722000  0.84834000  1.0 -0.0923350076
C  C993  1  0.01898000  0.40166000  0.31278000  1.0 -0.0923350076
C  C994  1  0.40166000  0.01898000  0.26658000  1.0 -0.0923350076
C  C995  1  0.26658000  0.31278000  0.40166000  1.0 -0.0923350076
C  C996  1  0.31278000  0.26658000  0.01898000  1.0 -0.0923350076
C  C997  1  0.98342000  0.93722000  0.23102000  1.0 -0.0923350076
C  C998  1  0.84834000  0.23102000  0.93722000  1.0 -0.0923350076
C  C999  1  0.93722000  0.98342000  0.84834000  1.0 -0.0923350076
C  C1000  1  0.23102000  0.84834000  0.98342000  1.0 -0.0923350076
C  C1001  1  0.40166000  0.31278000  0.01898000  1.0 -0.0923350076
C  C1002  1  0.01898000  0.26658000  0.40166000  1.0 -0.0923350076
C  C1003  1  0.31278000  0.40166000  0.26658000  1.0 -0.0923350076
C  C1004  1  0.26658000  0.01898000  0.31278000  1.0 -0.0923350076
C  C1005  1  0.93722000  0.84834000  0.23102000  1.0 -0.0923350076
C  C1006  1  0.98342000  0.23102000  0.84834000  1.0 -0.0923350076
C  C1007  1  0.23102000  0.98342000  0.93722000  1.0 -0.0923350076
C  C1008  1  0.84834000  0.93722000  0.98342000  1.0 -0.0923350076
C  C1009  1  0.96310000  0.21548000  0.85832000  1.0 -0.0678235021
C  C1010  1  0.96310000  0.85832000  0.21548000  1.0 -0.0678235021
C  C1011  1  0.21548000  0.96310000  0.96310000  1.0 -0.0678235021
C  C1012  1  0.85832000  0.96310000  0.96310000  1.0 -0.0678235021
C  C1013  1  0.28690000  0.39168000  0.28690000  1.0 -0.0678235021
C  C1014  1  0.28690000  0.03452000  0.28690000  1.0 -0.0678235021
C  C1015  1  0.39168000  0.28690000  0.03452000  1.0 -0.0678235021
C  C1016  1  0.03452000  0.28690000  0.39168000  1.0 -0.0678235021
C  C1017  1  0.21548000  0.85832000  0.96310000  1.0 -0.0678235021
C  C1018  1  0.85832000  0.21548000  0.96310000  1.0 -0.0678235021
C  C1019  1  0.96310000  0.96310000  0.85832000  1.0 -0.0678235021
C  C1020  1  0.96310000  0.96310000  0.21548000  1.0 -0.0678235021
C  C1021  1  0.28690000  0.28690000  0.03452000  1.0 -0.0678235021
C  C1022  1  0.39168000  0.03452000  0.28690000  1.0 -0.0678235021
C  C1023  1  0.28690000  0.28690000  0.39168000  1.0 -0.0678235021
C  C1024  1  0.03452000  0.39168000  0.28690000  1.0 -0.0678235021
C  C1025  1  0.85832000  0.96310000  0.21548000  1.0 -0.0678235021
C  C1026  1  0.21548000  0.96310000  0.85832000  1.0 -0.0678235021
C  C1027  1  0.96310000  0.85832000  0.96310000  1.0 -0.0678235021
C  C1028  1  0.96310000  0.21548000  0.96310000  1.0 -0.0678235021
C  C1029  1  0.28690000  0.39168000  0.03452000  1.0 -0.0678235021
C  C1030  1  0.28690000  0.03452000  0.39168000  1.0 -0.0678235021
C  C1031  1  0.03452000  0.28690000  0.28690000  1.0 -0.0678235021
C  C1032  1  0.39168000  0.28690000  0.28690000  1.0 -0.0678235021
C  C1033  1  0.96640000  0.18378000  0.88342000  1.0 0.6178572564
C  C1034  1  0.96640000  0.88342000  0.18378000  1.0 0.6178572564
C  C1035  1  0.18378000  0.96640000  0.96640000  1.0 0.6178572564
C  C1036  1  0.88342000  0.96640000  0.96640000  1.0 0.6178572564
C  C1037  1  0.28360000  0.36658000  0.28360000  1.0 0.6178572564
C  C1038  1  0.28360000  0.06622000  0.28360000  1.0 0.6178572564
C  C1039  1  0.36658000  0.28360000  0.06622000  1.0 0.6178572564
C  C1040  1  0.06622000  0.28360000  0.36658000  1.0 0.6178572564
C  C1041  1  0.18378000  0.88342000  0.96640000  1.0 0.6178572564
C  C1042  1  0.88342000  0.18378000  0.96640000  1.0 0.6178572564
C  C1043  1  0.96640000  0.96640000  0.88342000  1.0 0.6178572564
C  C1044  1  0.96640000  0.96640000  0.18378000  1.0 0.6178572564
C  C1045  1  0.28360000  0.28360000  0.06622000  1.0 0.6178572564
C  C1046  1  0.36658000  0.06622000  0.28360000  1.0 0.6178572564
C  C1047  1  0.28360000  0.28360000  0.36658000  1.0 0.6178572564
C  C1048  1  0.06622000  0.36658000  0.28360000  1.0 0.6178572564
C  C1049  1  0.88342000  0.96640000  0.18378000  1.0 0.6178572564
C  C1050  1  0.18378000  0.96640000  0.88342000  1.0 0.6178572564
C  C1051  1  0.96640000  0.88342000  0.96640000  1.0 0.6178572564
C  C1052  1  0.96640000  0.18378000  0.96640000  1.0 0.6178572564
C  C1053  1  0.28360000  0.36658000  0.06622000  1.0 0.6178572564
C  C1054  1  0.28360000  0.06622000  0.36658000  1.0 0.6178572564
C  C1055  1  0.06622000  0.28360000  0.28360000  1.0 0.6178572564
C  C1056  1  0.36658000  0.28360000  0.28360000  1.0 0.6178572564
C  C1057  1  0.99610000  0.09350000  0.99610000  1.0 0.6178572564
C  C1058  1  0.91430000  0.99610000  0.09350000  1.0 0.6178572564
C  C1059  1  0.09350000  0.99610000  0.91430000  1.0 0.6178572564
C  C1060  1  0.99610000  0.91430000  0.99610000  1.0 0.6178572564
C  C1061  1  0.33570000  0.25390000  0.25390000  1.0 0.6178572564
C  C1062  1  0.25390000  0.15650000  0.33570000  1.0 0.6178572564
C  C1063  1  0.25390000  0.33570000  0.15650000  1.0 0.6178572564
C  C1064  1  0.15650000  0.25390000  0.25390000  1.0 0.6178572564
C  C1065  1  0.09350000  0.99610000  0.99610000  1.0 0.6178572564
C  C1066  1  0.99610000  0.09350000  0.91430000  1.0 0.6178572564
C  C1067  1  0.91430000  0.99610000  0.99610000  1.0 0.6178572564
C  C1068  1  0.99610000  0.91430000  0.09350000  1.0 0.6178572564
C  C1069  1  0.33570000  0.25390000  0.15650000  1.0 0.6178572564
C  C1070  1  0.25390000  0.15650000  0.25390000  1.0 0.6178572564
C  C1071  1  0.25390000  0.33570000  0.25390000  1.0 0.6178572564
C  C1072  1  0.15650000  0.25390000  0.33570000  1.0 0.6178572564
C  C1073  1  0.99610000  0.99610000  0.09350000  1.0 0.6178572564
C  C1074  1  0.09350000  0.91430000  0.99610000  1.0 0.6178572564
C  C1075  1  0.99610000  0.99610000  0.91430000  1.0 0.6178572564
C  C1076  1  0.91430000  0.09350000  0.99610000  1.0 0.6178572564
C  C1077  1  0.25390000  0.25390000  0.15650000  1.0 0.6178572564
C  C1078  1  0.33570000  0.15650000  0.25390000  1.0 0.6178572564
C  C1079  1  0.15650000  0.33570000  0.25390000  1.0 0.6178572564
C  C1080  1  0.25390000  0.25390000  0.33570000  1.0 0.6178572564
C  C1081  1  0.01430000  0.06110000  0.01430000  1.0 -0.0415640086
C  C1082  1  0.91030000  0.01430000  0.06110000  1.0 -0.0415640086
C  C1083  1  0.06110000  0.01430000  0.91030000  1.0 -0.0415640086
C  C1084  1  0.01430000  0.91030000  0.01430000  1.0 -0.0415640086
C  C1085  1  0.33970000  0.23570000  0.23570000  1.0 -0.0415640086
C  C1086  1  0.23570000  0.18890000  0.33970000  1.0 -0.0415640086
C  C1087  1  0.23570000  0.33970000  0.18890000  1.0 -0.0415640086
C  C1088  1  0.18890000  0.23570000  0.23570000  1.0 -0.0415640086
C  C1089  1  0.06110000  0.01430000  0.01430000  1.0 -0.0415640086
C  C1090  1  0.01430000  0.06110000  0.91030000  1.0 -0.0415640086
C  C1091  1  0.91030000  0.01430000  0.01430000  1.0 -0.0415640086
C  C1092  1  0.01430000  0.91030000  0.06110000  1.0 -0.0415640086
C  C1093  1  0.33970000  0.23570000  0.18890000  1.0 -0.0415640086
C  C1094  1  0.23570000  0.18890000  0.23570000  1.0 -0.0415640086
C  C1095  1  0.23570000  0.33970000  0.23570000  1.0 -0.0415640086
C  C1096  1  0.18890000  0.23570000  0.33970000  1.0 -0.0415640086
C  C1097  1  0.01430000  0.01430000  0.06110000  1.0 -0.0415640086
C  C1098  1  0.06110000  0.91030000  0.01430000  1.0 -0.0415640086
C  C1099  1  0.01430000  0.01430000  0.91030000  1.0 -0.0415640086
C  C1100  1  0.91030000  0.06110000  0.01430000  1.0 -0.0415640086
C  C1101  1  0.23570000  0.23570000  0.18890000  1.0 -0.0415640086
C  C1102  1  0.33970000  0.18890000  0.23570000  1.0 -0.0415640086
C  C1103  1  0.18890000  0.33970000  0.23570000  1.0 -0.0415640086
C  C1104  1  0.23570000  0.23570000  0.33970000  1.0 -0.0415640086
C  C1105  1  0.99782000  0.04600000  0.04600000  1.0 -0.108350898
C  C1106  1  0.91018000  0.04600000  0.04600000  1.0 -0.108350898
C  C1107  1  0.04600000  0.99782000  0.91018000  1.0 -0.108350898
C  C1108  1  0.04600000  0.91018000  0.99782000  1.0 -0.108350898
C  C1109  1  0.33982000  0.20400000  0.25218000  1.0 -0.108350898
C  C1110  1  0.25218000  0.20400000  0.33982000  1.0 -0.108350898
C  C1111  1  0.20400000  0.33982000  0.20400000  1.0 -0.108350898
C  C1112  1  0.20400000  0.25218000  0.20400000  1.0 -0.108350898
C  C1113  1  0.04600000  0.04600000  0.99782000  1.0 -0.108350898
C  C1114  1  0.04600000  0.04600000  0.91018000  1.0 -0.108350898
C  C1115  1  0.91018000  0.99782000  0.04600000  1.0 -0.108350898
C  C1116  1  0.99782000  0.91018000  0.04600000  1.0 -0.108350898
C  C1117  1  0.33982000  0.25218000  0.20400000  1.0 -0.108350898
C  C1118  1  0.20400000  0.20400000  0.25218000  1.0 -0.108350898
C  C1119  1  0.25218000  0.33982000  0.20400000  1.0 -0.108350898
C  C1120  1  0.20400000  0.20400000  0.33982000  1.0 -0.108350898
C  C1121  1  0.04600000  0.99782000  0.04600000  1.0 -0.108350898
C  C1122  1  0.04600000  0.91018000  0.04600000  1.0 -0.108350898
C  C1123  1  0.99782000  0.04600000  0.91018000  1.0 -0.108350898
C  C1124  1  0.91018000  0.04600000  0.99782000  1.0 -0.108350898
C  C1125  1  0.25218000  0.20400000  0.20400000  1.0 -0.108350898
C  C1126  1  0.33982000  0.20400000  0.20400000  1.0 -0.108350898
C  C1127  1  0.20400000  0.33982000  0.25218000  1.0 -0.108350898
C  C1128  1  0.20400000  0.25218000  0.33982000  1.0 -0.108350898
C  C1129  1  0.83940000  0.36880000  0.66620000  1.0 0.6178572564
C  C1130  1  0.12560000  0.66620000  0.36880000  1.0 0.6178572564
C  C1131  1  0.36880000  0.83940000  0.12560000  1.0 0.6178572564
C  C1132  1  0.66620000  0.12560000  0.83940000  1.0 0.6178572564
C  C1133  1  0.12440000  0.58380000  0.41060000  1.0 0.6178572564
C  C1134  1  0.41060000  0.88120000  0.12440000  1.0 0.6178572564
C  C1135  1  0.58380000  0.12440000  0.88120000  1.0 0.6178572564
C  C1136  1  0.88120000  0.41060000  0.58380000  1.0 0.6178572564
C  C1137  1  0.36880000  0.66620000  0.83940000  1.0 0.6178572564
C  C1138  1  0.66620000  0.36880000  0.12560000  1.0 0.6178572564
C  C1139  1  0.12560000  0.83940000  0.66620000  1.0 0.6178572564
C  C1140  1  0.83940000  0.12560000  0.36880000  1.0 0.6178572564
C  C1141  1  0.12440000  0.41060000  0.88120000  1.0 0.6178572564
C  C1142  1  0.58380000  0.88120000  0.41060000  1.0 0.6178572564
C  C1143  1  0.41060000  0.12440000  0.58380000  1.0 0.6178572564
C  C1144  1  0.88120000  0.58380000  0.12440000  1.0 0.6178572564
C  C1145  1  0.66620000  0.83940000  0.36880000  1.0 0.6178572564
C  C1146  1  0.36880000  0.12560000  0.66620000  1.0 0.6178572564
C  C1147  1  0.83940000  0.66620000  0.12560000  1.0 0.6178572564
C  C1148  1  0.12560000  0.36880000  0.83940000  1.0 0.6178572564
C  C1149  1  0.41060000  0.58380000  0.88120000  1.0 0.6178572564
C  C1150  1  0.12440000  0.88120000  0.58380000  1.0 0.6178572564
C  C1151  1  0.88120000  0.12440000  0.41060000  1.0 0.6178572564
C  C1152  1  0.58380000  0.41060000  0.12440000  1.0 0.6178572564
C  C1153  1  0.41060000  0.88120000  0.58380000  1.0 0.6178572564
C  C1154  1  0.12440000  0.58380000  0.88120000  1.0 0.6178572564
C  C1155  1  0.88120000  0.41060000  0.12440000  1.0 0.6178572564
C  C1156  1  0.58380000  0.12440000  0.41060000  1.0 0.6178572564
C  C1157  1  0.12560000  0.66620000  0.83940000  1.0 0.6178572564
C  C1158  1  0.83940000  0.36880000  0.12560000  1.0 0.6178572564
C  C1159  1  0.66620000  0.12560000  0.36880000  1.0 0.6178572564
C  C1160  1  0.36880000  0.83940000  0.66620000  1.0 0.6178572564
C  C1161  1  0.88120000  0.58380000  0.41060000  1.0 0.6178572564
C  C1162  1  0.58380000  0.88120000  0.12440000  1.0 0.6178572564
C  C1163  1  0.12440000  0.41060000  0.58380000  1.0 0.6178572564
C  C1164  1  0.41060000  0.12440000  0.88120000  1.0 0.6178572564
C  C1165  1  0.12560000  0.83940000  0.36880000  1.0 0.6178572564
C  C1166  1  0.66620000  0.36880000  0.83940000  1.0 0.6178572564
C  C1167  1  0.83940000  0.12560000  0.66620000  1.0 0.6178572564
C  C1168  1  0.36880000  0.66620000  0.12560000  1.0 0.6178572564
C  C1169  1  0.58380000  0.41060000  0.88120000  1.0 0.6178572564
C  C1170  1  0.88120000  0.12440000  0.58380000  1.0 0.6178572564
C  C1171  1  0.41060000  0.58380000  0.12440000  1.0 0.6178572564
C  C1172  1  0.12440000  0.88120000  0.41060000  1.0 0.6178572564
C  C1173  1  0.83940000  0.66620000  0.36880000  1.0 0.6178572564
C  C1174  1  0.12560000  0.36880000  0.66620000  1.0 0.6178572564
C  C1175  1  0.36880000  0.12560000  0.83940000  1.0 0.6178572564
C  C1176  1  0.66620000  0.83940000  0.12560000  1.0 0.6178572564
C  C1177  1  0.81120000  0.26620000  0.73000000  1.0 0.6178572564
C  C1178  1  0.19260000  0.73000000  0.26620000  1.0 0.6178572564
C  C1179  1  0.26620000  0.81120000  0.19260000  1.0 0.6178572564
C  C1180  1  0.73000000  0.19260000  0.81120000  1.0 0.6178572564
C  C1181  1  0.05740000  0.52000000  0.43880000  1.0 0.6178572564
C  C1182  1  0.43880000  0.98380000  0.05740000  1.0 0.6178572564
C  C1183  1  0.52000000  0.05740000  0.98380000  1.0 0.6178572564
C  C1184  1  0.98380000  0.43880000  0.52000000  1.0 0.6178572564
C  C1185  1  0.26620000  0.73000000  0.81120000  1.0 0.6178572564
C  C1186  1  0.73000000  0.26620000  0.19260000  1.0 0.6178572564
C  C1187  1  0.19260000  0.81120000  0.73000000  1.0 0.6178572564
C  C1188  1  0.81120000  0.19260000  0.26620000  1.0 0.6178572564
C  C1189  1  0.05740000  0.43880000  0.98380000  1.0 0.6178572564
C  C1190  1  0.52000000  0.98380000  0.43880000  1.0 0.6178572564
C  C1191  1  0.43880000  0.05740000  0.52000000  1.0 0.6178572564
C  C1192  1  0.98380000  0.52000000  0.05740000  1.0 0.6178572564
C  C1193  1  0.73000000  0.81120000  0.26620000  1.0 0.6178572564
C  C1194  1  0.26620000  0.19260000  0.73000000  1.0 0.6178572564
C  C1195  1  0.81120000  0.73000000  0.19260000  1.0 0.6178572564
C  C1196  1  0.19260000  0.26620000  0.81120000  1.0 0.6178572564
C  C1197  1  0.43880000  0.52000000  0.98380000  1.0 0.6178572564
C  C1198  1  0.05740000  0.98380000  0.52000000  1.0 0.6178572564
C  C1199  1  0.98380000  0.05740000  0.43880000  1.0 0.6178572564
C  C1200  1  0.52000000  0.43880000  0.05740000  1.0 0.6178572564
C  C1201  1  0.43880000  0.98380000  0.52000000  1.0 0.6178572564
C  C1202  1  0.05740000  0.52000000  0.98380000  1.0 0.6178572564
C  C1203  1  0.98380000  0.43880000  0.05740000  1.0 0.6178572564
C  C1204  1  0.52000000  0.05740000  0.43880000  1.0 0.6178572564
C  C1205  1  0.19260000  0.73000000  0.81120000  1.0 0.6178572564
C  C1206  1  0.81120000  0.26620000  0.19260000  1.0 0.6178572564
C  C1207  1  0.73000000  0.19260000  0.26620000  1.0 0.6178572564
C  C1208  1  0.26620000  0.81120000  0.73000000  1.0 0.6178572564
C  C1209  1  0.98380000  0.52000000  0.43880000  1.0 0.6178572564
C  C1210  1  0.52000000  0.98380000  0.05740000  1.0 0.6178572564
C  C1211  1  0.05740000  0.43880000  0.52000000  1.0 0.6178572564
C  C1212  1  0.43880000  0.05740000  0.98380000  1.0 0.6178572564
C  C1213  1  0.19260000  0.81120000  0.26620000  1.0 0.6178572564
C  C1214  1  0.73000000  0.26620000  0.81120000  1.0 0.6178572564
C  C1215  1  0.81120000  0.19260000  0.73000000  1.0 0.6178572564
C  C1216  1  0.26620000  0.73000000  0.19260000  1.0 0.6178572564
C  C1217  1  0.52000000  0.43880000  0.98380000  1.0 0.6178572564
C  C1218  1  0.98380000  0.05740000  0.52000000  1.0 0.6178572564
C  C1219  1  0.43880000  0.52000000  0.05740000  1.0 0.6178572564
C  C1220  1  0.05740000  0.98380000  0.43880000  1.0 0.6178572564
C  C1221  1  0.81120000  0.73000000  0.26620000  1.0 0.6178572564
C  C1222  1  0.19260000  0.26620000  0.73000000  1.0 0.6178572564
C  C1223  1  0.26620000  0.19260000  0.81120000  1.0 0.6178572564
C  C1224  1  0.73000000  0.81120000  0.19260000  1.0 0.6178572564
O  O1  1  0.04014000  0.13894000  0.91046000  1.0 -0.5492205536
O  O2  1  0.91046000  0.91046000  0.13894000  1.0 -0.5492205536
O  O3  1  0.13894000  0.04014000  0.91046000  1.0 -0.5492205536
O  O4  1  0.91046000  0.91046000  0.04014000  1.0 -0.5492205536
O  O5  1  0.33954000  0.33954000  0.20986000  1.0 -0.5492205536
O  O6  1  0.20986000  0.11106000  0.33954000  1.0 -0.5492205536
O  O7  1  0.33954000  0.33954000  0.11106000  1.0 -0.5492205536
O  O8  1  0.11106000  0.20986000  0.33954000  1.0 -0.5492205536
O  O9  1  0.13894000  0.91046000  0.04014000  1.0 -0.5492205536
O  O10  1  0.91046000  0.13894000  0.91046000  1.0 -0.5408794029
O  O11  1  0.91046000  0.04014000  0.91046000  1.0 -0.5492205536
O  O12  1  0.04014000  0.91046000  0.13894000  1.0 -0.5492205536
O  O13  1  0.33954000  0.20986000  0.11106000  1.0 -0.5492205536
O  O14  1  0.33954000  0.11106000  0.20986000  1.0 -0.5492205536
O  O15  1  0.20986000  0.33954000  0.33954000  1.0 -0.5492205536
O  O16  1  0.11106000  0.33954000  0.33954000  1.0 -0.5492205536
O  O17  1  0.91046000  0.04014000  0.13894000  1.0 -0.5492205536
O  O18  1  0.13894000  0.91046000  0.91046000  1.0 -0.5492205536
O  O19  1  0.04014000  0.91046000  0.91046000  1.0 -0.5492205536
O  O20  1  0.91046000  0.13894000  0.04014000  1.0 -0.5492205536
O  O21  1  0.20986000  0.33954000  0.11106000  1.0 -0.5492205536
O  O22  1  0.33954000  0.11106000  0.33954000  1.0 -0.5492205536
O  O23  1  0.11106000  0.33954000  0.20986000  1.0 -0.5492205536
O  O24  1  0.33954000  0.20986000  0.33954000  1.0 -0.5492205536
O  O25  1  0.95379000  0.13863000  0.95379000  1.0 -1.2321962439
O  O26  1  0.95379000  0.95379000  0.13863000  1.0 -1.2321962439
O  O27  1  0.13863000  0.95379000  0.95379000  1.0 -1.2321962439
O  O28  1  0.95379000  0.95379000  0.95379000  1.0 -1.2321962439
O  O29  1  0.29621000  0.29621000  0.29621000  1.0 -1.2321962439
O  O30  1  0.29621000  0.11137000  0.29621000  1.0 -1.2321962439
O  O31  1  0.29621000  0.29621000  0.11137000  1.0 -1.2321962439
O  O32  1  0.11137000  0.29621000  0.29621000  1.0 -1.2321962439
O  O33  1  0.98935000  0.17121000  0.89391000  1.0 -0.532082199
O  O34  1  0.94553000  0.89391000  0.17121000  1.0 -0.532082199
O  O35  1  0.17121000  0.98935000  0.94553000  1.0 -0.5408794029
O  O36  1  0.89391000  0.94553000  0.98935000  1.0 -0.532082199
O  O37  1  0.30447000  0.35609000  0.26065000  1.0 -0.532082199
O  O38  1  0.26065000  0.07879000  0.30447000  1.0 -0.532082199
O  O39  1  0.35609000  0.30447000  0.07879000  1.0 -0.532082199
O  O40  1  0.07879000  0.26065000  0.35609000  1.0 -0.532082199
O  O41  1  0.17121000  0.89391000  0.98935000  1.0 -0.532082199
O  O42  1  0.89391000  0.17121000  0.94553000  1.0 -0.5408794029
O  O43  1  0.94553000  0.98935000  0.89391000  1.0 -0.532082199
O  O44  1  0.98935000  0.94553000  0.17121000  1.0 -0.5408794029
O  O45  1  0.30447000  0.26065000  0.07879000  1.0 -0.532082199
O  O46  1  0.35609000  0.07879000  0.26065000  1.0 -0.532082199
O  O47  1  0.26065000  0.30447000  0.35609000  1.0 -0.532082199
O  O48  1  0.07879000  0.35609000  0.30447000  1.0 -0.532082199
O  O49  1  0.89391000  0.98935000  0.17121000  1.0 -0.532082199
O  O50  1  0.17121000  0.94553000  0.89391000  1.0 -0.5408794029
O  O51  1  0.98935000  0.89391000  0.94553000  1.0 -0.532082199
O  O52  1  0.94553000  0.17121000  0.98935000  1.0 -0.532082199
O  O53  1  0.26065000  0.35609000  0.07879000  1.0 -0.532082199
O  O54  1  0.30447000  0.07879000  0.35609000  1.0 -0.532082199
O  O55  1  0.07879000  0.30447000  0.26065000  1.0 -0.532082199
O  O56  1  0.35609000  0.26065000  0.30447000  1.0 -0.532082199
O  O57  1  0.26065000  0.07879000  0.35609000  1.0 -0.532082199
O  O58  1  0.30447000  0.35609000  0.07879000  1.0 -0.532082199
O  O59  1  0.07879000  0.26065000  0.30447000  1.0 -0.532082199
O  O60  1  0.35609000  0.30447000  0.26065000  1.0 -0.532082199
O  O61  1  0.94553000  0.89391000  0.98935000  1.0 -0.532082199
O  O62  1  0.98935000  0.17121000  0.94553000  1.0 -0.532082199
O  O63  1  0.89391000  0.94553000  0.17121000  1.0 -0.532082199
O  O64  1  0.17121000  0.98935000  0.89391000  1.0 -0.532082199
O  O65  1  0.07879000  0.35609000  0.26065000  1.0 -0.532082199
O  O66  1  0.35609000  0.07879000  0.30447000  1.0 -0.532082199
O  O67  1  0.30447000  0.26065000  0.35609000  1.0 -0.532082199
O  O68  1  0.26065000  0.30447000  0.07879000  1.0 -0.532082199
O  O69  1  0.94553000  0.98935000  0.17121000  1.0 -0.532082199
O  O70  1  0.89391000  0.17121000  0.98935000  1.0 -0.532082199
O  O71  1  0.98935000  0.94553000  0.89391000  1.0 -0.5408794029
O  O72  1  0.17121000  0.89391000  0.94553000  1.0 -0.5408794029
O  O73  1  0.35609000  0.26065000  0.07879000  1.0 -0.532082199
O  O74  1  0.07879000  0.30447000  0.35609000  1.0 -0.532082199
O  O75  1  0.26065000  0.35609000  0.30447000  1.0 -0.532082199
O  O76  1  0.30447000  0.07879000  0.26065000  1.0 -0.532082199
O  O77  1  0.98935000  0.89391000  0.17121000  1.0 -0.532082199
O  O78  1  0.94553000  0.17121000  0.89391000  1.0 -0.532082199
O  O79  1  0.17121000  0.94553000  0.98935000  1.0 -0.5408794029
O  O80  1  0.89391000  0.98935000  0.94553000  1.0 -0.532082199
O  O81  1  0.01103000  0.10573000  0.96701000  1.0 -0.5408794029
O  O82  1  0.91623000  0.96701000  0.10573000  1.0 -0.5408794029
O  O83  1  0.10573000  0.01103000  0.91623000  1.0 -0.5408794029
O  O84  1  0.96701000  0.91623000  0.01103000  1.0 -0.5408794029
O  O85  1  0.33377000  0.28299000  0.23897000  1.0 -0.5408794029
O  O86  1  0.23897000  0.14427000  0.33377000  1.0 -0.5408794029
O  O87  1  0.28299000  0.33377000  0.14427000  1.0 -0.5408794029
O  O88  1  0.14427000  0.23897000  0.28299000  1.0 -0.5408794029
O  O89  1  0.10573000  0.96701000  0.01103000  1.0 -0.5408794029
O  O90  1  0.96701000  0.10573000  0.91623000  1.0 -0.5408794029
O  O91  1  0.91623000  0.01103000  0.96701000  1.0 -0.5408794029
O  O92  1  0.01103000  0.91623000  0.10573000  1.0 -0.5408794029
O  O93  1  0.33377000  0.23897000  0.14427000  1.0 -0.5408794029
O  O94  1  0.28299000  0.14427000  0.23897000  1.0 -0.5408794029
O  O95  1  0.23897000  0.33377000  0.28299000  1.0 -0.5408794029
O  O96  1  0.14427000  0.28299000  0.33377000  1.0 -0.5408794029
O  O97  1  0.96701000  0.01103000  0.10573000  1.0 -0.5408794029
O  O98  1  0.10573000  0.91623000  0.96701000  1.0 -0.5408794029
O  O99  1  0.01103000  0.96701000  0.91623000  1.0 -0.5408794029
O  O100  1  0.91623000  0.10573000  0.01103000  1.0 -0.5408794029
O  O101  1  0.23897000  0.28299000  0.14427000  1.0 -0.5408794029
O  O102  1  0.33377000  0.14427000  0.28299000  1.0 -0.5408794029
O  O103  1  0.14427000  0.33377000  0.23897000  1.0 -0.5408794029
O  O104  1  0.28299000  0.23897000  0.33377000  1.0 -0.5408794029
O  O105  1  0.23897000  0.14427000  0.28299000  1.0 -0.5408794029
O  O106  1  0.33377000  0.28299000  0.14427000  1.0 -0.5408794029
O  O107  1  0.14427000  0.23897000  0.33377000  1.0 -0.5408794029
O  O108  1  0.28299000  0.33377000  0.23897000  1.0 -0.5408794029
O  O109  1  0.91623000  0.96701000  0.01103000  1.0 -0.5408794029
O  O110  1  0.01103000  0.10573000  0.91623000  1.0 -0.5408794029
O  O111  1  0.96701000  0.91623000  0.10573000  1.0 -0.5408794029
O  O112  1  0.10573000  0.01103000  0.96701000  1.0 -0.5408794029
O  O113  1  0.14427000  0.28299000  0.23897000  1.0 -0.5408794029
O  O114  1  0.28299000  0.14427000  0.33377000  1.0 -0.5408794029
O  O115  1  0.33377000  0.23897000  0.28299000  1.0 -0.5408794029
O  O116  1  0.23897000  0.33377000  0.14427000  1.0 -0.5408794029
O  O117  1  0.91623000  0.01103000  0.10573000  1.0 -0.5408794029
O  O118  1  0.96701000  0.10573000  0.01103000  1.0 -0.5408794029
O  O119  1  0.01103000  0.91623000  0.96701000  1.0 -0.5408794029
O  O120  1  0.10573000  0.96701000  0.91623000  1.0 -0.5408794029
O  O121  1  0.28299000  0.23897000  0.14427000  1.0 -0.5408794029
O  O122  1  0.14427000  0.33377000  0.28299000  1.0 -0.5408794029
O  O123  1  0.23897000  0.28299000  0.33377000  1.0 -0.5408794029
O  O124  1  0.33377000  0.14427000  0.23897000  1.0 -0.5408794029
O  O125  1  0.01103000  0.96701000  0.10573000  1.0 -0.5408794029
O  O126  1  0.91623000  0.10573000  0.96701000  1.0 -0.5408794029
O  O127  1  0.10573000  0.91623000  0.01103000  1.0 -0.5408794029
O  O128  1  0.96701000  0.01103000  0.91623000  1.0 -0.5408794029
O  O129  1  0.83074000  0.32196000  0.83074000  1.0 -1.2321962439
O  O130  1  0.01656000  0.83074000  0.32196000  1.0 -1.2321962439
O  O131  1  0.32196000  0.83074000  0.01656000  1.0 -1.2321962439
O  O132  1  0.83074000  0.01656000  0.83074000  1.0 -1.2321962439
O  O133  1  0.23344000  0.41926000  0.41926000  1.0 -1.2321962439
O  O134  1  0.41926000  0.92804000  0.23344000  1.0 -1.2321962439
O  O135  1  0.41926000  0.23344000  0.92804000  1.0 -1.2321962439
O  O136  1  0.92804000  0.41926000  0.41926000  1.0 -1.2321962439
O  O137  1  0.32196000  0.83074000  0.83074000  1.0 -1.2321962439
O  O138  1  0.83074000  0.32196000  0.01656000  1.0 -1.2321962439
O  O139  1  0.01656000  0.83074000  0.83074000  1.0 -1.2353978016
O  O140  1  0.83074000  0.01656000  0.32196000  1.0 -1.2321962439
O  O141  1  0.23344000  0.41926000  0.92804000  1.0 -1.2321962439
O  O142  1  0.41926000  0.92804000  0.41926000  1.0 -1.2321962439
O  O143  1  0.41926000  0.23344000  0.41926000  1.0 -1.2321962439
O  O144  1  0.92804000  0.41926000  0.23344000  1.0 -1.2321962439
O  O145  1  0.83074000  0.83074000  0.32196000  1.0 -1.2321962439
O  O146  1  0.32196000  0.01656000  0.83074000  1.0 -1.2321962439
O  O147  1  0.83074000  0.83074000  0.01656000  1.0 -1.2321962439
O  O148  1  0.01656000  0.32196000  0.83074000  1.0 -1.2321962439
O  O149  1  0.41926000  0.41926000  0.92804000  1.0 -1.2321962439
O  O150  1  0.23344000  0.92804000  0.41926000  1.0 -1.2321962439
O  O151  1  0.92804000  0.23344000  0.41926000  1.0 -1.2321962439
O  O152  1  0.41926000  0.41926000  0.23344000  1.0 -1.2321962439
O  O153  1  0.88646000  0.36538000  0.75792000  1.0 -0.6464019015
O  O154  1  0.99024000  0.75792000  0.36538000  1.0 -0.6464019015
O  O155  1  0.36538000  0.88646000  0.99024000  1.0 -0.6464019015
O  O156  1  0.75792000  0.99024000  0.88646000  1.0 -0.6464019015
O  O157  1  0.25976000  0.49208000  0.36354000  1.0 -0.6464019015
O  O158  1  0.36354000  0.88462000  0.25976000  1.0 -0.6444434234
O  O159  1  0.49208000  0.25976000  0.88462000  1.0 -0.6464019015
O  O160  1  0.88462000  0.36354000  0.49208000  1.0 -0.6613562562
O  O161  1  0.36538000  0.75792000  0.88646000  1.0 -0.6464019015
O  O162  1  0.75792000  0.36538000  0.99024000  1.0 -0.6464019015
O  O163  1  0.99024000  0.88646000  0.75792000  1.0 -0.6464019015
O  O164  1  0.88646000  0.99024000  0.36538000  1.0 -0.6464019015
O  O165  1  0.25976000  0.36354000  0.88462000  1.0 -0.6464019015
O  O166  1  0.49208000  0.88462000  0.36354000  1.0 -0.6464019015
O  O167  1  0.36354000  0.25976000  0.49208000  1.0 -0.6444434234
O  O168  1  0.88462000  0.49208000  0.25976000  1.0 -0.6464019015
O  O169  1  0.75792000  0.88646000  0.36538000  1.0 -0.6464019015
O  O170  1  0.36538000  0.99024000  0.75792000  1.0 -0.6464019015
O  O171  1  0.88646000  0.75792000  0.99024000  1.0 -0.6464019015
O  O172  1  0.99024000  0.36538000  0.88646000  1.0 -0.6464019015
O  O173  1  0.36354000  0.49208000  0.88462000  1.0 -0.6464019015
O  O174  1  0.25976000  0.88462000  0.49208000  1.0 -0.6464019015
O  O175  1  0.88462000  0.25976000  0.36354000  1.0 -0.6464019015
O  O176  1  0.49208000  0.36354000  0.25976000  1.0 -0.6464019015
O  O177  1  0.36354000  0.88462000  0.49208000  1.0 -0.6464019015
O  O178  1  0.25976000  0.49208000  0.88462000  1.0 -0.6464019015
O  O179  1  0.88462000  0.36354000  0.25976000  1.0 -0.6464019015
O  O180  1  0.49208000  0.25976000  0.36354000  1.0 -0.6464019015
O  O181  1  0.99024000  0.75792000  0.88646000  1.0 -0.6464019015
O  O182  1  0.88646000  0.36538000  0.99024000  1.0 -0.6464019015
O  O183  1  0.75792000  0.99024000  0.36538000  1.0 -0.6464019015
O  O184  1  0.36538000  0.88646000  0.75792000  1.0 -0.6464019015
O  O185  1  0.88462000  0.49208000  0.36354000  1.0 -0.6464019015
O  O186  1  0.49208000  0.88462000  0.25976000  1.0 -0.6444434234
O  O187  1  0.25976000  0.36354000  0.49208000  1.0 -0.6613562562
O  O188  1  0.36354000  0.25976000  0.88462000  1.0 -0.6464019015
O  O189  1  0.99024000  0.88646000  0.36538000  1.0 -0.6464019015
O  O190  1  0.75792000  0.36538000  0.88646000  1.0 -0.6464019015
O  O191  1  0.88646000  0.99024000  0.75792000  1.0 -0.6464019015
O  O192  1  0.36538000  0.75792000  0.99024000  1.0 -0.6464019015
O  O193  1  0.49208000  0.36354000  0.88462000  1.0 -0.6464019015
O  O194  1  0.88462000  0.25976000  0.49208000  1.0 -0.6464019015
O  O195  1  0.36354000  0.49208000  0.25976000  1.0 -0.6444434234
O  O196  1  0.25976000  0.88462000  0.36354000  1.0 -0.6464019015
O  O197  1  0.88646000  0.75792000  0.36538000  1.0 -0.6464019015
O  O198  1  0.99024000  0.36538000  0.75792000  1.0 -0.6464019015
O  O199  1  0.36538000  0.99024000  0.88646000  1.0 -0.6613562562
O  O200  1  0.75792000  0.88646000  0.99024000  1.0 -0.6464019015
O  O201  1  0.86187000  0.36107000  0.81783000  1.0 -0.532082199
O  O202  1  0.95923000  0.81783000  0.36107000  1.0 -0.532082199
O  O203  1  0.36107000  0.86187000  0.95923000  1.0 -0.532082199
O  O204  1  0.81783000  0.95923000  0.86187000  1.0 -0.532082199
O  O205  1  0.29077000  0.43217000  0.38813000  1.0 -0.532082199
O  O206  1  0.38813000  0.88893000  0.29077000  1.0 -0.532082199
O  O207  1  0.43217000  0.29077000  0.88893000  1.0 -0.532082199
O  O208  1  0.88893000  0.38813000  0.43217000  1.0 -0.532082199
O  O209  1  0.36107000  0.81783000  0.86187000  1.0 -0.532082199
O  O210  1  0.81783000  0.36107000  0.95923000  1.0 -0.532082199
O  O211  1  0.95923000  0.86187000  0.81783000  1.0 -0.532082199
O  O212  1  0.86187000  0.95923000  0.36107000  1.0 -0.532082199
O  O213  1  0.29077000  0.38813000  0.88893000  1.0 -0.532082199
O  O214  1  0.43217000  0.88893000  0.38813000  1.0 -0.532082199
O  O215  1  0.38813000  0.29077000  0.43217000  1.0 -0.532082199
O  O216  1  0.88893000  0.43217000  0.29077000  1.0 -0.532082199
O  O217  1  0.81783000  0.86187000  0.36107000  1.0 -0.532082199
O  O218  1  0.36107000  0.95923000  0.81783000  1.0 -0.532082199
O  O219  1  0.86187000  0.81783000  0.95923000  1.0 -0.532082199
O  O220  1  0.95923000  0.36107000  0.86187000  1.0 -0.532082199
O  O221  1  0.38813000  0.43217000  0.88893000  1.0 -0.532082199
O  O222  1  0.29077000  0.88893000  0.43217000  1.0 -0.532082199
O  O223  1  0.88893000  0.29077000  0.38813000  1.0 -0.532082199
O  O224  1  0.43217000  0.38813000  0.29077000  1.0 -0.532082199
O  O225  1  0.38813000  0.88893000  0.43217000  1.0 -0.532082199
O  O226  1  0.29077000  0.43217000  0.88893000  1.0 -0.532082199
O  O227  1  0.88893000  0.38813000  0.29077000  1.0 -0.532082199
O  O228  1  0.43217000  0.29077000  0.38813000  1.0 -0.532082199
O  O229  1  0.95923000  0.81783000  0.86187000  1.0 -0.532082199
O  O230  1  0.86187000  0.36107000  0.95923000  1.0 -0.532082199
O  O231  1  0.81783000  0.95923000  0.36107000  1.0 -0.532082199
O  O232  1  0.36107000  0.86187000  0.81783000  1.0 -0.532082199
O  O233  1  0.88893000  0.43217000  0.38813000  1.0 -0.532082199
O  O234  1  0.43217000  0.88893000  0.29077000  1.0 -0.532082199
O  O235  1  0.29077000  0.38813000  0.43217000  1.0 -0.532082199
O  O236  1  0.38813000  0.29077000  0.88893000  1.0 -0.532082199
O  O237  1  0.95923000  0.86187000  0.36107000  1.0 -0.532082199
O  O238  1  0.81783000  0.36107000  0.86187000  1.0 -0.532082199
O  O239  1  0.86187000  0.95923000  0.81783000  1.0 -0.532082199
O  O240  1  0.36107000  0.81783000  0.95923000  1.0 -0.532082199
O  O241  1  0.43217000  0.38813000  0.88893000  1.0 -0.532082199
O  O242  1  0.88893000  0.29077000  0.43217000  1.0 -0.532082199
O  O243  1  0.38813000  0.43217000  0.29077000  1.0 -0.532082199
O  O244  1  0.29077000  0.88893000  0.38813000  1.0 -0.532082199
O  O245  1  0.86187000  0.81783000  0.36107000  1.0 -0.532082199
O  O246  1  0.95923000  0.36107000  0.81783000  1.0 -0.532082199
O  O247  1  0.36107000  0.95923000  0.86187000  1.0 -0.532082199
O  O248  1  0.81783000  0.86187000  0.95923000  1.0 -0.532082199
O  O249  1  0.86006000  0.32738000  0.76686000  1.0 -0.5592667928
O  O250  1  0.04570000  0.76686000  0.32738000  1.0 -0.5592667928
O  O251  1  0.32738000  0.86006000  0.04570000  1.0 -0.5592667928
O  O252  1  0.76686000  0.04570000  0.86006000  1.0 -0.5592667928
O  O253  1  0.20430000  0.48314000  0.38994000  1.0 -0.5592667928
O  O254  1  0.38994000  0.92262000  0.20430000  1.0 -0.5592667928
O  O255  1  0.48314000  0.20430000  0.92262000  1.0 -0.5592667928
O  O256  1  0.92262000  0.38994000  0.48314000  1.0 -0.5592667928
O  O257  1  0.32738000  0.76686000  0.86006000  1.0 -0.5592667928
O  O258  1  0.76686000  0.32738000  0.04570000  1.0 -0.5592667928
O  O259  1  0.04570000  0.86006000  0.76686000  1.0 -0.5592667928
O  O260  1  0.86006000  0.04570000  0.32738000  1.0 -0.5592667928
O  O261  1  0.20430000  0.38994000  0.92262000  1.0 -0.5592667928
O  O262  1  0.48314000  0.92262000  0.38994000  1.0 -0.5592667928
O  O263  1  0.38994000  0.20430000  0.48314000  1.0 -0.5592667928
O  O264  1  0.92262000  0.48314000  0.20430000  1.0 -0.5592667928
O  O265  1  0.76686000  0.86006000  0.32738000  1.0 -0.5592667928
O  O266  1  0.32738000  0.04570000  0.76686000  1.0 -0.5592667928
O  O267  1  0.86006000  0.76686000  0.04570000  1.0 -0.5592667928
O  O268  1  0.04570000  0.32738000  0.86006000  1.0 -0.5592667928
O  O269  1  0.38994000  0.48314000  0.92262000  1.0 -0.5592667928
O  O270  1  0.20430000  0.92262000  0.48314000  1.0 -0.5592667928
O  O271  1  0.92262000  0.20430000  0.38994000  1.0 -0.5592667928
O  O272  1  0.48314000  0.38994000  0.20430000  1.0 -0.5592667928
O  O273  1  0.38994000  0.92262000  0.48314000  1.0 -0.5592667928
O  O274  1  0.20430000  0.48314000  0.92262000  1.0 -0.5592667928
O  O275  1  0.92262000  0.38994000  0.20430000  1.0 -0.5592667928
O  O276  1  0.48314000  0.20430000  0.38994000  1.0 -0.5592667928
O  O277  1  0.04570000  0.76686000  0.86006000  1.0 -0.5592667928
O  O278  1  0.86006000  0.32738000  0.04570000  1.0 -0.5592667928
O  O279  1  0.76686000  0.04570000  0.32738000  1.0 -0.5592667928
O  O280  1  0.32738000  0.86006000  0.76686000  1.0 -0.5592667928
O  O281  1  0.92262000  0.48314000  0.38994000  1.0 -0.5592667928
O  O282  1  0.48314000  0.92262000  0.20430000  1.0 -0.5592667928
O  O283  1  0.20430000  0.38994000  0.48314000  1.0 -0.5592667928
O  O284  1  0.38994000  0.20430000  0.92262000  1.0 -0.5592667928
O  O285  1  0.04570000  0.86006000  0.32738000  1.0 -0.5592667928
O  O286  1  0.76686000  0.32738000  0.86006000  1.0 -0.5592667928
O  O287  1  0.86006000  0.04570000  0.76686000  1.0 -0.5592667928
O  O288  1  0.32738000  0.76686000  0.04570000  1.0 -0.5592667928
O  O289  1  0.48314000  0.38994000  0.92262000  1.0 -0.5592667928
O  O290  1  0.92262000  0.20430000  0.48314000  1.0 -0.5592667928
O  O291  1  0.38994000  0.48314000  0.20430000  1.0 -0.5592667928
O  O292  1  0.20430000  0.92262000  0.38994000  1.0 -0.5592667928
O  O293  1  0.86006000  0.76686000  0.32738000  1.0 -0.5592667928
O  O294  1  0.04570000  0.32738000  0.76686000  1.0 -0.5592667928
O  O295  1  0.32738000  0.04570000  0.86006000  1.0 -0.5592667928
O  O296  1  0.76686000  0.86006000  0.04570000  1.0 -0.5592667928
O  O297  1  0.82458000  0.38082000  0.78114000  1.0 -0.5138620538
O  O298  1  0.01346000  0.78114000  0.38082000  1.0 -0.5138620538
O  O299  1  0.38082000  0.82458000  0.01346000  1.0 -0.5138620538
O  O300  1  0.78114000  0.01346000  0.82458000  1.0 -0.5138620538
O  O301  1  0.23654000  0.46886000  0.42542000  1.0 -0.5138620538
O  O302  1  0.42542000  0.86918000  0.23654000  1.0 -0.5138620538
O  O303  1  0.46886000  0.23654000  0.86918000  1.0 -0.5138620538
O  O304  1  0.86918000  0.42542000  0.46886000  1.0 -0.5138620538
O  O305  1  0.38082000  0.78114000  0.82458000  1.0 -0.5138620538
O  O306  1  0.78114000  0.38082000  0.01346000  1.0 -0.5138620538
O  O307  1  0.01346000  0.82458000  0.78114000  1.0 -0.5138620538
O  O308  1  0.82458000  0.01346000  0.38082000  1.0 -0.5138620538
O  O309  1  0.23654000  0.42542000  0.86918000  1.0 -0.5138620538
O  O310  1  0.46886000  0.86918000  0.42542000  1.0 -0.5138620538
O  O311  1  0.42542000  0.23654000  0.46886000  1.0 -0.5138620538
O  O312  1  0.86918000  0.46886000  0.23654000  1.0 -0.5138620538
O  O313  1  0.78114000  0.82458000  0.38082000  1.0 -0.5138620538
O  O314  1  0.38082000  0.01346000  0.78114000  1.0 -0.5138620538
O  O315  1  0.82458000  0.78114000  0.01346000  1.0 -0.5138620538
O  O316  1  0.01346000  0.38082000  0.82458000  1.0 -0.5138620538
O  O317  1  0.42542000  0.46886000  0.86918000  1.0 -0.5138620538
O  O318  1  0.23654000  0.86918000  0.46886000  1.0 -0.5138620538
O  O319  1  0.86918000  0.23654000  0.42542000  1.0 -0.5138620538
O  O320  1  0.46886000  0.42542000  0.23654000  1.0 -0.5138620538
O  O321  1  0.42542000  0.86918000  0.46886000  1.0 -0.5138620538
O  O322  1  0.23654000  0.46886000  0.86918000  1.0 -0.5138620538
O  O323  1  0.86918000  0.42542000  0.23654000  1.0 -0.5138620538
O  O324  1  0.46886000  0.23654000  0.42542000  1.0 -0.5138620538
O  O325  1  0.01346000  0.78114000  0.82458000  1.0 -0.5138620538
O  O326  1  0.82458000  0.38082000  0.01346000  1.0 -0.5138620538
O  O327  1  0.78114000  0.01346000  0.38082000  1.0 -0.5138620538
O  O328  1  0.38082000  0.82458000  0.78114000  1.0 -0.5138620538
O  O329  1  0.86918000  0.46886000  0.42542000  1.0 -0.5138620538
O  O330  1  0.46886000  0.86918000  0.23654000  1.0 -0.5138620538
O  O331  1  0.23654000  0.42542000  0.46886000  1.0 -0.5138620538
O  O332  1  0.42542000  0.23654000  0.86918000  1.0 -0.5138620538
O  O333  1  0.01346000  0.82458000  0.38082000  1.0 -0.5138620538
O  O334  1  0.78114000  0.38082000  0.82458000  1.0 -0.5138620538
O  O335  1  0.82458000  0.01346000  0.78114000  1.0 -0.5138620538
O  O336  1  0.38082000  0.78114000  0.01346000  1.0 -0.5138620538
O  O337  1  0.46886000  0.42542000  0.86918000  1.0 -0.5138620538
O  O338  1  0.86918000  0.23654000  0.46886000  1.0 -0.5138620538
O  O339  1  0.42542000  0.46886000  0.23654000  1.0 -0.5138620538
O  O340  1  0.23654000  0.86918000  0.42542000  1.0 -0.5138620538
O  O341  1  0.82458000  0.78114000  0.38082000  1.0 -0.5138620538
O  O342  1  0.01346000  0.38082000  0.78114000  1.0 -0.5138620538
O  O343  1  0.38082000  0.01346000  0.82458000  1.0 -0.5138620538
O  O344  1  0.78114000  0.82458000  0.01346000  1.0 -0.5138620538
O  O345  1  0.89644000  0.30978000  0.80164000  1.0 -0.5138620538
O  O346  1  0.99214000  0.80164000  0.30978000  1.0 -0.5162370973
O  O347  1  0.30978000  0.89644000  0.99214000  1.0 -0.5162370973
O  O348  1  0.80164000  0.99214000  0.89644000  1.0 -0.5162370973
O  O349  1  0.25786000  0.44836000  0.35356000  1.0 -0.5162370973
O  O350  1  0.35356000  0.94022000  0.25786000  1.0 -0.5162370973
O  O351  1  0.44836000  0.25786000  0.94022000  1.0 -0.5138620538
O  O352  1  0.94022000  0.35356000  0.44836000  1.0 -0.5138620538
O  O353  1  0.30978000  0.80164000  0.89644000  1.0 -0.5162370973
O  O354  1  0.80164000  0.30978000  0.99214000  1.0 -0.5138620538
O  O355  1  0.99214000  0.89644000  0.80164000  1.0 -0.5162370973
O  O356  1  0.89644000  0.99214000  0.30978000  1.0 -0.5162370973
O  O357  1  0.25786000  0.35356000  0.94022000  1.0 -0.5162370973
O  O358  1  0.44836000  0.94022000  0.35356000  1.0 -0.5162370973
O  O359  1  0.35356000  0.25786000  0.44836000  1.0 -0.5138620538
O  O360  1  0.94022000  0.44836000  0.25786000  1.0 -0.5162370973
O  O361  1  0.80164000  0.89644000  0.30978000  1.0 -0.5162370973
O  O362  1  0.30978000  0.99214000  0.80164000  1.0 -0.5162370973
O  O363  1  0.89644000  0.80164000  0.99214000  1.0 -0.5162370973
O  O364  1  0.99214000  0.30978000  0.89644000  1.0 -0.5138620538
O  O365  1  0.35356000  0.44836000  0.94022000  1.0 -0.5162370973
O  O366  1  0.25786000  0.94022000  0.44836000  1.0 -0.5162370973
O  O367  1  0.94022000  0.25786000  0.35356000  1.0 -0.5138620538
O  O368  1  0.44836000  0.35356000  0.25786000  1.0 -0.5162370973
O  O369  1  0.35356000  0.94022000  0.44836000  1.0 -0.5162370973
O  O370  1  0.25786000  0.44836000  0.94022000  1.0 -0.5162370973
O  O371  1  0.94022000  0.35356000  0.25786000  1.0 -0.5138620538
O  O372  1  0.44836000  0.25786000  0.35356000  1.0 -0.5162370973
O  O373  1  0.99214000  0.80164000  0.89644000  1.0 -0.5138620538
O  O374  1  0.89644000  0.30978000  0.99214000  1.0 -0.5138620538
O  O375  1  0.80164000  0.99214000  0.30978000  1.0 -0.5162370973
O  O376  1  0.30978000  0.89644000  0.80164000  1.0 -0.5162370973
O  O377  1  0.94022000  0.44836000  0.35356000  1.0 -0.5138620538
O  O378  1  0.44836000  0.94022000  0.25786000  1.0 -0.5162370973
O  O379  1  0.25786000  0.35356000  0.44836000  1.0 -0.5138620538
O  O380  1  0.35356000  0.25786000  0.94022000  1.0 -0.5138620538
O  O381  1  0.99214000  0.89644000  0.30978000  1.0 -0.5162370973
O  O382  1  0.80164000  0.30978000  0.89644000  1.0 -0.5138620538
O  O383  1  0.89644000  0.99214000  0.80164000  1.0 -0.5162370973
O  O384  1  0.30978000  0.80164000  0.99214000  1.0 -0.5162370973
O  O385  1  0.44836000  0.35356000  0.94022000  1.0 -0.5138620538
O  O386  1  0.94022000  0.25786000  0.44836000  1.0 -0.5138620538
O  O387  1  0.35356000  0.44836000  0.25786000  1.0 -0.5162370973
O  O388  1  0.25786000  0.94022000  0.35356000  1.0 -0.5162370973
O  O389  1  0.89644000  0.80164000  0.30978000  1.0 -0.5162370973
O  O390  1  0.99214000  0.30978000  0.80164000  1.0 -0.5138620538
O  O391  1  0.30978000  0.99214000  0.89644000  1.0 -0.5138620538
O  O392  1  0.80164000  0.89644000  0.99214000  1.0 -0.5162370973
O  O393  1  0.82412000  0.37470000  0.59624000  1.0 -0.584309765
O  O394  1  0.20494000  0.59624000  0.37470000  1.0 -0.5885258116
O  O395  1  0.37470000  0.82412000  0.20494000  1.0 -0.5885258116
O  O396  1  0.59624000  0.20494000  0.82412000  1.0 -0.5885258116
O  O397  1  0.04506000  0.65376000  0.42588000  1.0 -0.584309765
O  O398  1  0.42588000  0.87530000  0.04506000  1.0 -0.5885258116
O  O399  1  0.65376000  0.04506000  0.87530000  1.0 -0.5885258116
O  O400  1  0.87530000  0.42588000  0.65376000  1.0 -0.584309765
O  O401  1  0.37470000  0.59624000  0.82412000  1.0 -0.5885258116
O  O402  1  0.59624000  0.37470000  0.20494000  1.0 -0.584309765
O  O403  1  0.20494000  0.82412000  0.59624000  1.0 -0.5885258116
O  O404  1  0.82412000  0.20494000  0.37470000  1.0 -0.584309765
O  O405  1  0.04506000  0.42588000  0.87530000  1.0 -0.5885258116
O  O406  1  0.65376000  0.87530000  0.42588000  1.0 -0.5885258116
O  O407  1  0.42588000  0.04506000  0.65376000  1.0 -0.584309765
O  O408  1  0.87530000  0.65376000  0.04506000  1.0 -0.584309765
O  O409  1  0.59624000  0.82412000  0.37470000  1.0 -0.584309765
O  O410  1  0.37470000  0.20494000  0.59624000  1.0 -0.597707426
O  O411  1  0.82412000  0.59624000  0.20494000  1.0 -0.5885258116
O  O412  1  0.20494000  0.37470000  0.82412000  1.0 -0.5885258116
O  O413  1  0.42588000  0.65376000  0.87530000  1.0 -0.5885258116
O  O414  1  0.04506000  0.87530000  0.65376000  1.0 -0.5885258116
O  O415  1  0.87530000  0.04506000  0.42588000  1.0 -0.5885258116
O  O416  1  0.65376000  0.42588000  0.04506000  1.0 -0.584309765
O  O417  1  0.42588000  0.87530000  0.65376000  1.0 -0.5885258116
O  O418  1  0.04506000  0.65376000  0.87530000  1.0 -0.5885258116
O  O419  1  0.87530000  0.42588000  0.04506000  1.0 -0.584309765
O  O420  1  0.65376000  0.04506000  0.42588000  1.0 -0.5885258116
O  O421  1  0.20494000  0.59624000  0.82412000  1.0 -0.5885258116
O  O422  1  0.82412000  0.37470000  0.20494000  1.0 -0.5885258116
O  O423  1  0.59624000  0.20494000  0.37470000  1.0 -0.584309765
O  O424  1  0.37470000  0.82412000  0.59624000  1.0 -0.5885258116
O  O425  1  0.87530000  0.65376000  0.42588000  1.0 -0.584309765
O  O426  1  0.65376000  0.87530000  0.04506000  1.0 -0.5885258116
O  O427  1  0.04506000  0.42588000  0.65376000  1.0 -0.584309765
O  O428  1  0.42588000  0.04506000  0.87530000  1.0 -0.584309765
O  O429  1  0.20494000  0.82412000  0.37470000  1.0 -0.5885258116
O  O430  1  0.59624000  0.37470000  0.82412000  1.0 -0.5885258116
O  O431  1  0.82412000  0.20494000  0.59624000  1.0 -0.5885258116
O  O432  1  0.37470000  0.59624000  0.20494000  1.0 -0.5885258116
O  O433  1  0.65376000  0.42588000  0.87530000  1.0 -0.5885258116
O  O434  1  0.87530000  0.04506000  0.65376000  1.0 -0.5885258116
O  O435  1  0.42588000  0.65376000  0.04506000  1.0 -0.5885258116
O  O436  1  0.04506000  0.87530000  0.42588000  1.0 -0.5885258116
O  O437  1  0.82412000  0.59624000  0.37470000  1.0 -0.584309765
O  O438  1  0.20494000  0.37470000  0.59624000  1.0 -0.584309765
O  O439  1  0.37470000  0.20494000  0.82412000  1.0 -0.5885258116
O  O440  1  0.59624000  0.82412000  0.20494000  1.0 -0.5885258116
O  O441  1  0.81200000  0.43800000  0.62500000  1.0 -1.2563279329
O  O442  1  0.12500000  0.62500000  0.43800000  1.0 -1.2563279329
O  O443  1  0.43800000  0.81200000  0.12500000  1.0 -1.2563279329
O  O444  1  0.62500000  0.12500000  0.81200000  1.0 -1.2563279329
O  O445  1  0.43800000  0.62500000  0.81200000  1.0 -1.2563279329
O  O446  1  0.62500000  0.43800000  0.12500000  1.0 -1.2563279329
O  O447  1  0.12500000  0.81200000  0.62500000  1.0 -1.2563279329
O  O448  1  0.81200000  0.12500000  0.43800000  1.0 -1.2563279329
O  O449  1  0.12500000  0.43800000  0.81200000  1.0 -1.2563279329
O  O450  1  0.62500000  0.81200000  0.43800000  1.0 -1.2563279329
O  O451  1  0.43800000  0.12500000  0.62500000  1.0 -1.2563279329
O  O452  1  0.81200000  0.62500000  0.12500000  1.0 -1.2563279329
O  O453  1  0.43800000  0.81200000  0.62500000  1.0 -1.2563279329
O  O454  1  0.12500000  0.62500000  0.81200000  1.0 -1.2563279329
O  O455  1  0.81200000  0.43800000  0.12500000  1.0 -1.2563279329
O  O456  1  0.62500000  0.12500000  0.43800000  1.0 -1.2563279329
O  O457  1  0.81200000  0.62500000  0.43800000  1.0 -1.2563279329
O  O458  1  0.62500000  0.81200000  0.12500000  1.0 -1.2563279329
O  O459  1  0.12500000  0.43800000  0.62500000  1.0 -1.2563279329
O  O460  1  0.43800000  0.12500000  0.81200000  1.0 -1.2563279329
O  O461  1  0.12500000  0.81200000  0.43800000  1.0 -1.2563279329
O  O462  1  0.62500000  0.43800000  0.81200000  1.0 -1.2563279329
O  O463  1  0.81200000  0.12500000  0.62500000  1.0 -1.2563279329
O  O464  1  0.43800000  0.62500000  0.12500000  1.0 -1.2563279329
O  O465  1  0.83270000  0.37114000  0.64394000  1.0 -0.5408794029
O  O466  1  0.15222000  0.64394000  0.37114000  1.0 -0.5408794029
O  O467  1  0.37114000  0.83270000  0.15222000  1.0 -0.5408794029
O  O468  1  0.64394000  0.15222000  0.83270000  1.0 -0.5408794029
O  O469  1  0.09778000  0.60606000  0.41730000  1.0 -0.5408794029
O  O470  1  0.41730000  0.87886000  0.09778000  1.0 -0.5408794029
O  O471  1  0.60606000  0.09778000  0.87886000  1.0 -0.5408794029
O  O472  1  0.87886000  0.41730000  0.60606000  1.0 -0.5408794029
O  O473  1  0.37114000  0.64394000  0.83270000  1.0 -0.5408794029
O  O474  1  0.64394000  0.37114000  0.15222000  1.0 -0.5408794029
O  O475  1  0.15222000  0.83270000  0.64394000  1.0 -0.5408794029
O  O476  1  0.83270000  0.15222000  0.37114000  1.0 -0.5408794029
O  O477  1  0.09778000  0.41730000  0.87886000  1.0 -0.5408794029
O  O478  1  0.60606000  0.87886000  0.41730000  1.0 -0.5408794029
O  O479  1  0.41730000  0.09778000  0.60606000  1.0 -0.5408794029
O  O480  1  0.87886000  0.60606000  0.09778000  1.0 -0.5408794029
O  O481  1  0.64394000  0.83270000  0.37114000  1.0 -0.5408794029
O  O482  1  0.37114000  0.15222000  0.64394000  1.0 -0.5408794029
O  O483  1  0.83270000  0.64394000  0.15222000  1.0 -0.5408794029
O  O484  1  0.15222000  0.37114000  0.83270000  1.0 -0.5408794029
O  O485  1  0.41730000  0.60606000  0.87886000  1.0 -0.5408794029
O  O486  1  0.09778000  0.87886000  0.60606000  1.0 -0.5408794029
O  O487  1  0.87886000  0.09778000  0.41730000  1.0 -0.5408794029
O  O488  1  0.60606000  0.41730000  0.09778000  1.0 -0.5408794029
O  O489  1  0.41730000  0.87886000  0.60606000  1.0 -0.5408794029
O  O490  1  0.09778000  0.60606000  0.87886000  1.0 -0.5408794029
O  O491  1  0.87886000  0.41730000  0.09778000  1.0 -0.5408794029
O  O492  1  0.60606000  0.09778000  0.41730000  1.0 -0.5408794029
O  O493  1  0.15222000  0.64394000  0.83270000  1.0 -0.5408794029
O  O494  1  0.83270000  0.37114000  0.15222000  1.0 -0.5408794029
O  O495  1  0.64394000  0.15222000  0.37114000  1.0 -0.5408794029
O  O496  1  0.37114000  0.83270000  0.64394000  1.0 -0.5408794029
O  O497  1  0.87886000  0.60606000  0.41730000  1.0 -0.5408794029
O  O498  1  0.60606000  0.87886000  0.09778000  1.0 -0.5408794029
O  O499  1  0.09778000  0.41730000  0.60606000  1.0 -0.5408794029
O  O500  1  0.41730000  0.09778000  0.87886000  1.0 -0.5408794029
O  O501  1  0.15222000  0.83270000  0.37114000  1.0 -0.5408794029
O  O502  1  0.64394000  0.37114000  0.83270000  1.0 -0.5408794029
O  O503  1  0.83270000  0.15222000  0.64394000  1.0 -0.5408794029
O  O504  1  0.37114000  0.64394000  0.15222000  1.0 -0.5408794029
O  O505  1  0.60606000  0.41730000  0.87886000  1.0 -0.5408794029
O  O506  1  0.87886000  0.09778000  0.60606000  1.0 -0.5408794029
O  O507  1  0.41730000  0.60606000  0.09778000  1.0 -0.5408794029
O  O508  1  0.09778000  0.87886000  0.41730000  1.0 -0.5408794029
O  O509  1  0.83270000  0.64394000  0.37114000  1.0 -0.5408794029
O  O510  1  0.15222000  0.37114000  0.64394000  1.0 -0.5408794029
O  O511  1  0.37114000  0.15222000  0.83270000  1.0 -0.5408794029
O  O512  1  0.64394000  0.83270000  0.15222000  1.0 -0.5408794029
O  O513  1  0.80570000  0.43570000  0.57482000  1.0 -0.532082199
O  O514  1  0.18378000  0.57482000  0.43570000  1.0 -0.532082199
O  O515  1  0.43570000  0.80570000  0.18378000  1.0 -0.532082199
O  O516  1  0.57482000  0.18378000  0.80570000  1.0 -0.532082199
O  O517  1  0.06622000  0.67518000  0.44430000  1.0 -0.532082199
O  O518  1  0.44430000  0.81430000  0.06622000  1.0 -0.532082199
O  O519  1  0.67518000  0.06622000  0.81430000  1.0 -0.532082199
O  O520  1  0.81430000  0.44430000  0.67518000  1.0 -0.532082199
O  O521  1  0.43570000  0.57482000  0.80570000  1.0 -0.532082199
O  O522  1  0.57482000  0.43570000  0.18378000  1.0 -0.532082199
O  O523  1  0.18378000  0.80570000  0.57482000  1.0 -0.532082199
O  O524  1  0.80570000  0.18378000  0.43570000  1.0 -0.532082199
O  O525  1  0.06622000  0.44430000  0.81430000  1.0 -0.532082199
O  O526  1  0.67518000  0.81430000  0.44430000  1.0 -0.532082199
O  O527  1  0.44430000  0.06622000  0.67518000  1.0 -0.532082199
O  O528  1  0.81430000  0.67518000  0.06622000  1.0 -0.532082199
O  O529  1  0.57482000  0.80570000  0.43570000  1.0 -0.532082199
O  O530  1  0.43570000  0.18378000  0.57482000  1.0 -0.532082199
O  O531  1  0.80570000  0.57482000  0.18378000  1.0 -0.532082199
O  O532  1  0.18378000  0.43570000  0.80570000  1.0 -0.532082199
O  O533  1  0.44430000  0.67518000  0.81430000  1.0 -0.532082199
O  O534  1  0.06622000  0.81430000  0.67518000  1.0 -0.532082199
O  O535  1  0.81430000  0.06622000  0.44430000  1.0 -0.532082199
O  O536  1  0.67518000  0.44430000  0.06622000  1.0 -0.532082199
O  O537  1  0.44430000  0.81430000  0.67518000  1.0 -0.532082199
O  O538  1  0.06622000  0.67518000  0.81430000  1.0 -0.532082199
O  O539  1  0.81430000  0.44430000  0.06622000  1.0 -0.532082199
O  O540  1  0.67518000  0.06622000  0.44430000  1.0 -0.532082199
O  O541  1  0.18378000  0.57482000  0.80570000  1.0 -0.532082199
O  O542  1  0.80570000  0.43570000  0.18378000  1.0 -0.532082199
O  O543  1  0.57482000  0.18378000  0.43570000  1.0 -0.532082199
O  O544  1  0.43570000  0.80570000  0.57482000  1.0 -0.532082199
O  O545  1  0.81430000  0.67518000  0.44430000  1.0 -0.532082199
O  O546  1  0.67518000  0.81430000  0.06622000  1.0 -0.532082199
O  O547  1  0.06622000  0.44430000  0.67518000  1.0 -0.532082199
O  O548  1  0.44430000  0.06622000  0.81430000  1.0 -0.532082199
O  O549  1  0.18378000  0.80570000  0.43570000  1.0 -0.532082199
O  O550  1  0.57482000  0.43570000  0.80570000  1.0 -0.532082199
O  O551  1  0.80570000  0.18378000  0.57482000  1.0 -0.532082199
O  O552  1  0.43570000  0.57482000  0.18378000  1.0 -0.532082199
O  O553  1  0.67518000  0.44430000  0.81430000  1.0 -0.532082199
O  O554  1  0.81430000  0.06622000  0.67518000  1.0 -0.532082199
O  O555  1  0.44430000  0.67518000  0.06622000  1.0 -0.532082199
O  O556  1  0.06622000  0.81430000  0.44430000  1.0 -0.532082199
O  O557  1  0.80570000  0.57482000  0.43570000  1.0 -0.532082199
O  O558  1  0.18378000  0.43570000  0.57482000  1.0 -0.532082199
O  O559  1  0.43570000  0.18378000  0.80570000  1.0 -0.532082199
O  O560  1  0.57482000  0.80570000  0.18378000  1.0 -0.532082199
O  O561  1  0.77715000  0.40223000  0.63723000  1.0 -0.5162370973
O  O562  1  0.18339000  0.63723000  0.40223000  1.0 -0.5162370973
O  O563  1  0.40223000  0.77715000  0.18339000  1.0 -0.5162370973
O  O564  1  0.63723000  0.18339000  0.77715000  1.0 -0.5138620538
O  O565  1  0.06661000  0.61277000  0.47285000  1.0 -0.5162370973
O  O566  1  0.47285000  0.84777000  0.06661000  1.0 -0.5162370973
O  O567  1  0.61277000  0.06661000  0.84777000  1.0 -0.5138620538
O  O568  1  0.84777000  0.47285000  0.61277000  1.0 -0.5162370973
O  O569  1  0.40223000  0.63723000  0.77715000  1.0 -0.5162370973
O  O570  1  0.63723000  0.40223000  0.18339000  1.0 -0.5162370973
O  O571  1  0.18339000  0.77715000  0.63723000  1.0 -0.5162370973
O  O572  1  0.77715000  0.18339000  0.40223000  1.0 -0.5138620538
O  O573  1  0.06661000  0.47285000  0.84777000  1.0 -0.5162370973
O  O574  1  0.61277000  0.84777000  0.47285000  1.0 -0.5162370973
O  O575  1  0.47285000  0.06661000  0.61277000  1.0 -0.5162370973
O  O576  1  0.84777000  0.61277000  0.06661000  1.0 -0.5162370973
O  O577  1  0.63723000  0.77715000  0.40223000  1.0 -0.5162370973
O  O578  1  0.40223000  0.18339000  0.63723000  1.0 -0.5138620538
O  O579  1  0.77715000  0.63723000  0.18339000  1.0 -0.5162370973
O  O580  1  0.18339000  0.40223000  0.77715000  1.0 -0.5162370973
O  O581  1  0.47285000  0.61277000  0.84777000  1.0 -0.5162370973
O  O582  1  0.06661000  0.84777000  0.61277000  1.0 -0.5162370973
O  O583  1  0.84777000  0.06661000  0.47285000  1.0 -0.5162370973
O  O584  1  0.61277000  0.47285000  0.06661000  1.0 -0.5162370973
O  O585  1  0.47285000  0.84777000  0.61277000  1.0 -0.5162370973
O  O586  1  0.06661000  0.61277000  0.84777000  1.0 -0.5162370973
O  O587  1  0.84777000  0.47285000  0.06661000  1.0 -0.5162370973
O  O588  1  0.61277000  0.06661000  0.47285000  1.0 -0.5162370973
O  O589  1  0.18339000  0.63723000  0.77715000  1.0 -0.5162370973
O  O590  1  0.77715000  0.40223000  0.18339000  1.0 -0.5162370973
O  O591  1  0.63723000  0.18339000  0.40223000  1.0 -0.5138620538
O  O592  1  0.40223000  0.77715000  0.63723000  1.0 -0.5162370973
O  O593  1  0.84777000  0.61277000  0.47285000  1.0 -0.5162370973
O  O594  1  0.61277000  0.84777000  0.06661000  1.0 -0.5162370973
O  O595  1  0.06661000  0.47285000  0.61277000  1.0 -0.5162370973
O  O596  1  0.47285000  0.06661000  0.84777000  1.0 -0.5162370973
O  O597  1  0.18339000  0.77715000  0.40223000  1.0 -0.5162370973
O  O598  1  0.63723000  0.40223000  0.77715000  1.0 -0.5138620538
O  O599  1  0.77715000  0.18339000  0.63723000  1.0 -0.5138620538
O  O600  1  0.40223000  0.63723000  0.18339000  1.0 -0.5162370973
O  O601  1  0.61277000  0.47285000  0.84777000  1.0 -0.5162370973
O  O602  1  0.84777000  0.06661000  0.61277000  1.0 -0.5138620538
O  O603  1  0.47285000  0.61277000  0.06661000  1.0 -0.5162370973
O  O604  1  0.06661000  0.84777000  0.47285000  1.0 -0.5162370973
O  O605  1  0.77715000  0.63723000  0.40223000  1.0 -0.5138620538
O  O606  1  0.18339000  0.40223000  0.63723000  1.0 -0.5162370973
O  O607  1  0.40223000  0.18339000  0.77715000  1.0 -0.5138620538
O  O608  1  0.63723000  0.77715000  0.18339000  1.0 -0.5162370973
O  O609  1  0.86040000  0.40486000  0.58398000  1.0 -0.5138620538
O  O610  1  0.15076000  0.58398000  0.40486000  1.0 -0.5162370973
O  O611  1  0.40486000  0.86040000  0.15076000  1.0 -0.5162370973
O  O612  1  0.58398000  0.15076000  0.86040000  1.0 -0.5138620538
O  O613  1  0.09924000  0.66602000  0.38960000  1.0 -0.5162370973
O  O614  1  0.38960000  0.84514000  0.09924000  1.0 -0.5162370973
O  O615  1  0.66602000  0.09924000  0.84514000  1.0 -0.5138620538
O  O616  1  0.84514000  0.38960000  0.66602000  1.0 -0.5138620538
O  O617  1  0.40486000  0.58398000  0.86040000  1.0 -0.5138620538
O  O618  1  0.58398000  0.40486000  0.15076000  1.0 -0.5138620538
O  O619  1  0.15076000  0.86040000  0.58398000  1.0 -0.5138620538
O  O620  1  0.86040000  0.15076000  0.40486000  1.0 -0.5138620538
O  O621  1  0.09924000  0.38960000  0.84514000  1.0 -0.5138620538
O  O622  1  0.66602000  0.84514000  0.38960000  1.0 -0.5138620538
O  O623  1  0.38960000  0.09924000  0.66602000  1.0 -0.5138620538
O  O624  1  0.84514000  0.66602000  0.09924000  1.0 -0.5138620538
O  O625  1  0.58398000  0.86040000  0.40486000  1.0 -0.5138620538
O  O626  1  0.40486000  0.15076000  0.58398000  1.0 -0.5138620538
O  O627  1  0.86040000  0.58398000  0.15076000  1.0 -0.5138620538
O  O628  1  0.15076000  0.40486000  0.86040000  1.0 -0.5138620538
O  O629  1  0.38960000  0.66602000  0.84514000  1.0 -0.5138620538
O  O630  1  0.09924000  0.84514000  0.66602000  1.0 -0.5162370973
O  O631  1  0.84514000  0.09924000  0.38960000  1.0 -0.5138620538
O  O632  1  0.66602000  0.38960000  0.09924000  1.0 -0.5138620538
O  O633  1  0.38960000  0.84514000  0.66602000  1.0 -0.5138620538
O  O634  1  0.09924000  0.66602000  0.84514000  1.0 -0.5138620538
O  O635  1  0.84514000  0.38960000  0.09924000  1.0 -0.5138620538
O  O636  1  0.66602000  0.09924000  0.38960000  1.0 -0.5138620538
O  O637  1  0.15076000  0.58398000  0.86040000  1.0 -0.5138620538
O  O638  1  0.86040000  0.40486000  0.15076000  1.0 -0.5138620538
O  O639  1  0.58398000  0.15076000  0.40486000  1.0 -0.5138620538
O  O640  1  0.40486000  0.86040000  0.58398000  1.0 -0.5138620538
O  O641  1  0.84514000  0.66602000  0.38960000  1.0 -0.5138620538
O  O642  1  0.66602000  0.84514000  0.09924000  1.0 -0.5138620538
O  O643  1  0.09924000  0.38960000  0.66602000  1.0 -0.5162370973
O  O644  1  0.38960000  0.09924000  0.84514000  1.0 -0.5138620538
O  O645  1  0.15076000  0.86040000  0.40486000  1.0 -0.5162370973
O  O646  1  0.58398000  0.40486000  0.86040000  1.0 -0.5138620538
O  O647  1  0.86040000  0.15076000  0.58398000  1.0 -0.5138620538
O  O648  1  0.40486000  0.58398000  0.15076000  1.0 -0.5138620538
O  O649  1  0.66602000  0.38960000  0.84514000  1.0 -0.5138620538
O  O650  1  0.84514000  0.09924000  0.66602000  1.0 -0.5138620538
O  O651  1  0.38960000  0.66602000  0.09924000  1.0 -0.5162370973
O  O652  1  0.09924000  0.84514000  0.38960000  1.0 -0.5162370973
O  O653  1  0.86040000  0.58398000  0.40486000  1.0 -0.5138620538
O  O654  1  0.15076000  0.40486000  0.58398000  1.0 -0.5138620538
O  O655  1  0.40486000  0.15076000  0.86040000  1.0 -0.5138620538
O  O656  1  0.58398000  0.86040000  0.15076000  1.0 -0.5138620538
O  O657  1  0.75400000  0.24600000  0.75400000  1.0 -1.2152791641
O  O658  1  0.24600000  0.75400000  0.24600000  1.0 -1.2152791641
O  O659  1  0.00400000  0.49600000  0.49600000  1.0 -1.2152791641
O  O660  1  0.49600000  0.00400000  0.00400000  1.0 -1.2152791641
O  O661  1  0.24600000  0.75400000  0.75400000  1.0 -1.2152791641
O  O662  1  0.75400000  0.24600000  0.24600000  1.0 -1.2152791641
O  O663  1  0.00400000  0.49600000  0.00400000  1.0 -1.2152791641
O  O664  1  0.49600000  0.00400000  0.49600000  1.0 -1.2152791641
O  O665  1  0.75400000  0.75400000  0.24600000  1.0 -1.2152791641
O  O666  1  0.24600000  0.24600000  0.75400000  1.0 -1.2152791641
O  O667  1  0.49600000  0.49600000  0.00400000  1.0 -1.2152791641
O  O668  1  0.00400000  0.00400000  0.49600000  1.0 -1.214002476
O  O669  1  0.79076000  0.27320000  0.66284000  1.0 -0.5162370973
O  O670  1  0.27320000  0.66284000  0.27320000  1.0 -0.5162370973
O  O671  1  0.27320000  0.79076000  0.27320000  1.0 -0.5162370973
O  O672  1  0.66284000  0.27320000  0.79076000  1.0 -0.5162370973
O  O673  1  0.97680000  0.58716000  0.45924000  1.0 -0.5162370973
O  O674  1  0.45924000  0.97680000  0.97680000  1.0 -0.5162370973
O  O675  1  0.58716000  0.97680000  0.97680000  1.0 -0.5162370973
O  O676  1  0.97680000  0.45924000  0.58716000  1.0 -0.5138620538
O  O677  1  0.27320000  0.66284000  0.79076000  1.0 -0.5162370973
O  O678  1  0.66284000  0.27320000  0.27320000  1.0 -0.5162370973
O  O679  1  0.27320000  0.79076000  0.66284000  1.0 -0.5162370973
O  O680  1  0.79076000  0.27320000  0.27320000  1.0 -0.5162370973
O  O681  1  0.97680000  0.45924000  0.97680000  1.0 -0.5162370973
O  O682  1  0.58716000  0.97680000  0.45924000  1.0 -0.5162370973
O  O683  1  0.45924000  0.97680000  0.58716000  1.0 -0.5138620538
O  O684  1  0.97680000  0.58716000  0.97680000  1.0 -0.5162370973
O  O685  1  0.66284000  0.79076000  0.27320000  1.0 -0.5162370973
O  O686  1  0.27320000  0.27320000  0.66284000  1.0 -0.5162370973
O  O687  1  0.79076000  0.66284000  0.27320000  1.0 -0.5162370973
O  O688  1  0.27320000  0.27320000  0.79076000  1.0 -0.5162370973
O  O689  1  0.45924000  0.58716000  0.97680000  1.0 -0.5162370973
O  O690  1  0.97680000  0.97680000  0.58716000  1.0 -0.5162370973
O  O691  1  0.97680000  0.97680000  0.45924000  1.0 -0.5162370973
O  O692  1  0.58716000  0.45924000  0.97680000  1.0 -0.5162370973
O  O693  1  0.80234000  0.27220000  0.70754000  1.0 -0.5492205536
O  O694  1  0.21792000  0.70754000  0.27220000  1.0 -0.5492205536
O  O695  1  0.27220000  0.80234000  0.21792000  1.0 -0.5492205536
O  O696  1  0.70754000  0.21792000  0.80234000  1.0 -0.5492205536
O  O697  1  0.03208000  0.54246000  0.44766000  1.0 -0.5492205536
O  O698  1  0.44766000  0.97780000  0.03208000  1.0 -0.5492205536
O  O699  1  0.54246000  0.03208000  0.97780000  1.0 -0.5492205536
O  O700  1  0.97780000  0.44766000  0.54246000  1.0 -0.5492205536
O  O701  1  0.27220000  0.70754000  0.80234000  1.0 -0.5492205536
O  O702  1  0.70754000  0.27220000  0.21792000  1.0 -0.5492205536
O  O703  1  0.21792000  0.80234000  0.70754000  1.0 -0.5492205536
O  O704  1  0.80234000  0.21792000  0.27220000  1.0 -0.5492205536
O  O705  1  0.03208000  0.44766000  0.97780000  1.0 -0.5492205536
O  O706  1  0.54246000  0.97780000  0.44766000  1.0 -0.5492205536
O  O707  1  0.44766000  0.03208000  0.54246000  1.0 -0.5492205536
O  O708  1  0.97780000  0.54246000  0.03208000  1.0 -0.5492205536
O  O709  1  0.70754000  0.80234000  0.27220000  1.0 -0.5492205536
O  O710  1  0.27220000  0.21792000  0.70754000  1.0 -0.5492205536
O  O711  1  0.80234000  0.70754000  0.21792000  1.0 -0.5492205536
O  O712  1  0.21792000  0.27220000  0.80234000  1.0 -0.5492205536
O  O713  1  0.44766000  0.54246000  0.97780000  1.0 -0.5492205536
O  O714  1  0.03208000  0.97780000  0.54246000  1.0 -0.5492205536
O  O715  1  0.97780000  0.03208000  0.44766000  1.0 -0.5492205536
O  O716  1  0.54246000  0.44766000  0.03208000  1.0 -0.5492205536
O  O717  1  0.44766000  0.97780000  0.54246000  1.0 -0.5492205536
O  O718  1  0.03208000  0.54246000  0.97780000  1.0 -0.5492205536
O  O719  1  0.97780000  0.44766000  0.03208000  1.0 -0.5492205536
O  O720  1  0.54246000  0.03208000  0.44766000  1.0 -0.5492205536
O  O721  1  0.21792000  0.70754000  0.80234000  1.0 -0.5492205536
O  O722  1  0.80234000  0.27220000  0.21792000  1.0 -0.5492205536
O  O723  1  0.70754000  0.21792000  0.27220000  1.0 -0.5492205536
O  O724  1  0.27220000  0.80234000  0.70754000  1.0 -0.5492205536
O  O725  1  0.97780000  0.54246000  0.44766000  1.0 -0.5492205536
O  O726  1  0.54246000  0.97780000  0.03208000  1.0 -0.5492205536
O  O727  1  0.03208000  0.44766000  0.54246000  1.0 -0.5492205536
O  O728  1  0.44766000  0.03208000  0.97780000  1.0 -0.5492205536
O  O729  1  0.21792000  0.80234000  0.27220000  1.0 -0.5492205536
O  O730  1  0.70754000  0.27220000  0.80234000  1.0 -0.5492205536
O  O731  1  0.80234000  0.21792000  0.70754000  1.0 -0.5492205536
O  O732  1  0.27220000  0.70754000  0.21792000  1.0 -0.5492205536
O  O733  1  0.54246000  0.44766000  0.97780000  1.0 -0.5492205536
O  O734  1  0.97780000  0.03208000  0.54246000  1.0 -0.5492205536
O  O735  1  0.44766000  0.54246000  0.03208000  1.0 -0.5492205536
O  O736  1  0.03208000  0.97780000  0.44766000  1.0 -0.5492205536
O  O737  1  0.80234000  0.70754000  0.27220000  1.0 -0.5492205536
O  O738  1  0.21792000  0.27220000  0.70754000  1.0 -0.5492205536
O  O739  1  0.27220000  0.21792000  0.80234000  1.0 -0.5492205536
O  O740  1  0.70754000  0.80234000  0.21792000  1.0 -0.5492205536
O  O741  1  0.70227000  0.30389000  0.74595000  1.0 -0.5408794029
O  O742  1  0.24789000  0.74595000  0.30389000  1.0 -0.5408794029
O  O743  1  0.30389000  0.70227000  0.24789000  1.0 -0.5408794029
O  O744  1  0.74595000  0.24789000  0.70227000  1.0 -0.5408794029
O  O745  1  0.00211000  0.50405000  0.54773000  1.0 -0.5408794029
O  O746  1  0.54773000  0.94611000  0.00211000  1.0 -0.5408794029
O  O747  1  0.50405000  0.00211000  0.94611000  1.0 -0.5408794029
O  O748  1  0.94611000  0.54773000  0.50405000  1.0 -0.5408794029
O  O749  1  0.30389000  0.74595000  0.70227000  1.0 -0.5408794029
O  O750  1  0.74595000  0.30389000  0.24789000  1.0 -0.5408794029
O  O751  1  0.24789000  0.70227000  0.74595000  1.0 -0.5408794029
O  O752  1  0.70227000  0.24789000  0.30389000  1.0 -0.5408794029
O  O753  1  0.00211000  0.54773000  0.94611000  1.0 -0.5408794029
O  O754  1  0.50405000  0.94611000  0.54773000  1.0 -0.5408794029
O  O755  1  0.54773000  0.00211000  0.50405000  1.0 -0.5408794029
O  O756  1  0.94611000  0.50405000  0.00211000  1.0 -0.5408794029
O  O757  1  0.74595000  0.70227000  0.30389000  1.0 -0.5408794029
O  O758  1  0.30389000  0.24789000  0.74595000  1.0 -0.5408794029
O  O759  1  0.70227000  0.74595000  0.24789000  1.0 -0.5408794029
O  O760  1  0.24789000  0.30389000  0.70227000  1.0 -0.5408794029
O  O761  1  0.54773000  0.50405000  0.94611000  1.0 -0.5408794029
O  O762  1  0.00211000  0.94611000  0.50405000  1.0 -0.5408794029
O  O763  1  0.94611000  0.00211000  0.54773000  1.0 -0.5408794029
O  O764  1  0.50405000  0.54773000  0.00211000  1.0 -0.5408794029
O  O765  1  0.54773000  0.94611000  0.50405000  1.0 -0.5408794029
O  O766  1  0.00211000  0.50405000  0.94611000  1.0 -0.5408794029
O  O767  1  0.94611000  0.54773000  0.00211000  1.0 -0.5408794029
O  O768  1  0.50405000  0.00211000  0.54773000  1.0 -0.5408794029
O  O769  1  0.24789000  0.74595000  0.70227000  1.0 -0.5408794029
O  O770  1  0.70227000  0.30389000  0.24789000  1.0 -0.5408794029
O  O771  1  0.74595000  0.24789000  0.30389000  1.0 -0.5408794029
O  O772  1  0.30389000  0.70227000  0.74595000  1.0 -0.5408794029
O  O773  1  0.94611000  0.50405000  0.54773000  1.0 -0.5408794029
O  O774  1  0.50405000  0.94611000  0.00211000  1.0 -0.5408794029
O  O775  1  0.00211000  0.54773000  0.50405000  1.0 -0.5408794029
O  O776  1  0.54773000  0.00211000  0.94611000  1.0 -0.5408794029
O  O777  1  0.24789000  0.70227000  0.30389000  1.0 -0.5408794029
O  O778  1  0.74595000  0.30389000  0.70227000  1.0 -0.5408794029
O  O779  1  0.70227000  0.24789000  0.74595000  1.0 -0.5408794029
O  O780  1  0.30389000  0.74595000  0.24789000  1.0 -0.5408794029
O  O781  1  0.50405000  0.54773000  0.94611000  1.0 -0.5408794029
O  O782  1  0.94611000  0.00211000  0.50405000  1.0 -0.5408794029
O  O783  1  0.54773000  0.50405000  0.00211000  1.0 -0.5408794029
O  O784  1  0.00211000  0.94611000  0.54773000  1.0 -0.5408794029
O  O785  1  0.70227000  0.74595000  0.30389000  1.0 -0.5408794029
O  O786  1  0.24789000  0.30389000  0.74595000  1.0 -0.5408794029
O  O787  1  0.30389000  0.24789000  0.70227000  1.0 -0.5408794029
O  O788  1  0.74595000  0.70227000  0.24789000  1.0 -0.5408794029
O  O789  1  0.74634000  0.44874000  0.64652000  1.0 -0.597707426
O  O790  1  0.15840000  0.64652000  0.44874000  1.0 -0.597707426
O  O791  1  0.44874000  0.74634000  0.15840000  1.0 -0.597707426
O  O792  1  0.64652000  0.15840000  0.74634000  1.0 -0.597707426
O  O793  1  0.09160000  0.60348000  0.50366000  1.0 -0.597707426
O  O794  1  0.50366000  0.80126000  0.09160000  1.0 -0.597707426
O  O795  1  0.60348000  0.09160000  0.80126000  1.0 -0.597707426
O  O796  1  0.80126000  0.50366000  0.60348000  1.0 -0.597707426
O  O797  1  0.44874000  0.64652000  0.74634000  1.0 -0.597707426
O  O798  1  0.64652000  0.44874000  0.15840000  1.0 -0.597707426
O  O799  1  0.15840000  0.74634000  0.64652000  1.0 -0.597707426
O  O800  1  0.74634000  0.15840000  0.44874000  1.0 -0.597707426
O  O801  1  0.09160000  0.50366000  0.80126000  1.0 -0.597707426
O  O802  1  0.60348000  0.80126000  0.50366000  1.0 -0.597707426
O  O803  1  0.50366000  0.09160000  0.60348000  1.0 -0.597707426
O  O804  1  0.80126000  0.60348000  0.09160000  1.0 -0.597707426
O  O805  1  0.64652000  0.74634000  0.44874000  1.0 -0.597707426
O  O806  1  0.44874000  0.15840000  0.64652000  1.0 -0.597707426
O  O807  1  0.74634000  0.64652000  0.15840000  1.0 -0.597707426
O  O808  1  0.15840000  0.44874000  0.74634000  1.0 -0.597707426
O  O809  1  0.50366000  0.60348000  0.80126000  1.0 -0.597707426
O  O810  1  0.09160000  0.80126000  0.60348000  1.0 -0.597707426
O  O811  1  0.80126000  0.09160000  0.50366000  1.0 -0.597707426
O  O812  1  0.60348000  0.50366000  0.09160000  1.0 -0.597707426
O  O813  1  0.50366000  0.80126000  0.60348000  1.0 -0.597707426
O  O814  1  0.09160000  0.60348000  0.80126000  1.0 -0.597707426
O  O815  1  0.80126000  0.50366000  0.09160000  1.0 -0.597707426
O  O816  1  0.60348000  0.09160000  0.50366000  1.0 -0.597707426
O  O817  1  0.15840000  0.64652000  0.74634000  1.0 -0.597707426
O  O818  1  0.74634000  0.44874000  0.15840000  1.0 -0.597707426
O  O819  1  0.64652000  0.15840000  0.44874000  1.0 -0.597707426
O  O820  1  0.44874000  0.74634000  0.64652000  1.0 -0.597707426
O  O821  1  0.80126000  0.60348000  0.50366000  1.0 -0.597707426
O  O822  1  0.60348000  0.80126000  0.09160000  1.0 -0.597707426
O  O823  1  0.09160000  0.50366000  0.60348000  1.0 -0.597707426
O  O824  1  0.50366000  0.09160000  0.80126000  1.0 -0.597707426
O  O825  1  0.15840000  0.74634000  0.44874000  1.0 -0.597707426
O  O826  1  0.64652000  0.44874000  0.74634000  1.0 -0.597707426
O  O827  1  0.74634000  0.15840000  0.64652000  1.0 -0.597707426
O  O828  1  0.44874000  0.64652000  0.15840000  1.0 -0.597707426
O  O829  1  0.60348000  0.50366000  0.80126000  1.0 -0.597707426
O  O830  1  0.80126000  0.09160000  0.60348000  1.0 -0.597707426
O  O831  1  0.50366000  0.60348000  0.09160000  1.0 -0.597707426
O  O832  1  0.09160000  0.80126000  0.50366000  1.0 -0.597707426
O  O833  1  0.74634000  0.64652000  0.44874000  1.0 -0.597707426
O  O834  1  0.15840000  0.44874000  0.64652000  1.0 -0.597707426
O  O835  1  0.44874000  0.15840000  0.74634000  1.0 -0.597707426
O  O836  1  0.64652000  0.74634000  0.15840000  1.0 -0.597707426
O  O837  1  0.76632000  0.47170000  0.66804000  1.0 -0.5885258116
O  O838  1  0.09394000  0.66804000  0.47170000  1.0 -0.5885258116
O  O839  1  0.47170000  0.76632000  0.09394000  1.0 -0.5885258116
O  O840  1  0.66804000  0.09394000  0.76632000  1.0 -0.5885258116
O  O841  1  0.15606000  0.58196000  0.48368000  1.0 -0.5885258116
O  O842  1  0.48368000  0.77830000  0.15606000  1.0 -0.5885258116
O  O843  1  0.58196000  0.15606000  0.77830000  1.0 -0.5885258116
O  O844  1  0.77830000  0.48368000  0.58196000  1.0 -0.5885258116
O  O845  1  0.47170000  0.66804000  0.76632000  1.0 -0.5885258116
O  O846  1  0.66804000  0.47170000  0.09394000  1.0 -0.5885258116
O  O847  1  0.09394000  0.76632000  0.66804000  1.0 -0.5885258116
O  O848  1  0.76632000  0.09394000  0.47170000  1.0 -0.5885258116
O  O849  1  0.15606000  0.48368000  0.77830000  1.0 -0.5885258116
O  O850  1  0.58196000  0.77830000  0.48368000  1.0 -0.5885258116
O  O851  1  0.48368000  0.15606000  0.58196000  1.0 -0.5885258116
O  O852  1  0.77830000  0.58196000  0.15606000  1.0 -0.5885258116
O  O853  1  0.66804000  0.76632000  0.47170000  1.0 -0.5885258116
O  O854  1  0.47170000  0.09394000  0.66804000  1.0 -0.5885258116
O  O855  1  0.76632000  0.66804000  0.09394000  1.0 -0.5885258116
O  O856  1  0.09394000  0.47170000  0.76632000  1.0 -0.5885258116
O  O857  1  0.48368000  0.58196000  0.77830000  1.0 -0.5885258116
O  O858  1  0.15606000  0.77830000  0.58196000  1.0 -0.5885258116
O  O859  1  0.77830000  0.15606000  0.48368000  1.0 -0.5885258116
O  O860  1  0.58196000  0.48368000  0.15606000  1.0 -0.5885258116
O  O861  1  0.48368000  0.77830000  0.58196000  1.0 -0.5885258116
O  O862  1  0.15606000  0.58196000  0.77830000  1.0 -0.5885258116
O  O863  1  0.77830000  0.48368000  0.15606000  1.0 -0.5885258116
O  O864  1  0.58196000  0.15606000  0.48368000  1.0 -0.5885258116
O  O865  1  0.09394000  0.66804000  0.76632000  1.0 -0.5885258116
O  O866  1  0.76632000  0.47170000  0.09394000  1.0 -0.5885258116
O  O867  1  0.66804000  0.09394000  0.47170000  1.0 -0.5885258116
O  O868  1  0.47170000  0.76632000  0.66804000  1.0 -0.5885258116
O  O869  1  0.77830000  0.58196000  0.48368000  1.0 -0.5885258116
O  O870  1  0.58196000  0.77830000  0.15606000  1.0 -0.5885258116
O  O871  1  0.15606000  0.48368000  0.58196000  1.0 -0.5885258116
O  O872  1  0.48368000  0.15606000  0.77830000  1.0 -0.5885258116
O  O873  1  0.09394000  0.76632000  0.47170000  1.0 -0.5885258116
O  O874  1  0.66804000  0.47170000  0.76632000  1.0 -0.5885258116
O  O875  1  0.76632000  0.09394000  0.66804000  1.0 -0.5885258116
O  O876  1  0.47170000  0.66804000  0.09394000  1.0 -0.5885258116
O  O877  1  0.58196000  0.48368000  0.77830000  1.0 -0.5885258116
O  O878  1  0.77830000  0.15606000  0.58196000  1.0 -0.5885258116
O  O879  1  0.48368000  0.58196000  0.15606000  1.0 -0.5885258116
O  O880  1  0.15606000  0.77830000  0.48368000  1.0 -0.5885258116
O  O881  1  0.76632000  0.66804000  0.47170000  1.0 -0.5885258116
O  O882  1  0.09394000  0.47170000  0.66804000  1.0 -0.5885258116
O  O883  1  0.47170000  0.09394000  0.76632000  1.0 -0.5885258116
O  O884  1  0.66804000  0.76632000  0.09394000  1.0 -0.5885258116
O  O885  1  0.80662000  0.24484000  0.75734000  1.0 -0.5492205536
O  O886  1  0.19120000  0.75734000  0.24484000  1.0 -0.5492205536
O  O887  1  0.24484000  0.80662000  0.19120000  1.0 -0.5492205536
O  O888  1  0.75734000  0.19120000  0.80662000  1.0 -0.5492205536
O  O889  1  0.05880000  0.49266000  0.44338000  1.0 -0.5492205536
O  O890  1  0.44338000  0.00516000  0.05880000  1.0 -0.5492205536
O  O891  1  0.49266000  0.05880000  0.00516000  1.0 -0.5492205536
O  O892  1  0.00516000  0.44338000  0.49266000  1.0 -0.5492205536
O  O893  1  0.24484000  0.75734000  0.80662000  1.0 -0.5492205536
O  O894  1  0.75734000  0.24484000  0.19120000  1.0 -0.5492205536
O  O895  1  0.19120000  0.80662000  0.75734000  1.0 -0.5492205536
O  O896  1  0.80662000  0.19120000  0.24484000  1.0 -0.5492205536
O  O897  1  0.05880000  0.44338000  0.00516000  1.0 -0.5492205536
O  O898  1  0.49266000  0.00516000  0.44338000  1.0 -0.5492205536
O  O899  1  0.44338000  0.05880000  0.49266000  1.0 -0.5492205536
O  O900  1  0.00516000  0.49266000  0.05880000  1.0 -0.5492205536
O  O901  1  0.75734000  0.80662000  0.24484000  1.0 -0.5492205536
O  O902  1  0.24484000  0.19120000  0.75734000  1.0 -0.5492205536
O  O903  1  0.80662000  0.75734000  0.19120000  1.0 -0.5492205536
O  O904  1  0.19120000  0.24484000  0.80662000  1.0 -0.5492205536
O  O905  1  0.44338000  0.49266000  0.00516000  1.0 -0.5492205536
O  O906  1  0.05880000  0.00516000  0.49266000  1.0 -0.5492205536
O  O907  1  0.00516000  0.05880000  0.44338000  1.0 -0.5492205536
O  O908  1  0.49266000  0.44338000  0.05880000  1.0 -0.5492205536
O  O909  1  0.44338000  0.00516000  0.49266000  1.0 -0.5492205536
O  O910  1  0.05880000  0.49266000  0.00516000  1.0 -0.5492205536
O  O911  1  0.00516000  0.44338000  0.05880000  1.0 -0.5492205536
O  O912  1  0.49266000  0.05880000  0.44338000  1.0 -0.5492205536
O  O913  1  0.19120000  0.75734000  0.80662000  1.0 -0.5492205536
O  O914  1  0.80662000  0.24484000  0.19120000  1.0 -0.5492205536
O  O915  1  0.75734000  0.19120000  0.24484000  1.0 -0.5492205536
O  O916  1  0.24484000  0.80662000  0.75734000  1.0 -0.5492205536
O  O917  1  0.00516000  0.49266000  0.44338000  1.0 -0.5492205536
O  O918  1  0.49266000  0.00516000  0.05880000  1.0 -0.5492205536
O  O919  1  0.05880000  0.44338000  0.49266000  1.0 -0.5492205536
O  O920  1  0.44338000  0.05880000  0.00516000  1.0 -0.5492205536
O  O921  1  0.19120000  0.80662000  0.24484000  1.0 -0.5492205536
O  O922  1  0.75734000  0.24484000  0.80662000  1.0 -0.5492205536
O  O923  1  0.80662000  0.19120000  0.75734000  1.0 -0.5492205536
O  O924  1  0.24484000  0.75734000  0.19120000  1.0 -0.5492205536
O  O925  1  0.49266000  0.44338000  0.00516000  1.0 -0.5492205536
O  O926  1  0.00516000  0.05880000  0.49266000  1.0 -0.5492205536
O  O927  1  0.44338000  0.49266000  0.05880000  1.0 -0.5492205536
O  O928  1  0.05880000  0.00516000  0.44338000  1.0 -0.5492205536
O  O929  1  0.80662000  0.75734000  0.24484000  1.0 -0.5492205536
O  O930  1  0.19120000  0.24484000  0.75734000  1.0 -0.5492205536
O  O931  1  0.24484000  0.19120000  0.80662000  1.0 -0.5492205536
O  O932  1  0.75734000  0.80662000  0.19120000  1.0 -0.5492205536
O  O933  1  0.80660000  0.19340000  0.80660000  1.0 -0.4801808927
O  O934  1  0.19340000  0.80660000  0.19340000  1.0 -0.4801808927
O  O935  1  0.05660000  0.44340000  0.44340000  1.0 -0.4801808927
O  O936  1  0.44340000  0.05660000  0.05660000  1.0 -0.4801808927
O  O937  1  0.19340000  0.80660000  0.80660000  1.0 -0.4801808927
O  O938  1  0.80660000  0.19340000  0.19340000  1.0 -0.4801808927
O  O939  1  0.05660000  0.44340000  0.05660000  1.0 -0.4801808927
O  O940  1  0.44340000  0.05660000  0.44340000  1.0 -0.4801808927
O  O941  1  0.80660000  0.80660000  0.19340000  1.0 -0.4801808927
O  O942  1  0.19340000  0.19340000  0.80660000  1.0 -0.4801808927
O  O943  1  0.44340000  0.44340000  0.05660000  1.0 -0.4801808927
O  O944  1  0.05660000  0.05660000  0.44340000  1.0 -0.4801808927
O  O945  1  0.84703000  0.28269000  0.79731000  1.0 -0.4998844759
O  O946  1  0.07297000  0.79731000  0.28269000  1.0 -0.4998844759
O  O947  1  0.28269000  0.84703000  0.07297000  1.0 -0.4998844759
O  O948  1  0.79731000  0.07297000  0.84703000  1.0 -0.4998844759
O  O949  1  0.17703000  0.45269000  0.40297000  1.0 -0.4998844759
O  O950  1  0.40297000  0.96731000  0.17703000  1.0 -0.4998844759
O  O951  1  0.45269000  0.17703000  0.96731000  1.0 -0.4998844759
O  O952  1  0.96731000  0.40297000  0.45269000  1.0 -0.4998844759
O  O953  1  0.28269000  0.79731000  0.84703000  1.0 -0.4998844759
O  O954  1  0.79731000  0.28269000  0.07297000  1.0 -0.4998844759
O  O955  1  0.07297000  0.84703000  0.79731000  1.0 -0.4998844759
O  O956  1  0.84703000  0.07297000  0.28269000  1.0 -0.4998844759
O  O957  1  0.17703000  0.40297000  0.96731000  1.0 -0.4998844759
O  O958  1  0.45269000  0.96731000  0.40297000  1.0 -0.4998844759
O  O959  1  0.40297000  0.17703000  0.45269000  1.0 -0.4998844759
O  O960  1  0.96731000  0.45269000  0.17703000  1.0 -0.4998844759
O  O961  1  0.79731000  0.84703000  0.28269000  1.0 -0.4998844759
O  O962  1  0.28269000  0.07297000  0.79731000  1.0 -0.4998844759
O  O963  1  0.84703000  0.79731000  0.07297000  1.0 -0.4998844759
O  O964  1  0.07297000  0.28269000  0.84703000  1.0 -0.4998844759
O  O965  1  0.40297000  0.45269000  0.96731000  1.0 -0.4998844759
O  O966  1  0.17703000  0.96731000  0.45269000  1.0 -0.4998844759
O  O967  1  0.96731000  0.17703000  0.40297000  1.0 -0.4998844759
O  O968  1  0.45269000  0.40297000  0.17703000  1.0 -0.4998844759
O  O969  1  0.40297000  0.96731000  0.45269000  1.0 -0.4998844759
O  O970  1  0.17703000  0.45269000  0.96731000  1.0 -0.4998844759
O  O971  1  0.96731000  0.40297000  0.17703000  1.0 -0.4998844759
O  O972  1  0.45269000  0.17703000  0.40297000  1.0 -0.4998844759
O  O973  1  0.07297000  0.79731000  0.84703000  1.0 -0.4998844759
O  O974  1  0.84703000  0.28269000  0.07297000  1.0 -0.4998844759
O  O975  1  0.79731000  0.07297000  0.28269000  1.0 -0.4998844759
O  O976  1  0.28269000  0.84703000  0.79731000  1.0 -0.4998844759
O  O977  1  0.96731000  0.45269000  0.40297000  1.0 -0.4998844759
O  O978  1  0.45269000  0.96731000  0.17703000  1.0 -0.4998844759
O  O979  1  0.17703000  0.40297000  0.45269000  1.0 -0.4998844759
O  O980  1  0.40297000  0.17703000  0.96731000  1.0 -0.4998844759
O  O981  1  0.07297000  0.84703000  0.28269000  1.0 -0.4998844759
O  O982  1  0.79731000  0.28269000  0.84703000  1.0 -0.4998844759
O  O983  1  0.84703000  0.07297000  0.79731000  1.0 -0.4998844759
O  O984  1  0.28269000  0.79731000  0.07297000  1.0 -0.4998844759
O  O985  1  0.45269000  0.40297000  0.96731000  1.0 -0.4998844759
O  O986  1  0.96731000  0.17703000  0.45269000  1.0 -0.4998844759
O  O987  1  0.40297000  0.45269000  0.17703000  1.0 -0.4998844759
O  O988  1  0.17703000  0.96731000  0.40297000  1.0 -0.4998844759
O  O989  1  0.84703000  0.79731000  0.28269000  1.0 -0.4998844759
O  O990  1  0.07297000  0.28269000  0.79731000  1.0 -0.4998844759
O  O991  1  0.28269000  0.07297000  0.84703000  1.0 -0.4998844759
O  O992  1  0.79731000  0.84703000  0.07297000  1.0 -0.4998844759
O  O993  1  0.88211000  0.26549000  0.83179000  1.0 -0.5492205536
O  O994  1  0.02061000  0.83179000  0.26549000  1.0 -0.5492205536
O  O995  1  0.26549000  0.88211000  0.02061000  1.0 -0.5492205536
O  O996  1  0.83179000  0.02061000  0.88211000  1.0 -0.5492205536
O  O997  1  0.22939000  0.41821000  0.36789000  1.0 -0.5492205536
O  O998  1  0.36789000  0.98451000  0.22939000  1.0 -0.5492205536
O  O999  1  0.41821000  0.22939000  0.98451000  1.0 -0.5492205536
O  O1000  1  0.98451000  0.36789000  0.41821000  1.0 -0.5492205536
O  O1001  1  0.26549000  0.83179000  0.88211000  1.0 -0.5492205536
O  O1002  1  0.83179000  0.26549000  0.02061000  1.0 -0.5492205536
O  O1003  1  0.02061000  0.88211000  0.83179000  1.0 -0.5492205536
O  O1004  1  0.88211000  0.02061000  0.26549000  1.0 -0.5492205536
O  O1005  1  0.22939000  0.36789000  0.98451000  1.0 -0.5492205536
O  O1006  1  0.41821000  0.98451000  0.36789000  1.0 -0.5492205536
O  O1007  1  0.36789000  0.22939000  0.41821000  1.0 -0.5492205536
O  O1008  1  0.98451000  0.41821000  0.22939000  1.0 -0.5492205536
O  O1009  1  0.83179000  0.88211000  0.26549000  1.0 -0.5492205536
O  O1010  1  0.26549000  0.02061000  0.83179000  1.0 -0.5492205536
O  O1011  1  0.88211000  0.83179000  0.02061000  1.0 -0.5492205536
O  O1012  1  0.02061000  0.26549000  0.88211000  1.0 -0.5492205536
O  O1013  1  0.36789000  0.41821000  0.98451000  1.0 -0.5492205536
O  O1014  1  0.22939000  0.98451000  0.41821000  1.0 -0.5492205536
O  O1015  1  0.98451000  0.22939000  0.36789000  1.0 -0.5492205536
O  O1016  1  0.41821000  0.36789000  0.22939000  1.0 -0.5492205536
O  O1017  1  0.36789000  0.98451000  0.41821000  1.0 -0.5492205536
O  O1018  1  0.22939000  0.41821000  0.98451000  1.0 -0.5492205536
O  O1019  1  0.98451000  0.36789000  0.22939000  1.0 -0.5492205536
O  O1020  1  0.41821000  0.22939000  0.36789000  1.0 -0.5492205536
O  O1021  1  0.02061000  0.83179000  0.88211000  1.0 -0.5492205536
O  O1022  1  0.88211000  0.26549000  0.02061000  1.0 -0.5492205536
O  O1023  1  0.83179000  0.02061000  0.26549000  1.0 -0.5492205536
O  O1024  1  0.26549000  0.88211000  0.83179000  1.0 -0.5492205536
O  O1025  1  0.98451000  0.41821000  0.36789000  1.0 -0.5492205536
O  O1026  1  0.41821000  0.98451000  0.22939000  1.0 -0.5492205536
O  O1027  1  0.22939000  0.36789000  0.41821000  1.0 -0.5492205536
O  O1028  1  0.36789000  0.22939000  0.98451000  1.0 -0.5492205536
O  O1029  1  0.02061000  0.88211000  0.26549000  1.0 -0.5492205536
O  O1030  1  0.83179000  0.26549000  0.88211000  1.0 -0.5492205536
O  O1031  1  0.88211000  0.02061000  0.83179000  1.0 -0.5492205536
O  O1032  1  0.26549000  0.83179000  0.02061000  1.0 -0.5492205536
O  O1033  1  0.41821000  0.36789000  0.98451000  1.0 -0.5492205536
O  O1034  1  0.98451000  0.22939000  0.41821000  1.0 -0.5492205536
O  O1035  1  0.36789000  0.41821000  0.22939000  1.0 -0.5492205536
O  O1036  1  0.22939000  0.98451000  0.36789000  1.0 -0.5492205536
O  O1037  1  0.88211000  0.83179000  0.26549000  1.0 -0.5492205536
O  O1038  1  0.02061000  0.26549000  0.83179000  1.0 -0.5492205536
O  O1039  1  0.26549000  0.02061000  0.88211000  1.0 -0.5492205536
O  O1040  1  0.83179000  0.88211000  0.02061000  1.0 -0.5492205536
O  O1041  1  0.84825000  0.23197000  0.84825000  1.0 -0.5885258116
O  O1042  1  0.07153000  0.84825000  0.23197000  1.0 -0.5885258116
O  O1043  1  0.23197000  0.84825000  0.07153000  1.0 -0.5885258116
O  O1044  1  0.84825000  0.07153000  0.84825000  1.0 -0.5885258116
O  O1045  1  0.17847000  0.40175000  0.40175000  1.0 -0.5885258116
O  O1046  1  0.40175000  0.01803000  0.17847000  1.0 -0.5885258116
O  O1047  1  0.40175000  0.17847000  0.01803000  1.0 -0.597707426
O  O1048  1  0.01803000  0.40175000  0.40175000  1.0 -0.5885258116
O  O1049  1  0.23197000  0.84825000  0.84825000  1.0 -0.5885258116
O  O1050  1  0.84825000  0.23197000  0.07153000  1.0 -0.597707426
O  O1051  1  0.07153000  0.84825000  0.84825000  1.0 -0.5885258116
O  O1052  1  0.84825000  0.07153000  0.23197000  1.0 -0.5885258116
O  O1053  1  0.17847000  0.40175000  0.01803000  1.0 -0.5885258116
O  O1054  1  0.40175000  0.01803000  0.40175000  1.0 -0.5885258116
O  O1055  1  0.40175000  0.17847000  0.40175000  1.0 -0.5885258116
O  O1056  1  0.01803000  0.40175000  0.17847000  1.0 -0.5885258116
O  O1057  1  0.84825000  0.84825000  0.23197000  1.0 -0.5885258116
O  O1058  1  0.23197000  0.07153000  0.84825000  1.0 -0.5885258116
O  O1059  1  0.84825000  0.84825000  0.07153000  1.0 -0.5885258116
O  O1060  1  0.07153000  0.23197000  0.84825000  1.0 -0.5885258116
O  O1061  1  0.40175000  0.40175000  0.01803000  1.0 -0.5885258116
O  O1062  1  0.17847000  0.01803000  0.40175000  1.0 -0.597707426
O  O1063  1  0.01803000  0.17847000  0.40175000  1.0 -0.5885258116
O  O1064  1  0.40175000  0.40175000  0.17847000  1.0 -0.5885258116
