# DDEC6 charges by PACMAN v1.1 (https://github.com/mtap-research/PACMAN-charge/)
data_BUSTAM_ion_pacman
_symmetry_space_group_name_H-M   'P 1'
_cell_length_a   28.69900000
_cell_length_b   28.69900000
_cell_length_c   12.41800000
_cell_angle_alpha   83.60320000
_cell_angle_beta   96.39680000
_cell_angle_gamma   147.50800000
_symmetry_Int_Tables_number   1
_chemical_formula_structural   Pr9H18C54(N7O26)4
_chemical_formula_sum   'Pr18 H36 C108 N56 O208'
_cell_volume   5457.10518486
_cell_formula_units_Z   2
loop_
 _symmetry_equiv_pos_site_id
 _symmetry_equiv_pos_as_xyz
  1  'x, y, z'
loop_
 _atom_site_type_symbol
 _atom_site_label
 _atom_site_symmetry_multiplicity
 _atom_site_fract_x
 _atom_site_fract_y
 _atom_site_fract_z
 _atom_site_occupancy
 _atom_site_charge
Pr  Pr1  1  0.74789000  0.20497000  0.88293000  1.0 1.923546693
Pr  Pr2  1  0.20497000  0.74789000  0.61707000  1.0 1.923546693
Pr  Pr3  1  0.25211000  0.79503000  0.11707000  1.0 1.923546693
Pr  Pr4  1  0.79503000  0.25211000  0.38293000  1.0 1.923546693
Pr  Pr5  1  0.95579000  0.14771000  0.17971000  1.0 1.7944647881
Pr  Pr6  1  0.14771000  0.95579000  0.32029000  1.0 1.7944647881
Pr  Pr7  1  0.04421000  0.85229000  0.82029000  1.0 1.7944647881
Pr  Pr8  1  0.85229000  0.04421000  0.67971000  1.0 1.7944647881
Pr  Pr9  1  0.49008000  0.83352000  0.71412000  1.0 1.9343021128
Pr  Pr10  1  0.83352000  0.49008000  0.78588000  1.0 1.9343021128
Pr  Pr11  1  0.50992000  0.16648000  0.28588000  1.0 1.9343021128
Pr  Pr12  1  0.16648000  0.50992000  0.21412000  1.0 1.9343021128
Pr  Pr13  1  0.40264000  0.54096000  0.84006000  1.0 1.7305445287
Pr  Pr14  1  0.54096000  0.40264000  0.65994000  1.0 1.7305445287
Pr  Pr15  1  0.59736000  0.45904000  0.15994000  1.0 1.7305445287
Pr  Pr16  1  0.45904000  0.59736000  0.34006000  1.0 1.7305445287
Pr  Pr17  1  0.16306000  0.16306000  0.75000000  1.0 1.6711852166
Pr  Pr18  1  0.83694000  0.83694000  0.25000000  1.0 1.6711852166
H  H1  1  0.83520000  0.14860000  0.22300000  1.0 0.1098854493
H  H2  1  0.14860000  0.83520000  0.27700000  1.0 0.1098854493
H  H3  1  0.16480000  0.85140000  0.77700000  1.0 0.1098854493
H  H4  1  0.85140000  0.16480000  0.72300000  1.0 0.1098854493
H  H5  1  0.75380000  0.08260000  0.86950000  1.0 0.1384358431
H  H6  1  0.08260000  0.75380000  0.63050000  1.0 0.1384358431
H  H7  1  0.24620000  0.91740000  0.13050000  1.0 0.1384358431
H  H8  1  0.91740000  0.24620000  0.36950000  1.0 0.1384358431
H  H9  1  0.60370000  0.13130000  0.07320000  1.0 0.1278765056
H  H10  1  0.13130000  0.60370000  0.42680000  1.0 0.1278765056
H  H11  1  0.39630000  0.86870000  0.92680000  1.0 0.1278765056
H  H12  1  0.86870000  0.39630000  0.57320000  1.0 0.1278765056
H  H13  1  0.34010000  0.60450000  0.06220000  1.0 0.1278765056
H  H14  1  0.60450000  0.34010000  0.43780000  1.0 0.1278765056
H  H15  1  0.65990000  0.39550000  0.93780000  1.0 0.1278765056
H  H16  1  0.39550000  0.65990000  0.56220000  1.0 0.1278765056
H  H17  1  0.35120000  0.76400000  0.90500000  1.0 0.1384358431
H  H18  1  0.76400000  0.35120000  0.59500000  1.0 0.1384358431
H  H19  1  0.64880000  0.23600000  0.09500000  1.0 0.1384358431
H  H20  1  0.23600000  0.64880000  0.40500000  1.0 0.1384358431
H  H21  1  0.24190000  0.46990000  0.98130000  1.0 0.1182410295
H  H22  1  0.46990000  0.24190000  0.51870000  1.0 0.1182410295
H  H23  1  0.75810000  0.53010000  0.01870000  1.0 0.1182410295
H  H24  1  0.53010000  0.75810000  0.48130000  1.0 0.1182410295
H  H25  1  0.07560000  0.20140000  0.95560000  1.0 0.1278765056
H  H26  1  0.20140000  0.07560000  0.54440000  1.0 0.1278765056
H  H27  1  0.92440000  0.79860000  0.04440000  1.0 0.1278765056
H  H28  1  0.79860000  0.92440000  0.45560000  1.0 0.1278765056
H  H29  1  0.49090000  0.49850000  0.81810000  1.0 0.1278765056
H  H30  1  0.49850000  0.49090000  0.68190000  1.0 0.1278765056
H  H31  1  0.50910000  0.50150000  0.18190000  1.0 0.1278765056
H  H32  1  0.50150000  0.50910000  0.31810000  1.0 0.1278765056
H  H33  1  0.13400000  0.08080000  0.50380000  1.0 0.1278765056
H  H34  1  0.08080000  0.13400000  0.99620000  1.0 0.1278765056
H  H35  1  0.86600000  0.91920000  0.49620000  1.0 0.1278765056
H  H36  1  0.91920000  0.86600000  0.00380000  1.0 0.1278765056
C  C1  1  0.78634000  0.14826000  0.09280000  1.0 0.0850187677
C  C2  1  0.14826000  0.78634000  0.40720000  1.0 0.0783051406
C  C3  1  0.21366000  0.85174000  0.90720000  1.0 0.0783051406
C  C4  1  0.85174000  0.21366000  0.59280000  1.0 0.0783051406
C  C5  1  0.82370000  0.13990000  0.14880000  1.0 0.0585220689
C  C6  1  0.13990000  0.82370000  0.35120000  1.0 0.0585220689
C  C7  1  0.17630000  0.86010000  0.85120000  1.0 0.0500947918
C  C8  1  0.86010000  0.17630000  0.64880000  1.0 0.0500947918
C  C9  1  0.81947000  0.10093000  0.99380000  1.0 0.0585220689
C  C10  1  0.10093000  0.81947000  0.50620000  1.0 0.0585220689
C  C11  1  0.18053000  0.89907000  0.00620000  1.0 0.0585220689
C  C12  1  0.89907000  0.18053000  0.49380000  1.0 0.0585220689
C  C13  1  0.77491000  0.10169000  0.94010000  1.0 0.0783051406
C  C14  1  0.10169000  0.77491000  0.55990000  1.0 0.0783051406
C  C15  1  0.22509000  0.89831000  0.05990000  1.0 0.0783051406
C  C16  1  0.89831000  0.22509000  0.44010000  1.0 0.0783051406
C  C17  1  0.77976000  0.18804000  0.14470000  1.0 0.5806171659
C  C18  1  0.18804000  0.77976000  0.35530000  1.0 0.5806171659
C  C19  1  0.22024000  0.81196000  0.85530000  1.0 0.5806171659
C  C20  1  0.81196000  0.22024000  0.64470000  1.0 0.5806171659
C  C21  1  0.84732000  0.08328000  0.93630000  1.0 0.5506233933
C  C22  1  0.08328000  0.84732000  0.56370000  1.0 0.5506233933
C  C23  1  0.15268000  0.91672000  0.06370000  1.0 0.5506233933
C  C24  1  0.91672000  0.15268000  0.43630000  1.0 0.5506233933
C  C25  1  0.52346000  0.99174000  0.92710000  1.0 0.0500947918
C  C26  1  0.99174000  0.52346000  0.57290000  1.0 0.0500947918
C  C27  1  0.47654000  0.00826000  0.07290000  1.0 0.0500947918
C  C28  1  0.00826000  0.47654000  0.42710000  1.0 0.0500947918
C  C29  1  0.56200000  0.07800000  0.04180000  1.0 0.0722946941
C  C30  1  0.07800000  0.56200000  0.45820000  1.0 0.0722946941
C  C31  1  0.43800000  0.92200000  0.95820000  1.0 0.0722946941
C  C32  1  0.92200000  0.43800000  0.54180000  1.0 0.0722946941
C  C33  1  0.55275000  0.98385000  0.84750000  1.0 0.5806171659
C  C34  1  0.98385000  0.55275000  0.65250000  1.0 0.5806171659
C  C35  1  0.44725000  0.01615000  0.15250000  1.0 0.5806171659
C  C36  1  0.01615000  0.44725000  0.34750000  1.0 0.5806171659
C  C37  1  0.38001000  0.67959000  0.93130000  1.0 0.0783051406
C  C38  1  0.67959000  0.38001000  0.56870000  1.0 0.0783051406
C  C39  1  0.61999000  0.32041000  0.06870000  1.0 0.0783051406
C  C40  1  0.32041000  0.61999000  0.43130000  1.0 0.0783051406
C  C41  1  0.34133000  0.63647000  0.03100000  1.0 0.0722946941
C  C42  1  0.63647000  0.34133000  0.46900000  1.0 0.0722946941
C  C43  1  0.65867000  0.36353000  0.96900000  1.0 0.0722946941
C  C44  1  0.36353000  0.65867000  0.53100000  1.0 0.0722946941
C  C45  1  0.31100000  0.68820000  0.03460000  1.0 0.0783051406
C  C46  1  0.68820000  0.31100000  0.46540000  1.0 0.0783051406
C  C47  1  0.68900000  0.31180000  0.96540000  1.0 0.0783051406
C  C48  1  0.31180000  0.68900000  0.53460000  1.0 0.0783051406
C  C49  1  0.34974000  0.73166000  0.93570000  1.0 0.0783051406
C  C50  1  0.73166000  0.34974000  0.56430000  1.0 0.0783051406
C  C51  1  0.65026000  0.26834000  0.06430000  1.0 0.0783051406
C  C52  1  0.26834000  0.65026000  0.43570000  1.0 0.0783051406
C  C53  1  0.41504000  0.67196000  0.86720000  1.0 0.5585905525
C  C54  1  0.67196000  0.41504000  0.63280000  1.0 0.5585905525
C  C55  1  0.58496000  0.32804000  0.13280000  1.0 0.5585905525
C  C56  1  0.32804000  0.58496000  0.36720000  1.0 0.5585905525
C  C57  1  0.26870000  0.68970000  0.09330000  1.0 0.5806171659
C  C58  1  0.68970000  0.26870000  0.40670000  1.0 0.5806171659
C  C59  1  0.73130000  0.31030000  0.90670000  1.0 0.5806171659
C  C60  1  0.31030000  0.73130000  0.59330000  1.0 0.5806171659
C  C61  1  0.13395000  0.34585000  0.03320000  1.0 0.0585220689
C  C62  1  0.34585000  0.13395000  0.46680000  1.0 0.0585220689
C  C63  1  0.86605000  0.65415000  0.96680000  1.0 0.0585220689
C  C64  1  0.65415000  0.86605000  0.53320000  1.0 0.0585220689
C  C65  1  0.21054000  0.41586000  0.97870000  1.0 0.0585220689
C  C66  1  0.41586000  0.21054000  0.52130000  1.0 0.0585220689
C  C67  1  0.78946000  0.58414000  0.02130000  1.0 0.0585220689
C  C68  1  0.58414000  0.78946000  0.47870000  1.0 0.0585220689
C  C69  1  0.18981000  0.32799000  0.91570000  1.0 0.0722946941
C  C70  1  0.32799000  0.18981000  0.58430000  1.0 0.0722946941
C  C71  1  0.81019000  0.67201000  0.08430000  1.0 0.0722946941
C  C72  1  0.67201000  0.81019000  0.41570000  1.0 0.0722946941
C  C73  1  0.11031000  0.25649000  0.96540000  1.0 0.0500947918
C  C74  1  0.25649000  0.11031000  0.53460000  1.0 0.0500947918
C  C75  1  0.88969000  0.74351000  0.03460000  1.0 0.0500947918
C  C76  1  0.74351000  0.88969000  0.46540000  1.0 0.0500947918
C  C77  1  0.10333000  0.35567000  0.10430000  1.0 0.5585905525
C  C78  1  0.35567000  0.10333000  0.39570000  1.0 0.5585905525
C  C79  1  0.89667000  0.64433000  0.89570000  1.0 0.5585905525
C  C80  1  0.64433000  0.89667000  0.60430000  1.0 0.5585905525
C  C81  1  0.22503000  0.31937000  0.85500000  1.0 0.600555903
C  C82  1  0.31937000  0.22503000  0.64500000  1.0 0.600555903
C  C83  1  0.77497000  0.68063000  0.14500000  1.0 0.600555903
C  C84  1  0.68063000  0.77497000  0.35500000  1.0 0.600555903
C  C85  1  0.47423000  0.51497000  0.04800000  1.0 0.1098854493
C  C86  1  0.51497000  0.47423000  0.45200000  1.0 0.1098854493
C  C87  1  0.52577000  0.48503000  0.95200000  1.0 0.1098854493
C  C88  1  0.48503000  0.52577000  0.54800000  1.0 0.1098854493
C  C89  1  0.49411000  0.49929000  0.89340000  1.0 0.1182410295
C  C90  1  0.49929000  0.49411000  0.60660000  1.0 0.1182410295
C  C91  1  0.50589000  0.50071000  0.10660000  1.0 0.1182410295
C  C92  1  0.50071000  0.50589000  0.39340000  1.0 0.1182410295
C  C93  1  0.44432000  0.53128000  0.10120000  1.0 0.5806171659
C  C94  1  0.53128000  0.44432000  0.39880000  1.0 0.5806171659
C  C95  1  0.55568000  0.46872000  0.89880000  1.0 0.5806171659
C  C96  1  0.46872000  0.55568000  0.60120000  1.0 0.5806171659
C  C97  1  0.98395000  0.01725000  0.56970000  1.0 0.0783051406
C  C98  1  0.01725000  0.98395000  0.93030000  1.0 0.0783051406
C  C99  1  0.01605000  0.98275000  0.43030000  1.0 0.0783051406
C  C100  1  0.98275000  0.01605000  0.06970000  1.0 0.0783051406
C  C101  1  0.07915000  0.04805000  0.50400000  1.0 0.1041184298
C  C102  1  0.04805000  0.07915000  0.99600000  1.0 0.1041184298
C  C103  1  0.92085000  0.95195000  0.49600000  1.0 0.1041184298
C  C104  1  0.95195000  0.92085000  0.00400000  1.0 0.1041184298
C  C105  1  0.96845000  0.03995000  0.64750000  1.0 0.572260699
C  C106  1  0.03995000  0.96845000  0.85250000  1.0 0.572260699
C  C107  1  0.03155000  0.96005000  0.35250000  1.0 0.572260699
C  C108  1  0.96005000  0.03155000  0.14750000  1.0 0.572260699
N  N1  1  0.76181000  0.12919000  0.98800000  1.0 -0.2714448128
N  N2  1  0.12919000  0.76181000  0.51200000  1.0 -0.2714448128
N  N3  1  0.23819000  0.87081000  0.01200000  1.0 -0.2714448128
N  N4  1  0.87081000  0.23819000  0.48800000  1.0 -0.2714448128
N  N5  1  0.84345000  0.11955000  0.09850000  1.0 -0.3330358055
N  N6  1  0.11955000  0.84345000  0.40150000  1.0 -0.3330358055
N  N7  1  0.15655000  0.88045000  0.90150000  1.0 -0.3330358055
N  N8  1  0.88045000  0.15655000  0.59850000  1.0 -0.3330358055
N  N9  1  0.58574000  0.07046000  0.96800000  1.0 -0.276800501
N  N10  1  0.07046000  0.58574000  0.53200000  1.0 -0.276800501
N  N11  1  0.41426000  0.92954000  0.03200000  1.0 -0.276800501
N  N12  1  0.92954000  0.41426000  0.46800000  1.0 -0.276800501
N  N13  1  0.38510000  0.72830000  0.88360000  1.0 -0.2714448128
N  N14  1  0.72830000  0.38510000  0.61640000  1.0 -0.2714448128
N  N15  1  0.61490000  0.27170000  0.11640000  1.0 -0.2714448128
N  N16  1  0.27170000  0.61490000  0.38360000  1.0 -0.2714448128
N  N17  1  0.30655000  0.64005000  0.08200000  1.0 -0.2626939577
N  N18  1  0.64005000  0.30655000  0.41800000  1.0 -0.2626939577
N  N19  1  0.69345000  0.35995000  0.91800000  1.0 -0.2626939577
N  N20  1  0.35995000  0.69345000  0.58200000  1.0 -0.2626939577
N  N21  1  0.08288000  0.26532000  0.02700000  1.0 -0.2714448128
N  N22  1  0.26532000  0.08288000  0.47300000  1.0 -0.2714448128
N  N23  1  0.91712000  0.73468000  0.97300000  1.0 -0.2714448128
N  N24  1  0.73468000  0.91712000  0.52700000  1.0 -0.2714448128
N  N25  1  0.24118000  0.40862000  0.92240000  1.0 -0.3406223915
N  N26  1  0.40862000  0.24118000  0.57760000  1.0 -0.3406223915
N  N27  1  0.75882000  0.59138000  0.07760000  1.0 -0.3406223915
N  N28  1  0.59138000  0.75882000  0.42240000  1.0 -0.3406223915
N  N29  1  0.46843000  0.51417000  0.94100000  1.0 -0.2714448128
N  N30  1  0.51417000  0.46843000  0.55900000  1.0 -0.2714448128
N  N31  1  0.53157000  0.48583000  0.05900000  1.0 -0.2714448128
N  N32  1  0.48583000  0.53157000  0.44100000  1.0 -0.2714448128
N  N33  1  0.06384000  0.06536000  0.57500000  1.0 -0.2887608793
N  N34  1  0.06536000  0.06384000  0.92500000  1.0 -0.2887608793
N  N35  1  0.93616000  0.93464000  0.42500000  1.0 -0.2887608793
N  N36  1  0.93464000  0.93616000  0.07500000  1.0 -0.2887608793
N  N37  1  0.66027000  0.95833000  0.34370000  1.0 0.4247537988
N  N38  1  0.95833000  0.66027000  0.15630000  1.0 0.4247537988
N  N39  1  0.33973000  0.04167000  0.65630000  1.0 0.4247537988
N  N40  1  0.04167000  0.33973000  0.84370000  1.0 0.4247537988
N  N41  1  0.76080000  0.96300000  0.22410000  1.0 0.4884978633
N  N42  1  0.96300000  0.76080000  0.27590000  1.0 0.4884978633
N  N43  1  0.23920000  0.03700000  0.77590000  1.0 0.4884978633
N  N44  1  0.03700000  0.23920000  0.72410000  1.0 0.4884978633
N  N45  1  0.27770000  0.48470000  0.65980000  1.0 0.4884978633
N  N46  1  0.48470000  0.27770000  0.84020000  1.0 0.4884978633
N  N47  1  0.72230000  0.51530000  0.34020000  1.0 0.4884978633
N  N48  1  0.51530000  0.72230000  0.15980000  1.0 0.4884978633
N  N49  1  0.23840000  0.30240000  0.13840000  1.0 0.7215477291
N  N50  1  0.30240000  0.23840000  0.36160000  1.0 0.7215477291
N  N51  1  0.76160000  0.69760000  0.86160000  1.0 0.7215477291
N  N52  1  0.69760000  0.76160000  0.63840000  1.0 0.7215477291
N  N53  1  0.05876000  0.47684000  0.71670000  1.0 0.6669557902
N  N54  1  0.47684000  0.05876000  0.78330000  1.0 0.6669557902
N  N55  1  0.94124000  0.52316000  0.28330000  1.0 0.6669557902
N  N56  1  0.52316000  0.94124000  0.21670000  1.0 0.6669557902
O  O1  1  0.76193000  0.20967000  0.08210000  1.0 -0.5387453523
O  O2  1  0.20967000  0.76193000  0.41790000  1.0 -0.5387453523
O  O3  1  0.23807000  0.79033000  0.91790000  1.0 -0.5387453523
O  O4  1  0.79033000  0.23807000  0.58210000  1.0 -0.5387453523
O  O5  1  0.79653000  0.19927000  0.24450000  1.0 -0.5604236958
O  O6  1  0.19927000  0.79653000  0.25550000  1.0 -0.5604236958
O  O7  1  0.20347000  0.80073000  0.75550000  1.0 -0.5604236958
O  O8  1  0.80073000  0.20347000  0.74450000  1.0 -0.5604236958
O  O9  1  0.89436000  0.09264000  0.99190000  1.0 -0.5827227247
O  O10  1  0.09264000  0.89436000  0.50810000  1.0 -0.5827227247
O  O11  1  0.10564000  0.90736000  0.00810000  1.0 -0.5827227247
O  O12  1  0.90736000  0.10564000  0.49190000  1.0 -0.5827227247
O  O13  1  0.82345000  0.06275000  0.83850000  1.0 -0.5604236958
O  O14  1  0.06275000  0.82345000  0.66150000  1.0 -0.5604236958
O  O15  1  0.17655000  0.93725000  0.16150000  1.0 -0.5604236958
O  O16  1  0.93725000  0.17655000  0.33850000  1.0 -0.5604236958
O  O17  1  0.63106000  0.05334000  0.82190000  1.0 -0.5528059887
O  O18  1  0.05334000  0.63106000  0.67810000  1.0 -0.5528059887
O  O19  1  0.36894000  0.94666000  0.17810000  1.0 -0.5528059887
O  O20  1  0.94666000  0.36894000  0.32190000  1.0 -0.5528059887
O  O21  1  0.49818000  0.90982000  0.81520000  1.0 -0.5676211578
O  O22  1  0.90982000  0.49818000  0.68480000  1.0 -0.5676211578
O  O23  1  0.50182000  0.09018000  0.18480000  1.0 -0.5676211578
O  O24  1  0.09018000  0.50182000  0.31520000  1.0 -0.5676211578
O  O25  1  0.45415000  0.71945000  0.78220000  1.0 -0.5387453523
O  O26  1  0.71945000  0.45415000  0.71780000  1.0 -0.5387453523
O  O27  1  0.54585000  0.28055000  0.21780000  1.0 -0.5387453523
O  O28  1  0.28055000  0.54585000  0.28220000  1.0 -0.5387453523
O  O29  1  0.39998000  0.61762000  0.90140000  1.0 -0.6120661285
O  O30  1  0.61762000  0.39998000  0.59860000  1.0 -0.6120661285
O  O31  1  0.60002000  0.38238000  0.09860000  1.0 -0.6120661285
O  O32  1  0.38238000  0.60002000  0.40140000  1.0 -0.6120661285
O  O33  1  0.22370000  0.63710000  0.17310000  1.0 -0.5604236958
O  O34  1  0.63710000  0.22370000  0.32690000  1.0 -0.5604236958
O  O35  1  0.77630000  0.36290000  0.82690000  1.0 -0.5604236958
O  O36  1  0.36290000  0.77630000  0.67310000  1.0 -0.5604236958
O  O37  1  0.27980000  0.74080000  0.05660000  1.0 -0.5676211578
O  O38  1  0.74080000  0.27980000  0.44340000  1.0 -0.5676211578
O  O39  1  0.72020000  0.25920000  0.94340000  1.0 -0.5676211578
O  O40  1  0.25920000  0.72020000  0.55660000  1.0 -0.5676211578
O  O41  1  0.02940000  0.28740000  0.14390000  1.0 -0.5387453523
O  O42  1  0.28740000  0.02940000  0.35610000  1.0 -0.5387453523
O  O43  1  0.97060000  0.71260000  0.85610000  1.0 -0.5387453523
O  O44  1  0.71260000  0.97060000  0.64390000  1.0 -0.5387453523
O  O45  1  0.15453000  0.43167000  0.11800000  1.0 -0.5528059887
O  O46  1  0.43167000  0.15453000  0.38200000  1.0 -0.5528059887
O  O47  1  0.84547000  0.56833000  0.88200000  1.0 -0.5528059887
O  O48  1  0.56833000  0.84547000  0.61800000  1.0 -0.5528059887
O  O49  1  0.30069000  0.38851000  0.82060000  1.0 -0.5897394803
O  O50  1  0.38851000  0.30069000  0.67940000  1.0 -0.5897394803
O  O51  1  0.69931000  0.61149000  0.17940000  1.0 -0.5897394803
O  O52  1  0.61149000  0.69931000  0.32060000  1.0 -0.5897394803
O  O53  1  0.17655000  0.24385000  0.84570000  1.0 -0.6163992521
O  O54  1  0.24385000  0.17655000  0.65430000  1.0 -0.6163992521
O  O55  1  0.82345000  0.75615000  0.15430000  1.0 -0.6163992521
O  O56  1  0.75615000  0.82345000  0.34570000  1.0 -0.6163992521
O  O57  1  0.40529000  0.53051000  0.04020000  1.0 -0.5676211578
O  O58  1  0.53051000  0.40529000  0.45980000  1.0 -0.5676211578
O  O59  1  0.59471000  0.46949000  0.95980000  1.0 -0.5676211578
O  O60  1  0.46949000  0.59471000  0.54020000  1.0 -0.5676211578
O  O61  1  0.45967000  0.54333000  0.20070000  1.0 -0.5827227247
O  O62  1  0.54333000  0.45967000  0.29930000  1.0 -0.5827227247
O  O63  1  0.54033000  0.45667000  0.79930000  1.0 -0.5827227247
O  O64  1  0.45667000  0.54033000  0.70070000  1.0 -0.5827227247
O  O65  1  0.02053000  0.08347000  0.72690000  1.0 -0.5528059887
O  O66  1  0.08347000  0.02053000  0.77310000  1.0 -0.5528059887
O  O67  1  0.97947000  0.91653000  0.27310000  1.0 -0.5528059887
O  O68  1  0.91653000  0.97947000  0.22690000  1.0 -0.5528059887
O  O69  1  0.90533000  0.01407000  0.62510000  1.0 -0.5676211578
O  O70  1  0.01407000  0.90533000  0.87490000  1.0 -0.5676211578
O  O71  1  0.09467000  0.98593000  0.37490000  1.0 -0.5676211578
O  O72  1  0.98593000  0.09467000  0.12510000  1.0 -0.5676211578
O  O73  1  0.67492000  0.18688000  0.71850000  1.0 -0.1705978226
O  O74  1  0.18688000  0.67492000  0.78150000  1.0 -0.1786983472
O  O75  1  0.32508000  0.81312000  0.28150000  1.0 -0.1786983472
O  O76  1  0.81312000  0.32508000  0.21850000  1.0 -0.1705978226
O  O77  1  0.85609000  0.34891000  0.78680000  1.0 -0.1222760447
O  O78  1  0.34891000  0.85609000  0.71320000  1.0 -0.1222760447
O  O79  1  0.14391000  0.65109000  0.21320000  1.0 -0.1222760447
O  O80  1  0.65109000  0.14391000  0.28680000  1.0 -0.1222760447
O  O81  1  0.90277000  0.30963000  0.94030000  1.0 -0.4182546771
O  O82  1  0.30963000  0.90277000  0.55970000  1.0 -0.4095171826
O  O83  1  0.09723000  0.69037000  0.05970000  1.0 -0.4095171826
O  O84  1  0.69037000  0.09723000  0.44030000  1.0 -0.4182546771
O  O85  1  0.10526000  0.26654000  0.26230000  1.0 -0.3406223915
O  O86  1  0.26654000  0.10526000  0.23770000  1.0 -0.3406223915
O  O87  1  0.89474000  0.73346000  0.73770000  1.0 -0.3406223915
O  O88  1  0.73346000  0.89474000  0.76230000  1.0 -0.3406223915
O  O89  1  0.95539000  0.08781000  0.34590000  1.0 -0.2714448128
O  O90  1  0.08781000  0.95539000  0.15410000  1.0 -0.2714448128
O  O91  1  0.04461000  0.91219000  0.65410000  1.0 -0.276800501
O  O92  1  0.91219000  0.04461000  0.84590000  1.0 -0.276800501
O  O93  1  0.49344000  0.87076000  0.51660000  1.0 -0.4308503059
O  O94  1  0.87076000  0.49344000  0.98340000  1.0 -0.4308503059
O  O95  1  0.50656000  0.12924000  0.48340000  1.0 -0.4351756659
O  O96  1  0.12924000  0.50656000  0.01660000  1.0 -0.4308503059
O  O97  1  0.63555000  0.99365000  0.67300000  1.0 -0.1999835352
O  O98  1  0.99365000  0.63555000  0.82700000  1.0 -0.206437802
O  O99  1  0.36445000  0.00635000  0.32700000  1.0 -0.1999835352
O  O100  1  0.00635000  0.36445000  0.17300000  1.0 -0.1999835352
O  O101  1  0.59049000  0.89231000  0.87050000  1.0 -0.3779188779
O  O102  1  0.89231000  0.59049000  0.62950000  1.0 -0.3779188779
O  O103  1  0.40951000  0.10769000  0.12950000  1.0 -0.3720413235
O  O104  1  0.10769000  0.40951000  0.37050000  1.0 -0.3779188779
O  O105  1  0.48452000  0.66288000  0.70540000  1.0 -0.3105104913
O  O106  1  0.66288000  0.48452000  0.79460000  1.0 -0.3105104913
O  O107  1  0.51548000  0.33712000  0.29460000  1.0 -0.3105104913
O  O108  1  0.33712000  0.51548000  0.20540000  1.0 -0.3105104913
O  O109  1  0.81235000  0.99705000  0.22640000  1.0 0.2580425355
O  O110  1  0.99705000  0.81235000  0.27360000  1.0 0.2580425355
O  O111  1  0.18765000  0.00295000  0.77360000  1.0 0.2580425355
O  O112  1  0.00295000  0.18765000  0.72640000  1.0 0.2580425355
O  O113  1  0.56426000  0.67914000  0.88300000  1.0 0.0722946941
O  O114  1  0.67914000  0.56426000  0.61700000  1.0 0.0722946941
O  O115  1  0.43574000  0.32086000  0.11700000  1.0 0.0722946941
O  O116  1  0.32086000  0.43574000  0.38300000  1.0 0.0722946941
O  O117  1  0.30500000  0.49640000  0.69820000  1.0 0.2910248551
O  O118  1  0.49640000  0.30500000  0.80180000  1.0 0.2910248551
O  O119  1  0.69500000  0.50360000  0.30180000  1.0 0.2910248551
O  O120  1  0.50360000  0.69500000  0.19820000  1.0 0.2910248551
O  O121  1  0.26450000  0.21590000  0.89000000  1.0 0.0257297947
O  O122  1  0.21590000  0.26450000  0.61000000  1.0 0.0235482268
O  O123  1  0.73550000  0.78410000  0.11000000  1.0 0.0235482268
O  O124  1  0.78410000  0.73550000  0.39000000  1.0 0.0235482268
O  O125  1  0.72459000  0.03521000  0.38790000  1.0 -0.0432710436
O  O126  1  0.03521000  0.72459000  0.11210000  1.0 -0.0463639994
O  O127  1  0.27541000  0.96479000  0.61210000  1.0 -0.0463639994
O  O128  1  0.96479000  0.27541000  0.88790000  1.0 -0.0463639994
O  O129  1  0.58600000  0.90280000  0.36920000  1.0 0.1041184298
O  O130  1  0.90280000  0.58600000  0.13080000  1.0 0.1041184298
O  O131  1  0.41400000  0.09720000  0.63080000  1.0 0.1041184298
O  O132  1  0.09720000  0.41400000  0.86920000  1.0 0.1041184298
O  O133  1  0.67842000  0.94718000  0.27910000  1.0 -0.1058798146
O  O134  1  0.94718000  0.67842000  0.22090000  1.0 -0.1058798146
O  O135  1  0.32158000  0.05282000  0.72090000  1.0 -0.1058798146
O  O136  1  0.05282000  0.32158000  0.77910000  1.0 -0.1058798146
O  O137  1  0.23903000  0.52637000  0.74360000  1.0 -0.276800501
O  O138  1  0.52637000  0.23903000  0.75640000  1.0 -0.276800501
O  O139  1  0.76097000  0.47363000  0.25640000  1.0 -0.276800501
O  O140  1  0.47363000  0.76097000  0.24360000  1.0 -0.276800501
O  O141  1  0.79820000  0.97440000  0.15790000  1.0 -0.0978665066
O  O142  1  0.97440000  0.79820000  0.34210000  1.0 -0.0978665066
O  O143  1  0.20180000  0.02560000  0.84210000  1.0 -0.0978665066
O  O144  1  0.02560000  0.20180000  0.65790000  1.0 -0.0978665066
O  O145  1  0.79550000  0.02070000  0.27470000  1.0 -0.1999835352
O  O146  1  0.02070000  0.79550000  0.22530000  1.0 -0.1999835352
O  O147  1  0.20450000  0.97930000  0.72530000  1.0 -0.1999835352
O  O148  1  0.97930000  0.20450000  0.77470000  1.0 -0.1999835352
O  O149  1  0.67810000  0.88530000  0.23560000  1.0 -0.3591403154
O  O150  1  0.88530000  0.67810000  0.26440000  1.0 -0.3591403154
O  O151  1  0.32190000  0.11470000  0.76440000  1.0 -0.3591403154
O  O152  1  0.11470000  0.32190000  0.73560000  1.0 -0.3591403154
O  O153  1  0.30660000  0.47080000  0.65320000  1.0 -0.0817442678
O  O154  1  0.47080000  0.30660000  0.84680000  1.0 -0.0817442678
O  O155  1  0.69340000  0.52920000  0.34680000  1.0 -0.0817442678
O  O156  1  0.52920000  0.69340000  0.15320000  1.0 -0.0817442678
O  O157  1  0.29252000  0.51548000  0.73970000  1.0 0.0075512765
O  O158  1  0.51548000  0.29252000  0.76030000  1.0 0.0075512765
O  O159  1  0.70748000  0.48452000  0.26030000  1.0 0.0075512765
O  O160  1  0.48452000  0.70748000  0.23970000  1.0 0.0075512765
O  O161  1  0.23410000  0.46990000  0.57850000  1.0 -0.3105104913
O  O162  1  0.46990000  0.23410000  0.92150000  1.0 -0.3105104913
O  O163  1  0.76590000  0.53010000  0.42150000  1.0 -0.3105104913
O  O164  1  0.53010000  0.76590000  0.07850000  1.0 -0.3105104913
O  O165  1  0.54805000  0.67815000  0.92910000  1.0 -0.0015791997
O  O166  1  0.67815000  0.54805000  0.57090000  1.0 -0.0015791997
O  O167  1  0.45195000  0.32185000  0.07090000  1.0 -0.0015791997
O  O168  1  0.32185000  0.45195000  0.42910000  1.0 -0.0015791997
O  O169  1  0.22270000  0.14750000  0.89730000  1.0 -0.0279809034
O  O170  1  0.14750000  0.22270000  0.60270000  1.0 -0.0279809034
O  O171  1  0.77730000  0.85250000  0.10270000  1.0 -0.0279809034
O  O172  1  0.85250000  0.77730000  0.39730000  1.0 -0.0279809034
O  O173  1  0.68460000  0.99360000  0.37780000  1.0 0.3365026924
O  O174  1  0.99360000  0.68460000  0.12220000  1.0 0.334946892
O  O175  1  0.31540000  0.00640000  0.62220000  1.0 0.3365026924
O  O176  1  0.00640000  0.31540000  0.87780000  1.0 0.3365026924
O  O177  1  0.50510000  0.81730000  0.32260000  1.0 -0.1786983472
O  O178  1  0.81730000  0.50510000  0.17740000  1.0 -0.1786983472
O  O179  1  0.49490000  0.18270000  0.67740000  1.0 -0.1786983472
O  O180  1  0.18270000  0.49490000  0.82260000  1.0 -0.1786983472
O  O181  1  0.32135000  0.30965000  0.80590000  1.0 -0.206437802
O  O182  1  0.30965000  0.32135000  0.69410000  1.0 -0.206437802
O  O183  1  0.67865000  0.69035000  0.19410000  1.0 -0.206437802
O  O184  1  0.69035000  0.67865000  0.30590000  1.0 -0.206437802
O  O185  1  0.28480000  0.31900000  0.07260000  1.0 -0.4656852272
O  O186  1  0.17900000  0.22420000  0.18540000  1.0 -0.4182546771
O  O187  1  0.24020000  0.34380000  0.18330000  1.0 -0.3932461825
O  O188  1  0.31900000  0.28480000  0.42740000  1.0 -0.4656852272
O  O189  1  0.22420000  0.17900000  0.31460000  1.0 -0.4182546771
O  O190  1  0.34380000  0.24020000  0.31670000  1.0 -0.3932461825
O  O191  1  0.71520000  0.68100000  0.92740000  1.0 -0.4656852272
O  O192  1  0.82100000  0.77580000  0.81460000  1.0 -0.4182546771
O  O193  1  0.75980000  0.65620000  0.81670000  1.0 -0.3932461825
O  O194  1  0.68100000  0.71520000  0.57260000  1.0 -0.4656852272
O  O195  1  0.77580000  0.82100000  0.68540000  1.0 -0.4182546771
O  O196  1  0.65620000  0.75980000  0.68330000  1.0 -0.3932461825
O  O197  1  0.03869000  0.49051000  0.77900000  1.0 -0.3406223915
O  O198  1  0.13671000  0.53869000  0.69050000  1.0 -0.3967810658
O  O199  1  0.00576000  0.40864000  0.67320000  1.0 -0.4095171826
O  O200  1  0.49051000  0.03869000  0.72100000  1.0 -0.3406223915
O  O201  1  0.53869000  0.13671000  0.80950000  1.0 -0.3967810658
O  O202  1  0.40864000  0.00576000  0.82680000  1.0 -0.4095171826
O  O203  1  0.96131000  0.50949000  0.22100000  1.0 -0.3406223915
O  O204  1  0.86329000  0.46131000  0.30950000  1.0 -0.3967810658
O  O205  1  0.99424000  0.59136000  0.32680000  1.0 -0.4095171826
O  O206  1  0.50949000  0.96131000  0.27900000  1.0 -0.3406223915
O  O207  1  0.46131000  0.86329000  0.19050000  1.0 -0.3967810658
O  O208  1  0.59136000  0.99424000  0.17320000  1.0 -0.4095171826
