# DDEC6 charges by PACMAN v1.1 (https://github.com/mtap-research/PACMAN-charge/)
data_BUXNOZ_ASR_pacman
_symmetry_space_group_name_H-M   'P 1'
_cell_length_a   25.91200000
_cell_length_b   27.67000000
_cell_length_c   29.29700000
_cell_angle_alpha   90.00000000
_cell_angle_beta   90.00000000
_cell_angle_gamma   90.00000000
_symmetry_Int_Tables_number   1
_chemical_formula_structural   Cu5H18C42(N2O5)4
_chemical_formula_sum   'Cu40 H144 C336 N64 O160'
_cell_volume   21005.51071688
_cell_formula_units_Z   8
loop_
 _symmetry_equiv_pos_site_id
 _symmetry_equiv_pos_as_xyz
  1  'x, y, z'
loop_
 _atom_site_type_symbol
 _atom_site_label
 _atom_site_symmetry_multiplicity
 _atom_site_fract_x
 _atom_site_fract_y
 _atom_site_fract_z
 _atom_site_occupancy
 _atom_site_charge
Cu  Cu1  1  0.01568000  0.25445000  0.36895000  1.0 0.745176725
Cu  Cu2  1  0.51568000  0.74555000  0.63105000  1.0 0.745176725
Cu  Cu3  1  0.98432000  0.25445000  0.13105000  1.0 0.7448182031
Cu  Cu4  1  0.48432000  0.74555000  0.86895000  1.0 0.7448182031
Cu  Cu5  1  0.98432000  0.74555000  0.63105000  1.0 0.7448182031
Cu  Cu6  1  0.48432000  0.25445000  0.36895000  1.0 0.7448182031
Cu  Cu7  1  0.01568000  0.74555000  0.86895000  1.0 0.745176725
Cu  Cu8  1  0.51568000  0.25445000  0.13105000  1.0 0.7448182031
Cu  Cu9  1  0.01022000  0.24831000  0.48489000  1.0 0.2745277359
Cu  Cu10  1  0.51022000  0.75169000  0.51511000  1.0 0.2796106785
Cu  Cu11  1  0.98978000  0.24831000  0.01511000  1.0 0.2796106785
Cu  Cu12  1  0.48978000  0.75169000  0.98489000  1.0 0.2796106785
Cu  Cu13  1  0.98978000  0.75169000  0.51511000  1.0 0.2796106785
Cu  Cu14  1  0.48978000  0.24831000  0.48489000  1.0 0.2745277359
Cu  Cu15  1  0.01022000  0.75169000  0.98489000  1.0 0.2796106785
Cu  Cu16  1  0.51022000  0.24831000  0.01511000  1.0 0.2796106785
Cu  Cu17  1  0.25000000  0.99570000  0.62728000  1.0 0.8618603423
Cu  Cu18  1  0.75000000  0.00430000  0.37272000  1.0 0.8618603423
Cu  Cu19  1  0.75000000  0.99570000  0.87272000  1.0 0.8618603423
Cu  Cu20  1  0.25000000  0.00430000  0.12728000  1.0 0.8618603423
Cu  Cu21  1  0.25000000  0.02738000  0.71256000  1.0 0.8618603423
Cu  Cu22  1  0.75000000  0.97262000  0.28744000  1.0 0.8618603423
Cu  Cu23  1  0.75000000  0.02738000  0.78744000  1.0 0.8618603423
Cu  Cu24  1  0.25000000  0.97262000  0.21256000  1.0 0.8618603423
Cu  Cu25  1  0.95932000  0.24508000  0.72189000  1.0 0.8618603423
Cu  Cu26  1  0.45932000  0.75492000  0.27811000  1.0 0.8618603423
Cu  Cu27  1  0.04068000  0.24508000  0.77811000  1.0 0.8618603423
Cu  Cu28  1  0.54068000  0.75492000  0.22189000  1.0 0.8618603423
Cu  Cu29  1  0.04068000  0.75492000  0.27811000  1.0 0.8618603423
Cu  Cu30  1  0.54068000  0.24508000  0.72189000  1.0 0.8618603423
Cu  Cu31  1  0.95932000  0.75492000  0.22189000  1.0 0.8618603423
Cu  Cu32  1  0.45932000  0.24508000  0.77811000  1.0 0.8618603423
Cu  Cu33  1  0.25000000  0.47753000  0.73281000  1.0 0.8618603423
Cu  Cu34  1  0.75000000  0.52247000  0.26719000  1.0 0.8618603423
Cu  Cu35  1  0.75000000  0.47753000  0.76719000  1.0 0.8618603423
Cu  Cu36  1  0.25000000  0.52247000  0.23281000  1.0 0.8618603423
Cu  Cu37  1  0.25000000  0.50889000  0.64767000  1.0 0.8618603423
Cu  Cu38  1  0.75000000  0.49111000  0.35233000  1.0 0.8618603423
Cu  Cu39  1  0.75000000  0.50889000  0.85233000  1.0 0.8618603423
Cu  Cu40  1  0.25000000  0.49111000  0.14767000  1.0 0.8618603423
H  H1  1  0.12400000  0.12200000  0.40140000  1.0 0.1550714745
H  H2  1  0.62400000  0.87800000  0.59860000  1.0 0.1502705691
H  H3  1  0.87600000  0.12200000  0.09860000  1.0 0.1502705691
H  H4  1  0.37600000  0.87800000  0.90140000  1.0 0.1502705691
H  H5  1  0.87600000  0.87800000  0.59860000  1.0 0.1502705691
H  H6  1  0.37600000  0.12200000  0.40140000  1.0 0.1550714745
H  H7  1  0.12400000  0.87800000  0.90140000  1.0 0.1502705691
H  H8  1  0.62400000  0.12200000  0.09860000  1.0 0.1550714745
H  H9  1  0.14310000  0.09440000  0.57130000  1.0 0.1502705691
H  H10  1  0.64310000  0.90560000  0.42870000  1.0 0.1502705691
H  H11  1  0.85690000  0.09440000  0.92870000  1.0 0.1502705691
H  H12  1  0.35690000  0.90560000  0.07130000  1.0 0.1502705691
H  H13  1  0.85690000  0.90560000  0.42870000  1.0 0.1502705691
H  H14  1  0.35690000  0.09440000  0.57130000  1.0 0.1502705691
H  H15  1  0.14310000  0.90560000  0.07130000  1.0 0.1502705691
H  H16  1  0.64310000  0.09440000  0.92870000  1.0 0.1502705691
H  H17  1  0.12200000  0.12490000  0.70290000  1.0 0.139324614
H  H18  1  0.62200000  0.87510000  0.29710000  1.0 0.139324614
H  H19  1  0.87800000  0.12490000  0.79710000  1.0 0.139324614
H  H20  1  0.37800000  0.87510000  0.20290000  1.0 0.139324614
H  H21  1  0.87800000  0.87510000  0.29710000  1.0 0.139324614
H  H22  1  0.37800000  0.12490000  0.70290000  1.0 0.139324614
H  H23  1  0.12200000  0.87510000  0.20290000  1.0 0.139324614
H  H24  1  0.62200000  0.12490000  0.79710000  1.0 0.139324614
H  H25  1  0.02530000  0.18080000  0.60940000  1.0 0.139324614
H  H26  1  0.52530000  0.81920000  0.39060000  1.0 0.139324614
H  H27  1  0.97470000  0.18080000  0.89060000  1.0 0.139324614
H  H28  1  0.47470000  0.81920000  0.10940000  1.0 0.139324614
H  H29  1  0.97470000  0.81920000  0.39060000  1.0 0.139324614
H  H30  1  0.47470000  0.18080000  0.60940000  1.0 0.139324614
H  H31  1  0.02530000  0.81920000  0.10940000  1.0 0.139324614
H  H32  1  0.52530000  0.18080000  0.89060000  1.0 0.139324614
H  H33  1  0.05690000  0.18560000  0.23660000  1.0 0.1502705691
H  H34  1  0.55690000  0.81440000  0.76340000  1.0 0.1502705691
H  H35  1  0.94310000  0.18560000  0.26340000  1.0 0.1502705691
H  H36  1  0.44310000  0.81440000  0.73660000  1.0 0.1502705691
H  H37  1  0.94310000  0.81440000  0.76340000  1.0 0.1502705691
H  H38  1  0.44310000  0.18560000  0.23660000  1.0 0.1502705691
H  H39  1  0.05690000  0.81440000  0.73660000  1.0 0.1502705691
H  H40  1  0.55690000  0.18560000  0.26340000  1.0 0.1502705691
H  H41  1  0.13480000  0.11620000  0.13960000  1.0 0.139324614
H  H42  1  0.63480000  0.88380000  0.86040000  1.0 0.139324614
H  H43  1  0.86520000  0.11620000  0.36040000  1.0 0.139324614
H  H44  1  0.36520000  0.88380000  0.63960000  1.0 0.139324614
H  H45  1  0.86520000  0.88380000  0.86040000  1.0 0.139324614
H  H46  1  0.36520000  0.11620000  0.13960000  1.0 0.139324614
H  H47  1  0.13480000  0.88380000  0.63960000  1.0 0.139324614
H  H48  1  0.63480000  0.11620000  0.36040000  1.0 0.139324614
H  H49  1  0.14940000  0.07590000  0.27030000  1.0 0.139324614
H  H50  1  0.64940000  0.92410000  0.72970000  1.0 0.139324614
H  H51  1  0.85060000  0.07590000  0.22970000  1.0 0.139324614
H  H52  1  0.35060000  0.92410000  0.77030000  1.0 0.139324614
H  H53  1  0.85060000  0.92410000  0.72970000  1.0 0.139324614
H  H54  1  0.35060000  0.07590000  0.27030000  1.0 0.139324614
H  H55  1  0.14940000  0.92410000  0.77030000  1.0 0.139324614
H  H56  1  0.64940000  0.07590000  0.22970000  1.0 0.139324614
H  H57  1  0.12210000  0.38660000  0.44970000  1.0 0.1502705691
H  H58  1  0.62210000  0.61340000  0.55030000  1.0 0.1502705691
H  H59  1  0.87790000  0.38660000  0.05030000  1.0 0.1502705691
H  H60  1  0.37790000  0.61340000  0.94970000  1.0 0.1502705691
H  H61  1  0.87790000  0.61340000  0.55030000  1.0 0.1502705691
H  H62  1  0.37790000  0.38660000  0.44970000  1.0 0.1502705691
H  H63  1  0.12210000  0.61340000  0.94970000  1.0 0.1502705691
H  H64  1  0.62210000  0.38660000  0.05030000  1.0 0.1502705691
H  H65  1  0.04220000  0.31690000  0.24670000  1.0 0.139324614
H  H66  1  0.54220000  0.68310000  0.75330000  1.0 0.139324614
H  H67  1  0.95780000  0.31690000  0.25330000  1.0 0.139324614
H  H68  1  0.45780000  0.68310000  0.74670000  1.0 0.139324614
H  H69  1  0.95780000  0.68310000  0.75330000  1.0 0.139324614
H  H70  1  0.45780000  0.31690000  0.24670000  1.0 0.139324614
H  H71  1  0.04220000  0.68310000  0.74670000  1.0 0.139324614
H  H72  1  0.54220000  0.31690000  0.25330000  1.0 0.139324614
H  H73  1  0.12440000  0.39070000  0.15540000  1.0 0.139324614
H  H74  1  0.62440000  0.60930000  0.84460000  1.0 0.139324614
H  H75  1  0.87560000  0.39070000  0.34460000  1.0 0.139324614
H  H76  1  0.37560000  0.60930000  0.65540000  1.0 0.139324614
H  H77  1  0.87560000  0.60930000  0.84460000  1.0 0.139324614
H  H78  1  0.37560000  0.39070000  0.15540000  1.0 0.139324614
H  H79  1  0.12440000  0.60930000  0.65540000  1.0 0.139324614
H  H80  1  0.62440000  0.39070000  0.34460000  1.0 0.139324614
H  H81  1  0.14800000  0.41420000  0.28890000  1.0 0.1502705691
H  H82  1  0.64800000  0.58580000  0.71110000  1.0 0.1502705691
H  H83  1  0.85200000  0.41420000  0.21110000  1.0 0.1502705691
H  H84  1  0.35200000  0.58580000  0.78890000  1.0 0.1502705691
H  H85  1  0.85200000  0.58580000  0.71110000  1.0 0.1502705691
H  H86  1  0.35200000  0.41420000  0.28890000  1.0 0.1502705691
H  H87  1  0.14800000  0.58580000  0.78890000  1.0 0.1502705691
H  H88  1  0.64800000  0.41420000  0.21110000  1.0 0.1502705691
H  H89  1  0.15410000  0.41020000  0.59070000  1.0 0.139324614
H  H90  1  0.65410000  0.58980000  0.40930000  1.0 0.139324614
H  H91  1  0.84590000  0.41020000  0.90930000  1.0 0.139324614
H  H92  1  0.34590000  0.58980000  0.09070000  1.0 0.139324614
H  H93  1  0.84590000  0.58980000  0.40930000  1.0 0.139324614
H  H94  1  0.34590000  0.41020000  0.59070000  1.0 0.139324614
H  H95  1  0.15410000  0.58980000  0.09070000  1.0 0.139324614
H  H96  1  0.65410000  0.41020000  0.90930000  1.0 0.139324614
H  H97  1  0.12360000  0.36860000  0.71870000  1.0 0.139324614
H  H98  1  0.62360000  0.63140000  0.28130000  1.0 0.139324614
H  H99  1  0.87640000  0.36860000  0.78130000  1.0 0.139324614
H  H100  1  0.37640000  0.63140000  0.21870000  1.0 0.139324614
H  H101  1  0.87640000  0.63140000  0.28130000  1.0 0.139324614
H  H102  1  0.37640000  0.36860000  0.71870000  1.0 0.139324614
H  H103  1  0.12360000  0.63140000  0.21870000  1.0 0.139324614
H  H104  1  0.62360000  0.36860000  0.78130000  1.0 0.139324614
H  H105  1  0.03840000  0.31600000  0.61640000  1.0 0.1502705691
H  H106  1  0.53840000  0.68400000  0.38360000  1.0 0.1502705691
H  H107  1  0.96160000  0.31600000  0.88360000  1.0 0.1502705691
H  H108  1  0.46160000  0.68400000  0.11640000  1.0 0.1502705691
H  H109  1  0.96160000  0.68400000  0.38360000  1.0 0.1502705691
H  H110  1  0.46160000  0.31600000  0.61640000  1.0 0.1502705691
H  H111  1  0.03840000  0.68400000  0.11640000  1.0 0.1502705691
H  H112  1  0.53840000  0.31600000  0.88360000  1.0 0.1502705691
H  H113  1  0.09650000  0.10920000  0.32460000  1.0 0.2933034673
H  H114  1  0.59650000  0.89080000  0.67540000  1.0 0.2933034673
H  H115  1  0.90350000  0.10920000  0.17540000  1.0 0.2933034673
H  H116  1  0.40350000  0.89080000  0.82460000  1.0 0.2933034673
H  H117  1  0.90350000  0.89080000  0.67540000  1.0 0.2933034673
H  H118  1  0.40350000  0.10920000  0.32460000  1.0 0.2933034673
H  H119  1  0.09650000  0.89080000  0.82460000  1.0 0.2933034673
H  H120  1  0.59650000  0.10920000  0.17540000  1.0 0.2933034673
H  H121  1  0.05620000  0.33160000  0.32130000  1.0 0.3073410801
H  H122  1  0.55620000  0.66840000  0.67870000  1.0 0.3073410801
H  H123  1  0.94380000  0.33160000  0.17870000  1.0 0.3073410801
H  H124  1  0.44380000  0.66840000  0.82130000  1.0 0.3073410801
H  H125  1  0.94380000  0.66840000  0.67870000  1.0 0.3073410801
H  H126  1  0.44380000  0.33160000  0.32130000  1.0 0.3073410801
H  H127  1  0.05620000  0.66840000  0.82130000  1.0 0.3073410801
H  H128  1  0.55620000  0.33160000  0.17870000  1.0 0.3073410801
H  H129  1  0.03780000  0.16030000  0.53250000  1.0 0.2745277359
H  H130  1  0.53780000  0.83970000  0.46750000  1.0 0.2796106785
H  H131  1  0.96220000  0.16030000  0.96750000  1.0 0.2745277359
H  H132  1  0.46220000  0.83970000  0.03250000  1.0 0.2745277359
H  H133  1  0.96220000  0.83970000  0.46750000  1.0 0.2796106785
H  H134  1  0.46220000  0.16030000  0.53250000  1.0 0.2745277359
H  H135  1  0.03780000  0.83970000  0.03250000  1.0 0.2745277359
H  H136  1  0.53780000  0.16030000  0.96750000  1.0 0.2745277359
H  H137  1  0.09290000  0.39040000  0.53330000  1.0 0.2796106785
H  H138  1  0.59290000  0.60960000  0.46670000  1.0 0.2796106785
H  H139  1  0.90710000  0.39040000  0.96670000  1.0 0.2796106785
H  H140  1  0.40710000  0.60960000  0.03330000  1.0 0.2796106785
H  H141  1  0.90710000  0.60960000  0.46670000  1.0 0.2796106785
H  H142  1  0.40710000  0.39040000  0.53330000  1.0 0.2796106785
H  H143  1  0.09290000  0.60960000  0.03330000  1.0 0.2796106785
H  H144  1  0.59290000  0.39040000  0.96670000  1.0 0.2796106785
C  C1  1  0.07410000  0.15360000  0.45590000  1.0 0.0604859031
C  C2  1  0.57410000  0.84640000  0.54410000  1.0 0.0604859031
C  C3  1  0.92590000  0.15360000  0.04410000  1.0 0.0604859031
C  C4  1  0.42590000  0.84640000  0.95590000  1.0 0.0604859031
C  C5  1  0.92590000  0.84640000  0.54410000  1.0 0.0604859031
C  C6  1  0.42590000  0.15360000  0.45590000  1.0 0.0604859031
C  C7  1  0.07410000  0.84640000  0.95590000  1.0 0.0604859031
C  C8  1  0.57410000  0.15360000  0.04410000  1.0 0.0604859031
C  C9  1  0.09740000  0.14320000  0.40880000  1.0 -0.2095496395
C  C10  1  0.59740000  0.85680000  0.59120000  1.0 -0.2095496395
C  C11  1  0.90260000  0.14320000  0.09120000  1.0 -0.2095496395
C  C12  1  0.40260000  0.85680000  0.90880000  1.0 -0.2095496395
C  C13  1  0.90260000  0.85680000  0.59120000  1.0 -0.2095496395
C  C14  1  0.40260000  0.14320000  0.40880000  1.0 -0.2095496395
C  C15  1  0.09740000  0.85680000  0.90880000  1.0 -0.2095496395
C  C16  1  0.59740000  0.14320000  0.09120000  1.0 -0.2095496395
C  C17  1  0.07210000  0.17040000  0.38260000  1.0 0.0731906145
C  C18  1  0.57210000  0.82960000  0.61740000  1.0 0.0731906145
C  C19  1  0.92790000  0.17040000  0.11740000  1.0 0.0731906145
C  C20  1  0.42790000  0.82960000  0.88260000  1.0 0.0731906145
C  C21  1  0.92790000  0.82960000  0.61740000  1.0 0.0731906145
C  C22  1  0.42790000  0.17040000  0.38260000  1.0 0.0731906145
C  C23  1  0.07210000  0.82960000  0.88260000  1.0 0.0731906145
C  C24  1  0.57210000  0.17040000  0.11740000  1.0 0.0731906145
C  C25  1  0.09750000  0.14210000  0.49910000  1.0 0.424543403
C  C26  1  0.59750000  0.85790000  0.50090000  1.0 0.4254788383
C  C27  1  0.90250000  0.14210000  0.00090000  1.0 0.424543403
C  C28  1  0.40250000  0.85790000  0.99910000  1.0 0.4254788383
C  C29  1  0.90250000  0.85790000  0.50090000  1.0 0.4254788383
C  C30  1  0.40250000  0.14210000  0.49910000  1.0 0.424543403
C  C31  1  0.09750000  0.85790000  0.99910000  1.0 0.4254788383
C  C32  1  0.59750000  0.14210000  0.00090000  1.0 0.424543403
C  C33  1  0.07940000  0.13880000  0.58090000  1.0 0.2520133405
C  C34  1  0.57940000  0.86120000  0.41910000  1.0 0.2520133405
C  C35  1  0.92060000  0.13880000  0.91910000  1.0 0.2520133405
C  C36  1  0.42060000  0.86120000  0.08090000  1.0 0.2520133405
C  C37  1  0.92060000  0.86120000  0.41910000  1.0 0.2520133405
C  C38  1  0.42060000  0.13880000  0.58090000  1.0 0.2520133405
C  C39  1  0.07940000  0.86120000  0.08090000  1.0 0.2520133405
C  C40  1  0.57940000  0.13880000  0.91910000  1.0 0.2520133405
C  C41  1  0.12370000  0.10990000  0.59360000  1.0 -0.1805657214
C  C42  1  0.62370000  0.89010000  0.40640000  1.0 -0.1805657214
C  C43  1  0.87630000  0.10990000  0.90640000  1.0 -0.1805657214
C  C44  1  0.37630000  0.89010000  0.09360000  1.0 -0.1805657214
C  C45  1  0.87630000  0.89010000  0.40640000  1.0 -0.1805657214
C  C46  1  0.37630000  0.10990000  0.59360000  1.0 -0.1805657214
C  C47  1  0.12370000  0.89010000  0.09360000  1.0 -0.1805657214
C  C48  1  0.62370000  0.10990000  0.90640000  1.0 -0.1805657214
C  C49  1  0.13720000  0.10560000  0.64020000  1.0 -0.0071514762
C  C50  1  0.63720000  0.89440000  0.35980000  1.0 -0.0071514762
C  C51  1  0.86280000  0.10560000  0.85980000  1.0 -0.0071514762
C  C52  1  0.36280000  0.89440000  0.14020000  1.0 -0.0071514762
C  C53  1  0.86280000  0.89440000  0.35980000  1.0 -0.0071514762
C  C54  1  0.36280000  0.10560000  0.64020000  1.0 -0.0071514762
C  C55  1  0.13720000  0.89440000  0.14020000  1.0 -0.0071514762
C  C56  1  0.63720000  0.10560000  0.85980000  1.0 -0.0071514762
C  C57  1  0.11210000  0.12830000  0.67261000  1.0 -0.0992644224
C  C58  1  0.61210000  0.87170000  0.32739000  1.0 -0.0992644224
C  C59  1  0.88790000  0.12830000  0.82739000  1.0 -0.0992644224
C  C60  1  0.38790000  0.87170000  0.17261000  1.0 -0.0992644224
C  C61  1  0.88790000  0.87170000  0.32739000  1.0 -0.0992644224
C  C62  1  0.38790000  0.12830000  0.67261000  1.0 -0.0992644224
C  C63  1  0.11210000  0.87170000  0.17261000  1.0 -0.0992644224
C  C64  1  0.61210000  0.12830000  0.82739000  1.0 -0.0992644224
C  C65  1  0.07030000  0.15770000  0.66120000  1.0 0.0107806531
C  C66  1  0.57030000  0.84230000  0.33880000  1.0 0.0107806531
C  C67  1  0.92970000  0.15770000  0.83880000  1.0 0.0107806531
C  C68  1  0.42970000  0.84230000  0.16120000  1.0 0.0107806531
C  C69  1  0.92970000  0.84230000  0.33880000  1.0 0.0107806531
C  C70  1  0.42970000  0.15770000  0.66120000  1.0 0.0107806531
C  C71  1  0.07030000  0.84230000  0.16120000  1.0 0.0107806531
C  C72  1  0.57030000  0.15770000  0.83880000  1.0 0.0107806531
C  C73  1  0.05410000  0.16190000  0.61600000  1.0 -0.2095496395
C  C74  1  0.55410000  0.83810000  0.38400000  1.0 -0.2153841332
C  C75  1  0.94590000  0.16190000  0.88400000  1.0 -0.2095496395
C  C76  1  0.44590000  0.83810000  0.11600000  1.0 -0.2153841332
C  C77  1  0.94590000  0.83810000  0.38400000  1.0 -0.2153841332
C  C78  1  0.44590000  0.16190000  0.61600000  1.0 -0.2095496395
C  C79  1  0.05410000  0.83810000  0.11600000  1.0 -0.2153841332
C  C80  1  0.55410000  0.16190000  0.88400000  1.0 -0.2095496395
C  C81  1  0.18050000  0.07130000  0.65080000  1.0 0.590549305
C  C82  1  0.68050000  0.92870000  0.34920000  1.0 0.590549305
C  C83  1  0.81950000  0.07130000  0.84920000  1.0 0.590549305
C  C84  1  0.31950000  0.92870000  0.15080000  1.0 0.590549305
C  C85  1  0.81950000  0.92870000  0.34920000  1.0 0.590549305
C  C86  1  0.31950000  0.07130000  0.65080000  1.0 0.590549305
C  C87  1  0.18050000  0.92870000  0.15080000  1.0 0.590549305
C  C88  1  0.68050000  0.07130000  0.84920000  1.0 0.590549305
C  C89  1  0.03930000  0.18440000  0.69740000  1.0 0.570970945
C  C90  1  0.53930000  0.81560000  0.30260000  1.0 0.570970945
C  C91  1  0.96070000  0.18440000  0.80260000  1.0 0.570970945
C  C92  1  0.46070000  0.81560000  0.19740000  1.0 0.570970945
C  C93  1  0.96070000  0.81560000  0.30260000  1.0 0.570970945
C  C94  1  0.46070000  0.18440000  0.69740000  1.0 0.570970945
C  C95  1  0.03930000  0.81560000  0.19740000  1.0 0.570970945
C  C96  1  0.53930000  0.18440000  0.80260000  1.0 0.570970945
C  C97  1  0.08110000  0.17430000  0.33230000  1.0 0.450366985
C  C98  1  0.58110000  0.82570000  0.66770000  1.0 0.450366985
C  C99  1  0.91890000  0.17430000  0.16770000  1.0 0.450366985
C  C100  1  0.41890000  0.82570000  0.83230000  1.0 0.450366985
C  C101  1  0.91890000  0.82570000  0.66770000  1.0 0.450366985
C  C102  1  0.41890000  0.17430000  0.33230000  1.0 0.450366985
C  C103  1  0.08110000  0.82570000  0.83230000  1.0 0.450366985
C  C104  1  0.58110000  0.17430000  0.16770000  1.0 0.450366985
C  C105  1  0.10330000  0.13240000  0.26200000  1.0 0.2187304571
C  C106  1  0.60330000  0.86760000  0.73800000  1.0 0.2187304571
C  C107  1  0.89670000  0.13240000  0.23800000  1.0 0.2187304571
C  C108  1  0.39670000  0.86760000  0.76200000  1.0 0.2187304571
C  C109  1  0.89670000  0.86760000  0.73800000  1.0 0.2187304571
C  C110  1  0.39670000  0.13240000  0.26200000  1.0 0.2187304571
C  C111  1  0.10330000  0.86760000  0.76200000  1.0 0.2187304571
C  C112  1  0.60330000  0.13240000  0.23800000  1.0 0.2187304571
C  C113  1  0.08010000  0.16160000  0.22810000  1.0 -0.1584772146
C  C114  1  0.58010000  0.83840000  0.77190000  1.0 -0.1584772146
C  C115  1  0.91990000  0.16160000  0.27190000  1.0 -0.1584772146
C  C116  1  0.41990000  0.83840000  0.72810000  1.0 -0.1584772146
C  C117  1  0.91990000  0.83840000  0.77190000  1.0 -0.1584772146
C  C118  1  0.41990000  0.16160000  0.22810000  1.0 -0.1584772146
C  C119  1  0.08010000  0.83840000  0.72810000  1.0 -0.1584772146
C  C120  1  0.58010000  0.16160000  0.27190000  1.0 -0.1584772146
C  C121  1  0.09150000  0.15490000  0.18290000  1.0 -0.0199254854
C  C122  1  0.59150000  0.84510000  0.81710000  1.0 -0.0199254854
C  C123  1  0.90850000  0.15490000  0.31710000  1.0 -0.0199254854
C  C124  1  0.40850000  0.84510000  0.68290000  1.0 -0.0199254854
C  C125  1  0.90850000  0.84510000  0.81710000  1.0 -0.0199254854
C  C126  1  0.40850000  0.15490000  0.18290000  1.0 -0.0199254854
C  C127  1  0.09150000  0.84510000  0.68290000  1.0 -0.0199254854
C  C128  1  0.59150000  0.15490000  0.31710000  1.0 -0.0199254854
C  C129  1  0.12550000  0.11940000  0.17010000  1.0 -0.0884436475
C  C130  1  0.62550000  0.88060000  0.82990000  1.0 -0.0884436475
C  C131  1  0.87450000  0.11940000  0.32990000  1.0 -0.0884436475
C  C132  1  0.37450000  0.88060000  0.67010000  1.0 -0.0884436475
C  C133  1  0.87450000  0.88060000  0.82990000  1.0 -0.0884436475
C  C134  1  0.37450000  0.11940000  0.17010000  1.0 -0.0884436475
C  C135  1  0.12550000  0.88060000  0.67010000  1.0 -0.0884436475
C  C136  1  0.62550000  0.11940000  0.32990000  1.0 -0.0884436475
C  C137  1  0.14630000  0.08800000  0.20240000  1.0 -0.0018777367
C  C138  1  0.64630000  0.91200000  0.79760000  1.0 -0.0018777367
C  C139  1  0.85370000  0.08800000  0.29760000  1.0 -0.0018777367
C  C140  1  0.35370000  0.91200000  0.70240000  1.0 -0.0018777367
C  C141  1  0.85370000  0.91200000  0.79760000  1.0 -0.0018777367
C  C142  1  0.35370000  0.08800000  0.20240000  1.0 -0.0018777367
C  C143  1  0.14630000  0.91200000  0.70240000  1.0 -0.0018777367
C  C144  1  0.64630000  0.08800000  0.29760000  1.0 -0.0018777367
C  C145  1  0.13490000  0.09610000  0.24830000  1.0 -0.1938467623
C  C146  1  0.63490000  0.90390000  0.75170000  1.0 -0.1938467623
C  C147  1  0.86510000  0.09610000  0.25170000  1.0 -0.1938467623
C  C148  1  0.36510000  0.90390000  0.74830000  1.0 -0.1938467623
C  C149  1  0.86510000  0.90390000  0.75170000  1.0 -0.1938467623
C  C150  1  0.36510000  0.09610000  0.24830000  1.0 -0.1938467623
C  C151  1  0.13490000  0.90390000  0.74830000  1.0 -0.1938467623
C  C152  1  0.63490000  0.09610000  0.25170000  1.0 -0.1938467623
C  C153  1  0.06730000  0.18590000  0.14780000  1.0 0.5595916976
C  C154  1  0.56730000  0.81410000  0.85220000  1.0 0.5595916976
C  C155  1  0.93270000  0.18590000  0.35220000  1.0 0.5595916976
C  C156  1  0.43270000  0.81410000  0.64780000  1.0 0.5595916976
C  C157  1  0.93270000  0.81410000  0.85220000  1.0 0.5595916976
C  C158  1  0.43270000  0.18590000  0.14780000  1.0 0.5595916976
C  C159  1  0.06730000  0.81410000  0.64780000  1.0 0.5595916976
C  C160  1  0.56730000  0.18590000  0.35220000  1.0 0.5595916976
C  C161  1  0.18440000  0.04900000  0.18940000  1.0 0.5801533336
C  C162  1  0.68440000  0.95100000  0.81060000  1.0 0.5801533336
C  C163  1  0.81560000  0.04900000  0.31060000  1.0 0.5801533336
C  C164  1  0.31560000  0.95100000  0.68940000  1.0 0.5801533336
C  C165  1  0.81560000  0.95100000  0.81060000  1.0 0.5801533336
C  C166  1  0.31560000  0.04900000  0.18940000  1.0 0.5801533336
C  C167  1  0.18440000  0.95100000  0.68940000  1.0 0.5801533336
C  C168  1  0.68440000  0.04900000  0.31060000  1.0 0.5801533336
C  C169  1  0.06950000  0.33130000  0.47540000  1.0 -0.0199254854
C  C170  1  0.56950000  0.66870000  0.52460000  1.0 -0.0199254854
C  C171  1  0.93050000  0.33130000  0.02460000  1.0 -0.0199254854
C  C172  1  0.43050000  0.66870000  0.97540000  1.0 -0.0199254854
C  C173  1  0.93050000  0.66870000  0.52460000  1.0 -0.0199254854
C  C174  1  0.43050000  0.33130000  0.47540000  1.0 -0.0199254854
C  C175  1  0.06950000  0.66870000  0.97540000  1.0 -0.0199254854
C  C176  1  0.56950000  0.33130000  0.02460000  1.0 -0.0199254854
C  C177  1  0.09940000  0.36120000  0.44400000  1.0 -0.2305370682
C  C178  1  0.59940000  0.63880000  0.55600000  1.0 -0.2305370682
C  C179  1  0.90060000  0.36120000  0.05600000  1.0 -0.2305370682
C  C180  1  0.40060000  0.63880000  0.94400000  1.0 -0.2305370682
C  C181  1  0.90060000  0.63880000  0.55600000  1.0 -0.2305370682
C  C182  1  0.40060000  0.36120000  0.44400000  1.0 -0.2305370682
C  C183  1  0.09940000  0.63880000  0.94400000  1.0 -0.2305370682
C  C184  1  0.59940000  0.36120000  0.05600000  1.0 -0.2305370682
C  C185  1  0.08330000  0.33950000  0.40140000  1.0 0.1174234673
C  C186  1  0.58330000  0.66050000  0.59860000  1.0 0.1174234673
C  C187  1  0.91670000  0.33950000  0.09860000  1.0 0.1174234673
C  C188  1  0.41670000  0.66050000  0.90140000  1.0 0.1174234673
C  C189  1  0.91670000  0.66050000  0.59860000  1.0 0.1174234673
C  C190  1  0.41670000  0.33950000  0.40140000  1.0 0.1174234673
C  C191  1  0.08330000  0.66050000  0.90140000  1.0 0.1174234673
C  C192  1  0.58330000  0.33950000  0.09860000  1.0 0.1174234673
C  C193  1  0.10550000  0.35800000  0.35700000  1.0 0.450366985
C  C194  1  0.60550000  0.64200000  0.64300000  1.0 0.450366985
C  C195  1  0.89450000  0.35800000  0.14300000  1.0 0.450366985
C  C196  1  0.39450000  0.64200000  0.85700000  1.0 0.450366985
C  C197  1  0.89450000  0.64200000  0.64300000  1.0 0.450366985
C  C198  1  0.39450000  0.35800000  0.35700000  1.0 0.450366985
C  C199  1  0.10550000  0.64200000  0.85700000  1.0 0.450366985
C  C200  1  0.60550000  0.35800000  0.14300000  1.0 0.450366985
C  C201  1  0.09550000  0.36440000  0.27510000  1.0 0.2187304571
C  C202  1  0.59550000  0.63560000  0.72490000  1.0 0.2187304571
C  C203  1  0.90450000  0.36440000  0.22490000  1.0 0.2187304571
C  C204  1  0.40450000  0.63560000  0.77510000  1.0 0.2187304571
C  C205  1  0.90450000  0.63560000  0.72490000  1.0 0.2187304571
C  C206  1  0.40450000  0.36440000  0.27510000  1.0 0.2187304571
C  C207  1  0.09550000  0.63560000  0.77510000  1.0 0.2187304571
C  C208  1  0.59550000  0.36440000  0.22490000  1.0 0.2187304571
C  C209  1  0.06830000  0.33900000  0.24030000  1.0 -0.1994480864
C  C210  1  0.56830000  0.66100000  0.75970000  1.0 -0.1994480864
C  C211  1  0.93170000  0.33900000  0.25970000  1.0 -0.1994480864
C  C212  1  0.43170000  0.66100000  0.74030000  1.0 -0.1994480864
C  C213  1  0.93170000  0.66100000  0.75970000  1.0 -0.1994480864
C  C214  1  0.43170000  0.33900000  0.24030000  1.0 -0.1994480864
C  C215  1  0.06830000  0.66100000  0.74030000  1.0 -0.1994480864
C  C216  1  0.56830000  0.33900000  0.25970000  1.0 -0.1994480864
C  C217  1  0.08390000  0.34980000  0.19550000  1.0 0.0169374961
C  C218  1  0.58390000  0.65020000  0.80450000  1.0 0.0169374961
C  C219  1  0.91610000  0.34980000  0.30450000  1.0 0.0169374961
C  C220  1  0.41610000  0.65020000  0.69550000  1.0 0.0169374961
C  C221  1  0.91610000  0.65020000  0.80450000  1.0 0.0169374961
C  C222  1  0.41610000  0.34980000  0.19550000  1.0 0.0169374961
C  C223  1  0.08390000  0.65020000  0.69550000  1.0 0.0169374961
C  C224  1  0.58390000  0.34980000  0.30450000  1.0 0.0169374961
C  C225  1  0.11840000  0.38310000  0.18590000  1.0 -0.0884436475
C  C226  1  0.61840000  0.61690000  0.81410000  1.0 -0.0884436475
C  C227  1  0.88160000  0.38310000  0.31410000  1.0 -0.0884436475
C  C228  1  0.38160000  0.61690000  0.68590000  1.0 -0.0884436475
C  C229  1  0.88160000  0.61690000  0.81410000  1.0 -0.0884436475
C  C230  1  0.38160000  0.38310000  0.18590000  1.0 -0.0884436475
C  C231  1  0.11840000  0.61690000  0.68590000  1.0 -0.0884436475
C  C232  1  0.61840000  0.38310000  0.31410000  1.0 -0.0884436475
C  C233  1  0.14600000  0.40760000  0.21920000  1.0 -0.0568850777
C  C234  1  0.64600000  0.59240000  0.78080000  1.0 -0.0568850777
C  C235  1  0.85400000  0.40760000  0.28080000  1.0 -0.0568850777
C  C236  1  0.35400000  0.59240000  0.71920000  1.0 -0.0568850777
C  C237  1  0.85400000  0.59240000  0.78080000  1.0 -0.0568850777
C  C238  1  0.35400000  0.40760000  0.21920000  1.0 -0.0568850777
C  C239  1  0.14600000  0.59240000  0.71920000  1.0 -0.0568850777
C  C240  1  0.64600000  0.40760000  0.28080000  1.0 -0.0568850777
C  C241  1  0.13190000  0.39760000  0.26530000  1.0 -0.1584772146
C  C242  1  0.63190000  0.60240000  0.73470000  1.0 -0.1584772146
C  C243  1  0.86810000  0.39760000  0.23470000  1.0 -0.1584772146
C  C244  1  0.36810000  0.60240000  0.76530000  1.0 -0.1584772146
C  C245  1  0.86810000  0.60240000  0.73470000  1.0 -0.1584772146
C  C246  1  0.36810000  0.39760000  0.26530000  1.0 -0.1584772146
C  C247  1  0.13190000  0.60240000  0.76530000  1.0 -0.1584772146
C  C248  1  0.63190000  0.39760000  0.23470000  1.0 -0.1584772146
C  C249  1  0.18280000  0.44370000  0.20750000  1.0 0.5595916976
C  C250  1  0.68280000  0.55630000  0.79250000  1.0 0.5595916976
C  C251  1  0.81720000  0.44370000  0.29250000  1.0 0.5595916976
C  C252  1  0.31720000  0.55630000  0.70750000  1.0 0.5595916976
C  C253  1  0.81720000  0.55630000  0.79250000  1.0 0.5595916976
C  C254  1  0.31720000  0.44370000  0.20750000  1.0 0.5595916976
C  C255  1  0.18280000  0.55630000  0.70750000  1.0 0.5595916976
C  C256  1  0.68280000  0.44370000  0.29250000  1.0 0.5595916976
C  C257  1  0.05350000  0.32260000  0.15730000  1.0 0.5595916976
C  C258  1  0.55350000  0.67740000  0.84270000  1.0 0.5549427792
C  C259  1  0.94650000  0.32260000  0.34270000  1.0 0.5595916976
C  C260  1  0.44650000  0.67740000  0.65730000  1.0 0.5595916976
C  C261  1  0.94650000  0.67740000  0.84270000  1.0 0.5595916976
C  C262  1  0.44650000  0.32260000  0.15730000  1.0 0.5595916976
C  C263  1  0.05350000  0.67740000  0.65730000  1.0 0.5595916976
C  C264  1  0.55350000  0.32260000  0.34270000  1.0 0.5549427792
C  C265  1  0.06790000  0.32800000  0.52150000  1.0 0.3799015134
C  C266  1  0.56790000  0.67200000  0.47850000  1.0 0.3799015134
C  C267  1  0.93210000  0.32800000  0.97850000  1.0 0.3799015134
C  C268  1  0.43210000  0.67200000  0.02150000  1.0 0.3799015134
C  C269  1  0.93210000  0.67200000  0.47850000  1.0 0.3799015134
C  C270  1  0.43210000  0.32800000  0.52150000  1.0 0.3799015134
C  C271  1  0.06790000  0.67200000  0.02150000  1.0 0.3799015134
C  C272  1  0.56790000  0.32800000  0.97850000  1.0 0.3799015134
C  C273  1  0.09230000  0.36460000  0.59450000  1.0 0.2444493677
C  C274  1  0.59230000  0.63540000  0.40550000  1.0 0.2444493677
C  C275  1  0.90770000  0.36460000  0.90550000  1.0 0.2444493677
C  C276  1  0.40770000  0.63540000  0.09450000  1.0 0.2444493677
C  C277  1  0.90770000  0.63540000  0.40550000  1.0 0.2444493677
C  C278  1  0.40770000  0.36460000  0.59450000  1.0 0.2444493677
C  C279  1  0.09230000  0.63540000  0.09450000  1.0 0.2444493677
C  C280  1  0.59230000  0.36460000  0.90550000  1.0 0.2444493677
C  C281  1  0.13330000  0.39340000  0.61110000  1.0 -0.1938467623
C  C282  1  0.63330000  0.60660000  0.38890000  1.0 -0.1938467623
C  C283  1  0.86670000  0.39340000  0.88890000  1.0 -0.1938467623
C  C284  1  0.36670000  0.60660000  0.11110000  1.0 -0.1938467623
C  C285  1  0.86670000  0.60660000  0.38890000  1.0 -0.1938467623
C  C286  1  0.36670000  0.39340000  0.61110000  1.0 -0.1938467623
C  C287  1  0.13330000  0.60660000  0.11110000  1.0 -0.1938467623
C  C288  1  0.63330000  0.39340000  0.88890000  1.0 -0.1938467623
C  C289  1  0.14260000  0.39680000  0.65740000  1.0 -0.0199254854
C  C290  1  0.64260000  0.60320000  0.34260000  1.0 -0.0199254854
C  C291  1  0.85740000  0.39680000  0.84260000  1.0 -0.0199254854
C  C292  1  0.35740000  0.60320000  0.15740000  1.0 -0.0199254854
C  C293  1  0.85740000  0.60320000  0.34260000  1.0 -0.0199254854
C  C294  1  0.35740000  0.39680000  0.65740000  1.0 -0.0199254854
C  C295  1  0.14260000  0.60320000  0.15740000  1.0 -0.0199254854
C  C296  1  0.64260000  0.39680000  0.84260000  1.0 -0.0199254854
C  C297  1  0.11570000  0.36800000  0.68780000  1.0 -0.0992644224
C  C298  1  0.61570000  0.63200000  0.31220000  1.0 -0.0992644224
C  C299  1  0.88430000  0.36800000  0.81220000  1.0 -0.0884436475
C  C300  1  0.38430000  0.63200000  0.18780000  1.0 -0.0992644224
C  C301  1  0.88430000  0.63200000  0.31220000  1.0 -0.0992644224
C  C302  1  0.38430000  0.36800000  0.68780000  1.0 -0.0884436475
C  C303  1  0.11570000  0.63200000  0.18780000  1.0 -0.0992644224
C  C304  1  0.61570000  0.36800000  0.81220000  1.0 -0.0884436475
C  C305  1  0.07720000  0.33870000  0.67180000  1.0 -0.0199254854
C  C306  1  0.57720000  0.66130000  0.32820000  1.0 -0.0199254854
C  C307  1  0.92280000  0.33870000  0.82820000  1.0 -0.0199254854
C  C308  1  0.42280000  0.66130000  0.17180000  1.0 -0.0199254854
C  C309  1  0.92280000  0.66130000  0.32820000  1.0 -0.0199254854
C  C310  1  0.42280000  0.33870000  0.67180000  1.0 -0.0199254854
C  C311  1  0.07720000  0.66130000  0.17180000  1.0 -0.0199254854
C  C312  1  0.57720000  0.33870000  0.82820000  1.0 -0.0199254854
C  C313  1  0.06480000  0.33620000  0.62620000  1.0 -0.1712581777
C  C314  1  0.56480000  0.66380000  0.37380000  1.0 -0.1712581777
C  C315  1  0.93520000  0.33620000  0.87380000  1.0 -0.1712581777
C  C316  1  0.43520000  0.66380000  0.12620000  1.0 -0.1712581777
C  C317  1  0.93520000  0.66380000  0.37380000  1.0 -0.1712581777
C  C318  1  0.43520000  0.33620000  0.62620000  1.0 -0.1712581777
C  C319  1  0.06480000  0.66380000  0.12620000  1.0 -0.1712581777
C  C320  1  0.56480000  0.33620000  0.87380000  1.0 -0.1712581777
C  C321  1  0.04670000  0.30840000  0.70470000  1.0 0.5801533336
C  C322  1  0.54670000  0.69160000  0.29530000  1.0 0.5801533336
C  C323  1  0.95330000  0.30840000  0.79530000  1.0 0.5801533336
C  C324  1  0.45330000  0.69160000  0.20470000  1.0 0.5801533336
C  C325  1  0.95330000  0.69160000  0.29530000  1.0 0.5801533336
C  C326  1  0.45330000  0.30840000  0.70470000  1.0 0.5801533336
C  C327  1  0.04670000  0.69160000  0.20470000  1.0 0.5801533336
C  C328  1  0.54670000  0.30840000  0.79530000  1.0 0.5801533336
C  C329  1  0.18140000  0.43320000  0.67150000  1.0 0.5801533336
C  C330  1  0.68140000  0.56680000  0.32850000  1.0 0.5801533336
C  C331  1  0.81860000  0.43320000  0.82850000  1.0 0.5801533336
C  C332  1  0.31860000  0.56680000  0.17150000  1.0 0.5801533336
C  C333  1  0.81860000  0.56680000  0.32850000  1.0 0.5801533336
C  C334  1  0.31860000  0.43320000  0.67150000  1.0 0.5801533336
C  C335  1  0.18140000  0.56680000  0.17150000  1.0 0.5801533336
C  C336  1  0.68140000  0.43320000  0.82850000  1.0 0.5801533336
N  N1  1  0.04580000  0.20270000  0.40444000  1.0 -0.1371692941
N  N2  1  0.54580000  0.79730000  0.59556000  1.0 -0.1371692941
N  N3  1  0.95420000  0.20270000  0.09556000  1.0 -0.1371692941
N  N4  1  0.45420000  0.79730000  0.90444000  1.0 -0.1371692941
N  N5  1  0.95420000  0.79730000  0.59556000  1.0 -0.1371692941
N  N6  1  0.45420000  0.20270000  0.40444000  1.0 -0.1371692941
N  N7  1  0.04580000  0.79730000  0.90444000  1.0 -0.1371692941
N  N8  1  0.54580000  0.20270000  0.09556000  1.0 -0.1371692941
N  N9  1  0.04560000  0.19270000  0.44856000  1.0 -0.1584772146
N  N10  1  0.54560000  0.80730000  0.55144000  1.0 -0.1584772146
N  N11  1  0.95440000  0.19270000  0.05144000  1.0 -0.1584772146
N  N12  1  0.45440000  0.80730000  0.94856000  1.0 -0.1584772146
N  N13  1  0.95440000  0.80730000  0.55144000  1.0 -0.1584772146
N  N14  1  0.45440000  0.19270000  0.44856000  1.0 -0.1584772146
N  N15  1  0.04560000  0.80730000  0.94856000  1.0 -0.1584772146
N  N16  1  0.54560000  0.19270000  0.05144000  1.0 -0.1584772146
N  N17  1  0.05440000  0.30250000  0.40559000  1.0 -0.1805657214
N  N18  1  0.55440000  0.69750000  0.59441000  1.0 -0.1805657214
N  N19  1  0.94560000  0.30250000  0.09441000  1.0 -0.1805657214
N  N20  1  0.44560000  0.69750000  0.90559000  1.0 -0.1805657214
N  N21  1  0.94560000  0.69750000  0.59441000  1.0 -0.1805657214
N  N22  1  0.44560000  0.30250000  0.40559000  1.0 -0.1805657214
N  N23  1  0.05440000  0.69750000  0.90559000  1.0 -0.1805657214
N  N24  1  0.55440000  0.30250000  0.09441000  1.0 -0.1805657214
N  N25  1  0.04660000  0.29640000  0.45027000  1.0 -0.1226284505
N  N26  1  0.54660000  0.70360000  0.54973000  1.0 -0.1226284505
N  N27  1  0.95340000  0.29640000  0.04973000  1.0 -0.1226284505
N  N28  1  0.45340000  0.70360000  0.95027000  1.0 -0.125275083
N  N29  1  0.95340000  0.70360000  0.54973000  1.0 -0.1226284505
N  N30  1  0.45340000  0.29640000  0.45027000  1.0 -0.125275083
N  N31  1  0.04660000  0.70360000  0.95027000  1.0 -0.1226284505
N  N32  1  0.54660000  0.29640000  0.04973000  1.0 -0.1226284505
N  N33  1  0.09370000  0.13560000  0.30930000  1.0 -0.3090303628
N  N34  1  0.59370000  0.86440000  0.69070000  1.0 -0.3090303628
N  N35  1  0.90630000  0.13560000  0.19070000  1.0 -0.3090303628
N  N36  1  0.40630000  0.86440000  0.80930000  1.0 -0.3090303628
N  N37  1  0.90630000  0.86440000  0.69070000  1.0 -0.3090303628
N  N38  1  0.40630000  0.13560000  0.30930000  1.0 -0.3090303628
N  N39  1  0.09370000  0.86440000  0.80930000  1.0 -0.3090303628
N  N40  1  0.59370000  0.13560000  0.19070000  1.0 -0.3090303628
N  N41  1  0.08330000  0.34950000  0.31932000  1.0 -0.3090303628
N  N42  1  0.58330000  0.65050000  0.68068000  1.0 -0.3090303628
N  N43  1  0.91670000  0.34950000  0.18068000  1.0 -0.3090303628
N  N44  1  0.41670000  0.65050000  0.81932000  1.0 -0.3090303628
N  N45  1  0.91670000  0.65050000  0.68068000  1.0 -0.3090303628
N  N46  1  0.41670000  0.34950000  0.31932000  1.0 -0.3090303628
N  N47  1  0.08330000  0.65050000  0.81932000  1.0 -0.3090303628
N  N48  1  0.58330000  0.34950000  0.18068000  1.0 -0.3090303628
N  N49  1  0.06800000  0.14840000  0.53719000  1.0 -0.3182692752
N  N50  1  0.56800000  0.85160000  0.46281000  1.0 -0.3182692752
N  N51  1  0.93200000  0.14840000  0.96281000  1.0 -0.3182692752
N  N52  1  0.43200000  0.85160000  0.03719000  1.0 -0.3182692752
N  N53  1  0.93200000  0.85160000  0.46281000  1.0 -0.3182692752
N  N54  1  0.43200000  0.14840000  0.53719000  1.0 -0.3182692752
N  N55  1  0.06800000  0.85160000  0.03719000  1.0 -0.3182692752
N  N56  1  0.56800000  0.14840000  0.96281000  1.0 -0.3182692752
N  N57  1  0.08520000  0.36410000  0.54740000  1.0 -0.3090303628
N  N58  1  0.58520000  0.63590000  0.45260000  1.0 -0.3090303628
N  N59  1  0.91480000  0.36410000  0.95260000  1.0 -0.3090303628
N  N60  1  0.41480000  0.63590000  0.04740000  1.0 -0.3090303628
N  N61  1  0.91480000  0.63590000  0.45260000  1.0 -0.3090303628
N  N62  1  0.41480000  0.36410000  0.54740000  1.0 -0.3090303628
N  N63  1  0.08520000  0.63590000  0.04740000  1.0 -0.3090303628
N  N64  1  0.58520000  0.36410000  0.95260000  1.0 -0.3090303628
O  O1  1  0.07240000  0.21790000  0.31475000  1.0 -0.5186324502
O  O2  1  0.57240000  0.78210000  0.68525000  1.0 -0.5186324502
O  O3  1  0.92760000  0.21790000  0.18525000  1.0 -0.5186324502
O  O4  1  0.42760000  0.78210000  0.81475000  1.0 -0.5311829741
O  O5  1  0.92760000  0.78210000  0.68525000  1.0 -0.5186324502
O  O6  1  0.42760000  0.21790000  0.31475000  1.0 -0.5186324502
O  O7  1  0.07240000  0.78210000  0.81475000  1.0 -0.5186324502
O  O8  1  0.57240000  0.21790000  0.18525000  1.0 -0.5186324502
O  O9  1  0.04040000  0.29270000  0.53725000  1.0 -0.4536457473
O  O10  1  0.54040000  0.70730000  0.46275000  1.0 -0.4536457473
O  O11  1  0.95960000  0.29270000  0.96275000  1.0 -0.4536457473
O  O12  1  0.45960000  0.70730000  0.03725000  1.0 -0.4536457473
O  O13  1  0.95960000  0.70730000  0.46275000  1.0 -0.4536457473
O  O14  1  0.45960000  0.29270000  0.53725000  1.0 -0.4536457473
O  O15  1  0.04040000  0.70730000  0.03725000  1.0 -0.4536457473
O  O16  1  0.54040000  0.29270000  0.96275000  1.0 -0.4536457473
O  O17  1  0.13500000  0.11400000  0.49770000  1.0 -0.4185053558
O  O18  1  0.63500000  0.88600000  0.50230000  1.0 -0.4185053558
O  O19  1  0.86500000  0.11400000  0.00230000  1.0 -0.4185053558
O  O20  1  0.36500000  0.88600000  0.99770000  1.0 -0.4185053558
O  O21  1  0.86500000  0.88600000  0.50230000  1.0 -0.4185053558
O  O22  1  0.36500000  0.11400000  0.49770000  1.0 -0.4185053558
O  O23  1  0.13500000  0.88600000  0.99770000  1.0 -0.4185053558
O  O24  1  0.63500000  0.11400000  0.00230000  1.0 -0.4185053558
O  O25  1  0.14380000  0.38190000  0.36120000  1.0 -0.3918767647
O  O26  1  0.64380000  0.61810000  0.63880000  1.0 -0.3918767647
O  O27  1  0.85620000  0.38190000  0.13880000  1.0 -0.3918767647
O  O28  1  0.35620000  0.61810000  0.86120000  1.0 -0.3918767647
O  O29  1  0.85620000  0.61810000  0.63880000  1.0 -0.3918767647
O  O30  1  0.35620000  0.38190000  0.36120000  1.0 -0.3918767647
O  O31  1  0.14380000  0.61810000  0.86120000  1.0 -0.3918767647
O  O32  1  0.64380000  0.38190000  0.13880000  1.0 -0.3918767647
O  O33  1  0.19940000  0.02205000  0.22171000  1.0 -0.5311829741
O  O34  1  0.69940000  0.97795000  0.77829000  1.0 -0.5311829741
O  O35  1  0.80060000  0.02205000  0.27829000  1.0 -0.5311829741
O  O36  1  0.30060000  0.97795000  0.72171000  1.0 -0.5311829741
O  O37  1  0.80060000  0.97795000  0.77829000  1.0 -0.5311829741
O  O38  1  0.30060000  0.02205000  0.22171000  1.0 -0.5311829741
O  O39  1  0.19940000  0.97795000  0.72171000  1.0 -0.5311829741
O  O40  1  0.69940000  0.02205000  0.27829000  1.0 -0.5311829741
O  O41  1  0.19780000  0.04905000  0.14893000  1.0 -0.4981024694
O  O42  1  0.69780000  0.95095000  0.85107000  1.0 -0.4981024694
O  O43  1  0.80220000  0.04905000  0.35107000  1.0 -0.4981024694
O  O44  1  0.30220000  0.95095000  0.64893000  1.0 -0.4981024694
O  O45  1  0.80220000  0.95095000  0.85107000  1.0 -0.4981024694
O  O46  1  0.30220000  0.04905000  0.14893000  1.0 -0.4981024694
O  O47  1  0.19780000  0.95095000  0.64893000  1.0 -0.4981024694
O  O48  1  0.69780000  0.04905000  0.35107000  1.0 -0.4981024694
O  O49  1  0.08200000  0.18410000  0.10718000  1.0 -0.5311829741
O  O50  1  0.58200000  0.81590000  0.89282000  1.0 -0.5311829741
O  O51  1  0.91800000  0.18410000  0.39282000  1.0 -0.5311829741
O  O52  1  0.41800000  0.81590000  0.60718000  1.0 -0.5311829741
O  O53  1  0.91800000  0.81590000  0.89282000  1.0 -0.5311829741
O  O54  1  0.41800000  0.18410000  0.10718000  1.0 -0.5311829741
O  O55  1  0.08200000  0.81590000  0.60718000  1.0 -0.5311829741
O  O56  1  0.58200000  0.18410000  0.39282000  1.0 -0.5311829741
O  O57  1  0.03150000  0.21271000  0.16160000  1.0 -0.508478962
O  O58  1  0.53150000  0.78729000  0.83840000  1.0 -0.508478962
O  O59  1  0.96850000  0.21271000  0.33840000  1.0 -0.508478962
O  O60  1  0.46850000  0.78729000  0.66160000  1.0 -0.508478962
O  O61  1  0.96850000  0.78729000  0.83840000  1.0 -0.508478962
O  O62  1  0.46850000  0.21271000  0.16160000  1.0 -0.508478962
O  O63  1  0.03150000  0.78729000  0.66160000  1.0 -0.508478962
O  O64  1  0.53150000  0.21271000  0.33840000  1.0 -0.508478962
O  O65  1  0.01160000  0.30317000  0.16993000  1.0 -0.5311829741
O  O66  1  0.51160000  0.69683000  0.83007000  1.0 -0.5311829741
O  O67  1  0.98840000  0.30317000  0.33007000  1.0 -0.5311829741
O  O68  1  0.48840000  0.69683000  0.66993000  1.0 -0.5311829741
O  O69  1  0.98840000  0.69683000  0.83007000  1.0 -0.5311829741
O  O70  1  0.48840000  0.30317000  0.16993000  1.0 -0.5311829741
O  O71  1  0.01160000  0.69683000  0.66993000  1.0 -0.5311829741
O  O72  1  0.51160000  0.30317000  0.33007000  1.0 -0.5311829741
O  O73  1  0.07200000  0.32210000  0.11947000  1.0 -0.4905876462
O  O74  1  0.57200000  0.67790000  0.88053000  1.0 -0.4905876462
O  O75  1  0.92800000  0.32210000  0.38053000  1.0 -0.4905876462
O  O76  1  0.42800000  0.67790000  0.61947000  1.0 -0.4905876462
O  O77  1  0.92800000  0.67790000  0.88053000  1.0 -0.4905876462
O  O78  1  0.42800000  0.32210000  0.11947000  1.0 -0.4905876462
O  O79  1  0.07200000  0.67790000  0.61947000  1.0 -0.4905876462
O  O80  1  0.57200000  0.32210000  0.38053000  1.0 -0.4905876462
O  O81  1  0.19640000  0.44730000  0.16725000  1.0 -0.4905876462
O  O82  1  0.69640000  0.55270000  0.83275000  1.0 -0.4905876462
O  O83  1  0.80360000  0.44730000  0.33275000  1.0 -0.4905876462
O  O84  1  0.30360000  0.55270000  0.66725000  1.0 -0.4905876462
O  O85  1  0.80360000  0.55270000  0.83275000  1.0 -0.4905876462
O  O86  1  0.30360000  0.44730000  0.16725000  1.0 -0.4905876462
O  O87  1  0.19640000  0.55270000  0.66725000  1.0 -0.4905876462
O  O88  1  0.69640000  0.44730000  0.33275000  1.0 -0.4905876462
O  O89  1  0.19720000  0.47165000  0.24034000  1.0 -0.5311829741
O  O90  1  0.69720000  0.52835000  0.75966000  1.0 -0.5311829741
O  O91  1  0.80280000  0.47165000  0.25966000  1.0 -0.5311829741
O  O92  1  0.30280000  0.52835000  0.74034000  1.0 -0.5311829741
O  O93  1  0.80280000  0.52835000  0.75966000  1.0 -0.5311829741
O  O94  1  0.30280000  0.47165000  0.24034000  1.0 -0.5311829741
O  O95  1  0.19720000  0.52835000  0.74034000  1.0 -0.5311829741
O  O96  1  0.69720000  0.47165000  0.25966000  1.0 -0.5311829741
O  O97  1  0.19760000  0.46110000  0.64107000  1.0 -0.5186324502
O  O98  1  0.69760000  0.53890000  0.35893000  1.0 -0.5186324502
O  O99  1  0.80240000  0.46110000  0.85893000  1.0 -0.5186324502
O  O100  1  0.30240000  0.53890000  0.14107000  1.0 -0.5186324502
O  O101  1  0.80240000  0.53890000  0.35893000  1.0 -0.5186324502
O  O102  1  0.30240000  0.46110000  0.64107000  1.0 -0.5186324502
O  O103  1  0.19760000  0.53890000  0.14107000  1.0 -0.5186324502
O  O104  1  0.69760000  0.46110000  0.85893000  1.0 -0.5186324502
O  O105  1  0.19580000  0.43276000  0.71227000  1.0 -0.4981024694
O  O106  1  0.69580000  0.56724000  0.28773000  1.0 -0.4981024694
O  O107  1  0.80420000  0.43276000  0.78773000  1.0 -0.4981024694
O  O108  1  0.30420000  0.56724000  0.21227000  1.0 -0.4981024694
O  O109  1  0.80420000  0.56724000  0.28773000  1.0 -0.4981024694
O  O110  1  0.30420000  0.43276000  0.71227000  1.0 -0.4981024694
O  O111  1  0.19580000  0.56724000  0.21227000  1.0 -0.4981024694
O  O112  1  0.69580000  0.43276000  0.78773000  1.0 -0.4981024694
O  O113  1  0.06980000  0.29691000  0.74156000  1.0 -0.5186324502
O  O114  1  0.56980000  0.70309000  0.25844000  1.0 -0.5186324502
O  O115  1  0.93020000  0.29691000  0.75844000  1.0 -0.5186324502
O  O116  1  0.43020000  0.70309000  0.24156000  1.0 -0.5186324502
O  O117  1  0.93020000  0.70309000  0.25844000  1.0 -0.5186324502
O  O118  1  0.43020000  0.29691000  0.74156000  1.0 -0.5186324502
O  O119  1  0.06980000  0.70309000  0.24156000  1.0 -0.5186324502
O  O120  1  0.56980000  0.29691000  0.75844000  1.0 -0.5186324502
O  O121  1  0.00560000  0.29130000  0.69050000  1.0 -0.5186324502
O  O122  1  0.50560000  0.70870000  0.30950000  1.0 -0.5186324502
O  O123  1  0.99440000  0.29130000  0.80950000  1.0 -0.5186324502
O  O124  1  0.49440000  0.70870000  0.19050000  1.0 -0.5186324502
O  O125  1  0.99440000  0.70870000  0.30950000  1.0 -0.5186324502
O  O126  1  0.49440000  0.29130000  0.69050000  1.0 -0.5186324502
O  O127  1  0.00560000  0.70870000  0.19050000  1.0 -0.5186324502
O  O128  1  0.50560000  0.29130000  0.80950000  1.0 -0.5186324502
O  O129  1  0.99610000  0.19520000  0.68909000  1.0 -0.4613231794
O  O130  1  0.49610000  0.80480000  0.31091000  1.0 -0.4613231794
O  O131  1  0.00390000  0.19520000  0.81091000  1.0 -0.4613231794
O  O132  1  0.50390000  0.80480000  0.18909000  1.0 -0.4613231794
O  O133  1  0.00390000  0.80480000  0.31091000  1.0 -0.4613231794
O  O134  1  0.50390000  0.19520000  0.68909000  1.0 -0.4613231794
O  O135  1  0.99610000  0.80480000  0.18909000  1.0 -0.4613231794
O  O136  1  0.49610000  0.19520000  0.81091000  1.0 -0.4613231794
O  O137  1  0.06740000  0.19795000  0.73265000  1.0 -0.5589159505
O  O138  1  0.56740000  0.80205000  0.26735000  1.0 -0.5589159505
O  O139  1  0.93260000  0.19795000  0.76735000  1.0 -0.5589159505
O  O140  1  0.43260000  0.80205000  0.23265000  1.0 -0.5589159505
O  O141  1  0.93260000  0.80205000  0.26735000  1.0 -0.5589159505
O  O142  1  0.43260000  0.19795000  0.73265000  1.0 -0.5589159505
O  O143  1  0.06740000  0.80205000  0.23265000  1.0 -0.5589159505
O  O144  1  0.56740000  0.19795000  0.76735000  1.0 -0.5589159505
O  O145  1  0.19590000  0.07188000  0.69114000  1.0 -0.508478962
O  O146  1  0.69590000  0.92812000  0.30886000  1.0 -0.508478962
O  O147  1  0.80410000  0.07188000  0.80886000  1.0 -0.508478962
O  O148  1  0.30410000  0.92812000  0.19114000  1.0 -0.508478962
O  O149  1  0.80410000  0.92812000  0.30886000  1.0 -0.508478962
O  O150  1  0.30410000  0.07188000  0.69114000  1.0 -0.508478962
O  O151  1  0.19590000  0.92812000  0.19114000  1.0 -0.508478962
O  O152  1  0.69590000  0.07188000  0.80886000  1.0 -0.508478962
O  O153  1  0.19730000  0.04411000  0.61864000  1.0 -0.5311829741
O  O154  1  0.69730000  0.95589000  0.38136000  1.0 -0.5311829741
O  O155  1  0.80270000  0.04411000  0.88136000  1.0 -0.5311829741
O  O156  1  0.30270000  0.95589000  0.11864000  1.0 -0.5311829741
O  O157  1  0.80270000  0.95589000  0.38136000  1.0 -0.5311829741
O  O158  1  0.30270000  0.04411000  0.61864000  1.0 -0.5311829741
O  O159  1  0.19730000  0.95589000  0.11864000  1.0 -0.5311829741
O  O160  1  0.69730000  0.04411000  0.88136000  1.0 -0.5311829741
