# DDEC6 charges by PACMAN v1.1 (https://github.com/mtap-research/PACMAN-charge/)
data_BUXTUL_ion_pacman
_symmetry_space_group_name_H-M   'P 1'
_cell_length_a   24.45860000
_cell_length_b   12.18230000
_cell_length_c   25.82290000
_cell_angle_alpha   90.00000000
_cell_angle_beta   103.10800000
_cell_angle_gamma   90.00000000
_symmetry_Int_Tables_number   1
_chemical_formula_structural   Ag5B3H42C46N20(ClF6)2
_chemical_formula_sum   'Ag20 B12 H168 C184 N80 Cl8 F48'
_cell_volume   7493.76420110
_cell_formula_units_Z   4
loop_
 _symmetry_equiv_pos_site_id
 _symmetry_equiv_pos_as_xyz
  1  'x, y, z'
loop_
 _atom_site_type_symbol
 _atom_site_label
 _atom_site_symmetry_multiplicity
 _atom_site_fract_x
 _atom_site_fract_y
 _atom_site_fract_z
 _atom_site_occupancy
 _atom_site_charge
Ag  Ag1  1  0.66872000  0.32284000  0.58794000  1.0 0.2478034533
Ag  Ag2  1  0.33128000  0.82284000  0.91206000  1.0 0.2478034533
Ag  Ag3  1  0.33128000  0.67716000  0.41206000  1.0 0.2478034533
Ag  Ag4  1  0.66872000  0.17716000  0.08794000  1.0 0.2478034533
Ag  Ag5  1  0.83578000  0.67616000  0.45000000  1.0 0.2478034533
Ag  Ag6  1  0.16422000  0.17616000  0.05000000  1.0 0.2478034533
Ag  Ag7  1  0.16422000  0.32384000  0.55000000  1.0 0.2478034533
Ag  Ag8  1  0.83578000  0.82384000  0.95000000  1.0 0.2478034533
Ag  Ag9  1  0.93485000  0.32332000  0.80696000  1.0 0.2404333756
Ag  Ag10  1  0.06515000  0.82332000  0.69304000  1.0 0.2404333756
Ag  Ag11  1  0.06515000  0.67668000  0.19304000  1.0 0.2404333756
Ag  Ag12  1  0.93485000  0.17668000  0.30696000  1.0 0.2404333756
Ag  Ag13  1  0.46830000  0.17510000  0.32382000  1.0 0.3151256348
Ag  Ag14  1  0.53170000  0.67510000  0.17618000  1.0 0.3151256348
Ag  Ag15  1  0.53170000  0.82490000  0.67618000  1.0 0.3151256348
Ag  Ag16  1  0.46830000  0.32490000  0.82382000  1.0 0.3151256348
Ag  Ag17  1  0.45920000  0.18890000  0.31810000  1.0 0.3063654135
Ag  Ag18  1  0.54080000  0.68890000  0.18190000  1.0 0.3063654135
Ag  Ag19  1  0.54080000  0.81110000  0.68190000  1.0 0.3063654135
Ag  Ag20  1  0.45920000  0.31110000  0.81810000  1.0 0.3063654135
B  B1  1  0.66520000  0.04820000  0.32390000  1.0 1.0285611059
B  B2  1  0.33480000  0.54820000  0.17610000  1.0 1.0285611059
B  B3  1  0.33480000  0.95180000  0.67610000  1.0 1.0285611059
B  B4  1  0.66520000  0.45180000  0.82390000  1.0 1.0285611059
B  B5  1  0.56490000  0.89580000  0.91680000  1.0 1.0069227721
B  B6  1  0.43510000  0.39580000  0.58320000  1.0 1.0015601819
B  B7  1  0.43510000  0.10420000  0.08320000  1.0 1.0015601819
B  B8  1  0.56490000  0.60420000  0.41680000  1.0 1.0069227721
B  B9  1  0.96760000  0.09990000  0.08884000  1.0 1.0015601819
B  B10  1  0.03240000  0.59990000  0.41116000  1.0 1.0015601819
B  B11  1  0.03240000  0.90010000  0.91116000  1.0 1.0015601819
B  B12  1  0.96760000  0.40010000  0.58884000  1.0 1.0015601819
H  H1  1  0.79120000  0.25710000  0.56980000  1.0 0.1500368462
H  H2  1  0.20880000  0.75710000  0.93020000  1.0 0.1500368462
H  H3  1  0.20880000  0.74290000  0.43020000  1.0 0.1500368462
H  H4  1  0.79120000  0.24290000  0.06980000  1.0 0.1500368462
H  H5  1  0.84790000  0.32670000  0.58370000  1.0 0.1500368462
H  H6  1  0.15210000  0.82670000  0.91630000  1.0 0.1500368462
H  H7  1  0.15210000  0.67330000  0.41630000  1.0 0.1500368462
H  H8  1  0.84790000  0.17330000  0.08370000  1.0 0.1500368462
H  H9  1  0.88910000  0.33870000  0.67450000  1.0 0.1201280087
H  H10  1  0.11090000  0.83870000  0.82550000  1.0 0.1201280087
H  H11  1  0.11090000  0.66130000  0.32550000  1.0 0.1201280087
H  H12  1  0.88910000  0.16130000  0.17450000  1.0 0.1201280087
H  H13  1  0.80070000  0.30120000  0.78230000  1.0 0.1201280087
H  H14  1  0.19930000  0.80120000  0.71770000  1.0 0.1201280087
H  H15  1  0.19930000  0.69880000  0.21770000  1.0 0.1201280087
H  H16  1  0.80070000  0.19880000  0.28230000  1.0 0.1201280087
H  H17  1  0.00480000  0.63400000  0.88750000  1.0 0.1500368462
H  H18  1  0.99520000  0.13400000  0.61250000  1.0 0.1500368462
H  H19  1  0.99520000  0.36600000  0.11250000  1.0 0.1500368462
H  H20  1  0.00480000  0.86600000  0.38750000  1.0 0.1500368462
H  H21  1  0.00070000  0.50300000  0.88430000  1.0 0.1393953145
H  H22  1  0.99930000  0.00300000  0.61570000  1.0 0.1393953145
H  H23  1  0.99930000  0.49700000  0.11570000  1.0 0.1393953145
H  H24  1  0.00070000  0.99700000  0.38430000  1.0 0.1393953145
H  H25  1  0.84910000  0.49990000  0.54240000  1.0 0.1201280087
H  H26  1  0.15090000  0.99990000  0.95760000  1.0 0.1201280087
H  H27  1  0.15090000  0.50010000  0.45760000  1.0 0.1201280087
H  H28  1  0.84910000  0.00010000  0.04240000  1.0 0.1201280087
H  H29  1  0.36630000  0.37720000  0.27950000  1.0 0.1118607575
H  H30  1  0.63370000  0.87720000  0.22050000  1.0 0.1118607575
H  H31  1  0.63370000  0.62280000  0.72050000  1.0 0.1118607575
H  H32  1  0.36630000  0.12280000  0.77950000  1.0 0.1118607575
H  H33  1  0.70830000  0.63680000  0.46520000  1.0 0.1201280087
H  H34  1  0.29170000  0.13680000  0.03480000  1.0 0.1201280087
H  H35  1  0.29170000  0.36320000  0.53480000  1.0 0.1201280087
H  H36  1  0.70830000  0.86320000  0.96520000  1.0 0.1201280087
H  H37  1  0.43840000  0.28160000  0.47600000  1.0 0.1626233887
H  H38  1  0.56160000  0.78160000  0.02400000  1.0 0.1626233887
H  H39  1  0.56160000  0.71840000  0.52400000  1.0 0.1626233887
H  H40  1  0.43840000  0.21840000  0.97600000  1.0 0.1626233887
H  H41  1  0.43120000  0.19200000  0.42970000  1.0 0.1393953145
H  H42  1  0.56880000  0.69200000  0.07030000  1.0 0.1393953145
H  H43  1  0.56880000  0.80800000  0.57030000  1.0 0.1393953145
H  H44  1  0.43120000  0.30800000  0.92970000  1.0 0.1393953145
H  H45  1  0.14270000  0.25500000  0.92410000  1.0 0.1118607575
H  H46  1  0.85730000  0.75500000  0.57590000  1.0 0.1118607575
H  H47  1  0.85730000  0.74500000  0.07590000  1.0 0.1118607575
H  H48  1  0.14270000  0.24500000  0.42410000  1.0 0.1118607575
H  H49  1  0.43950000  0.77440000  0.38750000  1.0 0.1201280087
H  H50  1  0.56050000  0.27440000  0.11250000  1.0 0.1201280087
H  H51  1  0.56050000  0.22560000  0.61250000  1.0 0.1201280087
H  H52  1  0.43950000  0.72560000  0.88750000  1.0 0.1201280087
H  H53  1  0.52310000  0.86770000  0.37990000  1.0 0.1626233887
H  H54  1  0.47690000  0.36770000  0.12010000  1.0 0.1626233887
H  H55  1  0.47690000  0.13230000  0.62010000  1.0 0.1626233887
H  H56  1  0.52310000  0.63230000  0.87990000  1.0 0.1626233887
H  H57  1  0.52330000  0.99940000  0.37920000  1.0 0.1393953145
H  H58  1  0.47670000  0.49940000  0.12080000  1.0 0.1393953145
H  H59  1  0.47670000  0.00060000  0.62080000  1.0 0.1393953145
H  H60  1  0.52330000  0.50060000  0.87920000  1.0 0.1393953145
H  H61  1  0.71980000  0.30260000  0.71650000  1.0 0.1201280087
H  H62  1  0.28020000  0.80260000  0.78350000  1.0 0.1201280087
H  H63  1  0.28020000  0.69740000  0.28350000  1.0 0.1201280087
H  H64  1  0.71980000  0.19740000  0.21650000  1.0 0.1201280087
H  H65  1  0.52190000  0.77110000  0.29900000  1.0 0.1201280087
H  H66  1  0.47810000  0.27110000  0.20100000  1.0 0.1201280087
H  H67  1  0.47810000  0.22890000  0.70100000  1.0 0.1201280087
H  H68  1  0.52190000  0.72890000  0.79900000  1.0 0.1201280087
H  H69  1  0.41770000  0.47340000  0.45310000  1.0 0.1201280087
H  H70  1  0.58230000  0.97340000  0.04690000  1.0 0.1201280087
H  H71  1  0.58230000  0.52660000  0.54690000  1.0 0.1201280087
H  H72  1  0.41770000  0.02660000  0.95310000  1.0 0.1201280087
H  H73  1  0.93310000  0.23290000  0.97120000  1.0 0.1500368462
H  H74  1  0.06690000  0.73290000  0.52880000  1.0 0.1500368462
H  H75  1  0.06690000  0.76710000  0.02880000  1.0 0.1500368462
H  H76  1  0.93310000  0.26710000  0.47120000  1.0 0.1500368462
H  H77  1  0.91710000  0.31030000  0.91990000  1.0 0.1393953145
H  H78  1  0.08290000  0.81030000  0.58010000  1.0 0.1393953145
H  H79  1  0.08290000  0.68970000  0.08010000  1.0 0.1393953145
H  H80  1  0.91710000  0.18970000  0.41990000  1.0 0.1393953145
H  H81  1  0.53160000  0.32620000  0.52100000  1.0 0.1201280087
H  H82  1  0.46840000  0.82620000  0.97900000  1.0 0.1201280087
H  H83  1  0.46840000  0.67380000  0.47900000  1.0 0.1201280087
H  H84  1  0.53160000  0.17380000  0.02100000  1.0 0.1201280087
H  H85  1  0.59960000  0.20340000  0.38210000  1.0 0.1201280087
H  H86  1  0.40040000  0.70340000  0.11790000  1.0 0.1201280087
H  H87  1  0.40040000  0.79660000  0.61790000  1.0 0.1201280087
H  H88  1  0.59960000  0.29660000  0.88210000  1.0 0.1201280087
H  H89  1  0.65950000  0.26280000  0.45870000  1.0 0.1257617976
H  H90  1  0.34050000  0.76280000  0.04130000  1.0 0.1257617976
H  H91  1  0.34050000  0.73720000  0.54130000  1.0 0.1257617976
H  H92  1  0.65950000  0.23720000  0.95870000  1.0 0.1257617976
H  H93  1  0.65780000  0.50200000  0.49700000  1.0 0.1118607575
H  H94  1  0.34220000  0.00200000  0.00300000  1.0 0.1118607575
H  H95  1  0.34220000  0.49800000  0.50300000  1.0 0.1118607575
H  H96  1  0.65780000  0.99800000  0.99700000  1.0 0.1118607575
H  H97  1  0.02890000  0.17680000  0.00310000  1.0 0.1201280087
H  H98  1  0.97110000  0.67680000  0.49690000  1.0 0.1201280087
H  H99  1  0.97110000  0.82320000  0.99690000  1.0 0.1201280087
H  H100  1  0.02890000  0.32320000  0.50310000  1.0 0.1201280087
H  H101  1  0.92690000  0.73300000  0.90090000  1.0 0.1201280087
H  H102  1  0.07310000  0.23300000  0.59910000  1.0 0.1201280087
H  H103  1  0.07310000  0.26700000  0.09910000  1.0 0.1201280087
H  H104  1  0.92690000  0.76700000  0.40090000  1.0 0.1201280087
H  H105  1  0.07240000  0.31390000  0.85330000  1.0 0.1118607575
H  H106  1  0.92760000  0.81390000  0.64670000  1.0 0.1118607575
H  H107  1  0.92760000  0.68610000  0.14670000  1.0 0.1118607575
H  H108  1  0.07240000  0.18610000  0.35330000  1.0 0.1118607575
H  H109  1  0.83500000  0.91790000  0.82560000  1.0 0.1118607575
H  H110  1  0.16500000  0.41790000  0.67440000  1.0 0.1118607575
H  H111  1  0.16500000  0.08210000  0.17440000  1.0 0.1118607575
H  H112  1  0.83500000  0.58210000  0.32560000  1.0 0.1118607575
H  H113  1  0.90470000  0.04630000  0.96420000  1.0 0.1201280087
H  H114  1  0.09530000  0.54630000  0.53580000  1.0 0.1201280087
H  H115  1  0.09530000  0.95370000  0.03580000  1.0 0.1201280087
H  H116  1  0.90470000  0.45370000  0.46420000  1.0 0.1201280087
H  H117  1  0.81330000  0.43710000  0.85300000  1.0 0.1118607575
H  H118  1  0.18670000  0.93710000  0.64700000  1.0 0.1118607575
H  H119  1  0.18670000  0.56290000  0.14700000  1.0 0.1118607575
H  H120  1  0.81330000  0.06290000  0.35300000  1.0 0.1118607575
H  H121  1  0.01230000  0.73560000  0.81080000  1.0 0.1118607575
H  H122  1  0.98770000  0.23560000  0.68920000  1.0 0.1201280087
H  H123  1  0.98770000  0.26440000  0.18920000  1.0 0.1201280087
H  H124  1  0.01230000  0.76440000  0.31080000  1.0 0.1201280087
H  H125  1  0.00830000  0.58490000  0.67590000  1.0 0.1118607575
H  H126  1  0.99170000  0.08490000  0.82410000  1.0 0.1118607575
H  H127  1  0.99170000  0.41510000  0.32410000  1.0 0.1118607575
H  H128  1  0.00830000  0.91510000  0.17590000  1.0 0.1118607575
H  H129  1  0.98410000  0.42520000  0.71160000  1.0 0.1118607575
H  H130  1  0.01590000  0.92520000  0.78840000  1.0 0.1118607575
H  H131  1  0.01590000  0.57480000  0.28840000  1.0 0.1118607575
H  H132  1  0.98410000  0.07480000  0.21160000  1.0 0.1118607575
H  H133  1  0.78040000  0.59070000  0.88910000  1.0 0.1201280087
H  H134  1  0.21960000  0.09070000  0.61090000  1.0 0.1201280087
H  H135  1  0.21960000  0.40930000  0.11090000  1.0 0.1201280087
H  H136  1  0.78040000  0.90930000  0.38910000  1.0 0.1201280087
H  H137  1  0.33820000  0.08920000  0.35070000  1.0 0.1118607575
H  H138  1  0.66180000  0.58920000  0.14930000  1.0 0.1118607575
H  H139  1  0.66180000  0.91080000  0.64930000  1.0 0.1118607575
H  H140  1  0.33820000  0.41080000  0.85070000  1.0 0.1118607575
H  H141  1  0.85450000  0.07500000  0.78360000  1.0 0.1031867172
H  H142  1  0.14550000  0.57500000  0.71640000  1.0 0.1031867172
H  H143  1  0.14550000  0.92500000  0.21640000  1.0 0.1031867172
H  H144  1  0.85450000  0.42500000  0.28360000  1.0 0.1031867172
H  H145  1  0.29570000  0.92920000  0.36990000  1.0 0.1118607575
H  H146  1  0.70430000  0.42920000  0.13010000  1.0 0.1118607575
H  H147  1  0.70430000  0.07080000  0.63010000  1.0 0.1118607575
H  H148  1  0.29570000  0.57080000  0.86990000  1.0 0.1118607575
H  H149  1  0.49210000  0.92660000  0.16210000  1.0 0.1201280087
H  H150  1  0.50790000  0.42660000  0.33790000  1.0 0.1201280087
H  H151  1  0.50790000  0.07340000  0.83790000  1.0 0.1201280087
H  H152  1  0.49210000  0.57340000  0.66210000  1.0 0.1201280087
H  H153  1  0.47810000  0.08580000  0.20420000  1.0 0.1118607575
H  H154  1  0.52190000  0.58580000  0.29580000  1.0 0.1118607575
H  H155  1  0.52190000  0.91420000  0.79580000  1.0 0.1118607575
H  H156  1  0.47810000  0.41420000  0.70420000  1.0 0.1118607575
H  H157  1  0.34880000  0.55030000  0.30550000  1.0 0.1118607575
H  H158  1  0.65120000  0.05030000  0.19450000  1.0 0.1118607575
H  H159  1  0.65120000  0.44970000  0.69450000  1.0 0.1118607575
H  H160  1  0.34880000  0.94970000  0.80550000  1.0 0.1118607575
H  H161  1  0.36180000  0.20210000  0.14300000  1.0 0.1393953145
H  H162  1  0.63820000  0.70210000  0.35700000  1.0 0.1393953145
H  H163  1  0.63820000  0.79790000  0.85700000  1.0 0.1393953145
H  H164  1  0.36180000  0.29790000  0.64300000  1.0 0.1393953145
H  H165  1  0.33870000  0.30230000  0.17190000  1.0 0.1393953145
H  H166  1  0.66130000  0.80230000  0.32810000  1.0 0.1393953145
H  H167  1  0.66130000  0.69770000  0.82810000  1.0 0.1393953145
H  H168  1  0.33870000  0.19770000  0.67190000  1.0 0.1393953145
C  C1  1  0.80538000  0.32840000  0.64371000  1.0 0.2478034533
C  C2  1  0.19462000  0.82840000  0.85629000  1.0 0.2478034533
C  C3  1  0.19462000  0.67160000  0.35629000  1.0 0.2478034533
C  C4  1  0.80538000  0.17160000  0.14371000  1.0 0.2478034533
C  C5  1  0.80793000  0.32690000  0.58561000  1.0 -0.3676952888
C  C6  1  0.19207000  0.82690000  0.91439000  1.0 -0.3676952888
C  C7  1  0.19207000  0.67310000  0.41439000  1.0 -0.3676952888
C  C8  1  0.80793000  0.17310000  0.08561000  1.0 -0.3676952888
C  C9  1  0.99640000  0.24420000  0.93073000  1.0 0.2478034533
C  C10  1  0.00360000  0.74420000  0.56927000  1.0 0.2478034533
C  C11  1  0.00360000  0.75580000  0.06927000  1.0 0.2478034533
C  C12  1  0.99640000  0.25580000  0.43073000  1.0 0.2478034533
C  C13  1  0.85405000  0.33020000  0.68395000  1.0 -0.0387127172
C  C14  1  0.14595000  0.83020000  0.81605000  1.0 -0.0387127172
C  C15  1  0.14595000  0.66980000  0.31605000  1.0 -0.0387127172
C  C16  1  0.85405000  0.16980000  0.18395000  1.0 -0.0387127172
C  C17  1  0.50886000  0.26470000  0.44612000  1.0 0.2478034533
C  C18  1  0.49114000  0.76470000  0.05388000  1.0 0.2478034533
C  C19  1  0.49114000  0.73530000  0.55388000  1.0 0.2478034533
C  C20  1  0.50886000  0.23530000  0.94612000  1.0 0.2478034533
C  C21  1  0.80320000  0.30940000  0.74630000  1.0 -0.0075495216
C  C22  1  0.19680000  0.80940000  0.75370000  1.0 -0.0075495216
C  C23  1  0.19680000  0.69060000  0.25370000  1.0 -0.0075495216
C  C24  1  0.80320000  0.19060000  0.24630000  1.0 -0.0075495216
C  C25  1  0.99055000  0.57580000  0.81091000  1.0 0.2313168328
C  C26  1  0.00945000  0.07580000  0.68909000  1.0 0.2313168328
C  C27  1  0.00945000  0.42420000  0.18909000  1.0 0.2313168328
C  C28  1  0.99055000  0.92420000  0.31091000  1.0 0.2313168328
C  C29  1  0.90505000  0.14610000  0.90179000  1.0 0.2404333756
C  C30  1  0.09495000  0.64610000  0.59821000  1.0 0.2404333756
C  C31  1  0.09495000  0.85390000  0.09821000  1.0 0.2404333756
C  C32  1  0.90505000  0.35390000  0.40179000  1.0 0.2404333756
C  C33  1  0.77901000  0.41990000  0.55212000  1.0 0.2478034533
C  C34  1  0.22099000  0.91990000  0.94788000  1.0 0.2478034533
C  C35  1  0.22099000  0.58010000  0.44788000  1.0 0.2478034533
C  C36  1  0.77901000  0.08010000  0.05212000  1.0 0.2478034533
C  C37  1  0.98387000  0.57190000  0.86749000  1.0 -0.3676952888
C  C38  1  0.01613000  0.07190000  0.63251000  1.0 -0.3676952888
C  C39  1  0.01613000  0.42810000  0.13251000  1.0 -0.3676952888
C  C40  1  0.98387000  0.92810000  0.36749000  1.0 -0.3676952888
C  C41  1  0.80927000  0.50100000  0.53227000  1.0 -0.0387127172
C  C42  1  0.19073000  0.00100000  0.96773000  1.0 -0.0387127172
C  C43  1  0.19073000  0.49900000  0.46773000  1.0 -0.0387127172
C  C44  1  0.80927000  0.99900000  0.03227000  1.0 -0.0387127172
C  C45  1  0.37720000  0.39540000  0.31620000  1.0 0.0244653066
C  C46  1  0.62280000  0.89540000  0.18380000  1.0 0.0244653066
C  C47  1  0.62280000  0.60460000  0.68380000  1.0 0.0244653066
C  C48  1  0.37720000  0.10460000  0.81620000  1.0 0.0244653066
C  C49  1  0.72780000  0.58060000  0.48740000  1.0 -0.0018462234
C  C50  1  0.27220000  0.08060000  0.01260000  1.0 -0.0018462234
C  C51  1  0.27220000  0.41940000  0.51260000  1.0 -0.0018462234
C  C52  1  0.72780000  0.91940000  0.98740000  1.0 -0.0018462234
C  C53  1  0.92360000  0.57770000  0.87171000  1.0 0.2478034533
C  C54  1  0.07640000  0.07770000  0.62829000  1.0 0.2478034533
C  C55  1  0.07640000  0.42230000  0.12829000  1.0 0.2478034533
C  C56  1  0.92360000  0.92230000  0.37171000  1.0 0.2478034533
C  C57  1  0.44650000  0.26560000  0.44088000  1.0 -0.3808325586
C  C58  1  0.55350000  0.76560000  0.05912000  1.0 -0.3808325586
C  C59  1  0.55350000  0.73440000  0.55912000  1.0 -0.3808325586
C  C60  1  0.44650000  0.23440000  0.94088000  1.0 -0.3808325586
C  C61  1  0.10460000  0.25040000  0.92672000  1.0 -0.0018462234
C  C62  1  0.89540000  0.75040000  0.57328000  1.0 -0.0018462234
C  C63  1  0.89540000  0.74960000  0.07328000  1.0 -0.0018462234
C  C64  1  0.10460000  0.24960000  0.42672000  1.0 -0.0018462234
C  C65  1  0.41790000  0.83970000  0.38000000  1.0 -0.0387127172
C  C66  1  0.58210000  0.33970000  0.12000000  1.0 -0.0387127172
C  C67  1  0.58210000  0.16030000  0.62000000  1.0 -0.0387127172
C  C68  1  0.41790000  0.66030000  0.88000000  1.0 -0.0387127172
C  C69  1  0.50350000  0.93340000  0.36213000  1.0 -0.3808325586
C  C70  1  0.49650000  0.43340000  0.13787000  1.0 -0.3808325586
C  C71  1  0.49650000  0.06660000  0.63787000  1.0 -0.3808325586
C  C72  1  0.50350000  0.56660000  0.86213000  1.0 -0.3808325586
C  C73  1  0.75490000  0.30950000  0.70700000  1.0 -0.0018462234
C  C74  1  0.24510000  0.80950000  0.79300000  1.0 -0.0075495216
C  C75  1  0.24510000  0.69050000  0.29300000  1.0 -0.0018462234
C  C76  1  0.75490000  0.19050000  0.20700000  1.0 -0.0075495216
C  C77  1  0.51320000  0.83640000  0.27870000  1.0 -0.0387127172
C  C78  1  0.48680000  0.33640000  0.22130000  1.0 -0.0387127172
C  C79  1  0.48680000  0.16360000  0.72130000  1.0 -0.0387127172
C  C80  1  0.51320000  0.66360000  0.77870000  1.0 -0.0387127172
C  C81  1  0.44340000  0.93420000  0.36768000  1.0 0.2404333756
C  C82  1  0.55660000  0.43420000  0.13232000  1.0 0.2404333756
C  C83  1  0.55660000  0.06580000  0.63232000  1.0 0.2404333756
C  C84  1  0.44340000  0.56580000  0.86768000  1.0 0.2404333756
C  C85  1  0.40660000  0.45440000  0.41653000  1.0 -0.0293040234
C  C86  1  0.59340000  0.95440000  0.08347000  1.0 -0.0293040234
C  C87  1  0.59340000  0.54560000  0.58347000  1.0 -0.0293040234
C  C88  1  0.40660000  0.04560000  0.91653000  1.0 -0.0293040234
C  C89  1  0.93551000  0.24050000  0.93365000  1.0 -0.3579836284
C  C90  1  0.06449000  0.74050000  0.56635000  1.0 -0.3579836284
C  C91  1  0.06449000  0.75950000  0.06635000  1.0 -0.3579836284
C  C92  1  0.93551000  0.25950000  0.43365000  1.0 -0.3579836284
C  C93  1  0.50390000  0.93200000  0.30440000  1.0 0.2478034533
C  C94  1  0.49610000  0.43200000  0.19560000  1.0 0.2478034533
C  C95  1  0.49610000  0.06800000  0.69560000  1.0 0.2478034533
C  C96  1  0.50390000  0.56800000  0.80440000  1.0 0.2478034533
C  C97  1  0.54640000  0.30020000  0.49234000  1.0 -0.0075495216
C  C98  1  0.45360000  0.80020000  0.00766000  1.0 -0.0075495216
C  C99  1  0.45360000  0.69980000  0.50766000  1.0 -0.0075495216
C  C100  1  0.54640000  0.19980000  0.99234000  1.0 -0.0075495216
C  C101  1  0.58440000  0.22910000  0.41060000  1.0 0.0329410564
C  C102  1  0.41560000  0.72910000  0.08940000  1.0 0.0329410564
C  C103  1  0.41560000  0.77090000  0.58940000  1.0 0.0329410564
C  C104  1  0.58440000  0.27090000  0.91060000  1.0 0.0329410564
C  C105  1  0.62020000  0.26390000  0.45640000  1.0 -0.0018462234
C  C106  1  0.37980000  0.76390000  0.04360000  1.0 -0.0018462234
C  C107  1  0.37980000  0.73610000  0.54360000  1.0 -0.0018462234
C  C108  1  0.62020000  0.23610000  0.95640000  1.0 -0.0018462234
C  C109  1  0.69760000  0.50010000  0.50680000  1.0 0.0379077171
C  C110  1  0.30240000  0.00010000  0.99320000  1.0 0.0379077171
C  C111  1  0.30240000  0.49990000  0.49320000  1.0 0.0379077171
C  C112  1  0.69760000  0.99990000  0.00680000  1.0 0.0379077171
C  C113  1  0.03885000  0.20620000  0.97239000  1.0 -0.0183600709
C  C114  1  0.96115000  0.70620000  0.52761000  1.0 -0.0183600709
C  C115  1  0.96115000  0.79380000  0.02761000  1.0 -0.0183600709
C  C116  1  0.03885000  0.29380000  0.47239000  1.0 -0.0183600709
C  C117  1  0.90290000  0.67120000  0.89199000  1.0 -0.0387127172
C  C118  1  0.09710000  0.17120000  0.60801000  1.0 -0.0387127172
C  C119  1  0.09710000  0.32880000  0.10801000  1.0 -0.0387127172
C  C120  1  0.90290000  0.82880000  0.39199000  1.0 -0.0387127172
C  C121  1  0.06250000  0.28640000  0.88441000  1.0 0.0244653066
C  C122  1  0.93750000  0.78640000  0.61559000  1.0 0.0244653066
C  C123  1  0.93750000  0.71360000  0.11559000  1.0 0.0244653066
C  C124  1  0.06250000  0.21360000  0.38441000  1.0 0.0244653066
C  C125  1  0.85320000  0.97710000  0.84659000  1.0 0.002316148
C  C126  1  0.14680000  0.47710000  0.65341000  1.0 0.002316148
C  C127  1  0.14680000  0.02290000  0.15341000  1.0 0.002316148
C  C128  1  0.85320000  0.52290000  0.34659000  1.0 0.002316148
C  C129  1  0.89332000  0.05130000  0.92660000  1.0 -0.0293040234
C  C130  1  0.10668000  0.55130000  0.57340000  1.0 -0.0293040234
C  C131  1  0.10668000  0.94870000  0.07340000  1.0 -0.0293040234
C  C132  1  0.89332000  0.44870000  0.42660000  1.0 -0.0293040234
C  C133  1  0.83810000  0.49740000  0.86341000  1.0 0.0379077171
C  C134  1  0.16190000  0.99740000  0.63659000  1.0 0.0379077171
C  C135  1  0.16190000  0.50260000  0.13659000  1.0 0.0379077171
C  C136  1  0.83810000  0.00260000  0.36341000  1.0 0.0379077171
C  C137  1  0.00600000  0.67160000  0.78920000  1.0 -0.0387127172
C  C138  1  0.99400000  0.17160000  0.71080000  1.0 -0.0387127172
C  C139  1  0.99400000  0.32840000  0.21080000  1.0 -0.0387127172
C  C140  1  0.00600000  0.82840000  0.28920000  1.0 -0.0387127172
C  C141  1  0.00400000  0.58500000  0.71157000  1.0 -0.0018462234
C  C142  1  0.99600000  0.08500000  0.78843000  1.0 -0.0075495216
C  C143  1  0.99600000  0.41500000  0.28843000  1.0 -0.0075495216
C  C144  1  0.00400000  0.91500000  0.21157000  1.0 -0.0075495216
C  C145  1  0.98930000  0.48960000  0.73295000  1.0 0.0244653066
C  C146  1  0.01070000  0.98960000  0.76705000  1.0 0.0244653066
C  C147  1  0.01070000  0.51040000  0.26705000  1.0 0.0244653066
C  C148  1  0.98930000  0.01040000  0.23295000  1.0 0.0244653066
C  C149  1  0.81790000  0.58980000  0.88477000  1.0 -0.0018462234
C  C150  1  0.18210000  0.08980000  0.61523000  1.0 -0.0018462234
C  C151  1  0.18210000  0.41020000  0.11523000  1.0 -0.0018462234
C  C152  1  0.81790000  0.91020000  0.38477000  1.0 -0.0018462234
C  C153  1  0.36000000  0.02410000  0.35800000  1.0 -0.0075495216
C  C154  1  0.64000000  0.52410000  0.14200000  1.0 -0.0075495216
C  C155  1  0.64000000  0.97590000  0.64200000  1.0 -0.0075495216
C  C156  1  0.36000000  0.47590000  0.85800000  1.0 -0.0075495216
C  C157  1  0.86500000  0.07140000  0.82133000  1.0 0.0134294926
C  C158  1  0.13500000  0.57140000  0.67867000  1.0 0.0134294926
C  C159  1  0.13500000  0.92860000  0.17867000  1.0 0.0134294926
C  C160  1  0.86500000  0.42860000  0.32133000  1.0 0.0134294926
C  C161  1  0.41750000  0.34920000  0.40141000  1.0 0.2313168328
C  C162  1  0.58250000  0.84920000  0.09859000  1.0 0.2313168328
C  C163  1  0.58250000  0.65080000  0.59859000  1.0 0.2313168328
C  C164  1  0.41750000  0.15080000  0.90141000  1.0 0.2313168328
C  C165  1  0.33460000  0.92880000  0.37010000  1.0 -0.0075495216
C  C166  1  0.66540000  0.42880000  0.12990000  1.0 -0.0075495216
C  C167  1  0.66540000  0.07120000  0.62990000  1.0 -0.0075495216
C  C168  1  0.33460000  0.57120000  0.87010000  1.0 -0.0075495216
C  C169  1  0.49630000  0.92600000  0.19960000  1.0 0.0134294926
C  C170  1  0.50370000  0.42600000  0.30040000  1.0 0.0134294926
C  C171  1  0.50370000  0.07400000  0.80040000  1.0 0.0134294926
C  C172  1  0.49630000  0.57400000  0.69960000  1.0 0.0134294926
C  C173  1  0.48750000  0.02100000  0.22470000  1.0 0.0379077171
C  C174  1  0.51250000  0.52100000  0.27530000  1.0 0.0379077171
C  C175  1  0.51250000  0.97900000  0.77530000  1.0 0.0379077171
C  C176  1  0.48750000  0.47900000  0.72470000  1.0 0.0379077171
C  C177  1  0.36680000  0.49920000  0.33170000  1.0 0.002316148
C  C178  1  0.63320000  0.99920000  0.16830000  1.0 0.002316148
C  C179  1  0.63320000  0.50080000  0.66830000  1.0 0.002316148
C  C180  1  0.36680000  0.00080000  0.83170000  1.0 0.002316148
C  C181  1  0.33780000  0.22150000  0.16770000  1.0 -0.0903383792
C  C182  1  0.66220000  0.72150000  0.33230000  1.0 -0.0903383792
C  C183  1  0.66220000  0.77850000  0.83230000  1.0 -0.0903383792
C  C184  1  0.33780000  0.27850000  0.66770000  1.0 -0.0903383792
N  N1  1  0.51050000  0.83240000  0.22620000  1.0 -0.1892599855
N  N2  1  0.48950000  0.33240000  0.27380000  1.0 -0.1892599855
N  N3  1  0.48950000  0.16760000  0.77380000  1.0 -0.1892599855
N  N4  1  0.51050000  0.66760000  0.72620000  1.0 -0.1892599855
N  N5  1  0.89082000  0.15800000  0.84858000  1.0 -0.2529808824
N  N6  1  0.10918000  0.65800000  0.65142000  1.0 -0.2529808824
N  N7  1  0.10918000  0.84200000  0.15142000  1.0 -0.2529808824
N  N8  1  0.89082000  0.34200000  0.34858000  1.0 -0.2529808824
N  N9  1  0.72277000  0.42030000  0.53858000  1.0 -0.2304410364
N  N10  1  0.27723000  0.92030000  0.96142000  1.0 -0.2304410364
N  N11  1  0.27723000  0.57970000  0.46142000  1.0 -0.2304410364
N  N12  1  0.72277000  0.07970000  0.03858000  1.0 -0.2304410364
N  N13  1  0.85352000  0.32050000  0.73514000  1.0 -0.1594445251
N  N14  1  0.14648000  0.82050000  0.76486000  1.0 -0.1594445251
N  N15  1  0.14648000  0.67950000  0.26486000  1.0 -0.1594445251
N  N16  1  0.85352000  0.17950000  0.23514000  1.0 -0.1594445251
N  N17  1  0.89008000  0.48960000  0.85696000  1.0 -0.2723901664
N  N18  1  0.10992000  0.98960000  0.64304000  1.0 -0.2723901664
N  N19  1  0.10992000  0.51040000  0.14304000  1.0 -0.2723901664
N  N20  1  0.89008000  0.01040000  0.35696000  1.0 -0.2723901664
N  N21  1  0.00888000  0.28320000  0.88656000  1.0 -0.2304410364
N  N22  1  0.99112000  0.78320000  0.61344000  1.0 -0.2304410364
N  N23  1  0.99112000  0.71680000  0.11344000  1.0 -0.2304410364
N  N24  1  0.00888000  0.21680000  0.38656000  1.0 -0.2304410364
N  N25  1  0.01260000  0.67840000  0.73952000  1.0 -0.1892599855
N  N26  1  0.98740000  0.17840000  0.76048000  1.0 -0.1892599855
N  N27  1  0.98740000  0.32160000  0.26048000  1.0 -0.1892599855
N  N28  1  0.01260000  0.82160000  0.23952000  1.0 -0.1892599855
N  N29  1  0.09272000  0.20960000  0.97073000  1.0 -0.1594445251
N  N30  1  0.90728000  0.70960000  0.52927000  1.0 -0.1594445251
N  N31  1  0.90728000  0.79040000  0.02927000  1.0 -0.1594445251
N  N32  1  0.09272000  0.29040000  0.47073000  1.0 -0.1594445251
N  N33  1  0.85072000  0.67690000  0.89928000  1.0 -0.1594445251
N  N34  1  0.14928000  0.17690000  0.60072000  1.0 -0.1594445251
N  N35  1  0.14928000  0.32310000  0.10072000  1.0 -0.1594445251
N  N36  1  0.85072000  0.82310000  0.39928000  1.0 -0.1594445251
N  N37  1  0.98206000  0.48340000  0.78223000  1.0 -0.2220373844
N  N38  1  0.01794000  0.98340000  0.71777000  1.0 -0.2220373844
N  N39  1  0.01794000  0.51660000  0.21777000  1.0 -0.2220373844
N  N40  1  0.98206000  0.01660000  0.28223000  1.0 -0.2220373844
N  N41  1  0.75571000  0.31910000  0.65559000  1.0 -0.2304410364
N  N42  1  0.24429000  0.81910000  0.84441000  1.0 -0.2391909753
N  N43  1  0.24429000  0.68090000  0.34441000  1.0 -0.2304410364
N  N44  1  0.75571000  0.18090000  0.15559000  1.0 -0.2304410364
N  N45  1  0.41434000  0.02740000  0.35638000  1.0 -0.2723901664
N  N46  1  0.58566000  0.52740000  0.14362000  1.0 -0.2723901664
N  N47  1  0.58566000  0.97260000  0.64362000  1.0 -0.2723901664
N  N48  1  0.41434000  0.47260000  0.85638000  1.0 -0.2723901664
N  N49  1  0.86646000  0.96640000  0.89930000  1.0 -0.1594445251
N  N50  1  0.13354000  0.46640000  0.60070000  1.0 -0.1594445251
N  N51  1  0.13354000  0.03360000  0.10070000  1.0 -0.1594445251
N  N52  1  0.86646000  0.53360000  0.39930000  1.0 -0.1594445251
N  N53  1  0.78385000  0.58030000  0.49947000  1.0 -0.1594445251
N  N54  1  0.21615000  0.08030000  0.00053000  1.0 -0.1594445251
N  N55  1  0.21615000  0.41970000  0.50053000  1.0 -0.1594445251
N  N56  1  0.78385000  0.91970000  0.99947000  1.0 -0.1594445251
N  N57  1  0.40200000  0.31890000  0.35010000  1.0 -0.2556761634
N  N58  1  0.59800000  0.81890000  0.14990000  1.0 -0.2556761634
N  N59  1  0.59800000  0.68110000  0.64990000  1.0 -0.2556761634
N  N60  1  0.40200000  0.18110000  0.85010000  1.0 -0.2556761634
N  N61  1  0.49170000  0.02560000  0.27710000  1.0 -0.2391909753
N  N62  1  0.50830000  0.52560000  0.22290000  1.0 -0.2391909753
N  N63  1  0.50830000  0.97440000  0.72290000  1.0 -0.2391909753
N  N64  1  0.49170000  0.47440000  0.77710000  1.0 -0.2391909753
N  N65  1  0.52854000  0.23030000  0.40484000  1.0 -0.2556761634
N  N66  1  0.47146000  0.73030000  0.09516000  1.0 -0.2556761634
N  N67  1  0.47146000  0.76970000  0.59516000  1.0 -0.2556761634
N  N68  1  0.52854000  0.26970000  0.90484000  1.0 -0.2556761634
N  N69  1  0.60084000  0.29940000  0.49810000  1.0 -0.1892599855
N  N70  1  0.39916000  0.79940000  0.00190000  1.0 -0.1892599855
N  N71  1  0.39916000  0.70060000  0.50190000  1.0 -0.1892599855
N  N72  1  0.60084000  0.20060000  0.99810000  1.0 -0.1892599855
N  N73  1  0.38100000  0.53060000  0.38220000  1.0 -0.1594445251
N  N74  1  0.61900000  0.03060000  0.11780000  1.0 -0.1594445251
N  N75  1  0.61900000  0.46940000  0.61780000  1.0 -0.1594445251
N  N76  1  0.38100000  0.96940000  0.88220000  1.0 -0.1594445251
N  N77  1  0.36384000  0.83730000  0.38183000  1.0 -0.1594445251
N  N78  1  0.63616000  0.33730000  0.11817000  1.0 -0.1594445251
N  N79  1  0.63616000  0.16270000  0.61817000  1.0 -0.1594445251
N  N80  1  0.36384000  0.66270000  0.88183000  1.0 -0.1594445251
Cl  Cl1  1  0.27032000  0.18080000  0.14089000  1.0 -0.073311329
Cl  Cl2  1  0.72968000  0.68080000  0.35911000  1.0 -0.073311329
Cl  Cl3  1  0.72968000  0.81920000  0.85911000  1.0 -0.073311329
Cl  Cl4  1  0.27032000  0.31920000  0.64089000  1.0 -0.073311329
Cl  Cl5  1  0.36474000  0.16080000  0.22909000  1.0 -0.0903383792
Cl  Cl6  1  0.63526000  0.66080000  0.27091000  1.0 -0.0903383792
Cl  Cl7  1  0.63526000  0.83920000  0.77091000  1.0 -0.0903383792
Cl  Cl8  1  0.36474000  0.33920000  0.72909000  1.0 -0.0903383792
F  F1  1  0.69240000  0.08380000  0.37160000  1.0 -0.4899625678
F  F2  1  0.63350000  0.12920000  0.29540000  1.0 -0.4798390065
F  F3  1  0.69820000  0.99820000  0.29830000  1.0 -0.4899625678
F  F4  1  0.62700000  0.97510000  0.33110000  1.0 -0.4338331913
F  F5  1  0.30760000  0.58380000  0.12840000  1.0 -0.4899625678
F  F6  1  0.36650000  0.62920000  0.20460000  1.0 -0.4798390065
F  F7  1  0.30180000  0.49820000  0.20170000  1.0 -0.4899625678
F  F8  1  0.37300000  0.47510000  0.16890000  1.0 -0.4338331913
F  F9  1  0.30760000  0.91620000  0.62840000  1.0 -0.4899625678
F  F10  1  0.36650000  0.87080000  0.70460000  1.0 -0.4798390065
F  F11  1  0.30180000  0.00180000  0.70170000  1.0 -0.4899625678
F  F12  1  0.37300000  0.02490000  0.66890000  1.0 -0.4338331913
F  F13  1  0.69240000  0.41620000  0.87160000  1.0 -0.4899625678
F  F14  1  0.63350000  0.37080000  0.79540000  1.0 -0.4798390065
F  F15  1  0.69820000  0.50180000  0.79830000  1.0 -0.4899625678
F  F16  1  0.62700000  0.52490000  0.83110000  1.0 -0.4338331913
F  F17  1  0.52208000  0.84580000  0.88124000  1.0 -0.4707049313
F  F18  1  0.59552000  0.96270000  0.89161000  1.0 -0.4645201558
F  F19  1  0.59947000  0.81830000  0.94630000  1.0 -0.4707049313
F  F20  1  0.54258000  0.95660000  0.95181000  1.0 -0.4707049313
F  F21  1  0.47792000  0.34580000  0.61876000  1.0 -0.4707049313
F  F22  1  0.40448000  0.46270000  0.60839000  1.0 -0.4645201558
F  F23  1  0.40053000  0.31830000  0.55370000  1.0 -0.4707049313
F  F24  1  0.45742000  0.45660000  0.54819000  1.0 -0.4707049313
F  F25  1  0.47792000  0.15420000  0.11876000  1.0 -0.4707049313
F  F26  1  0.40448000  0.03730000  0.10839000  1.0 -0.4645201558
F  F27  1  0.40053000  0.18170000  0.05370000  1.0 -0.4707049313
F  F28  1  0.45742000  0.04340000  0.04819000  1.0 -0.4707049313
F  F29  1  0.52208000  0.65420000  0.38124000  1.0 -0.4707049313
F  F30  1  0.59552000  0.53730000  0.39161000  1.0 -0.4707049313
F  F31  1  0.59947000  0.68170000  0.44630000  1.0 -0.4707049313
F  F32  1  0.54258000  0.54340000  0.45181000  1.0 -0.4707049313
F  F33  1  0.93068000  0.04020000  0.11133000  1.0 -0.4899625678
F  F34  1  0.94332000  0.20050000  0.06991000  1.0 -0.4899625678
F  F35  1  0.97981000  0.04270000  0.04712000  1.0 -0.4707049313
F  F36  1  0.01656000  0.11990000  0.12703000  1.0 -0.4899625678
F  F37  1  0.06932000  0.54020000  0.38867000  1.0 -0.4899625678
F  F38  1  0.05668000  0.70050000  0.43009000  1.0 -0.4899625678
F  F39  1  0.02019000  0.54270000  0.45288000  1.0 -0.4707049313
F  F40  1  0.98344000  0.61990000  0.37297000  1.0 -0.4899625678
F  F41  1  0.06932000  0.95980000  0.88867000  1.0 -0.4899625678
F  F42  1  0.05668000  0.79950000  0.93009000  1.0 -0.4899625678
F  F43  1  0.02019000  0.95730000  0.95288000  1.0 -0.4707049313
F  F44  1  0.98344000  0.88010000  0.87297000  1.0 -0.4899625678
F  F45  1  0.93068000  0.45980000  0.61133000  1.0 -0.4899625678
F  F46  1  0.94332000  0.29950000  0.56991000  1.0 -0.4899625678
F  F47  1  0.97981000  0.45730000  0.54712000  1.0 -0.4707049313
F  F48  1  0.01656000  0.38010000  0.62703000  1.0 -0.4899625678
