# DDEC6 charges by PACMAN v1.1 (https://github.com/mtap-research/PACMAN-charge/)
data_BUXZAX_ion_pacman
_symmetry_space_group_name_H-M   'P 1'
_cell_length_a   42.76450000
_cell_length_b   42.76450000
_cell_length_c   16.75560000
_cell_angle_alpha   90.00000000
_cell_angle_beta   90.00000000
_cell_angle_gamma   120.00000000
_symmetry_Int_Tables_number   1
_chemical_formula_structural   Hf3Fe3H28C48N4(ClO8)2
_chemical_formula_sum   'Hf18 Fe18 H168 C288 N24 Cl12 O96'
_cell_volume   26537.34148767
_cell_formula_units_Z   6
loop_
 _symmetry_equiv_pos_site_id
 _symmetry_equiv_pos_as_xyz
  1  'x, y, z'
loop_
 _atom_site_type_symbol
 _atom_site_label
 _atom_site_symmetry_multiplicity
 _atom_site_fract_x
 _atom_site_fract_y
 _atom_site_fract_z
 _atom_site_occupancy
 _atom_site_charge
Hf  Hf1  1  0.46655000  0.53345000  0.50000000  1.0 1.6687114141
Hf  Hf2  1  0.46655000  0.93310000  0.50000000  1.0 1.651090642
Hf  Hf3  1  0.06690000  0.53345000  0.50000000  1.0 1.6687114141
Hf  Hf4  1  0.53345000  0.46655000  0.50000000  1.0 1.6687114141
Hf  Hf5  1  0.53345000  0.06690000  0.50000000  1.0 1.6687114141
Hf  Hf6  1  0.93310000  0.46655000  0.50000000  1.0 1.651090642
Hf  Hf7  1  0.45920000  0.45920000  0.60321000  1.0 1.7937090001
Hf  Hf8  1  0.54080000  0.00000000  0.60321000  1.0 1.7966482363
Hf  Hf9  1  0.00000000  0.54080000  0.60321000  1.0 1.7966482363
Hf  Hf10  1  0.54080000  0.54080000  0.60321000  1.0 1.7966482363
Hf  Hf11  1  0.45920000  0.00000000  0.60321000  1.0 1.7966482363
Hf  Hf12  1  0.00000000  0.45920000  0.60321000  1.0 1.7966482363
Hf  Hf13  1  0.45920000  0.45920000  0.39679000  1.0 1.7937090001
Hf  Hf14  1  0.00000000  0.54080000  0.39679000  1.0 1.7966482363
Hf  Hf15  1  0.54080000  0.00000000  0.39679000  1.0 1.7966482363
Hf  Hf16  1  0.54080000  0.54080000  0.39679000  1.0 1.7966482363
Hf  Hf17  1  0.00000000  0.45920000  0.39679000  1.0 1.7966482363
Hf  Hf18  1  0.45920000  0.00000000  0.39679000  1.0 1.7966482363
Fe  Fe1  1  0.49574000  0.74787000  0.00000000  1.0 0.6825427912
Fe  Fe2  1  0.25213000  0.74787000  0.00000000  1.0 0.6825427912
Fe  Fe3  1  0.25213000  0.50426000  0.00000000  1.0 0.6825427912
Fe  Fe4  1  0.50426000  0.25213000  0.00000000  1.0 0.6825427912
Fe  Fe5  1  0.74787000  0.25213000  0.00000000  1.0 0.6825427912
Fe  Fe6  1  0.74787000  0.49574000  0.00000000  1.0 0.6825427912
Fe  Fe7  1  0.57580000  0.62840000  0.50000000  1.0 1.0501791269
Fe  Fe8  1  0.37160000  0.94740000  0.50000000  1.0 1.0406732521
Fe  Fe9  1  0.05260000  0.42420000  0.50000000  1.0 1.0501791269
Fe  Fe10  1  0.42420000  0.37160000  0.50000000  1.0 1.0406732521
Fe  Fe11  1  0.62840000  0.05260000  0.50000000  1.0 1.0501791269
Fe  Fe12  1  0.94740000  0.57580000  0.50000000  1.0 1.0501791269
Fe  Fe13  1  0.62840000  0.57580000  0.50000000  1.0 1.0501791269
Fe  Fe14  1  0.94740000  0.37160000  0.50000000  1.0 1.0501791269
Fe  Fe15  1  0.42420000  0.05260000  0.50000000  1.0 1.0501791269
Fe  Fe16  1  0.37160000  0.42420000  0.50000000  1.0 1.0406732521
Fe  Fe17  1  0.05260000  0.62840000  0.50000000  1.0 1.0406732521
Fe  Fe18  1  0.57580000  0.94740000  0.50000000  1.0 1.0406732521
H  H1  1  0.45580000  0.61000000  0.65970000  1.0 0.1299765967
H  H2  1  0.39000000  0.84580000  0.65970000  1.0 0.1299765967
H  H3  1  0.15420000  0.54420000  0.65970000  1.0 0.1299765967
H  H4  1  0.54420000  0.39000000  0.65970000  1.0 0.1299765967
H  H5  1  0.61000000  0.15420000  0.65970000  1.0 0.1299765967
H  H6  1  0.84580000  0.45580000  0.65970000  1.0 0.1299765967
H  H7  1  0.61000000  0.45580000  0.34030000  1.0 0.1299765967
H  H8  1  0.84580000  0.39000000  0.34030000  1.0 0.1299765967
H  H9  1  0.54420000  0.15420000  0.34030000  1.0 0.1299765967
H  H10  1  0.39000000  0.54420000  0.34030000  1.0 0.1299765967
H  H11  1  0.15420000  0.61000000  0.34030000  1.0 0.1299765967
H  H12  1  0.45580000  0.84580000  0.34030000  1.0 0.1299765967
H  H13  1  0.54420000  0.39000000  0.34030000  1.0 0.1299765967
H  H14  1  0.61000000  0.15420000  0.34030000  1.0 0.1299765967
H  H15  1  0.84580000  0.45580000  0.34030000  1.0 0.1299765967
H  H16  1  0.45580000  0.61000000  0.34030000  1.0 0.1299765967
H  H17  1  0.39000000  0.84580000  0.34030000  1.0 0.1299765967
H  H18  1  0.15420000  0.54420000  0.34030000  1.0 0.1299765967
H  H19  1  0.39000000  0.54420000  0.65970000  1.0 0.1299765967
H  H20  1  0.15420000  0.61000000  0.65970000  1.0 0.1299765967
H  H21  1  0.45580000  0.84580000  0.65970000  1.0 0.1299765967
H  H22  1  0.61000000  0.45580000  0.65970000  1.0 0.1299765967
H  H23  1  0.84580000  0.39000000  0.65970000  1.0 0.1299765967
H  H24  1  0.54420000  0.15420000  0.65970000  1.0 0.1299765967
H  H25  1  0.45480000  0.65250000  0.74620000  1.0 0.1299765967
H  H26  1  0.34750000  0.80230000  0.74620000  1.0 0.1299765967
H  H27  1  0.19770000  0.54520000  0.74620000  1.0 0.1299765967
H  H28  1  0.54520000  0.34750000  0.74620000  1.0 0.1299765967
H  H29  1  0.65250000  0.19770000  0.74620000  1.0 0.1299765967
H  H30  1  0.80230000  0.45480000  0.74620000  1.0 0.1299765967
H  H31  1  0.65250000  0.45480000  0.25380000  1.0 0.1299765967
H  H32  1  0.80230000  0.34750000  0.25380000  1.0 0.1299765967
H  H33  1  0.54520000  0.19770000  0.25380000  1.0 0.1299765967
H  H34  1  0.34750000  0.54520000  0.25380000  1.0 0.1299765967
H  H35  1  0.19770000  0.65250000  0.25380000  1.0 0.1299765967
H  H36  1  0.45480000  0.80230000  0.25380000  1.0 0.1299765967
H  H37  1  0.54520000  0.34750000  0.25380000  1.0 0.1299765967
H  H38  1  0.65250000  0.19770000  0.25380000  1.0 0.1299765967
H  H39  1  0.80230000  0.45480000  0.25380000  1.0 0.1299765967
H  H40  1  0.45480000  0.65250000  0.25380000  1.0 0.1299765967
H  H41  1  0.34750000  0.80230000  0.25380000  1.0 0.1299765967
H  H42  1  0.19770000  0.54520000  0.25380000  1.0 0.1299765967
H  H43  1  0.34750000  0.54520000  0.74620000  1.0 0.1299765967
H  H44  1  0.19770000  0.65250000  0.74620000  1.0 0.1299765967
H  H45  1  0.45480000  0.80230000  0.74620000  1.0 0.1299765967
H  H46  1  0.65250000  0.45480000  0.74620000  1.0 0.1299765967
H  H47  1  0.80230000  0.34750000  0.74620000  1.0 0.1299765967
H  H48  1  0.54520000  0.19770000  0.74620000  1.0 0.1299765967
H  H49  1  0.55530000  0.67930000  0.82140000  1.0 0.1299765967
H  H50  1  0.32070000  0.87600000  0.82140000  1.0 0.1299765967
H  H51  1  0.12400000  0.44470000  0.82140000  1.0 0.1299765967
H  H52  1  0.44470000  0.32070000  0.82140000  1.0 0.1299765967
H  H53  1  0.67930000  0.12400000  0.82140000  1.0 0.1299765967
H  H54  1  0.87600000  0.55530000  0.82140000  1.0 0.1299765967
H  H55  1  0.67930000  0.55530000  0.17860000  1.0 0.1299765967
H  H56  1  0.87600000  0.32070000  0.17860000  1.0 0.1299765967
H  H57  1  0.44470000  0.12400000  0.17860000  1.0 0.1299765967
H  H58  1  0.32070000  0.44470000  0.17860000  1.0 0.1299765967
H  H59  1  0.12400000  0.67930000  0.17860000  1.0 0.1299765967
H  H60  1  0.55530000  0.87600000  0.17860000  1.0 0.1299765967
H  H61  1  0.44470000  0.32070000  0.17860000  1.0 0.1299765967
H  H62  1  0.67930000  0.12400000  0.17860000  1.0 0.1299765967
H  H63  1  0.87600000  0.55530000  0.17860000  1.0 0.1299765967
H  H64  1  0.55530000  0.67930000  0.17860000  1.0 0.1299765967
H  H65  1  0.32070000  0.87600000  0.17860000  1.0 0.1299765967
H  H66  1  0.12400000  0.44470000  0.17860000  1.0 0.1299765967
H  H67  1  0.32070000  0.44470000  0.82140000  1.0 0.1299765967
H  H68  1  0.12400000  0.67930000  0.82140000  1.0 0.1299765967
H  H69  1  0.55530000  0.87600000  0.82140000  1.0 0.1299765967
H  H70  1  0.67930000  0.55530000  0.82140000  1.0 0.1299765967
H  H71  1  0.87600000  0.32070000  0.82140000  1.0 0.1299765967
H  H72  1  0.44470000  0.12400000  0.82140000  1.0 0.1299765967
H  H73  1  0.55620000  0.63860000  0.73330000  1.0 0.1232464248
H  H74  1  0.36140000  0.91760000  0.73330000  1.0 0.1232464248
H  H75  1  0.08240000  0.44380000  0.73330000  1.0 0.1299765967
H  H76  1  0.44380000  0.36140000  0.73330000  1.0 0.1232464248
H  H77  1  0.63860000  0.08240000  0.73330000  1.0 0.1232464248
H  H78  1  0.91760000  0.55620000  0.73330000  1.0 0.1232464248
H  H79  1  0.63860000  0.55620000  0.26670000  1.0 0.1232464248
H  H80  1  0.91760000  0.36140000  0.26670000  1.0 0.1232464248
H  H81  1  0.44380000  0.08240000  0.26670000  1.0 0.1232464248
H  H82  1  0.36140000  0.44380000  0.26670000  1.0 0.1232464248
H  H83  1  0.08240000  0.63860000  0.26670000  1.0 0.1232464248
H  H84  1  0.55620000  0.91760000  0.26670000  1.0 0.1232464248
H  H85  1  0.44380000  0.36140000  0.26670000  1.0 0.1232464248
H  H86  1  0.63860000  0.08240000  0.26670000  1.0 0.1232464248
H  H87  1  0.91760000  0.55620000  0.26670000  1.0 0.1232464248
H  H88  1  0.55620000  0.63860000  0.26670000  1.0 0.1232464248
H  H89  1  0.36140000  0.91760000  0.26670000  1.0 0.1232464248
H  H90  1  0.08240000  0.44380000  0.26670000  1.0 0.1232464248
H  H91  1  0.36140000  0.44380000  0.73330000  1.0 0.1232464248
H  H92  1  0.08240000  0.63860000  0.73330000  1.0 0.1232464248
H  H93  1  0.55620000  0.91760000  0.73330000  1.0 0.1232464248
H  H94  1  0.63860000  0.55620000  0.73330000  1.0 0.1299765967
H  H95  1  0.91760000  0.36140000  0.73330000  1.0 0.1299765967
H  H96  1  0.44380000  0.08240000  0.73330000  1.0 0.1232464248
H  H97  1  0.50760000  0.72570000  0.70330000  1.0 0.1299765967
H  H98  1  0.27430000  0.78190000  0.70330000  1.0 0.1299765967
H  H99  1  0.21810000  0.49240000  0.70330000  1.0 0.1299765967
H  H100  1  0.49240000  0.27430000  0.70330000  1.0 0.1299765967
H  H101  1  0.72570000  0.21810000  0.70330000  1.0 0.1299765967
H  H102  1  0.78190000  0.50760000  0.70330000  1.0 0.1299765967
H  H103  1  0.72570000  0.50760000  0.29670000  1.0 0.1299765967
H  H104  1  0.78190000  0.27430000  0.29670000  1.0 0.1299765967
H  H105  1  0.49240000  0.21810000  0.29670000  1.0 0.1299765967
H  H106  1  0.27430000  0.49240000  0.29670000  1.0 0.1299765967
H  H107  1  0.21810000  0.72570000  0.29670000  1.0 0.1299765967
H  H108  1  0.50760000  0.78190000  0.29670000  1.0 0.1299765967
H  H109  1  0.49240000  0.27430000  0.29670000  1.0 0.1299765967
H  H110  1  0.72570000  0.21810000  0.29670000  1.0 0.1299765967
H  H111  1  0.78190000  0.50760000  0.29670000  1.0 0.1299765967
H  H112  1  0.50760000  0.72570000  0.29670000  1.0 0.1299765967
H  H113  1  0.27430000  0.78190000  0.29670000  1.0 0.1299765967
H  H114  1  0.21810000  0.49240000  0.29670000  1.0 0.1299765967
H  H115  1  0.27430000  0.49240000  0.70330000  1.0 0.1299765967
H  H116  1  0.21810000  0.72570000  0.70330000  1.0 0.1299765967
H  H117  1  0.50760000  0.78190000  0.70330000  1.0 0.1299765967
H  H118  1  0.72570000  0.50760000  0.70330000  1.0 0.1299765967
H  H119  1  0.78190000  0.27430000  0.70330000  1.0 0.1299765967
H  H120  1  0.49240000  0.21810000  0.70330000  1.0 0.1299765967
H  H121  1  0.52330000  0.65320000  0.93920000  1.0 0.1299765967
H  H122  1  0.34680000  0.87010000  0.93920000  1.0 0.1299765967
H  H123  1  0.12990000  0.47670000  0.93920000  1.0 0.1299765967
H  H124  1  0.47670000  0.34680000  0.93920000  1.0 0.1299765967
H  H125  1  0.65320000  0.12990000  0.93920000  1.0 0.1299765967
H  H126  1  0.87010000  0.52330000  0.93920000  1.0 0.1299765967
H  H127  1  0.65320000  0.52330000  0.06080000  1.0 0.1299765967
H  H128  1  0.87010000  0.34680000  0.06080000  1.0 0.1299765967
H  H129  1  0.47670000  0.12990000  0.06080000  1.0 0.1299765967
H  H130  1  0.34680000  0.47670000  0.06080000  1.0 0.1299765967
H  H131  1  0.12990000  0.65320000  0.06080000  1.0 0.1299765967
H  H132  1  0.52330000  0.87010000  0.06080000  1.0 0.1299765967
H  H133  1  0.47670000  0.34680000  0.06080000  1.0 0.1299765967
H  H134  1  0.65320000  0.12990000  0.06080000  1.0 0.1299765967
H  H135  1  0.87010000  0.52330000  0.06080000  1.0 0.1299765967
H  H136  1  0.52330000  0.65320000  0.06080000  1.0 0.1299765967
H  H137  1  0.34680000  0.87010000  0.06080000  1.0 0.1299765967
H  H138  1  0.12990000  0.47670000  0.06080000  1.0 0.1299765967
H  H139  1  0.34680000  0.47670000  0.93920000  1.0 0.1299765967
H  H140  1  0.12990000  0.65320000  0.93920000  1.0 0.1299765967
H  H141  1  0.52330000  0.87010000  0.93920000  1.0 0.1299765967
H  H142  1  0.65320000  0.52330000  0.93920000  1.0 0.1299765967
H  H143  1  0.87010000  0.34680000  0.93920000  1.0 0.1299765967
H  H144  1  0.47670000  0.12990000  0.93920000  1.0 0.1299765967
H  H145  1  0.48030000  0.63200000  0.93920000  1.0 0.1352105043
H  H146  1  0.36800000  0.84830000  0.93920000  1.0 0.1299765967
H  H147  1  0.15170000  0.51970000  0.93920000  1.0 0.1299765967
H  H148  1  0.51970000  0.36800000  0.93920000  1.0 0.1299765967
H  H149  1  0.63200000  0.15170000  0.93920000  1.0 0.1299765967
H  H150  1  0.84830000  0.48030000  0.93920000  1.0 0.1299765967
H  H151  1  0.63200000  0.48030000  0.06080000  1.0 0.1299765967
H  H152  1  0.84830000  0.36800000  0.06080000  1.0 0.1299765967
H  H153  1  0.51970000  0.15170000  0.06080000  1.0 0.1299765967
H  H154  1  0.36800000  0.51970000  0.06080000  1.0 0.1299765967
H  H155  1  0.15170000  0.63200000  0.06080000  1.0 0.1299765967
H  H156  1  0.48030000  0.84830000  0.06080000  1.0 0.1299765967
H  H157  1  0.51970000  0.36800000  0.06080000  1.0 0.1299765967
H  H158  1  0.63200000  0.15170000  0.06080000  1.0 0.1299765967
H  H159  1  0.84830000  0.48030000  0.06080000  1.0 0.1299765967
H  H160  1  0.48030000  0.63200000  0.06080000  1.0 0.1299765967
H  H161  1  0.36800000  0.84830000  0.06080000  1.0 0.1299765967
H  H162  1  0.15170000  0.51970000  0.06080000  1.0 0.1299765967
H  H163  1  0.36800000  0.51970000  0.93920000  1.0 0.1299765967
H  H164  1  0.15170000  0.63200000  0.93920000  1.0 0.1352105043
H  H165  1  0.48030000  0.84830000  0.93920000  1.0 0.1299765967
H  H166  1  0.63200000  0.48030000  0.93920000  1.0 0.1299765967
H  H167  1  0.84830000  0.36800000  0.93920000  1.0 0.1299765967
H  H168  1  0.51970000  0.15170000  0.93920000  1.0 0.1299765967
C  C1  1  0.50640000  0.59400000  0.63040000  1.0 0.577704251
C  C2  1  0.40600000  0.91240000  0.63040000  1.0 0.577704251
C  C3  1  0.08760000  0.49360000  0.63040000  1.0 0.577704251
C  C4  1  0.49360000  0.40600000  0.63040000  1.0 0.577704251
C  C5  1  0.59400000  0.08760000  0.63040000  1.0 0.577704251
C  C6  1  0.91240000  0.50640000  0.63040000  1.0 0.577704251
C  C7  1  0.59400000  0.50640000  0.36960000  1.0 0.577704251
C  C8  1  0.91240000  0.40600000  0.36960000  1.0 0.577704251
C  C9  1  0.49360000  0.08760000  0.36960000  1.0 0.577704251
C  C10  1  0.40600000  0.49360000  0.36960000  1.0 0.577704251
C  C11  1  0.08760000  0.59400000  0.36960000  1.0 0.577704251
C  C12  1  0.50640000  0.91240000  0.36960000  1.0 0.577704251
C  C13  1  0.49360000  0.40600000  0.36960000  1.0 0.577704251
C  C14  1  0.59400000  0.08760000  0.36960000  1.0 0.577704251
C  C15  1  0.91240000  0.50640000  0.36960000  1.0 0.577704251
C  C16  1  0.50640000  0.59400000  0.36960000  1.0 0.577704251
C  C17  1  0.40600000  0.91240000  0.36960000  1.0 0.577704251
C  C18  1  0.08760000  0.49360000  0.36960000  1.0 0.577704251
C  C19  1  0.40600000  0.49360000  0.63040000  1.0 0.577704251
C  C20  1  0.08760000  0.59400000  0.63040000  1.0 0.577704251
C  C21  1  0.50640000  0.91240000  0.63040000  1.0 0.577704251
C  C22  1  0.59400000  0.50640000  0.63040000  1.0 0.577704251
C  C23  1  0.91240000  0.40600000  0.63040000  1.0 0.577704251
C  C24  1  0.49360000  0.08760000  0.63040000  1.0 0.577704251
C  C25  1  0.50700000  0.62270000  0.68480000  1.0 -0.0217956639
C  C26  1  0.37730000  0.88430000  0.68480000  1.0 -0.0217956639
C  C27  1  0.11570000  0.49300000  0.68480000  1.0 -0.0217956639
C  C28  1  0.49300000  0.37730000  0.68480000  1.0 -0.0217956639
C  C29  1  0.62270000  0.11570000  0.68480000  1.0 -0.0217956639
C  C30  1  0.88430000  0.50700000  0.68480000  1.0 -0.0217956639
C  C31  1  0.62270000  0.50700000  0.31520000  1.0 -0.0217956639
C  C32  1  0.88430000  0.37730000  0.31520000  1.0 -0.0217956639
C  C33  1  0.49300000  0.11570000  0.31520000  1.0 -0.0217956639
C  C34  1  0.37730000  0.49300000  0.31520000  1.0 -0.0217956639
C  C35  1  0.11570000  0.62270000  0.31520000  1.0 -0.0217956639
C  C36  1  0.50700000  0.88430000  0.31520000  1.0 -0.0217956639
C  C37  1  0.49300000  0.37730000  0.31520000  1.0 -0.0217956639
C  C38  1  0.62270000  0.11570000  0.31520000  1.0 -0.0217956639
C  C39  1  0.88430000  0.50700000  0.31520000  1.0 -0.0217956639
C  C40  1  0.50700000  0.62270000  0.31520000  1.0 -0.0217956639
C  C41  1  0.37730000  0.88430000  0.31520000  1.0 -0.0217956639
C  C42  1  0.11570000  0.49300000  0.31520000  1.0 -0.0217956639
C  C43  1  0.37730000  0.49300000  0.68480000  1.0 -0.0217956639
C  C44  1  0.11570000  0.62270000  0.68480000  1.0 -0.0217956639
C  C45  1  0.50700000  0.88430000  0.68480000  1.0 -0.0217956639
C  C46  1  0.62270000  0.50700000  0.68480000  1.0 -0.0217956639
C  C47  1  0.88430000  0.37730000  0.68480000  1.0 -0.0217956639
C  C48  1  0.49300000  0.11570000  0.68480000  1.0 -0.0217956639
C  C49  1  0.47620000  0.62500000  0.69080000  1.0 -0.0810704375
C  C50  1  0.37500000  0.85120000  0.69080000  1.0 -0.0810704375
C  C51  1  0.14880000  0.52380000  0.69080000  1.0 -0.0810704375
C  C52  1  0.52380000  0.37500000  0.69080000  1.0 -0.0810704375
C  C53  1  0.62500000  0.14880000  0.69080000  1.0 -0.0810704375
C  C54  1  0.85120000  0.47620000  0.69080000  1.0 -0.0810704375
C  C55  1  0.62500000  0.47620000  0.30920000  1.0 -0.0810704375
C  C56  1  0.85120000  0.37500000  0.30920000  1.0 -0.0810704375
C  C57  1  0.52380000  0.14880000  0.30920000  1.0 -0.0810704375
C  C58  1  0.37500000  0.52380000  0.30920000  1.0 -0.0810704375
C  C59  1  0.14880000  0.62500000  0.30920000  1.0 -0.0810704375
C  C60  1  0.47620000  0.85120000  0.30920000  1.0 -0.0810704375
C  C61  1  0.52380000  0.37500000  0.30920000  1.0 -0.0810704375
C  C62  1  0.62500000  0.14880000  0.30920000  1.0 -0.0810704375
C  C63  1  0.85120000  0.47620000  0.30920000  1.0 -0.0810704375
C  C64  1  0.47620000  0.62500000  0.30920000  1.0 -0.0810704375
C  C65  1  0.37500000  0.85120000  0.30920000  1.0 -0.0810704375
C  C66  1  0.14880000  0.52380000  0.30920000  1.0 -0.0810704375
C  C67  1  0.37500000  0.52380000  0.69080000  1.0 -0.0810704375
C  C68  1  0.14880000  0.62500000  0.69080000  1.0 -0.0810704375
C  C69  1  0.47620000  0.85120000  0.69080000  1.0 -0.0810704375
C  C70  1  0.62500000  0.47620000  0.69080000  1.0 -0.0810704375
C  C71  1  0.85120000  0.37500000  0.69080000  1.0 -0.0810704375
C  C72  1  0.52380000  0.14880000  0.69080000  1.0 -0.0810704375
C  C73  1  0.47530000  0.64980000  0.74340000  1.0 -0.1592862826
C  C74  1  0.35020000  0.82550000  0.74340000  1.0 -0.1592862826
C  C75  1  0.17450000  0.52470000  0.74340000  1.0 -0.1592862826
C  C76  1  0.52470000  0.35020000  0.74340000  1.0 -0.1592862826
C  C77  1  0.64980000  0.17450000  0.74340000  1.0 -0.1592862826
C  C78  1  0.82550000  0.47530000  0.74340000  1.0 -0.1592862826
C  C79  1  0.64980000  0.47530000  0.25660000  1.0 -0.1592862826
C  C80  1  0.82550000  0.35020000  0.25660000  1.0 -0.1592862826
C  C81  1  0.52470000  0.17450000  0.25660000  1.0 -0.1592862826
C  C82  1  0.35020000  0.52470000  0.25660000  1.0 -0.1592862826
C  C83  1  0.17450000  0.64980000  0.25660000  1.0 -0.1592862826
C  C84  1  0.47530000  0.82550000  0.25660000  1.0 -0.1592862826
C  C85  1  0.52470000  0.35020000  0.25660000  1.0 -0.1592862826
C  C86  1  0.64980000  0.17450000  0.25660000  1.0 -0.1592862826
C  C87  1  0.82550000  0.47530000  0.25660000  1.0 -0.1592862826
C  C88  1  0.47530000  0.64980000  0.25660000  1.0 -0.1592862826
C  C89  1  0.35020000  0.82550000  0.25660000  1.0 -0.1592862826
C  C90  1  0.17450000  0.52470000  0.25660000  1.0 -0.1592862826
C  C91  1  0.35020000  0.52470000  0.74340000  1.0 -0.1592862826
C  C92  1  0.17450000  0.64980000  0.74340000  1.0 -0.1592862826
C  C93  1  0.47530000  0.82550000  0.74340000  1.0 -0.1592862826
C  C94  1  0.64980000  0.47530000  0.74340000  1.0 -0.1592862826
C  C95  1  0.82550000  0.35020000  0.74340000  1.0 -0.1592862826
C  C96  1  0.52470000  0.17450000  0.74340000  1.0 -0.1592862826
C  C97  1  0.50520000  0.67060000  0.79160000  1.0 0.1053932342
C  C98  1  0.32940000  0.83460000  0.79160000  1.0 0.1053932342
C  C99  1  0.16540000  0.49480000  0.79160000  1.0 0.1053932342
C  C100  1  0.49480000  0.32940000  0.79160000  1.0 0.1053932342
C  C101  1  0.67060000  0.16540000  0.79160000  1.0 0.1053932342
C  C102  1  0.83460000  0.50520000  0.79160000  1.0 0.1053932342
C  C103  1  0.67060000  0.50520000  0.20840000  1.0 0.1053932342
C  C104  1  0.83460000  0.32940000  0.20840000  1.0 0.1053932342
C  C105  1  0.49480000  0.16540000  0.20840000  1.0 0.1053932342
C  C106  1  0.32940000  0.49480000  0.20840000  1.0 0.1053932342
C  C107  1  0.16540000  0.67060000  0.20840000  1.0 0.1053932342
C  C108  1  0.50520000  0.83460000  0.20840000  1.0 0.1053932342
C  C109  1  0.49480000  0.32940000  0.20840000  1.0 0.1053932342
C  C110  1  0.67060000  0.16540000  0.20840000  1.0 0.1053932342
C  C111  1  0.83460000  0.50520000  0.20840000  1.0 0.1053932342
C  C112  1  0.50520000  0.67060000  0.20840000  1.0 0.1053932342
C  C113  1  0.32940000  0.83460000  0.20840000  1.0 0.1053932342
C  C114  1  0.16540000  0.49480000  0.20840000  1.0 0.1053932342
C  C115  1  0.32940000  0.49480000  0.79160000  1.0 0.1053932342
C  C116  1  0.16540000  0.67060000  0.79160000  1.0 0.1053932342
C  C117  1  0.50520000  0.83460000  0.79160000  1.0 0.1053932342
C  C118  1  0.67060000  0.50520000  0.79160000  1.0 0.1053932342
C  C119  1  0.83460000  0.32940000  0.79160000  1.0 0.1053932342
C  C120  1  0.49480000  0.16540000  0.79160000  1.0 0.1053932342
C  C121  1  0.53540000  0.66590000  0.78760000  1.0 -0.1592862826
C  C122  1  0.33410000  0.86950000  0.78760000  1.0 -0.1592862826
C  C123  1  0.13050000  0.46460000  0.78760000  1.0 -0.1592862826
C  C124  1  0.46460000  0.33410000  0.78760000  1.0 -0.1592862826
C  C125  1  0.66590000  0.13050000  0.78760000  1.0 -0.1592862826
C  C126  1  0.86950000  0.53540000  0.78760000  1.0 -0.1592862826
C  C127  1  0.66590000  0.53540000  0.21240000  1.0 -0.1592862826
C  C128  1  0.86950000  0.33410000  0.21240000  1.0 -0.1592862826
C  C129  1  0.46460000  0.13050000  0.21240000  1.0 -0.1592862826
C  C130  1  0.33410000  0.46460000  0.21240000  1.0 -0.1592862826
C  C131  1  0.13050000  0.66590000  0.21240000  1.0 -0.1592862826
C  C132  1  0.53540000  0.86950000  0.21240000  1.0 -0.1592862826
C  C133  1  0.46460000  0.33410000  0.21240000  1.0 -0.1592862826
C  C134  1  0.66590000  0.13050000  0.21240000  1.0 -0.1592862826
C  C135  1  0.86950000  0.53540000  0.21240000  1.0 -0.1592862826
C  C136  1  0.53540000  0.66590000  0.21240000  1.0 -0.1592862826
C  C137  1  0.33410000  0.86950000  0.21240000  1.0 -0.1592862826
C  C138  1  0.13050000  0.46460000  0.21240000  1.0 -0.1592862826
C  C139  1  0.33410000  0.46460000  0.78760000  1.0 -0.1592862826
C  C140  1  0.13050000  0.66590000  0.78760000  1.0 -0.1592862826
C  C141  1  0.53540000  0.86950000  0.78760000  1.0 -0.1592862826
C  C142  1  0.66590000  0.53540000  0.78760000  1.0 -0.1592862826
C  C143  1  0.86950000  0.33410000  0.78760000  1.0 -0.1592862826
C  C144  1  0.46460000  0.13050000  0.78760000  1.0 -0.1592862826
C  C145  1  0.53610000  0.64200000  0.73530000  1.0 -0.0810704375
C  C146  1  0.35800000  0.89410000  0.73530000  1.0 -0.0810704375
C  C147  1  0.10590000  0.46390000  0.73530000  1.0 -0.0810704375
C  C148  1  0.46390000  0.35800000  0.73530000  1.0 -0.0810704375
C  C149  1  0.64200000  0.10590000  0.73530000  1.0 -0.0810704375
C  C150  1  0.89410000  0.53610000  0.73530000  1.0 -0.0810704375
C  C151  1  0.64200000  0.53610000  0.26470000  1.0 -0.0810704375
C  C152  1  0.89410000  0.35800000  0.26470000  1.0 -0.0810704375
C  C153  1  0.46390000  0.10590000  0.26470000  1.0 -0.0810704375
C  C154  1  0.35800000  0.46390000  0.26470000  1.0 -0.0810704375
C  C155  1  0.10590000  0.64200000  0.26470000  1.0 -0.0810704375
C  C156  1  0.53610000  0.89410000  0.26470000  1.0 -0.0810704375
C  C157  1  0.46390000  0.35800000  0.26470000  1.0 -0.0810704375
C  C158  1  0.64200000  0.10590000  0.26470000  1.0 -0.0810704375
C  C159  1  0.89410000  0.53610000  0.26470000  1.0 -0.0810704375
C  C160  1  0.53610000  0.64200000  0.26470000  1.0 -0.0810704375
C  C161  1  0.35800000  0.89410000  0.26470000  1.0 -0.0810704375
C  C162  1  0.10590000  0.46390000  0.26470000  1.0 -0.0810704375
C  C163  1  0.35800000  0.46390000  0.73530000  1.0 -0.0810704375
C  C164  1  0.10590000  0.64200000  0.73530000  1.0 -0.0810704375
C  C165  1  0.53610000  0.89410000  0.73530000  1.0 -0.0810704375
C  C166  1  0.64200000  0.53610000  0.73530000  1.0 -0.0810704375
C  C167  1  0.89410000  0.35800000  0.73530000  1.0 -0.0810704375
C  C168  1  0.46390000  0.10590000  0.73530000  1.0 -0.0810704375
C  C169  1  0.50380000  0.69570000  0.85600000  1.0 -0.0661707469
C  C170  1  0.30430000  0.80810000  0.85600000  1.0 -0.0661707469
C  C171  1  0.19190000  0.49620000  0.85600000  1.0 -0.0661707469
C  C172  1  0.49620000  0.30430000  0.85600000  1.0 -0.0661707469
C  C173  1  0.69570000  0.19190000  0.85600000  1.0 -0.0661707469
C  C174  1  0.80810000  0.50380000  0.85600000  1.0 -0.0661707469
C  C175  1  0.69570000  0.50380000  0.14400000  1.0 -0.0643502571
C  C176  1  0.80810000  0.30430000  0.14400000  1.0 -0.0643502571
C  C177  1  0.49620000  0.19190000  0.14400000  1.0 -0.0661707469
C  C178  1  0.30430000  0.49620000  0.14400000  1.0 -0.0661707469
C  C179  1  0.19190000  0.69570000  0.14400000  1.0 -0.0661707469
C  C180  1  0.50380000  0.80810000  0.14400000  1.0 -0.0661707469
C  C181  1  0.49620000  0.30430000  0.14400000  1.0 -0.0661707469
C  C182  1  0.69570000  0.19190000  0.14400000  1.0 -0.0661707469
C  C183  1  0.80810000  0.50380000  0.14400000  1.0 -0.0643502571
C  C184  1  0.50380000  0.69570000  0.14400000  1.0 -0.0643502571
C  C185  1  0.30430000  0.80810000  0.14400000  1.0 -0.0661707469
C  C186  1  0.19190000  0.49620000  0.14400000  1.0 -0.0661707469
C  C187  1  0.30430000  0.49620000  0.85600000  1.0 -0.0661707469
C  C188  1  0.19190000  0.69570000  0.85600000  1.0 -0.0661707469
C  C189  1  0.50380000  0.80810000  0.85600000  1.0 -0.0661707469
C  C190  1  0.69570000  0.50380000  0.85600000  1.0 -0.0661707469
C  C191  1  0.80810000  0.30430000  0.85600000  1.0 -0.0661707469
C  C192  1  0.49620000  0.19190000  0.85600000  1.0 -0.0661707469
C  C193  1  0.50420000  0.72700000  0.83030000  1.0 0.1739584557
C  C194  1  0.27300000  0.77720000  0.83030000  1.0 0.1739584557
C  C195  1  0.22280000  0.49580000  0.83030000  1.0 0.1739584557
C  C196  1  0.49580000  0.27300000  0.83030000  1.0 0.1754917107
C  C197  1  0.72700000  0.22280000  0.83030000  1.0 0.1739584557
C  C198  1  0.77720000  0.50420000  0.83030000  1.0 0.1739584557
C  C199  1  0.72700000  0.50420000  0.16970000  1.0 0.1739584557
C  C200  1  0.77720000  0.27300000  0.16970000  1.0 0.1739584557
C  C201  1  0.49580000  0.22280000  0.16970000  1.0 0.1739584557
C  C202  1  0.27300000  0.49580000  0.16970000  1.0 0.1739584557
C  C203  1  0.22280000  0.72700000  0.16970000  1.0 0.1739584557
C  C204  1  0.50420000  0.77720000  0.16970000  1.0 0.1739584557
C  C205  1  0.49580000  0.27300000  0.16970000  1.0 0.1754917107
C  C206  1  0.72700000  0.22280000  0.16970000  1.0 0.1739584557
C  C207  1  0.77720000  0.50420000  0.16970000  1.0 0.1739584557
C  C208  1  0.50420000  0.72700000  0.16970000  1.0 0.1739584557
C  C209  1  0.27300000  0.77720000  0.16970000  1.0 0.1739584557
C  C210  1  0.22280000  0.49580000  0.16970000  1.0 0.1739584557
C  C211  1  0.27300000  0.49580000  0.83030000  1.0 0.1739584557
C  C212  1  0.22280000  0.72700000  0.83030000  1.0 0.1739584557
C  C213  1  0.50420000  0.77720000  0.83030000  1.0 0.1739584557
C  C214  1  0.72700000  0.50420000  0.83030000  1.0 0.1739584557
C  C215  1  0.77720000  0.27300000  0.83030000  1.0 0.1739584557
C  C216  1  0.49580000  0.22280000  0.83030000  1.0 0.1739584557
C  C217  1  0.50640000  0.73810000  0.74840000  1.0 -0.1592862826
C  C218  1  0.26190000  0.76830000  0.74840000  1.0 -0.1592862826
C  C219  1  0.23170000  0.49360000  0.74840000  1.0 -0.1592862826
C  C220  1  0.49360000  0.26190000  0.74840000  1.0 -0.1592862826
C  C221  1  0.73810000  0.23170000  0.74840000  1.0 -0.1592862826
C  C222  1  0.76830000  0.50640000  0.74840000  1.0 -0.1592862826
C  C223  1  0.73810000  0.50640000  0.25160000  1.0 -0.1592862826
C  C224  1  0.76830000  0.26190000  0.25160000  1.0 -0.1592862826
C  C225  1  0.49360000  0.23170000  0.25160000  1.0 -0.1592862826
C  C226  1  0.26190000  0.49360000  0.25160000  1.0 -0.1592862826
C  C227  1  0.23170000  0.73810000  0.25160000  1.0 -0.1592862826
C  C228  1  0.50640000  0.76830000  0.25160000  1.0 -0.1592862826
C  C229  1  0.49360000  0.26190000  0.25160000  1.0 -0.1592862826
C  C230  1  0.73810000  0.23170000  0.25160000  1.0 -0.1592862826
C  C231  1  0.76830000  0.50640000  0.25160000  1.0 -0.1592862826
C  C232  1  0.50640000  0.73810000  0.25160000  1.0 -0.1592862826
C  C233  1  0.26190000  0.76830000  0.25160000  1.0 -0.1592862826
C  C234  1  0.23170000  0.49360000  0.25160000  1.0 -0.1592862826
C  C235  1  0.26190000  0.49360000  0.74840000  1.0 -0.1592862826
C  C236  1  0.23170000  0.73810000  0.74840000  1.0 -0.1592862826
C  C237  1  0.50640000  0.76830000  0.74840000  1.0 -0.1592862826
C  C238  1  0.73810000  0.50640000  0.74840000  1.0 -0.1592862826
C  C239  1  0.76830000  0.26190000  0.74840000  1.0 -0.1592862826
C  C240  1  0.49360000  0.23170000  0.74840000  1.0 -0.1592862826
C  C241  1  0.50190000  0.65340000  0.95940000  1.0 -0.2176090229
C  C242  1  0.34660000  0.84850000  0.95940000  1.0 -0.2176090229
C  C243  1  0.15150000  0.49810000  0.95940000  1.0 -0.2176090229
C  C244  1  0.49810000  0.34660000  0.95940000  1.0 -0.2176090229
C  C245  1  0.65340000  0.15150000  0.95940000  1.0 -0.2176090229
C  C246  1  0.84850000  0.50190000  0.95940000  1.0 -0.2176090229
C  C247  1  0.65340000  0.50190000  0.04060000  1.0 -0.2176090229
C  C248  1  0.84850000  0.34660000  0.04060000  1.0 -0.2176090229
C  C249  1  0.49810000  0.15150000  0.04060000  1.0 -0.2176090229
C  C250  1  0.34660000  0.49810000  0.04060000  1.0 -0.2176090229
C  C251  1  0.15150000  0.65340000  0.04060000  1.0 -0.2176090229
C  C252  1  0.50190000  0.84850000  0.04060000  1.0 -0.2176090229
C  C253  1  0.49810000  0.34660000  0.04060000  1.0 -0.2176090229
C  C254  1  0.65340000  0.15150000  0.04060000  1.0 -0.2176090229
C  C255  1  0.84850000  0.50190000  0.04060000  1.0 -0.2176090229
C  C256  1  0.50190000  0.65340000  0.04060000  1.0 -0.2176090229
C  C257  1  0.34660000  0.84850000  0.04060000  1.0 -0.2176090229
C  C258  1  0.15150000  0.49810000  0.04060000  1.0 -0.2176090229
C  C259  1  0.34660000  0.49810000  0.95940000  1.0 -0.2176090229
C  C260  1  0.15150000  0.65340000  0.95940000  1.0 -0.2176090229
C  C261  1  0.50190000  0.84850000  0.95940000  1.0 -0.2176090229
C  C262  1  0.65340000  0.50190000  0.95940000  1.0 -0.2176090229
C  C263  1  0.84850000  0.34660000  0.95940000  1.0 -0.2176090229
C  C264  1  0.49810000  0.15150000  0.95940000  1.0 -0.2176090229
C  C265  1  0.50220000  0.68490000  0.93410000  1.0 0.1540167166
C  C266  1  0.31510000  0.81730000  0.93410000  1.0 0.1540167166
C  C267  1  0.18270000  0.49780000  0.93410000  1.0 0.1552581839
C  C268  1  0.49780000  0.31510000  0.93410000  1.0 0.1540167166
C  C269  1  0.68490000  0.18270000  0.93410000  1.0 0.1552581839
C  C270  1  0.81730000  0.50220000  0.93410000  1.0 0.1540167166
C  C271  1  0.68490000  0.50220000  0.06590000  1.0 0.1540167166
C  C272  1  0.81730000  0.31510000  0.06590000  1.0 0.1540167166
C  C273  1  0.49780000  0.18270000  0.06590000  1.0 0.1540167166
C  C274  1  0.31510000  0.49780000  0.06590000  1.0 0.1540167166
C  C275  1  0.18270000  0.68490000  0.06590000  1.0 0.1540167166
C  C276  1  0.50220000  0.81730000  0.06590000  1.0 0.1540167166
C  C277  1  0.49780000  0.31510000  0.06590000  1.0 0.1540167166
C  C278  1  0.68490000  0.18270000  0.06590000  1.0 0.1540167166
C  C279  1  0.81730000  0.50220000  0.06590000  1.0 0.1540167166
C  C280  1  0.50220000  0.68490000  0.06590000  1.0 0.1540167166
C  C281  1  0.31510000  0.81730000  0.06590000  1.0 0.1540167166
C  C282  1  0.18270000  0.49780000  0.06590000  1.0 0.1540167166
C  C283  1  0.31510000  0.49780000  0.93410000  1.0 0.1540167166
C  C284  1  0.18270000  0.68490000  0.93410000  1.0 0.1540167166
C  C285  1  0.50220000  0.81730000  0.93410000  1.0 0.1540167166
C  C286  1  0.68490000  0.50220000  0.93410000  1.0 0.1540167166
C  C287  1  0.81730000  0.31510000  0.93410000  1.0 0.1540167166
C  C288  1  0.49780000  0.18270000  0.93410000  1.0 0.1540167166
N  N1  1  0.50130000  0.75065000  0.87920000  1.0 -0.2808975973
N  N2  1  0.24935000  0.75065000  0.87920000  1.0 -0.2808975973
N  N3  1  0.24935000  0.49870000  0.87920000  1.0 -0.2808975973
N  N4  1  0.49870000  0.24935000  0.87920000  1.0 -0.2808975973
N  N5  1  0.75065000  0.24935000  0.87920000  1.0 -0.2808975973
N  N6  1  0.75065000  0.50130000  0.87920000  1.0 -0.2808975973
N  N7  1  0.75065000  0.50130000  0.12080000  1.0 -0.2808975973
N  N8  1  0.75065000  0.24935000  0.12080000  1.0 -0.2808975973
N  N9  1  0.49870000  0.24935000  0.12080000  1.0 -0.2808975973
N  N10  1  0.24935000  0.49870000  0.12080000  1.0 -0.2808975973
N  N11  1  0.24935000  0.75065000  0.12080000  1.0 -0.2808975973
N  N12  1  0.50130000  0.75065000  0.12080000  1.0 -0.2808975973
N  N13  1  0.50270000  0.70510000  0.00000000  1.0 -0.2892510665
N  N14  1  0.29490000  0.79760000  0.00000000  1.0 -0.2892510665
N  N15  1  0.20240000  0.49730000  0.00000000  1.0 -0.2892510665
N  N16  1  0.49730000  0.29490000  0.00000000  1.0 -0.2892510665
N  N17  1  0.70510000  0.20240000  0.00000000  1.0 -0.2892510665
N  N18  1  0.79760000  0.50270000  0.00000000  1.0 -0.2892510665
N  N19  1  0.70510000  0.50270000  0.00000000  1.0 -0.2892510665
N  N20  1  0.79760000  0.29490000  0.00000000  1.0 -0.2892510665
N  N21  1  0.49730000  0.20240000  0.00000000  1.0 -0.2892510665
N  N22  1  0.29490000  0.49730000  0.00000000  1.0 -0.2892510665
N  N23  1  0.20240000  0.70510000  0.00000000  1.0 -0.2892510665
N  N24  1  0.50270000  0.79760000  0.00000000  1.0 -0.2892510665
Cl  Cl1  1  0.42990000  0.71495000  0.00000000  1.0 -0.4802869457
Cl  Cl2  1  0.28505000  0.71495000  0.00000000  1.0 -0.4802869457
Cl  Cl3  1  0.28505000  0.57010000  0.00000000  1.0 -0.4802869457
Cl  Cl4  1  0.57010000  0.28505000  0.00000000  1.0 -0.4802869457
Cl  Cl5  1  0.71495000  0.28505000  0.00000000  1.0 -0.4802869457
Cl  Cl6  1  0.71495000  0.42990000  0.00000000  1.0 -0.4802869457
Cl  Cl7  1  0.79195000  0.58390000  0.00000000  1.0 -0.3240440585
Cl  Cl8  1  0.79195000  0.20805000  0.00000000  1.0 -0.3464180627
Cl  Cl9  1  0.41610000  0.20805000  0.00000000  1.0 -0.3464180627
Cl  Cl10  1  0.20805000  0.41610000  0.00000000  1.0 -0.3268237509
Cl  Cl11  1  0.20805000  0.79195000  0.00000000  1.0 -0.3268237509
Cl  Cl12  1  0.58390000  0.79195000  0.00000000  1.0 -0.3268237509
O  O1  1  0.48399000  0.51601000  0.60560000  1.0 -0.7235118904
O  O2  1  0.48399000  0.96798000  0.60560000  1.0 -0.7262422327
O  O3  1  0.03202000  0.51601000  0.60560000  1.0 -0.7262422327
O  O4  1  0.51601000  0.48399000  0.60560000  1.0 -0.7262422327
O  O5  1  0.51601000  0.03202000  0.60560000  1.0 -0.7262422327
O  O6  1  0.96798000  0.48399000  0.60560000  1.0 -0.7262422327
O  O7  1  0.51601000  0.48399000  0.39440000  1.0 -0.7235118904
O  O8  1  0.96798000  0.48399000  0.39440000  1.0 -0.7235118904
O  O9  1  0.51601000  0.03202000  0.39440000  1.0 -0.7235118904
O  O10  1  0.48399000  0.51601000  0.39440000  1.0 -0.7235118904
O  O11  1  0.03202000  0.51601000  0.39440000  1.0 -0.7262422327
O  O12  1  0.48399000  0.96798000  0.39440000  1.0 -0.7262422327
O  O13  1  0.44390000  0.47688000  0.50000000  1.0 -0.7895626523
O  O14  1  0.52312000  0.96702000  0.50000000  1.0 -0.7895626523
O  O15  1  0.03298000  0.55610000  0.50000000  1.0 -0.7895626523
O  O16  1  0.55610000  0.52312000  0.50000000  1.0 -0.7895626523
O  O17  1  0.47688000  0.03298000  0.50000000  1.0 -0.7895626523
O  O18  1  0.96702000  0.44390000  0.50000000  1.0 -0.7895626523
O  O19  1  0.47688000  0.44390000  0.50000000  1.0 -0.7895626523
O  O20  1  0.96702000  0.52312000  0.50000000  1.0 -0.7895626523
O  O21  1  0.55610000  0.03298000  0.50000000  1.0 -0.7895626523
O  O22  1  0.52312000  0.55610000  0.50000000  1.0 -0.7895626523
O  O23  1  0.03298000  0.47688000  0.50000000  1.0 -0.7895626523
O  O24  1  0.44390000  0.96702000  0.50000000  1.0 -0.7895626523
O  O25  1  0.48198000  0.57901000  0.58060000  1.0 -0.5218703209
O  O26  1  0.42099000  0.90297000  0.58060000  1.0 -0.5218703209
O  O27  1  0.09703000  0.51802000  0.58060000  1.0 -0.5218703209
O  O28  1  0.51802000  0.42099000  0.58060000  1.0 -0.5218703209
O  O29  1  0.57901000  0.09703000  0.58060000  1.0 -0.5218703209
O  O30  1  0.90297000  0.48198000  0.58060000  1.0 -0.5218703209
O  O31  1  0.57901000  0.48198000  0.41940000  1.0 -0.5218703209
O  O32  1  0.90297000  0.42099000  0.41940000  1.0 -0.5218703209
O  O33  1  0.51802000  0.09703000  0.41940000  1.0 -0.5218703209
O  O34  1  0.42099000  0.51802000  0.41940000  1.0 -0.5218703209
O  O35  1  0.09703000  0.57901000  0.41940000  1.0 -0.5218703209
O  O36  1  0.48198000  0.90297000  0.41940000  1.0 -0.5218703209
O  O37  1  0.51802000  0.42099000  0.41940000  1.0 -0.5218703209
O  O38  1  0.57901000  0.09703000  0.41940000  1.0 -0.5218703209
O  O39  1  0.90297000  0.48198000  0.41940000  1.0 -0.5218703209
O  O40  1  0.48198000  0.57901000  0.41940000  1.0 -0.5218703209
O  O41  1  0.42099000  0.90297000  0.41940000  1.0 -0.5218703209
O  O42  1  0.09703000  0.51802000  0.41940000  1.0 -0.5251182713
O  O43  1  0.42099000  0.51802000  0.58060000  1.0 -0.5218703209
O  O44  1  0.09703000  0.57901000  0.58060000  1.0 -0.5218703209
O  O45  1  0.48198000  0.90297000  0.58060000  1.0 -0.5218703209
O  O46  1  0.57901000  0.48198000  0.58060000  1.0 -0.5218703209
O  O47  1  0.90297000  0.42099000  0.58060000  1.0 -0.5218703209
O  O48  1  0.51802000  0.09703000  0.58060000  1.0 -0.5218703209
O  O49  1  0.53115000  0.58538000  0.64460000  1.0 -0.5858346023
O  O50  1  0.41462000  0.94577000  0.64460000  1.0 -0.5829683309
O  O51  1  0.05423000  0.46885000  0.64460000  1.0 -0.5858346023
O  O52  1  0.46885000  0.41462000  0.64460000  1.0 -0.5829683309
O  O53  1  0.58538000  0.05423000  0.64460000  1.0 -0.5829683309
O  O54  1  0.94577000  0.53115000  0.64460000  1.0 -0.5829683309
O  O55  1  0.58538000  0.53115000  0.35540000  1.0 -0.5858346023
O  O56  1  0.94577000  0.41462000  0.35540000  1.0 -0.5829683309
O  O57  1  0.46885000  0.05423000  0.35540000  1.0 -0.5829683309
O  O58  1  0.41462000  0.46885000  0.35540000  1.0 -0.5829683309
O  O59  1  0.05423000  0.58538000  0.35540000  1.0 -0.5829683309
O  O60  1  0.53115000  0.94577000  0.35540000  1.0 -0.5829683309
O  O61  1  0.46885000  0.41462000  0.35540000  1.0 -0.5829683309
O  O62  1  0.58538000  0.05423000  0.35540000  1.0 -0.5829683309
O  O63  1  0.94577000  0.53115000  0.35540000  1.0 -0.5829683309
O  O64  1  0.53115000  0.58538000  0.35540000  1.0 -0.5858346023
O  O65  1  0.41462000  0.94577000  0.35540000  1.0 -0.5829683309
O  O66  1  0.05423000  0.46885000  0.35540000  1.0 -0.5858346023
O  O67  1  0.41462000  0.46885000  0.64460000  1.0 -0.5829683309
O  O68  1  0.05423000  0.58538000  0.64460000  1.0 -0.5829683309
O  O69  1  0.53115000  0.94577000  0.64460000  1.0 -0.5829683309
O  O70  1  0.58538000  0.53115000  0.64460000  1.0 -0.5858346023
O  O71  1  0.94577000  0.41462000  0.64460000  1.0 -0.5829683309
O  O72  1  0.46885000  0.05423000  0.64460000  1.0 -0.5829683309
O  O73  1  0.46056000  0.46056000  0.73600000  1.0 -0.4212151118
O  O74  1  0.53944000  0.00000000  0.73600000  1.0 -0.4212151118
O  O75  1  0.00000000  0.53944000  0.73600000  1.0 -0.4212151118
O  O76  1  0.53944000  0.53944000  0.73600000  1.0 -0.4212151118
O  O77  1  0.46056000  0.00000000  0.73600000  1.0 -0.4212151118
O  O78  1  0.00000000  0.46056000  0.73600000  1.0 -0.4212151118
O  O79  1  0.46056000  0.46056000  0.26400000  1.0 -0.4212151118
O  O80  1  0.00000000  0.53944000  0.26400000  1.0 -0.4212151118
O  O81  1  0.53944000  0.00000000  0.26400000  1.0 -0.4212151118
O  O82  1  0.53944000  0.53944000  0.26400000  1.0 -0.4212151118
O  O83  1  0.00000000  0.46056000  0.26400000  1.0 -0.4212151118
O  O84  1  0.46056000  0.00000000  0.26400000  1.0 -0.4212151118
O  O85  1  0.40925000  0.40925000  0.58780000  1.0 -0.8318966278
O  O86  1  0.59075000  0.00000000  0.58780000  1.0 -0.8318966278
O  O87  1  0.00000000  0.59075000  0.58780000  1.0 -0.8318966278
O  O88  1  0.59075000  0.59075000  0.58780000  1.0 -0.8318966278
O  O89  1  0.40925000  0.00000000  0.58780000  1.0 -0.8318966278
O  O90  1  0.00000000  0.40925000  0.58780000  1.0 -0.8318966278
O  O91  1  0.40925000  0.40925000  0.41220000  1.0 -0.8318966278
O  O92  1  0.00000000  0.59075000  0.41220000  1.0 -0.8318966278
O  O93  1  0.59075000  0.00000000  0.41220000  1.0 -0.8318966278
O  O94  1  0.59075000  0.59075000  0.41220000  1.0 -0.8318966278
O  O95  1  0.00000000  0.40925000  0.41220000  1.0 -0.8318966278
O  O96  1  0.40925000  0.00000000  0.41220000  1.0 -0.8318966278
