# DDEC6 charges by PACMAN v1.1 (https://github.com/mtap-research/PACMAN-charge/)
data_CABJOH_FSR_pacman
_symmetry_space_group_name_H-M   'P 1'
_cell_length_a   6.78830000
_cell_length_b   14.48400000
_cell_length_c   28.91670000
_cell_angle_alpha   90.00000000
_cell_angle_beta   93.29500000
_cell_angle_gamma   90.00000000
_symmetry_Int_Tables_number   1
_chemical_formula_structural   Ni2H18(C4N)7
_chemical_formula_sum   'Ni8 H72 C112 N28'
_cell_volume   2838.44000173
_cell_formula_units_Z   4
loop_
 _symmetry_equiv_pos_site_id
 _symmetry_equiv_pos_as_xyz
  1  'x, y, z'
loop_
 _atom_site_type_symbol
 _atom_site_label
 _atom_site_symmetry_multiplicity
 _atom_site_fract_x
 _atom_site_fract_y
 _atom_site_fract_z
 _atom_site_occupancy
 _atom_site_charge
Ni  Ni1  1  0.00136000  0.22574000  0.74642000  1.0 0.72242534
Ni  Ni2  1  0.99864000  0.72574000  0.75358000  1.0 0.72242534
Ni  Ni3  1  0.99864000  0.77426000  0.25358000  1.0 0.72242534
Ni  Ni4  1  0.00136000  0.27426000  0.24642000  1.0 0.72242534
Ni  Ni5  1  0.49640000  0.47554000  0.75377000  1.0 0.1280674788
Ni  Ni6  1  0.50360000  0.97554000  0.74623000  1.0 0.1280674788
Ni  Ni7  1  0.50360000  0.52446000  0.24623000  1.0 0.1280674788
Ni  Ni8  1  0.49640000  0.02446000  0.25377000  1.0 0.1280674788
H  H1  1  0.58640000  0.22100000  0.69780000  1.0 0.1201288083
H  H2  1  0.41360000  0.72100000  0.80220000  1.0 0.1201288083
H  H3  1  0.41360000  0.77900000  0.30220000  1.0 0.1201288083
H  H4  1  0.58640000  0.27900000  0.19780000  1.0 0.1201288083
H  H5  1  0.41600000  0.28030000  0.29550000  1.0 0.1201288083
H  H6  1  0.58400000  0.78030000  0.20450000  1.0 0.1201288083
H  H7  1  0.58400000  0.71970000  0.70450000  1.0 0.1201288083
H  H8  1  0.41600000  0.21970000  0.79550000  1.0 0.1201288083
H  H9  1  0.80890000  0.18150000  0.50770000  1.0 0.1117437084
H  H10  1  0.19110000  0.68150000  0.99230000  1.0 0.1117437084
H  H11  1  0.19110000  0.81850000  0.49230000  1.0 0.1117437084
H  H12  1  0.80890000  0.31850000  0.00770000  1.0 0.1117437084
H  H13  1  0.19180000  0.32120000  0.48530000  1.0 0.1201288083
H  H14  1  0.80820000  0.82120000  0.01470000  1.0 0.1201288083
H  H15  1  0.80820000  0.67880000  0.51470000  1.0 0.1201288083
H  H16  1  0.19180000  0.17880000  0.98530000  1.0 0.1201288083
H  H17  1  0.30020000  0.42260000  0.99670000  1.0 0.1117437084
H  H18  1  0.69980000  0.92260000  0.50330000  1.0 0.1117437084
H  H19  1  0.69980000  0.57740000  0.00330000  1.0 0.1117437084
H  H20  1  0.30020000  0.07740000  0.49670000  1.0 0.1117437084
H  H21  1  0.56780000  0.27290000  0.36900000  1.0 0.1280674788
H  H22  1  0.43220000  0.77290000  0.13100000  1.0 0.1280674788
H  H23  1  0.43220000  0.72710000  0.63100000  1.0 0.1280674788
H  H24  1  0.56780000  0.22710000  0.86900000  1.0 0.1280674788
H  H25  1  0.15290000  0.43650000  0.06690000  1.0 0.1117437084
H  H26  1  0.84710000  0.93650000  0.43310000  1.0 0.1117437084
H  H27  1  0.84710000  0.56350000  0.93310000  1.0 0.1117437084
H  H28  1  0.15290000  0.06350000  0.56690000  1.0 0.1117437084
H  H29  1  0.10860000  0.23410000  0.64680000  1.0 0.1117437084
H  H30  1  0.89140000  0.73410000  0.85320000  1.0 0.1117437084
H  H31  1  0.89140000  0.76590000  0.35320000  1.0 0.1117437084
H  H32  1  0.10860000  0.26590000  0.14680000  1.0 0.1117437084
H  H33  1  0.43310000  0.22820000  0.62450000  1.0 0.1280674788
H  H34  1  0.56690000  0.72820000  0.87550000  1.0 0.1280674788
H  H35  1  0.56690000  0.77180000  0.37550000  1.0 0.1280674788
H  H36  1  0.43310000  0.27180000  0.12450000  1.0 0.1280674788
H  H37  1  0.09290000  0.46470000  0.80190000  1.0 0.1117437084
H  H38  1  0.90710000  0.96470000  0.69810000  1.0 0.1117437084
H  H39  1  0.90710000  0.53530000  0.19810000  1.0 0.1117437084
H  H40  1  0.09290000  0.03530000  0.30190000  1.0 0.1117437084
H  H41  1  0.89230000  0.26540000  0.34590000  1.0 0.1117437084
H  H42  1  0.10770000  0.76540000  0.15410000  1.0 0.1117437084
H  H43  1  0.10770000  0.73460000  0.65410000  1.0 0.1117437084
H  H44  1  0.89230000  0.23460000  0.84590000  1.0 0.1117437084
H  H45  1  0.61180000  0.48210000  0.86770000  1.0 0.1008108643
H  H46  1  0.38820000  0.98210000  0.63230000  1.0 0.1008108643
H  H47  1  0.38820000  0.51790000  0.13230000  1.0 0.1008108643
H  H48  1  0.61180000  0.01790000  0.36770000  1.0 0.1008108643
H  H49  1  0.93700000  0.47540000  0.87070000  1.0 0.1280674788
H  H50  1  0.06300000  0.97540000  0.62930000  1.0 0.1280674788
H  H51  1  0.06300000  0.52460000  0.12930000  1.0 0.1280674788
H  H52  1  0.93700000  0.02460000  0.37070000  1.0 0.1280674788
H  H53  1  0.66020000  0.19180000  0.43380000  1.0 0.1117437084
H  H54  1  0.33980000  0.69180000  0.06620000  1.0 0.1117437084
H  H55  1  0.33980000  0.80820000  0.56620000  1.0 0.1117437084
H  H56  1  0.66020000  0.30820000  0.93380000  1.0 0.1117437084
H  H57  1  0.33940000  0.31040000  0.55940000  1.0 0.1201288083
H  H58  1  0.66060000  0.81040000  0.94060000  1.0 0.1201288083
H  H59  1  0.66060000  0.68960000  0.44060000  1.0 0.1201288083
H  H60  1  0.33940000  0.18960000  0.05940000  1.0 0.1201288083
H  H61  1  0.47260000  0.49380000  0.93830000  1.0 0.1201288083
H  H62  1  0.52740000  0.99380000  0.56170000  1.0 0.1201288083
H  H63  1  0.52740000  0.50620000  0.06170000  1.0 0.1201288083
H  H64  1  0.47260000  0.00620000  0.43830000  1.0 0.1201288083
H  H65  1  0.02680000  0.25980000  0.42080000  1.0 0.1280674788
H  H66  1  0.97320000  0.75980000  0.07920000  1.0 0.1280674788
H  H67  1  0.97320000  0.74020000  0.57920000  1.0 0.1280674788
H  H68  1  0.02680000  0.24020000  0.92080000  1.0 0.1280674788
H  H69  1  0.97280000  0.24370000  0.57220000  1.0 0.1280674788
H  H70  1  0.02720000  0.74370000  0.92780000  1.0 0.1280674788
H  H71  1  0.02720000  0.75630000  0.42780000  1.0 0.1280674788
H  H72  1  0.97280000  0.25630000  0.07220000  1.0 0.1280674788
C  C1  1  0.31270000  0.56800000  0.73812000  1.0 0.0504416494
C  C2  1  0.68730000  0.06800000  0.76188000  1.0 0.0504416494
C  C3  1  0.68730000  0.43200000  0.26188000  1.0 0.0504416494
C  C4  1  0.31270000  0.93200000  0.23812000  1.0 0.0504416494
C  C5  1  0.18580000  0.48580000  0.91274000  1.0 0.1117437084
C  C6  1  0.81420000  0.98580000  0.58726000  1.0 0.1117437084
C  C7  1  0.81420000  0.51420000  0.08726000  1.0 0.1117437084
C  C8  1  0.18580000  0.01420000  0.41274000  1.0 0.1117437084
C  C9  1  0.66550000  0.22550000  0.67182000  1.0 0.1008108643
C  C10  1  0.33450000  0.72550000  0.82818000  1.0 0.1008108643
C  C11  1  0.33450000  0.77450000  0.32818000  1.0 0.1008108643
C  C12  1  0.66550000  0.27450000  0.17182000  1.0 0.1008108643
C  C13  1  0.33630000  0.27550000  0.32133000  1.0 0.1008108643
C  C14  1  0.66370000  0.77550000  0.17867000  1.0 0.1008108643
C  C15  1  0.66370000  0.72450000  0.67867000  1.0 0.1008108643
C  C16  1  0.33630000  0.22450000  0.82133000  1.0 0.1008108643
C  C17  1  0.68280000  0.20970000  0.50332000  1.0 -0.1494021655
C  C18  1  0.31720000  0.70970000  0.99668000  1.0 -0.1494021655
C  C19  1  0.31720000  0.79030000  0.49668000  1.0 -0.1494021655
C  C20  1  0.68280000  0.29030000  0.00332000  1.0 -0.1494021655
C  C21  1  0.59050000  0.24400000  0.54163000  1.0 0.0590715231
C  C22  1  0.40950000  0.74400000  0.95837000  1.0 0.0590715231
C  C23  1  0.40950000  0.75600000  0.45837000  1.0 0.0590715231
C  C24  1  0.59050000  0.25600000  0.04163000  1.0 0.0590715231
C  C25  1  0.31730000  0.29250000  0.48963000  1.0 -0.1416970358
C  C26  1  0.68270000  0.79250000  0.01037000  1.0 -0.1416970358
C  C27  1  0.68270000  0.70750000  0.51037000  1.0 -0.1416970358
C  C28  1  0.31730000  0.20750000  0.98963000  1.0 -0.1416970358
C  C29  1  0.40800000  0.25810000  0.45155000  1.0 0.0590715231
C  C30  1  0.59200000  0.75810000  0.04845000  1.0 0.0590715231
C  C31  1  0.59200000  0.74190000  0.54845000  1.0 0.0590715231
C  C32  1  0.40800000  0.24190000  0.95155000  1.0 0.0590715231
C  C33  1  0.17810000  0.45430000  0.99794000  1.0 -0.1494021655
C  C34  1  0.82190000  0.95430000  0.50206000  1.0 -0.1494021655
C  C35  1  0.82190000  0.54570000  0.00206000  1.0 -0.1494021655
C  C36  1  0.17810000  0.04570000  0.49794000  1.0 -0.1494021655
C  C37  1  0.68510000  0.23800000  0.58897000  1.0 0.1201288083
C  C38  1  0.31490000  0.73800000  0.91103000  1.0 0.1201288083
C  C39  1  0.31490000  0.76200000  0.41103000  1.0 0.1201288083
C  C40  1  0.68510000  0.26200000  0.08897000  1.0 0.1201288083
C  C41  1  0.42790000  0.27120000  0.36517000  1.0 -0.1919119784
C  C42  1  0.57210000  0.77120000  0.13483000  1.0 -0.1919119784
C  C43  1  0.57210000  0.72880000  0.63483000  1.0 -0.1919119784
C  C44  1  0.42790000  0.22880000  0.86517000  1.0 -0.1919119784
C  C45  1  0.08990000  0.46240000  0.03971000  1.0 -0.1595552282
C  C46  1  0.91010000  0.96240000  0.46029000  1.0 -0.1595552282
C  C47  1  0.91010000  0.53760000  0.96029000  1.0 -0.1595552282
C  C48  1  0.08990000  0.03760000  0.53971000  1.0 -0.1595552282
C  C49  1  0.31480000  0.26450000  0.40404000  1.0 0.1201288083
C  C50  1  0.68520000  0.76450000  0.09596000  1.0 0.1201288083
C  C51  1  0.68520000  0.73550000  0.59596000  1.0 0.1201288083
C  C52  1  0.31480000  0.23550000  0.90404000  1.0 0.1201288083
C  C53  1  0.96900000  0.23340000  0.64205000  1.0 0.0804845246
C  C54  1  0.03100000  0.73340000  0.85795000  1.0 0.0804845246
C  C55  1  0.03100000  0.76660000  0.35795000  1.0 0.0804845246
C  C56  1  0.96900000  0.26660000  0.14205000  1.0 0.0804845246
C  C57  1  0.57300000  0.23020000  0.62807000  1.0 -0.2018052818
C  C58  1  0.42700000  0.73020000  0.87193000  1.0 -0.2018052818
C  C59  1  0.42700000  0.76980000  0.37193000  1.0 -0.2018052818
C  C60  1  0.57300000  0.26980000  0.12807000  1.0 -0.2018052818
C  C61  1  0.17140000  0.47060000  0.83004000  1.0 0.1008108643
C  C62  1  0.82860000  0.97060000  0.66996000  1.0 0.1008108643
C  C63  1  0.82860000  0.52940000  0.16996000  1.0 0.1008108643
C  C64  1  0.17140000  0.02940000  0.33004000  1.0 0.1008108643
C  C65  1  0.03190000  0.26700000  0.35082000  1.0 0.0804845246
C  C66  1  0.96810000  0.76700000  0.14918000  1.0 0.0804845246
C  C67  1  0.96810000  0.73300000  0.64918000  1.0 0.0804845246
C  C68  1  0.03190000  0.23300000  0.85082000  1.0 0.0804845246
C  C69  1  0.47210000  0.48080000  0.86835000  1.0 0.0504416494
C  C70  1  0.52790000  0.98080000  0.63165000  1.0 0.0504416494
C  C71  1  0.52790000  0.51920000  0.13165000  1.0 0.0504416494
C  C72  1  0.47210000  0.01920000  0.36835000  1.0 0.0504416494
C  C73  1  0.07700000  0.47700000  0.87115000  1.0 -0.1919119784
C  C74  1  0.92300000  0.97700000  0.62885000  1.0 -0.1919119784
C  C75  1  0.92300000  0.52300000  0.12885000  1.0 -0.1919119784
C  C76  1  0.07700000  0.02300000  0.37115000  1.0 -0.1919119784
C  C77  1  0.59460000  0.21610000  0.45928000  1.0 -0.1494021655
C  C78  1  0.40540000  0.71610000  0.04072000  1.0 -0.1494021655
C  C79  1  0.40540000  0.78390000  0.54072000  1.0 -0.1494021655
C  C80  1  0.59460000  0.28390000  0.95928000  1.0 -0.1494021655
C  C81  1  0.08980000  0.49230000  0.95758000  1.0 0.0590715231
C  C82  1  0.91020000  0.99230000  0.54242000  1.0 0.0590715231
C  C83  1  0.91020000  0.50770000  0.04242000  1.0 0.0590715231
C  C84  1  0.08980000  0.00770000  0.45758000  1.0 0.0590715231
C  C85  1  0.40520000  0.28610000  0.53395000  1.0 -0.1494021655
C  C86  1  0.59480000  0.78610000  0.96605000  1.0 -0.1494021655
C  C87  1  0.59480000  0.71390000  0.46605000  1.0 -0.1494021655
C  C88  1  0.40520000  0.21390000  0.03395000  1.0 -0.1494021655
C  C89  1  0.39040000  0.48780000  0.91079000  1.0 -0.2018052818
C  C90  1  0.60960000  0.98780000  0.58921000  1.0 -0.2018052818
C  C91  1  0.60960000  0.51220000  0.08921000  1.0 -0.2018052818
C  C92  1  0.39040000  0.01220000  0.41079000  1.0 -0.2018052818
C  C93  1  0.11090000  0.26320000  0.39566000  1.0 -0.2057120667
C  C94  1  0.88910000  0.76320000  0.10434000  1.0 -0.2057120667
C  C95  1  0.88910000  0.73680000  0.60434000  1.0 -0.2057120667
C  C96  1  0.11090000  0.23680000  0.89566000  1.0 -0.2057120667
C  C97  1  0.88900000  0.23910000  0.59730000  1.0 -0.2018052818
C  C98  1  0.11100000  0.73910000  0.90270000  1.0 -0.2018052818
C  C99  1  0.11100000  0.76090000  0.40270000  1.0 -0.2018052818
C  C100  1  0.88900000  0.26090000  0.09730000  1.0 -0.2018052818
C  C101  1  0.68960000  0.38500000  0.76185000  1.0 0.0393873977
C  C102  1  0.31040000  0.88500000  0.73815000  1.0 0.0393873977
C  C103  1  0.31040000  0.61500000  0.23815000  1.0 0.0393873977
C  C104  1  0.68960000  0.11500000  0.26185000  1.0 0.0393873977
C  C105  1  0.31610000  0.38410000  0.73423000  1.0 0.0504416494
C  C106  1  0.68390000  0.88410000  0.76577000  1.0 0.0504416494
C  C107  1  0.68390000  0.61590000  0.26577000  1.0 0.0504416494
C  C108  1  0.31610000  0.11590000  0.23423000  1.0 0.0504416494
C  C109  1  0.68830000  0.56590000  0.76602000  1.0 0.0393873977
C  C110  1  0.31170000  0.06590000  0.73398000  1.0 0.0393873977
C  C111  1  0.31170000  0.43410000  0.23398000  1.0 0.0393873977
C  C112  1  0.68830000  0.93410000  0.26602000  1.0 0.0393873977
N  N1  1  0.19740000  0.62690000  0.73373000  1.0 -0.3781447923
N  N2  1  0.80260000  0.12690000  0.76627000  1.0 -0.3781447923
N  N3  1  0.80260000  0.37310000  0.26627000  1.0 -0.3781447923
N  N4  1  0.19740000  0.87310000  0.23373000  1.0 -0.3781447923
N  N5  1  0.13980000  0.27300000  0.31369000  1.0 -0.2018052818
N  N6  1  0.86020000  0.77300000  0.18631000  1.0 -0.2018052818
N  N7  1  0.86020000  0.72700000  0.68631000  1.0 -0.2018052818
N  N8  1  0.13980000  0.22700000  0.81369000  1.0 -0.2018052818
N  N9  1  0.20120000  0.32570000  0.72739000  1.0 -0.3781447923
N  N10  1  0.79880000  0.82570000  0.77261000  1.0 -0.3781447923
N  N11  1  0.79880000  0.67430000  0.27261000  1.0 -0.3781447923
N  N12  1  0.20120000  0.17430000  0.22739000  1.0 -0.3781447923
N  N13  1  0.86210000  0.22700000  0.67918000  1.0 -0.2018052818
N  N14  1  0.13790000  0.72700000  0.82082000  1.0 -0.2018052818
N  N15  1  0.13790000  0.77300000  0.32082000  1.0 -0.2018052818
N  N16  1  0.86210000  0.27300000  0.17918000  1.0 -0.2018052818
N  N17  1  0.80880000  0.32810000  0.76424000  1.0 -0.373438643
N  N18  1  0.19120000  0.82810000  0.73576000  1.0 -0.373438643
N  N19  1  0.19120000  0.67190000  0.23576000  1.0 -0.373438643
N  N20  1  0.80880000  0.17190000  0.26424000  1.0 -0.373438643
N  N21  1  0.36650000  0.47230000  0.82804000  1.0 -0.1919119784
N  N22  1  0.63350000  0.97230000  0.67196000  1.0 -0.1919119784
N  N23  1  0.63350000  0.52770000  0.17196000  1.0 -0.1919119784
N  N24  1  0.36650000  0.02770000  0.32804000  1.0 -0.1919119784
N  N25  1  0.80600000  0.62290000  0.77129000  1.0 -0.3781447923
N  N26  1  0.19400000  0.12290000  0.72871000  1.0 -0.3781447923
N  N27  1  0.19400000  0.37710000  0.22871000  1.0 -0.3781447923
N  N28  1  0.80600000  0.87710000  0.27129000  1.0 -0.3781447923
