# DDEC6 charges by PACMAN v1.1 (https://github.com/mtap-research/PACMAN-charge/)
data_CACBUG_ASR_pacman
_symmetry_space_group_name_H-M   'P 1'
_cell_length_a   7.40830000
_cell_length_b   10.89000000
_cell_length_c   13.63200000
_cell_angle_alpha   66.67000000
_cell_angle_beta   78.17000000
_cell_angle_gamma   71.78000000
_symmetry_Int_Tables_number   1
_chemical_formula_structural   ZnH10C16N3O4
_chemical_formula_sum   'Zn2 H20 C32 N6 O8'
_cell_volume   955.06570008
_cell_formula_units_Z   2
loop_
 _symmetry_equiv_pos_site_id
 _symmetry_equiv_pos_as_xyz
  1  'x, y, z'
loop_
 _atom_site_type_symbol
 _atom_site_label
 _atom_site_symmetry_multiplicity
 _atom_site_fract_x
 _atom_site_fract_y
 _atom_site_fract_z
 _atom_site_occupancy
 _atom_site_charge
Zn  Zn1  1  0.00000000  0.50000000  0.00000000  1.0 0.6861894028
Zn  Zn2  1  0.50000000  0.00000000  0.00000000  1.0 0.785784115
H  H1  1  0.95410000  0.29380000  0.23130000  1.0 0.1281864764
H  H2  1  0.04590000  0.70620000  0.76870000  1.0 0.1281864764
H  H3  1  0.99180000  0.67870000  0.12450000  1.0 0.1203390654
H  H4  1  0.00820000  0.32130000  0.87550000  1.0 0.1203390654
H  H5  1  0.95260000  0.27390000  0.40700000  1.0 0.1365239517
H  H6  1  0.04740000  0.72610000  0.59300000  1.0 0.1365239517
H  H7  1  0.99950000  0.66960000  0.29590000  1.0 0.1281864764
H  H8  1  0.00050000  0.33040000  0.70410000  1.0 0.1281864764
H  H9  1  0.97780000  0.36690000  0.53830000  1.0 0.1203390654
H  H10  1  0.02220000  0.63310000  0.46170000  1.0 0.1203390654
H  H11  1  0.39570000  0.72360000  0.13550000  1.0 0.1054309697
H  H12  1  0.60430000  0.27640000  0.86450000  1.0 0.0993638085
H  H13  1  0.60350000  0.95500000  0.22040000  1.0 0.1281864764
H  H14  1  0.39650000  0.04500000  0.77960000  1.0 0.1281864764
H  H15  1  0.40120000  0.55950000  0.30750000  1.0 0.1281864764
H  H16  1  0.59880000  0.44050000  0.69250000  1.0 0.1281864764
H  H17  1  0.59900000  0.80400000  0.39710000  1.0 0.1365239517
H  H18  1  0.40100000  0.19600000  0.60290000  1.0 0.1365239517
H  H19  1  0.52140000  0.59710000  0.53700000  1.0 0.1203390654
H  H20  1  0.47860000  0.40290000  0.46300000  1.0 0.1203390654
C  C1  1  0.65930000  0.72760000  0.95287000  1.0 0.5412149327
C  C2  1  0.34070000  0.27240000  0.04713000  1.0 0.5412149327
C  C3  1  0.61390000  0.37090000  0.04385000  1.0 0.0993638085
C  C4  1  0.38610000  0.62910000  0.95615000  1.0 0.0993638085
C  C5  1  0.57640000  0.60710000  0.97337000  1.0 0.0399007135
C  C6  1  0.42360000  0.39290000  0.02663000  1.0 0.0399007135
C  C7  1  0.96360000  0.37060000  0.24480000  1.0 0.1054309697
C  C8  1  0.03640000  0.62940000  0.75520000  1.0 0.1054309697
C  C9  1  0.98660000  0.59490000  0.18300000  1.0 0.0898100482
C  C10  1  0.01340000  0.40510000  0.81700000  1.0 0.0898100482
C  C11  1  0.74670000  0.22820000  0.09390000  1.0 0.5412149327
C  C12  1  0.25330000  0.77180000  0.90610000  1.0 0.5412149327
C  C13  1  0.96430000  0.35780000  0.35020000  1.0 -0.1990628085
C  C14  1  0.03570000  0.64220000  0.64980000  1.0 -0.1990628085
C  C15  1  0.99080000  0.59070000  0.28510000  1.0 -0.1990628085
C  C16  1  0.00920000  0.40930000  0.71490000  1.0 -0.1990628085
C  C17  1  0.98210000  0.46740000  0.37330000  1.0 0.1499027358
C  C18  1  0.01790000  0.53260000  0.62670000  1.0 0.1499027358
C  C19  1  0.98940000  0.45260000  0.48400000  1.0 -0.1436103387
C  C20  1  0.01060000  0.54740000  0.51600000  1.0 -0.1453029467
C  C21  1  0.44090000  0.73840000  0.18920000  1.0 0.0898100482
C  C22  1  0.55910000  0.26160000  0.81080000  1.0 0.0898100482
C  C23  1  0.56000000  0.87470000  0.23870000  1.0 0.1054309697
C  C24  1  0.44000000  0.12530000  0.76130000  1.0 0.1054309697
C  C25  1  0.44160000  0.64040000  0.29210000  1.0 -0.1990628085
C  C26  1  0.55840000  0.35960000  0.70790000  1.0 -0.1990628085
C  C27  1  0.56000000  0.78370000  0.34420000  1.0 -0.1990628085
C  C28  1  0.44000000  0.21630000  0.65580000  1.0 -0.1990628085
C  C29  1  0.50260000  0.66200000  0.37320000  1.0 0.1499027358
C  C30  1  0.49740000  0.33800000  0.62680000  1.0 0.1499027358
C  C31  1  0.50720000  0.56560000  0.48390000  1.0 -0.1436103387
C  C32  1  0.49280000  0.43440000  0.51610000  1.0 -0.1436103387
N  N1  1  0.68910000  0.47920000  0.01587000  1.0 -0.2424282535
N  N2  1  0.31090000  0.52080000  0.98413000  1.0 -0.2424282535
N  N3  1  0.97560000  0.48660000  0.16161000  1.0 -0.210426475
N  N4  1  0.02440000  0.51340000  0.83839000  1.0 -0.210426475
N  N5  1  0.50090000  0.85360000  0.16128000  1.0 -0.210426475
N  N6  1  0.49910000  0.14640000  0.83872000  1.0 -0.210426475
O  O1  1  0.83510000  0.70163000  0.95828000  1.0 -0.492118965
O  O2  1  0.16490000  0.29837000  0.04172000  1.0 -0.492118965
O  O3  1  0.54020000  0.84233000  0.93736000  1.0 -0.5094410284
O  O4  1  0.45980000  0.15767000  0.06264000  1.0 -0.5094410284
O  O5  1  0.85960000  0.18140000  0.02686000  1.0 -0.5597630842
O  O6  1  0.14040000  0.81860000  0.97314000  1.0 -0.5597630842
O  O7  1  0.73600000  0.17640000  0.19354000  1.0 -0.5882545515
O  O8  1  0.26400000  0.82360000  0.80646000  1.0 -0.5882545515
