# DDEC6 charges by PACMAN v1.1 (https://github.com/mtap-research/PACMAN-charge/)
data_CADPIH_ASR_pacman
_symmetry_space_group_name_H-M   'P 1'
_cell_length_a   10.28300000
_cell_length_b   12.09600000
_cell_length_c   16.91100000
_cell_angle_alpha   76.07000000
_cell_angle_beta   72.38000000
_cell_angle_gamma   65.20000000
_symmetry_Int_Tables_number   1
_chemical_formula_structural   Ga6P7H3(O15F)2
_chemical_formula_sum   'Ga12 P14 H6 O60 F4'
_cell_volume   1804.07471342
_cell_formula_units_Z   2
loop_
 _symmetry_equiv_pos_site_id
 _symmetry_equiv_pos_as_xyz
  1  'x, y, z'
loop_
 _atom_site_type_symbol
 _atom_site_label
 _atom_site_symmetry_multiplicity
 _atom_site_fract_x
 _atom_site_fract_y
 _atom_site_fract_z
 _atom_site_occupancy
 _atom_site_charge
Ga  Ga1  1  0.27335000  0.49810000  0.76132000  1.0 1.5117141598
Ga  Ga2  1  0.72665000  0.50190000  0.23868000  1.0 1.50305327
Ga  Ga3  1  0.53427000  0.00087000  0.74472000  1.0 1.5117141598
Ga  Ga4  1  0.46573000  0.99913000  0.25528000  1.0 1.5117141598
Ga  Ga5  1  0.85725000  0.59352000  0.89893000  1.0 1.5117141598
Ga  Ga6  1  0.14275000  0.40648000  0.10107000  1.0 1.5117141598
Ga  Ga7  1  0.34526000  0.90775000  0.60375000  1.0 1.5117141598
Ga  Ga8  1  0.65474000  0.09225000  0.39625000  1.0 1.5117141598
Ga  Ga9  1  0.85072000  0.73977000  0.69607000  1.0 1.4834638856
Ga  Ga10  1  0.14928000  0.26023000  0.30393000  1.0 1.4834638856
Ga  Ga11  1  0.28706000  0.75935000  0.80608000  1.0 1.4874318065
Ga  Ga12  1  0.71294000  0.24065000  0.19392000  1.0 1.4834638856
P  P1  1  0.11510000  0.59935000  0.93639000  1.0 1.5557773532
P  P2  1  0.88490000  0.40065000  0.06361000  1.0 1.5524246516
P  P3  1  0.00100000  0.45861000  0.73743000  1.0 1.5291784705
P  P4  1  0.99900000  0.54139000  0.26257000  1.0 1.5291784705
P  P5  1  0.19700000  0.04184000  0.76537000  1.0 1.50305327
P  P6  1  0.80300000  0.95816000  0.23463000  1.0 1.50305327
P  P7  1  0.65060000  0.90897000  0.56652000  1.0 1.5524246516
P  P8  1  0.34940000  0.09103000  0.43348000  1.0 1.5557773532
P  P9  1  0.57180000  0.75124000  0.84528000  1.0 1.5291784705
P  P10  1  0.42820000  0.24876000  0.15472000  1.0 1.5291784705
P  P11  1  0.17010000  0.74404000  0.65691000  1.0 1.5379708232
P  P12  1  0.82990000  0.25596000  0.34309000  1.0 1.5291784705
P  P13  1  0.56020000  0.25554000  0.73445000  1.0 1.4114554348
P  P14  1  0.43980000  0.74446000  0.26555000  1.0 1.4114554348
H  H1  1  0.01450000  0.28910000  0.73970000  1.0 0.4434399279
H  H2  1  0.98550000  0.71090000  0.26030000  1.0 0.4434399279
H  H3  1  0.93830000  0.75700000  0.81180000  1.0 0.4571725549
H  H4  1  0.06170000  0.24300000  0.18820000  1.0 0.4571725549
H  H5  1  0.51660000  0.75700000  0.69790000  1.0 0.4523655447
H  H6  1  0.48340000  0.24300000  0.30210000  1.0 0.4523655447
O  O1  1  0.66870000  0.71270000  0.75990000  1.0 -0.7357591568
O  O2  1  0.33130000  0.28730000  0.24010000  1.0 -0.7357591568
O  O3  1  0.14270000  0.78490000  0.74120000  1.0 -0.7357591568
O  O4  1  0.85730000  0.21510000  0.25880000  1.0 -0.7357591568
O  O5  1  0.15910000  0.70920000  0.90400000  1.0 -0.6831202485
O  O6  1  0.84090000  0.29080000  0.09600000  1.0 -0.6831202485
O  O7  1  0.52070000  0.89190000  0.84160000  1.0 -0.6831202485
O  O8  1  0.47930000  0.10810000  0.15840000  1.0 -0.6831202485
O  O9  1  0.25530000  0.60290000  0.66100000  1.0 -0.6831202485
O  O10  1  0.74470000  0.39710000  0.33900000  1.0 -0.6831202485
O  O11  1  0.54460000  0.86800000  0.54280000  1.0 -0.6972130565
O  O12  1  0.45540000  0.13200000  0.45720000  1.0 -0.6972130565
O  O13  1  0.26040000  0.80780000  0.58690000  1.0 -0.6304851351
O  O14  1  0.73960000  0.19220000  0.41310000  1.0 -0.6304851351
O  O15  1  0.94490000  0.64300000  0.96200000  1.0 -0.7132682381
O  O16  1  0.05510000  0.35700000  0.03800000  1.0 -0.7132682381
O  O17  1  0.77040000  0.79580000  0.59860000  1.0 -0.6717651812
O  O18  1  0.22960000  0.20420000  0.40140000  1.0 -0.6717651812
O  O19  1  0.19780000  0.92750000  0.82680000  1.0 -0.7186213909
O  O20  1  0.80220000  0.07250000  0.17320000  1.0 -0.7186213909
O  O21  1  0.32240000  0.08100000  0.76210000  1.0 -0.6611493208
O  O22  1  0.67760000  0.91900000  0.23790000  1.0 -0.6611493208
O  O23  1  0.72230000  0.97460000  0.48920000  1.0 -0.6304851351
O  O24  1  0.27770000  0.02540000  0.51080000  1.0 -0.6304851351
O  O25  1  0.95010000  0.56970000  0.67420000  1.0 -0.6875821827
O  O26  1  0.04990000  0.43030000  0.32580000  1.0 -0.6875821827
O  O27  1  0.15830000  0.51570000  0.86950000  1.0 -0.7289633729
O  O28  1  0.84170000  0.48430000  0.13050000  1.0 -0.7289633729
O  O29  1  0.43960000  0.71250000  0.86720000  1.0 -0.641145704
O  O30  1  0.56040000  0.28750000  0.13280000  1.0 -0.641145704
O  O31  1  0.17940000  0.52840000  0.01160000  1.0 -0.6304851351
O  O32  1  0.82060000  0.47160000  0.98840000  1.0 -0.6304851351
O  O33  1  0.02350000  0.78070000  0.63360000  1.0 -0.6479963241
O  O34  1  0.97650000  0.21930000  0.36640000  1.0 -0.6479963241
O  O35  1  0.55260000  0.13070000  0.77320000  1.0 -0.6611493208
O  O36  1  0.44740000  0.86930000  0.22680000  1.0 -0.6479963241
O  O37  1  0.20490000  0.02580000  0.67550000  1.0 -0.6972130565
O  O38  1  0.79510000  0.97420000  0.32450000  1.0 -0.6972130565
O  O39  1  0.42360000  0.35110000  0.78170000  1.0 -0.6479963241
O  O40  1  0.57640000  0.64890000  0.21830000  1.0 -0.6479963241
O  O41  1  0.16230000  0.41750000  0.73930000  1.0 -0.641145704
O  O42  1  0.83770000  0.58250000  0.26070000  1.0 -0.6304851351
O  O43  1  0.55330000  0.99630000  0.63310000  1.0 -0.7289633729
O  O44  1  0.44670000  0.00370000  0.36690000  1.0 -0.7186213909
O  O45  1  0.98490000  0.35300000  0.70850000  1.0 -0.4849037705
O  O46  1  0.01510000  0.64700000  0.29150000  1.0 -0.4849037705
O  O47  1  0.90250000  0.47570000  0.82660000  1.0 -0.6717651812
O  O48  1  0.09750000  0.52430000  0.17340000  1.0 -0.6717651812
O  O49  1  0.91170000  0.70030000  0.80120000  1.0 -0.8405222473
O  O50  1  0.08830000  0.29970000  0.19880000  1.0 -0.8405222473
O  O51  1  0.41260000  0.80010000  0.70070000  1.0 -0.8560411511
O  O52  1  0.58740000  0.19990000  0.29930000  1.0 -0.8560411511
O  O53  1  0.65500000  0.68750000  0.91550000  1.0 -0.6479963241
O  O54  1  0.34500000  0.31250000  0.08450000  1.0 -0.6479963241
O  O55  1  0.69850000  0.25780000  0.74890000  1.0 -0.5872270642
O  O56  1  0.30150000  0.74220000  0.25110000  1.0 -0.5872270642
O  O57  1  0.05330000  0.14630000  0.79470000  1.0 -0.5396027741
O  O58  1  0.94670000  0.85370000  0.20530000  1.0 -0.5396027741
O  O59  1  0.56430000  0.28050000  0.64110000  1.0 -0.5695297597
O  O60  1  0.43570000  0.71950000  0.35890000  1.0 -0.5695297597
F  F1  1  0.75270000  0.91480000  0.72120000  1.0 -0.4139115987
F  F2  1  0.24730000  0.08520000  0.27880000  1.0 -0.415319371
F  F3  1  0.38310000  0.58390000  0.78180000  1.0 -0.4274252532
F  F4  1  0.61690000  0.41610000  0.21820000  1.0 -0.4274252532
