# DDEC6 charges by PACMAN v1.1 (https://github.com/mtap-research/PACMAN-charge/)
data_CADZIT_ASR_pacman
_symmetry_space_group_name_H-M   'P 1'
_cell_length_a   14.70800000
_cell_length_b   14.70800000
_cell_length_c   19.96100000
_cell_angle_alpha   49.91570000
_cell_angle_beta   130.08400000
_cell_angle_gamma   156.13900000
_symmetry_Int_Tables_number   1
_chemical_formula_structural   ZnH18C22(N2O3)2
_chemical_formula_sum   'Zn2 H36 C44 N8 O12'
_cell_volume   1315.13204258
_cell_formula_units_Z   2
loop_
 _symmetry_equiv_pos_site_id
 _symmetry_equiv_pos_as_xyz
  1  'x, y, z'
loop_
 _atom_site_type_symbol
 _atom_site_label
 _atom_site_symmetry_multiplicity
 _atom_site_fract_x
 _atom_site_fract_y
 _atom_site_fract_z
 _atom_site_occupancy
 _atom_site_charge
Zn  Zn1  1  0.37862000  0.37862000  0.75000000  1.0 0.7409397799
Zn  Zn2  1  0.62138000  0.62138000  0.25000000  1.0 0.7409397799
H  H1  1  0.54840000  0.32420000  0.76890000  1.0 0.1180659633
H  H2  1  0.32420000  0.54840000  0.73110000  1.0 0.1180659633
H  H3  1  0.45160000  0.67580000  0.23110000  1.0 0.1180659633
H  H4  1  0.67580000  0.45160000  0.26890000  1.0 0.1180659633
H  H5  1  0.86200000  0.47200000  0.83540000  1.0 0.1397909109
H  H6  1  0.47200000  0.86200000  0.66460000  1.0 0.1397909109
H  H7  1  0.13800000  0.52800000  0.16460000  1.0 0.1397909109
H  H8  1  0.52800000  0.13800000  0.33540000  1.0 0.1397909109
H  H9  1  0.16070000  0.90810000  0.91930000  1.0 0.1397909109
H  H10  1  0.90810000  0.16070000  0.58070000  1.0 0.1397909109
H  H11  1  0.83930000  0.09190000  0.08070000  1.0 0.1397909109
H  H12  1  0.09190000  0.83930000  0.41930000  1.0 0.1397909109
H  H13  1  0.83600000  0.74240000  0.85280000  1.0 0.1180659633
H  H14  1  0.74240000  0.83600000  0.64720000  1.0 0.1180659633
H  H15  1  0.16400000  0.25760000  0.14720000  1.0 0.1180659633
H  H16  1  0.25760000  0.16400000  0.35280000  1.0 0.1180659633
H  H17  1  0.15400000  0.63760000  0.87970000  1.0 0.1397909109
H  H18  1  0.63760000  0.15400000  0.62030000  1.0 0.1397909109
H  H19  1  0.84600000  0.36240000  0.12030000  1.0 0.1397909109
H  H20  1  0.36240000  0.84600000  0.37970000  1.0 0.1397909109
H  H21  1  0.42030000  0.87670000  0.89720000  1.0 0.1581004027
H  H22  1  0.87670000  0.42030000  0.60280000  1.0 0.1581004027
H  H23  1  0.57970000  0.12330000  0.10280000  1.0 0.1581004027
H  H24  1  0.12330000  0.57970000  0.39720000  1.0 0.1581004027
H  H25  1  0.29200000  0.67340000  0.97710000  1.0 0.1581004027
H  H26  1  0.67340000  0.29200000  0.52290000  1.0 0.1581004027
H  H27  1  0.70800000  0.32660000  0.02290000  1.0 0.1581004027
H  H28  1  0.32660000  0.70800000  0.47710000  1.0 0.1581004027
H  H29  1  0.92750000  0.83870000  0.64090000  1.0 0.1349030572
H  H30  1  0.83870000  0.92750000  0.85910000  1.0 0.1349030572
H  H31  1  0.07250000  0.16130000  0.35910000  1.0 0.1349030572
H  H32  1  0.16130000  0.07250000  0.14090000  1.0 0.1397909109
H  H33  1  0.63650000  0.49370000  0.53490000  1.0 0.3454654354
H  H34  1  0.49370000  0.63650000  0.96510000  1.0 0.3454654354
H  H35  1  0.36350000  0.50630000  0.46510000  1.0 0.3454654354
H  H36  1  0.50630000  0.36350000  0.03490000  1.0 0.3454654354
C  C1  1  0.67280000  0.44180000  0.80040000  1.0 0.0965693134
C  C2  1  0.44180000  0.67280000  0.69960000  1.0 0.0965693134
C  C3  1  0.32720000  0.55820000  0.19960000  1.0 0.0965693134
C  C4  1  0.55820000  0.32720000  0.30040000  1.0 0.0965693134
C  C5  1  0.86190000  0.53130000  0.83960000  1.0 -0.1669811618
C  C6  1  0.53130000  0.86190000  0.66040000  1.0 -0.1669811618
C  C7  1  0.13810000  0.46870000  0.16040000  1.0 -0.1669811618
C  C8  1  0.46870000  0.13810000  0.33960000  1.0 -0.1669811618
C  C9  1  0.05021000  0.70919000  0.88471000  1.0 0.0726705927
C  C10  1  0.70919000  0.05021000  0.61529000  1.0 0.0726705927
C  C11  1  0.94979000  0.29081000  0.11529000  1.0 0.0726705927
C  C12  1  0.29081000  0.94979000  0.38471000  1.0 0.0726705927
C  C13  1  0.03770000  0.78850000  0.88940000  1.0 -0.1669811618
C  C14  1  0.78850000  0.03770000  0.61060000  1.0 -0.1669811618
C  C15  1  0.96230000  0.21150000  0.11060000  1.0 -0.1669811618
C  C16  1  0.21150000  0.96230000  0.38940000  1.0 -0.1669811618
C  C17  1  0.84235000  0.68805000  0.84945000  1.0 0.094743802
C  C18  1  0.68805000  0.84235000  0.65055000  1.0 0.094743802
C  C19  1  0.15765000  0.31195000  0.15055000  1.0 0.094743802
C  C20  1  0.31195000  0.15765000  0.34945000  1.0 0.094743802
C  C21  1  0.25830000  0.81210000  0.92970000  1.0 0.2532926712
C  C22  1  0.81210000  0.25830000  0.57030000  1.0 0.2532926712
C  C23  1  0.74170000  0.18790000  0.07030000  1.0 0.2532926712
C  C24  1  0.18790000  0.74170000  0.42970000  1.0 0.2532926712
C  C25  1  0.28340000  0.74400000  0.92010000  1.0 -0.4869353932
C  C26  1  0.74400000  0.28340000  0.57990000  1.0 -0.4869353932
C  C27  1  0.71660000  0.25600000  0.07990000  1.0 -0.4869353932
C  C28  1  0.25600000  0.71660000  0.42010000  1.0 -0.4869353932
C  C29  1  0.23640000  0.26680000  0.60675000  1.0 0.5556826729
C  C30  1  0.26680000  0.23640000  0.89325000  1.0 0.5556826729
C  C31  1  0.76360000  0.73320000  0.39325000  1.0 0.5556826729
C  C32  1  0.73320000  0.76360000  0.10675000  1.0 0.5556826729
C  C33  1  0.11465000  0.13035000  0.55113000  1.0 -0.1403232676
C  C34  1  0.13035000  0.11465000  0.94887000  1.0 -0.1403232676
C  C35  1  0.88535000  0.86965000  0.44887000  1.0 -0.1403232676
C  C36  1  0.86965000  0.88535000  0.05113000  1.0 -0.1403232676
C  C37  1  0.95730000  0.90410000  0.58421000  1.0 -0.1940671962
C  C38  1  0.90410000  0.95730000  0.91579000  1.0 -0.1940671962
C  C39  1  0.04270000  0.09590000  0.41579000  1.0 -0.1940671962
C  C40  1  0.09590000  0.04270000  0.08421000  1.0 -0.1940671962
C  C41  1  0.84310000  0.77330000  0.53420000  1.0 0.2613643247
C  C42  1  0.77330000  0.84310000  0.96580000  1.0 0.2613643247
C  C43  1  0.15690000  0.22670000  0.46580000  1.0 0.2613643247
C  C44  1  0.22670000  0.15690000  0.03420000  1.0 0.2613643247
N  N1  1  0.66050000  0.51550000  0.80573000  1.0 -0.2379008915
N  N2  1  0.51550000  0.66050000  0.69427000  1.0 -0.2379008915
N  N3  1  0.33950000  0.48450000  0.19427000  1.0 -0.2379008915
N  N4  1  0.48450000  0.33950000  0.30573000  1.0 -0.2379008915
N  N5  1  0.40200000  0.95220000  0.97860000  1.0 -0.264745788
N  N6  1  0.95220000  0.40200000  0.52140000  1.0 -0.264745788
N  N7  1  0.59800000  0.04780000  0.02140000  1.0 -0.2656850976
N  N8  1  0.04780000  0.59800000  0.47860000  1.0 -0.2656850976
O  O1  1  0.19001000  0.17099000  0.68293000  1.0 -0.5224128824
O  O2  1  0.17099000  0.19001000  0.81707000  1.0 -0.5224128824
O  O3  1  0.80999000  0.82901000  0.31707000  1.0 -0.5224128824
O  O4  1  0.82901000  0.80999000  0.18293000  1.0 -0.5224128824
O  O5  1  0.38120000  0.47020000  0.57751000  1.0 -0.5276582551
O  O6  1  0.47020000  0.38120000  0.92249000  1.0 -0.5276582551
O  O7  1  0.61880000  0.52980000  0.42249000  1.0 -0.5276582551
O  O8  1  0.52980000  0.61880000  0.07751000  1.0 -0.5276582551
O  O9  1  0.69250000  0.55270000  0.57060000  1.0 -0.4496135351
O  O10  1  0.55270000  0.69250000  0.92940000  1.0 -0.4496135351
O  O11  1  0.30750000  0.44730000  0.42940000  1.0 -0.4496135351
O  O12  1  0.44730000  0.30750000  0.07060000  1.0 -0.4496135351
