# DDEC6 charges by PACMAN v1.1 (https://github.com/mtap-research/PACMAN-charge/)
data_CAGSAG_ASR_pacman
_symmetry_space_group_name_H-M   'P 1'
_cell_length_a   17.67200000
_cell_length_b   19.85000000
_cell_length_c   20.91500000
_cell_angle_alpha   72.38300000
_cell_angle_beta   70.94700000
_cell_angle_gamma   69.72400000
_symmetry_Int_Tables_number   1
_chemical_formula_structural   Zn4H18C36O13
_chemical_formula_sum   'Zn16 H72 C144 O52'
_cell_volume   6354.75172807
_cell_formula_units_Z   4
loop_
 _symmetry_equiv_pos_site_id
 _symmetry_equiv_pos_as_xyz
  1  'x, y, z'
loop_
 _atom_site_type_symbol
 _atom_site_label
 _atom_site_symmetry_multiplicity
 _atom_site_fract_x
 _atom_site_fract_y
 _atom_site_fract_z
 _atom_site_occupancy
 _atom_site_charge
Zn  Zn1  1  0.04175000  0.72488000  0.54352000  1.0 0.9553211133
Zn  Zn2  1  0.19024000  0.57878000  0.54210000  1.0 0.93911467
Zn  Zn3  1  0.19333000  0.70618000  0.41356000  1.0 0.92644612
Zn  Zn4  1  0.22813000  0.72442000  0.54735000  1.0 0.9961479406
Zn  Zn5  1  0.78295000  0.14636000  0.98069000  1.0 0.93911467
Zn  Zn6  1  0.63262000  0.28783000  0.98601000  1.0 0.9236376683
Zn  Zn7  1  0.60667000  0.14084000  0.97867000  1.0 0.9522297184
Zn  Zn8  1  0.63285000  0.15823000  0.12030000  1.0 0.9827033679
Zn  Zn9  1  0.95825000  0.27512000  0.45648000  1.0 0.9522297184
Zn  Zn10  1  0.80976000  0.42122000  0.45790000  1.0 0.93911467
Zn  Zn11  1  0.80667000  0.29382000  0.58644000  1.0 0.9236376683
Zn  Zn12  1  0.77187000  0.27558000  0.45265000  1.0 0.9961479406
Zn  Zn13  1  0.21705000  0.85364000  0.01931000  1.0 0.93911467
Zn  Zn14  1  0.36738000  0.71217000  0.01399000  1.0 0.9236376683
Zn  Zn15  1  0.39333000  0.85916000  0.02133000  1.0 0.9522297184
Zn  Zn16  1  0.36715000  0.84177000  0.87970000  1.0 0.985273103
H  H1  1  0.30930000  0.40650000  0.43170000  1.0 0.1213186566
H  H2  1  0.38860000  0.32190000  0.36120000  1.0 0.1213186566
H  H3  1  0.46730000  0.30020000  0.24350000  1.0 0.1288700978
H  H4  1  0.46990000  0.47470000  0.07730000  1.0 0.1288700978
H  H5  1  0.38540000  0.55320000  0.14820000  1.0 0.1213186566
H  H6  1  0.31180000  0.57610000  0.26730000  1.0 0.1288700978
H  H7  1  0.76470000  0.43610000  0.85640000  1.0 0.1213186566
H  H8  1  0.78270000  0.55490000  0.77980000  1.0 0.1288700978
H  H9  1  0.84880000  0.62050000  0.68580000  1.0 0.1288700978
H  H10  1  0.05370000  0.44670000  0.68220000  1.0 0.1288700978
H  H11  1  0.04580000  0.32580000  0.76320000  1.0 0.1213186566
H  H12  1  0.96250000  0.25700000  0.85030000  1.0 0.1213186566
H  H13  1  0.48470000  0.42370000  0.85510000  1.0 0.1213186566
H  H14  1  0.43280000  0.54380000  0.77920000  1.0 0.1213186566
H  H15  1  0.35480000  0.61230000  0.70010000  1.0 0.1213186566
H  H16  1  0.28450000  0.43200000  0.70970000  1.0 0.1213186566
H  H17  1  0.33490000  0.31600000  0.78750000  1.0 0.1288700978
H  H18  1  0.41720000  0.24810000  0.86330000  1.0 0.1213186566
H  H19  1  0.51350000  0.95040000  0.08090000  1.0 0.1288700978
H  H20  1  0.45430000  0.85950000  0.15560000  1.0 0.1213186566
H  H21  1  0.36450000  0.81710000  0.27020000  1.0 0.1288700978
H  H22  1  0.29010000  0.92990000  0.42180000  1.0 0.1288700978
H  H23  1  0.37120000  0.00550000  0.35470000  1.0 0.1213186566
H  H24  1  0.45020000  0.05840000  0.23690000  1.0 0.1213186566
H  H25  1  0.96060000  0.96220000  0.07320000  1.0 0.1288700978
H  H26  1  0.03820000  0.87220000  0.14810000  1.0 0.1213186566
H  H27  1  0.05470000  0.81290000  0.26940000  1.0 0.1288700978
H  H28  1  0.85190000  0.84800000  0.42950000  1.0 0.1213186566
H  H29  1  0.77490000  0.92780000  0.35710000  1.0 0.1288700978
H  H30  1  0.75830000  0.99030000  0.23540000  1.0 0.1288700978
H  H31  1  0.70380000  0.98990000  0.84520000  1.0 0.1093717715
H  H32  1  0.76570000  0.92440000  0.75710000  1.0 0.1213186566
H  H33  1  0.90030000  0.85780000  0.68150000  1.0 0.1213186566
H  H34  1  0.11460000  0.89760000  0.66140000  1.0 0.1213186566
H  H35  1  0.04910000  0.97880000  0.73890000  1.0 0.1093717715
H  H36  1  0.91940000  0.03780000  0.81770000  1.0 0.1093717715
H  H37  1  0.69070000  0.59350000  0.56830000  1.0 0.1213186566
H  H38  1  0.61140000  0.67810000  0.63880000  1.0 0.1213186566
H  H39  1  0.53270000  0.69980000  0.75650000  1.0 0.1288700978
H  H40  1  0.53010000  0.52530000  0.92270000  1.0 0.1288700978
H  H41  1  0.61460000  0.44680000  0.85180000  1.0 0.1213186566
H  H42  1  0.68820000  0.42390000  0.73270000  1.0 0.1288700978
H  H43  1  0.23530000  0.56390000  0.14360000  1.0 0.1213186566
H  H44  1  0.21730000  0.44510000  0.22020000  1.0 0.1288700978
H  H45  1  0.15120000  0.37950000  0.31420000  1.0 0.1288700978
H  H46  1  0.94630000  0.55330000  0.31780000  1.0 0.1288700978
H  H47  1  0.95420000  0.67420000  0.23680000  1.0 0.1288700978
H  H48  1  0.03750000  0.74300000  0.14970000  1.0 0.1213186566
H  H49  1  0.51530000  0.57630000  0.14490000  1.0 0.1213186566
H  H50  1  0.56720000  0.45620000  0.22080000  1.0 0.1213186566
H  H51  1  0.64520000  0.38770000  0.29990000  1.0 0.1213186566
H  H52  1  0.71550000  0.56800000  0.29030000  1.0 0.1213186566
H  H53  1  0.66510000  0.68400000  0.21250000  1.0 0.1288700978
H  H54  1  0.58280000  0.75190000  0.13670000  1.0 0.1213186566
H  H55  1  0.48650000  0.04960000  0.91910000  1.0 0.1288700978
H  H56  1  0.54570000  0.14050000  0.84440000  1.0 0.1213186566
H  H57  1  0.63550000  0.18290000  0.72980000  1.0 0.1288700978
H  H58  1  0.70990000  0.07010000  0.57820000  1.0 0.1288700978
H  H59  1  0.62880000  0.99450000  0.64530000  1.0 0.1213186566
H  H60  1  0.54980000  0.94160000  0.76310000  1.0 0.1213186566
H  H61  1  0.03940000  0.03780000  0.92680000  1.0 0.1288700978
H  H62  1  0.96180000  0.12780000  0.85190000  1.0 0.1213186566
H  H63  1  0.94530000  0.18710000  0.73060000  1.0 0.1288700978
H  H64  1  0.14810000  0.15200000  0.57050000  1.0 0.1288700978
H  H65  1  0.22510000  0.07220000  0.64290000  1.0 0.1288700978
H  H66  1  0.24170000  0.00970000  0.76460000  1.0 0.1288700978
H  H67  1  0.29620000  0.01010000  0.15480000  1.0 0.1093717715
H  H68  1  0.23430000  0.07560000  0.24290000  1.0 0.1213186566
H  H69  1  0.09970000  0.14220000  0.31850000  1.0 0.1213186566
H  H70  1  0.88540000  0.10240000  0.33860000  1.0 0.1213186566
H  H71  1  0.95090000  0.02120000  0.26110000  1.0 0.1093717715
H  H72  1  0.08060000  0.96220000  0.18230000  1.0 0.1093717715
C  C1  1  0.25650000  0.55510000  0.40190000  1.0 0.5903534737
C  C2  1  0.30600000  0.49910000  0.35600000  1.0 -0.0183983268
C  C3  1  0.32740000  0.42380000  0.38320000  1.0 -0.1015153468
C  C4  1  0.37430000  0.37310000  0.34170000  1.0 -0.1604015833
C  C5  1  0.40010000  0.39980000  0.26980000  1.0 0.0700228597
C  C6  1  0.45120000  0.35160000  0.22510000  1.0 -0.1604015833
C  C7  1  0.47790000  0.37820000  0.15520000  1.0 -0.0096495408
C  C8  1  0.45200000  0.45640000  0.12570000  1.0 -0.1071687154
C  C9  1  0.40270000  0.50210000  0.16750000  1.0 -0.1406037424
C  C10  1  0.37510000  0.47650000  0.24040000  1.0 0.0700228597
C  C11  1  0.32830000  0.52470000  0.28580000  1.0 -0.1487389944
C  C12  1  0.53450000  0.32600000  0.10820000  1.0 0.5903534737
C  C13  1  0.01510000  0.78270000  0.40360000  1.0 0.5903534737
C  C14  1  0.01330000  0.58410000  0.61910000  1.0 0.5987297545
C  C15  1  0.25700000  0.57420000  0.64320000  1.0 0.5903534737
C  C16  1  0.27230000  0.80740000  0.39670000  1.0 0.5816055764
C  C17  1  0.05830000  0.81490000  0.61850000  1.0 0.5987297545
C  C18  1  0.80040000  0.29460000  0.91160000  1.0 0.5816055764
C  C19  1  0.85470000  0.33910000  0.85930000  1.0 -0.0395570322
C  C20  1  0.82080000  0.41400000  0.83510000  1.0 -0.1406037424
C  C21  1  0.86530000  0.45820000  0.78130000  1.0 0.0700228597
C  C22  1  0.83700000  0.53090000  0.75660000  1.0 -0.1406037424
C  C23  1  0.87640000  0.57140000  0.70420000  1.0 -0.0944999238
C  C24  1  0.96010000  0.54060000  0.67590000  1.0 -0.0183983268
C  C25  1  0.99640000  0.46770000  0.70130000  1.0 -0.1487389944
C  C26  1  0.95110000  0.42400000  0.75410000  1.0 0.0884806514
C  C27  1  0.98840000  0.34800000  0.78070000  1.0 -0.1604015833
C  C28  1  0.93860000  0.30750000  0.83260000  1.0 -0.0944999238
C  C29  1  0.52020000  0.28440000  0.90900000  1.0 0.5903534737
C  C30  1  0.46390000  0.32880000  0.86350000  1.0 -0.0395570322
C  C31  1  0.45650000  0.40170000  0.83900000  1.0 -0.1326763754
C  C32  1  0.41030000  0.44580000  0.79210000  1.0 0.0777081972
C  C33  1  0.40390000  0.52080000  0.76490000  1.0 -0.1604015833
C  C34  1  0.35720000  0.56170000  0.71830000  1.0 -0.1015153468
C  C35  1  0.31130000  0.52780000  0.69680000  1.0 0.0028096528
C  C36  1  0.31370000  0.45460000  0.72410000  1.0 -0.1719046508
C  C37  1  0.36100000  0.41350000  0.77420000  1.0 0.0884806514
C  C38  1  0.36570000  0.33840000  0.80040000  1.0 -0.1487389944
C  C39  1  0.41530000  0.29850000  0.84450000  1.0 -0.1071687154
C  C40  1  0.53290000  0.06800000  0.10600000  1.0 0.5903534737
C  C41  1  0.48920000  0.01060000  0.15430000  1.0 -0.0096495408
C  C42  1  0.48850000  0.95260000  0.12820000  1.0 -0.1071687154
C  C43  1  0.45180000  0.90040000  0.17160000  1.0 -0.1326763754
C  C44  1  0.40870000  0.90650000  0.24230000  1.0 0.0777081972
C  C45  1  0.36440000  0.85730000  0.28590000  1.0 -0.1487389944
C  C46  1  0.31990000  0.86630000  0.35270000  1.0 -0.0033794899
C  C47  1  0.32130000  0.92330000  0.37650000  1.0 -0.1015153468
C  C48  1  0.36660000  0.96970000  0.33570000  1.0 -0.1406037424
C  C49  1  0.40670000  0.96730000  0.26750000  1.0 0.0700228597
C  C50  1  0.44910000  0.01840000  0.22160000  1.0 -0.1604015833
C  C51  1  0.79650000  0.04240000  0.10130000  1.0 0.5816055764
C  C52  1  0.85170000  0.98300000  0.14800000  1.0 -0.0033794899
C  C53  1  0.93560000  0.94990000  0.12130000  1.0 -0.1015153468
C  C54  1  0.98250000  0.89800000  0.16650000  1.0 -0.1487389944
C  C55  1  0.94810000  0.88360000  0.23920000  1.0 0.0541982341
C  C56  1  0.99770000  0.83660000  0.28640000  1.0 -0.1326763754
C  C57  1  0.96280000  0.82600000  0.35570000  1.0 -0.0478515644
C  C58  1  0.87670000  0.85870000  0.38120000  1.0 -0.0944999238
C  C59  1  0.83120000  0.90330000  0.33890000  1.0 -0.1487389944
C  C60  1  0.86550000  0.91560000  0.26490000  1.0 0.0700228597
C  C61  1  0.81550000  0.96740000  0.21790000  1.0 -0.1604015833
C  C62  1  0.76430000  0.07280000  0.88470000  1.0 0.5903534737
C  C63  1  0.80550000  0.02450000  0.83490000  1.0 -0.0478515644
C  C64  1  0.76030000  0.98630000  0.82070000  1.0 -0.1015153468
C  C65  1  0.79800000  0.94390000  0.77150000  1.0 -0.1604015833
C  C66  1  0.88460000  0.92960000  0.74250000  1.0 0.0884806514
C  C67  1  0.92990000  0.88130000  0.69450000  1.0 -0.1487389944
C  C68  1  0.01430000  0.86850000  0.66710000  1.0 -0.0183983268
C  C69  1  0.05680000  0.90510000  0.68270000  1.0 -0.1015153468
C  C70  1  0.01800000  0.95390000  0.72950000  1.0 -0.1604015833
C  C71  1  0.93090000  0.96420000  0.76170000  1.0 0.0777081972
C  C72  1  0.88940000  0.01300000  0.80680000  1.0 -0.1406037424
C  C73  1  0.74350000  0.44490000  0.59810000  1.0 0.5903534737
C  C74  1  0.69400000  0.50090000  0.64400000  1.0 -0.0183983268
C  C75  1  0.67260000  0.57620000  0.61680000  1.0 -0.1015153468
C  C76  1  0.62570000  0.62690000  0.65830000  1.0 -0.1604015833
C  C77  1  0.59990000  0.60020000  0.73020000  1.0 0.0700228597
C  C78  1  0.54880000  0.64840000  0.77490000  1.0 -0.1604015833
C  C79  1  0.52210000  0.62180000  0.84480000  1.0 -0.0096495408
C  C80  1  0.54800000  0.54360000  0.87430000  1.0 -0.1071687154
C  C81  1  0.59730000  0.49790000  0.83250000  1.0 -0.1406037424
C  C82  1  0.62490000  0.52350000  0.75960000  1.0 0.0700228597
C  C83  1  0.67170000  0.47530000  0.71420000  1.0 -0.1487389944
C  C84  1  0.46550000  0.67400000  0.89180000  1.0 0.5903534737
C  C85  1  0.98490000  0.21730000  0.59640000  1.0 0.5903534737
C  C86  1  0.98670000  0.41590000  0.38090000  1.0 0.5987297545
C  C87  1  0.74300000  0.42580000  0.35680000  1.0 0.5816055764
C  C88  1  0.72770000  0.19260000  0.60330000  1.0 0.5816055764
C  C89  1  0.94170000  0.18510000  0.38150000  1.0 0.5987297545
C  C90  1  0.19960000  0.70540000  0.08840000  1.0 0.5816055764
C  C91  1  0.14530000  0.66090000  0.14070000  1.0 -0.0395570322
C  C92  1  0.17920000  0.58600000  0.16490000  1.0 -0.1406037424
C  C93  1  0.13470000  0.54180000  0.21870000  1.0 0.0700228597
C  C94  1  0.16300000  0.46910000  0.24340000  1.0 -0.1406037424
C  C95  1  0.12360000  0.42860000  0.29580000  1.0 -0.1015153468
C  C96  1  0.03990000  0.45940000  0.32410000  1.0 -0.0183983268
C  C97  1  0.00360000  0.53230000  0.29870000  1.0 -0.1487389944
C  C98  1  0.04890000  0.57600000  0.24590000  1.0 0.0884806514
C  C99  1  0.01160000  0.65200000  0.21930000  1.0 -0.1604015833
C  C100  1  0.06140000  0.69250000  0.16740000  1.0 -0.0944999238
C  C101  1  0.47980000  0.71560000  0.09100000  1.0 0.5903534737
C  C102  1  0.53610000  0.67120000  0.13650000  1.0 -0.0478515644
C  C103  1  0.54350000  0.59830000  0.16100000  1.0 -0.1326763754
C  C104  1  0.58970000  0.55420000  0.20790000  1.0 0.0777081972
C  C105  1  0.59610000  0.47920000  0.23510000  1.0 -0.1604015833
C  C106  1  0.64280000  0.43830000  0.28170000  1.0 -0.1015153468
C  C107  1  0.68870000  0.47220000  0.30320000  1.0 0.0028096528
C  C108  1  0.68630000  0.54540000  0.27590000  1.0 -0.1719046508
C  C109  1  0.63900000  0.58650000  0.22580000  1.0 0.0884806514
C  C110  1  0.63430000  0.66160000  0.19960000  1.0 -0.1487389944
C  C111  1  0.58470000  0.70150000  0.15550000  1.0 -0.1071687154
C  C112  1  0.46710000  0.93200000  0.89400000  1.0 0.5903534737
C  C113  1  0.51080000  0.98940000  0.84570000  1.0 -0.0096495408
C  C114  1  0.51150000  0.04740000  0.87180000  1.0 -0.1071687154
C  C115  1  0.54820000  0.09960000  0.82840000  1.0 -0.1326763754
C  C116  1  0.59130000  0.09350000  0.75770000  1.0 0.0777081972
C  C117  1  0.63560000  0.14270000  0.71410000  1.0 -0.1487389944
C  C118  1  0.68010000  0.13370000  0.64730000  1.0 -0.0033794899
C  C119  1  0.67870000  0.07670000  0.62350000  1.0 -0.1015153468
C  C120  1  0.63340000  0.03030000  0.66430000  1.0 -0.1406037424
C  C121  1  0.59330000  0.03270000  0.73250000  1.0 0.0700228597
C  C122  1  0.55090000  0.98160000  0.77840000  1.0 -0.1604015833
C  C123  1  0.20350000  0.95760000  0.89870000  1.0 0.5816055764
C  C124  1  0.14830000  0.01700000  0.85200000  1.0 -0.0096495408
C  C125  1  0.06440000  0.05010000  0.87870000  1.0 -0.1015153468
C  C126  1  0.01750000  0.10200000  0.83350000  1.0 -0.1487389944
C  C127  1  0.05190000  0.11640000  0.76080000  1.0 0.0541982341
C  C128  1  0.00230000  0.16340000  0.71360000  1.0 -0.1326763754
C  C129  1  0.03720000  0.17400000  0.64430000  1.0 -0.0478515644
C  C130  1  0.12330000  0.14130000  0.61880000  1.0 -0.0944999238
C  C131  1  0.16880000  0.09670000  0.66110000  1.0 -0.1487389944
C  C132  1  0.13450000  0.08440000  0.73510000  1.0 0.0700228597
C  C133  1  0.18450000  0.03260000  0.78210000  1.0 -0.1604015833
C  C134  1  0.23570000  0.92720000  0.11530000  1.0 0.5903534737
C  C135  1  0.19450000  0.97550000  0.16510000  1.0 -0.0478515644
C  C136  1  0.23970000  0.01370000  0.17930000  1.0 -0.1015153468
C  C137  1  0.20200000  0.05610000  0.22850000  1.0 -0.1604015833
C  C138  1  0.11540000  0.07040000  0.25750000  1.0 0.0884806514
C  C139  1  0.07010000  0.11870000  0.30550000  1.0 -0.1604015833
C  C140  1  0.98570000  0.13150000  0.33290000  1.0 -0.0183983268
C  C141  1  0.94320000  0.09490000  0.31730000  1.0 -0.1015153468
C  C142  1  0.98200000  0.04610000  0.27050000  1.0 -0.1604015833
C  C143  1  0.06910000  0.03580000  0.23830000  1.0 0.0777081972
C  C144  1  0.11060000  0.98700000  0.19320000  1.0 -0.1406037424
O  O1  1  0.24090000  0.52520000  0.46750000  1.0 -0.5485850572
O  O2  1  0.24090000  0.62020000  0.37380000  1.0 -0.5132033626
O  O3  1  0.54290000  0.25890000  0.13450000  1.0 -0.5707708994
O  O4  1  0.56930000  0.35270000  0.04810000  1.0 -0.5195210774
O  O5  1  0.98460000  0.77390000  0.46760000  1.0 -0.5195210774
O  O6  1  0.09500000  0.75690000  0.37680000  1.0 -0.5707708994
O  O7  1  0.98040000  0.65370000  0.60380000  1.0 -0.5398015757
O  O8  1  0.08620000  0.54920000  0.58950000  1.0 -0.5599623918
O  O9  1  0.25250000  0.53510000  0.60920000  1.0 -0.532054156
O  O10  1  0.23990000  0.64170000  0.63530000  1.0 -0.5485850572
O  O11  1  0.24260000  0.81180000  0.45960000  1.0 -0.5707708994
O  O12  1  0.26640000  0.76690000  0.36800000  1.0 -0.5005807081
O  O13  1  0.00880000  0.79710000  0.59860000  1.0 -0.5398015757
O  O14  1  0.13460000  0.79640000  0.60350000  1.0 -0.5005807081
O  O15  1  0.72750000  0.32480000  0.93080000  1.0 -0.5005807081
O  O16  1  0.83840000  0.22450000  0.93160000  1.0 -0.5599623918
O  O17  1  0.55970000  0.31600000  0.92210000  1.0 -0.5132033626
O  O18  1  0.52580000  0.21530000  0.93030000  1.0 -0.5398015757
O  O19  1  0.53550000  0.11760000  0.12880000  1.0 -0.5398015757
O  O20  1  0.55450000  0.06760000  0.04150000  1.0 -0.532054156
O  O21  1  0.72270000  0.05650000  0.12380000  1.0 -0.532054156
O  O22  1  0.84130000  0.06950000  0.04280000  1.0 -0.5485850572
O  O23  1  0.80760000  0.09630000  0.90510000  1.0 -0.5398015757
O  O24  1  0.68380000  0.08530000  0.90830000  1.0 -0.5599623918
O  O25  1  0.16120000  0.68470000  0.51330000  1.0 -1.0272591312
O  O26  1  0.66380000  0.18270000  0.01600000  1.0 -1.0191561182
O  O27  1  0.75910000  0.47480000  0.53250000  1.0 -0.5485850572
O  O28  1  0.75910000  0.37980000  0.62620000  1.0 -0.5132033626
O  O29  1  0.45710000  0.74110000  0.86550000  1.0 -0.5707708994
O  O30  1  0.43070000  0.64730000  0.95190000  1.0 -0.5195210774
O  O31  1  0.01540000  0.22610000  0.53240000  1.0 -0.5195210774
O  O32  1  0.90500000  0.24310000  0.62320000  1.0 -0.5707708994
O  O33  1  0.01960000  0.34630000  0.39620000  1.0 -0.5398015757
O  O34  1  0.91380000  0.45080000  0.41050000  1.0 -0.5599623918
O  O35  1  0.74750000  0.46490000  0.39080000  1.0 -0.532054156
O  O36  1  0.76010000  0.35830000  0.36470000  1.0 -0.5485850572
O  O37  1  0.75740000  0.18820000  0.54040000  1.0 -0.5707708994
O  O38  1  0.73360000  0.23310000  0.63200000  1.0 -0.5005807081
O  O39  1  0.99120000  0.20290000  0.40140000  1.0 -0.5398015757
O  O40  1  0.86540000  0.20360000  0.39650000  1.0 -0.5005807081
O  O41  1  0.27250000  0.67520000  0.06920000  1.0 -0.5005807081
O  O42  1  0.16160000  0.77550000  0.06840000  1.0 -0.5599623918
O  O43  1  0.44030000  0.68400000  0.07790000  1.0 -0.5195210774
O  O44  1  0.47420000  0.78470000  0.06970000  1.0 -0.5398015757
O  O45  1  0.46450000  0.88240000  0.87120000  1.0 -0.5398015757
O  O46  1  0.44550000  0.93240000  0.95850000  1.0 -0.532054156
O  O47  1  0.27730000  0.94350000  0.87620000  1.0 -0.532054156
O  O48  1  0.15870000  0.93050000  0.95720000  1.0 -0.5485850572
O  O49  1  0.19240000  0.90370000  0.09490000  1.0 -0.5398015757
O  O50  1  0.31620000  0.91470000  0.09170000  1.0 -0.5599623918
O  O51  1  0.83880000  0.31530000  0.48670000  1.0 -1.0272591312
O  O52  1  0.33620000  0.81730000  0.98400000  1.0 -1.0191561182
