# DDEC6 charges by PACMAN v1.1 (https://github.com/mtap-research/PACMAN-charge/)
data_CAHSOU_ASR_pacman
_symmetry_space_group_name_H-M   'P 1'
_cell_length_a   9.86360000
_cell_length_b   9.86360000
_cell_length_c   30.35290000
_cell_angle_alpha   90.00000000
_cell_angle_beta   90.00000000
_cell_angle_gamma   90.00000000
_symmetry_Int_Tables_number   1
_chemical_formula_structural   Fe5P7(O7F)4
_chemical_formula_sum   'Fe20 P28 O112 F16'
_cell_volume   2953.05200329
_cell_formula_units_Z   4
loop_
 _symmetry_equiv_pos_site_id
 _symmetry_equiv_pos_as_xyz
  1  'x, y, z'
loop_
 _atom_site_type_symbol
 _atom_site_label
 _atom_site_symmetry_multiplicity
 _atom_site_fract_x
 _atom_site_fract_y
 _atom_site_fract_z
 _atom_site_occupancy
 _atom_site_charge
Fe  Fe1  1  0.22970000  0.42060000  0.09080000  1.0 1.5309459957
Fe  Fe2  1  0.07940000  0.72970000  0.84080000  1.0 1.5309459957
Fe  Fe3  1  0.72970000  0.07940000  0.15920000  1.0 1.5309459957
Fe  Fe4  1  0.77030000  0.57940000  0.59080000  1.0 1.5309459957
Fe  Fe5  1  0.42060000  0.22970000  0.90920000  1.0 1.5309459957
Fe  Fe6  1  0.92060000  0.27030000  0.34080000  1.0 1.5309459957
Fe  Fe7  1  0.27030000  0.92060000  0.65920000  1.0 1.5309459957
Fe  Fe8  1  0.57940000  0.77030000  0.40920000  1.0 1.5309459957
Fe  Fe9  1  0.40720000  0.95010000  0.98870000  1.0 1.5528040958
Fe  Fe10  1  0.54990000  0.90720000  0.73870000  1.0 1.5528040958
Fe  Fe11  1  0.90720000  0.54990000  0.26130000  1.0 1.5528040958
Fe  Fe12  1  0.59280000  0.04990000  0.48870000  1.0 1.559673849
Fe  Fe13  1  0.95010000  0.40720000  0.01130000  1.0 1.5528040958
Fe  Fe14  1  0.45010000  0.09280000  0.23870000  1.0 1.5528040958
Fe  Fe15  1  0.09280000  0.45010000  0.76130000  1.0 1.559673849
Fe  Fe16  1  0.04990000  0.59280000  0.51130000  1.0 1.5528040958
Fe  Fe17  1  0.68880000  0.68880000  0.00000000  1.0 1.5309459957
Fe  Fe18  1  0.81120000  0.18880000  0.75000000  1.0 1.5309459957
Fe  Fe19  1  0.18880000  0.81120000  0.25000000  1.0 1.5309459957
Fe  Fe20  1  0.31120000  0.31120000  0.50000000  1.0 1.5309459957
P  P1  1  0.44440000  0.22190000  0.14020000  1.0 1.5099270277
P  P2  1  0.27810000  0.94440000  0.89020000  1.0 1.5099270277
P  P3  1  0.94440000  0.27810000  0.10980000  1.0 1.5099270277
P  P4  1  0.55560000  0.77810000  0.64020000  1.0 1.5099270277
P  P5  1  0.22190000  0.44440000  0.85980000  1.0 1.5152237447
P  P6  1  0.72190000  0.05560000  0.39020000  1.0 1.5099270277
P  P7  1  0.05560000  0.72190000  0.60980000  1.0 1.5099270277
P  P8  1  0.77810000  0.55560000  0.35980000  1.0 1.5099270277
P  P9  1  0.23700000  0.23700000  0.00000000  1.0 1.5711799892
P  P10  1  0.26300000  0.73700000  0.75000000  1.0 1.5711799892
P  P11  1  0.73700000  0.26300000  0.25000000  1.0 1.5711799892
P  P12  1  0.76300000  0.76300000  0.50000000  1.0 1.5711799892
P  P13  1  0.97020000  0.67580000  0.94430000  1.0 1.5099270277
P  P14  1  0.82420000  0.47020000  0.69430000  1.0 1.5034305684
P  P15  1  0.47020000  0.82420000  0.30570000  1.0 1.5034305684
P  P16  1  0.02980000  0.32420000  0.44430000  1.0 1.5099270277
P  P17  1  0.67580000  0.97020000  0.05570000  1.0 1.5034305684
P  P18  1  0.17580000  0.52980000  0.19430000  1.0 1.5099270277
P  P19  1  0.52980000  0.17580000  0.80570000  1.0 1.5099270277
P  P20  1  0.32420000  0.02980000  0.55570000  1.0 1.5099270277
P  P21  1  0.37820000  0.65520000  0.03060000  1.0 1.5309459957
P  P22  1  0.84480000  0.87820000  0.78060000  1.0 1.5309459957
P  P23  1  0.87820000  0.84480000  0.21940000  1.0 1.5309459957
P  P24  1  0.62180000  0.34480000  0.53060000  1.0 1.5309459957
P  P25  1  0.65520000  0.37820000  0.96940000  1.0 1.5309459957
P  P26  1  0.15520000  0.12180000  0.28060000  1.0 1.5309459957
P  P27  1  0.12180000  0.15520000  0.71940000  1.0 1.5309459957
P  P28  1  0.34480000  0.62180000  0.46940000  1.0 1.5309459957
O  O1  1  0.29420000  0.31440000  0.03980000  1.0 -0.6308372013
O  O2  1  0.18560000  0.79420000  0.78980000  1.0 -0.6308372013
O  O3  1  0.79420000  0.18560000  0.21020000  1.0 -0.6308372013
O  O4  1  0.70580000  0.68560000  0.53980000  1.0 -0.6308372013
O  O5  1  0.31440000  0.29420000  0.96020000  1.0 -0.6308372013
O  O6  1  0.81440000  0.20580000  0.28980000  1.0 -0.6308372013
O  O7  1  0.20580000  0.81440000  0.71020000  1.0 -0.6308372013
O  O8  1  0.68560000  0.70580000  0.46020000  1.0 -0.6308372013
O  O9  1  0.31080000  0.59350000  0.07070000  1.0 -0.6308372013
O  O10  1  0.90650000  0.81080000  0.82070000  1.0 -0.6308372013
O  O11  1  0.81080000  0.90650000  0.17930000  1.0 -0.6308372013
O  O12  1  0.68920000  0.40650000  0.57070000  1.0 -0.6308372013
O  O13  1  0.59350000  0.31080000  0.92930000  1.0 -0.6308372013
O  O14  1  0.09350000  0.18920000  0.32070000  1.0 -0.6308372013
O  O15  1  0.18920000  0.09350000  0.67930000  1.0 -0.6308372013
O  O16  1  0.40650000  0.68920000  0.42930000  1.0 -0.6308372013
O  O17  1  0.39230000  0.35740000  0.12280000  1.0 -0.6174028384
O  O18  1  0.14260000  0.89230000  0.87280000  1.0 -0.6174028384
O  O19  1  0.89230000  0.14260000  0.12720000  1.0 -0.6174028384
O  O20  1  0.60770000  0.64260000  0.62280000  1.0 -0.6174028384
O  O21  1  0.35740000  0.39230000  0.87720000  1.0 -0.6174028384
O  O22  1  0.85740000  0.10770000  0.37280000  1.0 -0.6148661343
O  O23  1  0.10770000  0.85740000  0.62720000  1.0 -0.6174028384
O  O24  1  0.64260000  0.60770000  0.37720000  1.0 -0.6148661343
O  O25  1  0.97790000  0.67140000  0.89450000  1.0 -0.6482765805
O  O26  1  0.82860000  0.47790000  0.64450000  1.0 -0.6482765805
O  O27  1  0.47790000  0.82860000  0.35550000  1.0 -0.6482765805
O  O28  1  0.02210000  0.32860000  0.39450000  1.0 -0.6482765805
O  O29  1  0.67140000  0.97790000  0.10550000  1.0 -0.644967672
O  O30  1  0.17140000  0.52210000  0.14450000  1.0 -0.6482765805
O  O31  1  0.52210000  0.17140000  0.85550000  1.0 -0.6482765805
O  O32  1  0.32860000  0.02210000  0.60550000  1.0 -0.6482765805
O  O33  1  0.59970000  0.22840000  0.14200000  1.0 -0.6660882277
O  O34  1  0.27160000  0.09970000  0.89200000  1.0 -0.6660882277
O  O35  1  0.09970000  0.27160000  0.10800000  1.0 -0.6660882277
O  O36  1  0.40030000  0.77160000  0.64200000  1.0 -0.6660882277
O  O37  1  0.22840000  0.59970000  0.85800000  1.0 -0.6660882277
O  O38  1  0.72840000  0.90030000  0.39200000  1.0 -0.6660882277
O  O39  1  0.90030000  0.72840000  0.60800000  1.0 -0.6660882277
O  O40  1  0.77160000  0.40030000  0.35800000  1.0 -0.6660882277
O  O41  1  0.33100000  0.80250000  0.02400000  1.0 -0.6588167019
O  O42  1  0.69750000  0.83100000  0.77400000  1.0 -0.6588167019
O  O43  1  0.83100000  0.69750000  0.22600000  1.0 -0.6588167019
O  O44  1  0.66900000  0.19750000  0.52400000  1.0 -0.6588167019
O  O45  1  0.80250000  0.33100000  0.97600000  1.0 -0.6588167019
O  O46  1  0.30250000  0.16900000  0.27400000  1.0 -0.6588167019
O  O47  1  0.16900000  0.30250000  0.72600000  1.0 -0.6588167019
O  O48  1  0.19750000  0.66900000  0.47600000  1.0 -0.6588167019
O  O49  1  0.00080000  0.53340000  0.96270000  1.0 -0.6482765805
O  O50  1  0.96660000  0.50080000  0.71270000  1.0 -0.644967672
O  O51  1  0.50080000  0.96660000  0.28730000  1.0 -0.6482765805
O  O52  1  0.99920000  0.46660000  0.46270000  1.0 -0.6482765805
O  O53  1  0.53340000  0.00080000  0.03730000  1.0 -0.6482765805
O  O54  1  0.03340000  0.49920000  0.21270000  1.0 -0.6482765805
O  O55  1  0.49920000  0.03340000  0.78730000  1.0 -0.6482765805
O  O56  1  0.46660000  0.99920000  0.53730000  1.0 -0.6482765805
O  O57  1  0.08250000  0.26360000  0.99530000  1.0 -0.6588167019
O  O58  1  0.23640000  0.58250000  0.74530000  1.0 -0.6588167019
O  O59  1  0.58250000  0.23640000  0.25470000  1.0 -0.6588167019
O  O60  1  0.91750000  0.73640000  0.49530000  1.0 -0.6588167019
O  O61  1  0.26360000  0.08250000  0.00470000  1.0 -0.6588167019
O  O62  1  0.76360000  0.41750000  0.24530000  1.0 -0.6588167019
O  O63  1  0.41750000  0.76360000  0.75470000  1.0 -0.6588167019
O  O64  1  0.73640000  0.91750000  0.50470000  1.0 -0.6588167019
O  O65  1  0.37780000  0.19260000  0.18540000  1.0 -0.6308372013
O  O66  1  0.30740000  0.87780000  0.93540000  1.0 -0.6308372013
O  O67  1  0.87780000  0.30740000  0.06460000  1.0 -0.6308372013
O  O68  1  0.62220000  0.80740000  0.68540000  1.0 -0.6308372013
O  O69  1  0.19260000  0.37780000  0.81460000  1.0 -0.6308372013
O  O70  1  0.69260000  0.12220000  0.43540000  1.0 -0.6308372013
O  O71  1  0.12220000  0.69260000  0.56460000  1.0 -0.6308372013
O  O72  1  0.80740000  0.62220000  0.31460000  1.0 -0.6308372013
O  O73  1  0.83520000  0.73630000  0.95930000  1.0 -0.6588167019
O  O74  1  0.76370000  0.33520000  0.70930000  1.0 -0.6588167019
O  O75  1  0.33520000  0.76370000  0.29070000  1.0 -0.6588167019
O  O76  1  0.16480000  0.26370000  0.45930000  1.0 -0.6588167019
O  O77  1  0.73630000  0.83520000  0.04070000  1.0 -0.6588167019
O  O78  1  0.23630000  0.66480000  0.20930000  1.0 -0.6588167019
O  O79  1  0.66480000  0.23630000  0.79070000  1.0 -0.6588167019
O  O80  1  0.26370000  0.16480000  0.54070000  1.0 -0.6588167019
O  O81  1  0.53180000  0.64460000  0.03690000  1.0 -0.6482765805
O  O82  1  0.85540000  0.03180000  0.78690000  1.0 -0.6482765805
O  O83  1  0.03180000  0.85540000  0.21310000  1.0 -0.6482765805
O  O84  1  0.46820000  0.35540000  0.53690000  1.0 -0.6482765805
O  O85  1  0.64460000  0.53180000  0.96310000  1.0 -0.6482765805
O  O86  1  0.14460000  0.96820000  0.28690000  1.0 -0.6482765805
O  O87  1  0.96820000  0.14460000  0.71310000  1.0 -0.6482765805
O  O88  1  0.35540000  0.46820000  0.46310000  1.0 -0.6482765805
O  O89  1  0.39540000  0.10170000  0.11020000  1.0 -0.4112981905
O  O90  1  0.39830000  0.89540000  0.86020000  1.0 -0.4112981905
O  O91  1  0.89540000  0.39830000  0.13980000  1.0 -0.4112981905
O  O92  1  0.60460000  0.89830000  0.61020000  1.0 -0.4112981905
O  O93  1  0.10170000  0.39540000  0.88980000  1.0 -0.4112981905
O  O94  1  0.60170000  0.10460000  0.36020000  1.0 -0.4112981905
O  O95  1  0.10460000  0.60170000  0.63980000  1.0 -0.4112981905
O  O96  1  0.89830000  0.60460000  0.38980000  1.0 -0.4112981905
O  O97  1  0.07600000  0.77890000  0.96410000  1.0 -0.4386511976
O  O98  1  0.72110000  0.57600000  0.71410000  1.0 -0.4338624296
O  O99  1  0.57600000  0.72110000  0.28590000  1.0 -0.4338624296
O  O100  1  0.92400000  0.22110000  0.46410000  1.0 -0.4386511976
O  O101  1  0.77890000  0.07600000  0.03590000  1.0 -0.4386511976
O  O102  1  0.27890000  0.42400000  0.21410000  1.0 -0.4386511976
O  O103  1  0.42400000  0.27890000  0.78590000  1.0 -0.4386511976
O  O104  1  0.22110000  0.92400000  0.53590000  1.0 -0.4386511976
O  O105  1  0.33450000  0.57980000  0.98680000  1.0 -0.4468444852
O  O106  1  0.92020000  0.83450000  0.73680000  1.0 -0.4386511976
O  O107  1  0.83450000  0.92020000  0.26320000  1.0 -0.4468444852
O  O108  1  0.66550000  0.42020000  0.48680000  1.0 -0.4468444852
O  O109  1  0.57980000  0.33450000  0.01320000  1.0 -0.4386511976
O  O110  1  0.07980000  0.16550000  0.23680000  1.0 -0.4468444852
O  O111  1  0.16550000  0.07980000  0.76320000  1.0 -0.4386511976
O  O112  1  0.42020000  0.66550000  0.51320000  1.0 -0.4468444852
F  F1  1  0.07310000  0.49290000  0.05350000  1.0 -0.41571075
F  F2  1  0.00710000  0.57310000  0.80350000  1.0 -0.4112981905
F  F3  1  0.57310000  0.00710000  0.19650000  1.0 -0.41571075
F  F4  1  0.92690000  0.50710000  0.55350000  1.0 -0.41571075
F  F5  1  0.49290000  0.07310000  0.94650000  1.0 -0.41571075
F  F6  1  0.99290000  0.42690000  0.30350000  1.0 -0.41571075
F  F7  1  0.42690000  0.99290000  0.69650000  1.0 -0.4112981905
F  F8  1  0.50710000  0.92690000  0.44650000  1.0 -0.4112981905
F  F9  1  0.81700000  0.56500000  0.03230000  1.0 -0.3831551378
F  F10  1  0.93500000  0.31700000  0.78230000  1.0 -0.3831551378
F  F11  1  0.31700000  0.93500000  0.21770000  1.0 -0.3831551378
F  F12  1  0.18300000  0.43500000  0.53230000  1.0 -0.3831551378
F  F13  1  0.56500000  0.81700000  0.96770000  1.0 -0.3831551378
F  F14  1  0.06500000  0.68300000  0.28230000  1.0 -0.3831551378
F  F15  1  0.68300000  0.06500000  0.71770000  1.0 -0.3831551378
F  F16  1  0.43500000  0.18300000  0.46770000  1.0 -0.3831551378
