# DDEC6 charges by PACMAN v1.1 (https://github.com/mtap-research/PACMAN-charge/)
data_CAJQIP_ASR_pacman
_symmetry_space_group_name_H-M   'P 1'
_cell_length_a   31.98470000
_cell_length_b   30.85360000
_cell_length_c   18.16260000
_cell_angle_alpha   76.64890000
_cell_angle_beta   69.81210000
_cell_angle_gamma   33.53910000
_symmetry_Int_Tables_number   1
_chemical_formula_structural   Cu2H19C33(N2O5)2
_chemical_formula_sum   'Cu8 H76 C132 N16 O40'
_cell_volume   9238.76037670
_cell_formula_units_Z   4
loop_
 _symmetry_equiv_pos_site_id
 _symmetry_equiv_pos_as_xyz
  1  'x, y, z'
loop_
 _atom_site_type_symbol
 _atom_site_label
 _atom_site_symmetry_multiplicity
 _atom_site_fract_x
 _atom_site_fract_y
 _atom_site_fract_z
 _atom_site_occupancy
 _atom_site_charge
Cu  Cu1  1  0.95145000  0.51461000  0.48539000  1.0 0.8703980174
Cu  Cu2  1  0.51461000  0.95145000  0.04855000  1.0 0.8703980174
Cu  Cu3  1  0.48539000  0.04855000  0.95145000  1.0 0.8703980174
Cu  Cu4  1  0.04855000  0.48539000  0.51461000  1.0 0.8703980174
Cu  Cu5  1  0.47131000  0.05925000  0.52869000  1.0 0.8703980174
Cu  Cu6  1  0.05925000  0.47131000  0.94075000  1.0 0.8703980174
Cu  Cu7  1  0.52869000  0.94075000  0.47131000  1.0 0.8703980174
Cu  Cu8  1  0.94075000  0.52869000  0.05925000  1.0 0.8703980174
H  H1  1  0.24160000  0.23840000  0.50760000  1.0 0.1401923576
H  H2  1  0.23840000  0.24160000  0.01240000  1.0 0.1401923576
H  H3  1  0.50760000  0.01240000  0.24160000  1.0 0.1401923576
H  H4  1  0.01240000  0.50760000  0.23840000  1.0 0.1401923576
H  H5  1  0.75840000  0.76160000  0.49240000  1.0 0.1401923576
H  H6  1  0.76160000  0.75840000  0.98760000  1.0 0.1401923576
H  H7  1  0.49240000  0.98760000  0.75840000  1.0 0.1401923576
H  H8  1  0.98760000  0.49240000  0.76160000  1.0 0.1401923576
H  H9  1  0.08800000  0.28300000  0.48920000  1.0 0.1401923576
H  H10  1  0.28300000  0.08800000  0.13980000  1.0 0.1401923576
H  H11  1  0.48920000  0.13980000  0.08800000  1.0 0.1401923576
H  H12  1  0.13980000  0.48920000  0.28300000  1.0 0.1401923576
H  H13  1  0.91200000  0.71700000  0.51080000  1.0 0.1401923576
H  H14  1  0.71700000  0.91200000  0.86020000  1.0 0.1401923576
H  H15  1  0.51080000  0.86020000  0.91200000  1.0 0.1401923576
H  H16  1  0.86020000  0.51080000  0.71700000  1.0 0.1401923576
H  H17  1  0.31100000  0.05780000  0.49660000  1.0 0.1401923576
H  H18  1  0.05780000  0.31100000  0.13460000  1.0 0.1401923576
H  H19  1  0.49660000  0.13460000  0.31100000  1.0 0.1401923576
H  H20  1  0.13460000  0.49660000  0.05780000  1.0 0.1401923576
H  H21  1  0.68900000  0.94220000  0.50340000  1.0 0.1401923576
H  H22  1  0.94220000  0.68900000  0.86540000  1.0 0.1401923576
H  H23  1  0.50340000  0.86540000  0.68900000  1.0 0.1401923576
H  H24  1  0.86540000  0.50340000  0.94220000  1.0 0.1401923576
H  H25  1  0.97500000  0.26840000  0.50820000  1.0 0.1326889822
H  H26  1  0.26840000  0.97500000  0.24840000  1.0 0.1326889822
H  H27  1  0.50820000  0.24840000  0.97500000  1.0 0.1326889822
H  H28  1  0.24840000  0.50820000  0.26840000  1.0 0.1326889822
H  H29  1  0.02500000  0.73160000  0.49180000  1.0 0.1326889822
H  H30  1  0.73160000  0.02500000  0.75160000  1.0 0.1326889822
H  H31  1  0.49180000  0.75160000  0.02500000  1.0 0.1326889822
H  H32  1  0.75160000  0.49180000  0.73160000  1.0 0.1326889822
H  H33  1  0.94010000  0.22390000  0.51410000  1.0 0.1401923576
H  H34  1  0.22390000  0.94010000  0.32190000  1.0 0.1401923576
H  H35  1  0.51410000  0.32190000  0.94010000  1.0 0.1401923576
H  H36  1  0.32190000  0.51410000  0.22390000  1.0 0.1401923576
H  H37  1  0.05990000  0.77610000  0.48590000  1.0 0.1401923576
H  H38  1  0.77610000  0.05990000  0.67810000  1.0 0.1401923576
H  H39  1  0.48590000  0.67810000  0.05990000  1.0 0.1401923576
H  H40  1  0.67810000  0.48590000  0.77610000  1.0 0.1401923576
H  H41  1  0.15750000  0.00110000  0.51870000  1.0 0.1203013025
H  H42  1  0.00110000  0.15750000  0.32270000  1.0 0.1203013025
H  H43  1  0.51870000  0.32270000  0.15750000  1.0 0.1203013025
H  H44  1  0.32270000  0.51870000  0.00110000  1.0 0.1203013025
H  H45  1  0.84250000  0.99890000  0.48130000  1.0 0.1203013025
H  H46  1  0.99890000  0.84250000  0.67730000  1.0 0.1203013025
H  H47  1  0.48130000  0.67730000  0.84250000  1.0 0.1203013025
H  H48  1  0.67730000  0.48130000  0.99890000  1.0 0.1203013025
H  H49  1  0.19820000  0.04140000  0.50620000  1.0 0.1326889822
H  H50  1  0.04140000  0.19820000  0.25420000  1.0 0.1326889822
H  H51  1  0.50620000  0.25420000  0.19820000  1.0 0.1326889822
H  H52  1  0.25420000  0.50620000  0.04140000  1.0 0.1326889822
H  H53  1  0.80180000  0.95860000  0.49380000  1.0 0.1326889822
H  H54  1  0.95860000  0.80180000  0.74580000  1.0 0.1326889822
H  H55  1  0.49380000  0.74580000  0.80180000  1.0 0.1326889822
H  H56  1  0.74580000  0.49380000  0.95860000  1.0 0.1326889822
H  H57  1  0.09140000  0.98780000  0.57340000  1.0 0.1122322705
H  H58  1  0.98780000  0.09140000  0.34740000  1.0 0.1122322705
H  H59  1  0.57340000  0.34740000  0.09140000  1.0 0.1122322705
H  H60  1  0.34740000  0.57340000  0.98780000  1.0 0.1122322705
H  H61  1  0.90860000  0.01220000  0.42660000  1.0 0.1122322705
H  H62  1  0.01220000  0.90860000  0.65260000  1.0 0.1122322705
H  H63  1  0.42660000  0.65260000  0.90860000  1.0 0.1122322705
H  H64  1  0.65260000  0.42660000  0.01220000  1.0 0.1122322705
H  H65  1  0.12850000  0.97490000  0.47910000  1.0 0.1203013025
H  H66  1  0.97490000  0.12850000  0.41750000  1.0 0.1203013025
H  H67  1  0.47910000  0.41750000  0.12850000  1.0 0.1203013025
H  H68  1  0.41750000  0.47910000  0.97490000  1.0 0.1203013025
H  H69  1  0.87150000  0.02510000  0.52090000  1.0 0.1203013025
H  H70  1  0.02510000  0.87150000  0.58250000  1.0 0.1203013025
H  H71  1  0.52090000  0.58250000  0.87150000  1.0 0.1203013025
H  H72  1  0.58250000  0.52090000  0.02510000  1.0 0.1203013025
H  H73  1  0.06380000  0.93620000  0.59900000  1.0 0.1203013025
H  H74  1  0.93620000  0.06380000  0.40100000  1.0 0.1203013025
H  H75  1  0.59900000  0.40100000  0.06380000  1.0 0.1203013025
H  H76  1  0.40100000  0.59900000  0.93620000  1.0 0.1203013025
C  C1  1  0.10230000  0.35530000  0.49010000  1.0 0.5736034092
C  C2  1  0.35530000  0.10230000  0.05230000  1.0 0.5736034092
C  C3  1  0.49010000  0.05230000  0.10230000  1.0 0.5736034092
C  C4  1  0.05230000  0.49010000  0.35530000  1.0 0.5736034092
C  C5  1  0.89770000  0.64470000  0.50990000  1.0 0.5736034092
C  C6  1  0.64470000  0.89770000  0.94770000  1.0 0.5736034092
C  C7  1  0.50990000  0.94770000  0.89770000  1.0 0.5736034092
C  C8  1  0.94770000  0.50990000  0.64470000  1.0 0.5736034092
C  C9  1  0.36900000  0.08360000  0.50420000  1.0 0.5799233865
C  C10  1  0.08360000  0.36900000  0.04320000  1.0 0.5799233865
C  C11  1  0.50420000  0.04320000  0.36900000  1.0 0.5799233865
C  C12  1  0.04320000  0.50420000  0.08360000  1.0 0.5799233865
C  C13  1  0.63100000  0.91640000  0.49580000  1.0 0.5799233865
C  C14  1  0.91640000  0.63100000  0.95680000  1.0 0.5799233865
C  C15  1  0.49580000  0.95680000  0.63100000  1.0 0.5799233865
C  C16  1  0.95680000  0.49580000  0.91640000  1.0 0.5799233865
C  C17  1  0.23202000  0.21782000  0.50058000  1.0 -0.0902724671
C  C18  1  0.21782000  0.23202000  0.04958000  1.0 -0.0902724671
C  C19  1  0.50058000  0.04958000  0.23202000  1.0 -0.0902724671
C  C20  1  0.04958000  0.50058000  0.21782000  1.0 -0.0902724671
C  C21  1  0.76798000  0.78218000  0.49942000  1.0 -0.0902724671
C  C22  1  0.78218000  0.76798000  0.95042000  1.0 -0.0902724671
C  C23  1  0.49942000  0.95042000  0.76798000  1.0 -0.0902724671
C  C24  1  0.95042000  0.49942000  0.78218000  1.0 -0.0902724671
C  C25  1  0.15960000  0.27120000  0.49280000  1.0 -0.021104743
C  C26  1  0.27120000  0.15960000  0.07640000  1.0 -0.021104743
C  C27  1  0.49280000  0.07640000  0.15960000  1.0 -0.021104743
C  C28  1  0.07640000  0.49280000  0.27120000  1.0 -0.021104743
C  C29  1  0.84040000  0.72880000  0.50720000  1.0 -0.021104743
C  C30  1  0.72880000  0.84040000  0.92360000  1.0 -0.021104743
C  C31  1  0.50720000  0.92360000  0.84040000  1.0 -0.021104743
C  C32  1  0.92360000  0.50720000  0.72880000  1.0 -0.021104743
C  C33  1  0.13946000  0.24606000  0.49114000  1.0 -0.1277832487
C  C34  1  0.24606000  0.13946000  0.12334000  1.0 -0.1243221915
C  C35  1  0.49114000  0.12334000  0.13946000  1.0 -0.1243221915
C  C36  1  0.12334000  0.49114000  0.24606000  1.0 -0.1243221915
C  C37  1  0.86054000  0.75394000  0.50886000  1.0 -0.1243221915
C  C38  1  0.75394000  0.86054000  0.87666000  1.0 -0.1243221915
C  C39  1  0.50886000  0.87666000  0.86054000  1.0 -0.1243221915
C  C40  1  0.87666000  0.50886000  0.75394000  1.0 -0.1243221915
C  C41  1  0.19590000  0.16470000  0.49210000  1.0 0.1568483196
C  C42  1  0.16470000  0.19590000  0.14730000  1.0 0.1568483196
C  C43  1  0.49210000  0.14730000  0.19590000  1.0 0.1568483196
C  C44  1  0.14730000  0.49210000  0.16470000  1.0 0.1568483196
C  C45  1  0.80410000  0.83530000  0.50790000  1.0 0.1568483196
C  C46  1  0.83530000  0.80410000  0.85270000  1.0 0.1568483196
C  C47  1  0.50790000  0.85270000  0.80410000  1.0 0.1568483196
C  C48  1  0.85270000  0.50790000  0.83530000  1.0 0.1568483196
C  C49  1  0.27192000  0.11272000  0.49608000  1.0 -0.1513836693
C  C50  1  0.11272000  0.27192000  0.11928000  1.0 -0.1513836693
C  C51  1  0.49608000  0.11928000  0.27192000  1.0 -0.1513836693
C  C52  1  0.11928000  0.49608000  0.11272000  1.0 -0.1513836693
C  C53  1  0.72808000  0.88728000  0.50392000  1.0 -0.1513836693
C  C54  1  0.88728000  0.72808000  0.88072000  1.0 -0.1513836693
C  C55  1  0.50392000  0.88072000  0.72808000  1.0 -0.1513836693
C  C56  1  0.88072000  0.50392000  0.88728000  1.0 -0.1513836693
C  C57  1  0.29046000  0.14026000  0.49954000  1.0 -0.0414444261
C  C58  1  0.14026000  0.29046000  0.06974000  1.0 -0.0414444261
C  C59  1  0.49954000  0.06974000  0.29046000  1.0 -0.0414444261
C  C60  1  0.06974000  0.49954000  0.14026000  1.0 -0.0414444261
C  C61  1  0.70954000  0.85974000  0.50046000  1.0 -0.0414444261
C  C62  1  0.85974000  0.70954000  0.93026000  1.0 -0.0414444261
C  C63  1  0.50046000  0.93026000  0.70954000  1.0 -0.0414444261
C  C64  1  0.93026000  0.50046000  0.85974000  1.0 -0.0414444261
C  C65  1  0.08980000  0.15660000  0.50520000  1.0 0.1203013025
C  C66  1  0.15660000  0.08980000  0.24840000  1.0 0.1203013025
C  C67  1  0.50520000  0.24840000  0.08980000  1.0 0.1203013025
C  C68  1  0.24840000  0.50520000  0.15660000  1.0 0.1203013025
C  C69  1  0.91020000  0.84340000  0.49480000  1.0 0.1203013025
C  C70  1  0.84340000  0.91020000  0.75160000  1.0 0.1203013025
C  C71  1  0.49480000  0.75160000  0.91020000  1.0 0.1203013025
C  C72  1  0.75160000  0.49480000  0.84340000  1.0 0.1203013025
C  C73  1  0.01230000  0.21410000  0.50870000  1.0 -0.1557585795
C  C74  1  0.21410000  0.01230000  0.26490000  1.0 -0.1557585795
C  C75  1  0.50870000  0.26490000  0.01230000  1.0 -0.1557585795
C  C76  1  0.26490000  0.50870000  0.21410000  1.0 -0.1557585795
C  C77  1  0.98770000  0.78590000  0.49130000  1.0 -0.1557585795
C  C78  1  0.78590000  0.98770000  0.73510000  1.0 -0.1557585795
C  C79  1  0.49130000  0.73510000  0.98770000  1.0 -0.1557585795
C  C80  1  0.73510000  0.49130000  0.78590000  1.0 -0.1557585795
C  C81  1  0.99250000  0.18630000  0.51330000  1.0 -0.2284839522
C  C82  1  0.18630000  0.99250000  0.30790000  1.0 -0.2284839522
C  C83  1  0.51330000  0.30790000  0.99250000  1.0 -0.2284839522
C  C84  1  0.30790000  0.51330000  0.18630000  1.0 -0.2284839522
C  C85  1  0.00750000  0.81370000  0.48670000  1.0 -0.2284839522
C  C86  1  0.81370000  0.00750000  0.69210000  1.0 -0.2284839522
C  C87  1  0.48670000  0.69210000  0.00750000  1.0 -0.2284839522
C  C88  1  0.69210000  0.48670000  0.81370000  1.0 -0.2284839522
C  C89  1  0.04350000  0.10870000  0.51690000  1.0 0.2519267079
C  C90  1  0.10870000  0.04350000  0.33090000  1.0 0.2519267079
C  C91  1  0.51690000  0.33090000  0.04350000  1.0 0.2519267079
C  C92  1  0.33090000  0.51690000  0.10870000  1.0 0.2519267079
C  C93  1  0.95650000  0.89130000  0.48310000  1.0 0.2519267079
C  C94  1  0.89130000  0.95650000  0.66910000  1.0 0.2519267079
C  C95  1  0.48310000  0.66910000  0.95650000  1.0 0.2519267079
C  C96  1  0.66910000  0.48310000  0.89130000  1.0 0.2519267079
C  C97  1  0.12070000  0.05530000  0.51510000  1.0 -0.2284839522
C  C98  1  0.05530000  0.12070000  0.30890000  1.0 -0.2284839522
C  C99  1  0.51510000  0.30890000  0.12070000  1.0 -0.2284839522
C  C100  1  0.30890000  0.51510000  0.05530000  1.0 -0.2284839522
C  C101  1  0.87930000  0.94470000  0.48490000  1.0 -0.2284839522
C  C102  1  0.94470000  0.87930000  0.69110000  1.0 -0.2284839522
C  C103  1  0.48490000  0.69110000  0.87930000  1.0 -0.2284839522
C  C104  1  0.69110000  0.48490000  0.94470000  1.0 -0.2284839522
C  C105  1  0.14570000  0.07830000  0.50830000  1.0 -0.1513836693
C  C106  1  0.07830000  0.14570000  0.26770000  1.0 -0.1513836693
C  C107  1  0.50830000  0.26770000  0.14570000  1.0 -0.1513836693
C  C108  1  0.26770000  0.50830000  0.07830000  1.0 -0.1513836693
C  C109  1  0.85430000  0.92170000  0.49170000  1.0 -0.1513836693
C  C110  1  0.92170000  0.85430000  0.73230000  1.0 -0.1513836693
C  C111  1  0.49170000  0.73230000  0.85430000  1.0 -0.1513836693
C  C112  1  0.73230000  0.49170000  0.92170000  1.0 -0.1513836693
C  C113  1  0.07970000  0.00530000  0.52190000  1.0 -0.0902724671
C  C114  1  0.00530000  0.07970000  0.39310000  1.0 -0.0902724671
C  C115  1  0.52190000  0.39310000  0.07970000  1.0 -0.0902724671
C  C116  1  0.39310000  0.52190000  0.00530000  1.0 -0.0902724671
C  C117  1  0.92030000  0.99470000  0.47810000  1.0 -0.0902724671
C  C118  1  0.99470000  0.92030000  0.60690000  1.0 -0.0902724671
C  C119  1  0.47810000  0.60690000  0.92030000  1.0 -0.0902724671
C  C120  1  0.60690000  0.47810000  0.99470000  1.0 -0.0902724671
C  C121  1  0.03933000  0.00253000  0.50767000  1.0 0.0267865027
C  C122  1  0.00253000  0.03933000  0.45047000  1.0 0.0267865027
C  C123  1  0.50767000  0.45047000  0.03933000  1.0 0.0267865027
C  C124  1  0.45047000  0.50767000  0.00253000  1.0 0.0267865027
C  C125  1  0.96067000  0.99747000  0.49233000  1.0 0.0267865027
C  C126  1  0.99747000  0.96067000  0.54953000  1.0 0.0267865027
C  C127  1  0.49233000  0.54953000  0.96067000  1.0 0.0267865027
C  C128  1  0.54953000  0.49233000  0.99747000  1.0 0.0267865027
C  C129  1  0.03780000  0.96220000  0.55880000  1.0 -0.2284839522
C  C130  1  0.96220000  0.03780000  0.44120000  1.0 -0.2284839522
C  C131  1  0.55880000  0.44120000  0.03780000  1.0 -0.2284839522
C  C132  1  0.44120000  0.55880000  0.96220000  1.0 -0.2284839522
N  N1  1  0.18650000  0.12630000  0.48970000  1.0 -0.1277832487
N  N2  1  0.12630000  0.18650000  0.19750000  1.0 -0.1277832487
N  N3  1  0.48970000  0.19750000  0.18650000  1.0 -0.1277832487
N  N4  1  0.19750000  0.48970000  0.12630000  1.0 -0.1277832487
N  N5  1  0.81350000  0.87370000  0.51030000  1.0 -0.1277832487
N  N6  1  0.87370000  0.81350000  0.80250000  1.0 -0.1277832487
N  N7  1  0.51030000  0.80250000  0.81350000  1.0 -0.1277832487
N  N8  1  0.80250000  0.51030000  0.87370000  1.0 -0.1277832487
N  N9  1  0.11540000  0.18040000  0.49800000  1.0 -0.0961869899
N  N10  1  0.18040000  0.11540000  0.20620000  1.0 -0.0961869899
N  N11  1  0.49800000  0.20620000  0.11540000  1.0 -0.0961869899
N  N12  1  0.20620000  0.49800000  0.18040000  1.0 -0.0961869899
N  N13  1  0.88460000  0.81960000  0.50200000  1.0 -0.0961869899
N  N14  1  0.81960000  0.88460000  0.79380000  1.0 -0.0902724671
N  N15  1  0.50200000  0.79380000  0.88460000  1.0 -0.0902724671
N  N16  1  0.79380000  0.50200000  0.81960000  1.0 -0.0902724671
O  O1  1  0.03461000  0.40127000  0.48133000  1.0 -0.5280618828
O  O2  1  0.40127000  0.03461000  0.08279000  1.0 -0.5280618828
O  O3  1  0.48133000  0.08279000  0.03461000  1.0 -0.5280618828
O  O4  1  0.08279000  0.48133000  0.40127000  1.0 -0.5280618828
O  O5  1  0.96539000  0.59873000  0.51867000  1.0 -0.5280618828
O  O6  1  0.59873000  0.96539000  0.91721000  1.0 -0.5280618828
O  O7  1  0.51867000  0.91721000  0.96539000  1.0 -0.5280618828
O  O8  1  0.91721000  0.51867000  0.59873000  1.0 -0.5280618828
O  O9  1  0.00171000  0.50341000  0.37679000  1.0 -0.4696665567
O  O10  1  0.50341000  0.00171000  0.11809000  1.0 -0.4696665567
O  O11  1  0.37679000  0.11809000  0.00171000  1.0 -0.4696665567
O  O12  1  0.11809000  0.37679000  0.50341000  1.0 -0.4696665567
O  O13  1  0.99829000  0.49659000  0.62321000  1.0 -0.4696665567
O  O14  1  0.49659000  0.99829000  0.88191000  1.0 -0.4696665567
O  O15  1  0.62321000  0.88191000  0.99829000  1.0 -0.4696665567
O  O16  1  0.88191000  0.62321000  0.49659000  1.0 -0.4696665567
O  O17  1  0.37241000  0.11627000  0.52733000  1.0 -0.5280618828
O  O18  1  0.11627000  0.37241000  0.98399000  1.0 -0.5280618828
O  O19  1  0.52733000  0.98399000  0.37241000  1.0 -0.5280618828
O  O20  1  0.98399000  0.52733000  0.11627000  1.0 -0.5280618828
O  O21  1  0.62759000  0.88373000  0.47267000  1.0 -0.5280618828
O  O22  1  0.88373000  0.62759000  0.01601000  1.0 -0.5280618828
O  O23  1  0.47267000  0.01601000  0.62759000  1.0 -0.5280618828
O  O24  1  0.01601000  0.47267000  0.88373000  1.0 -0.5280618828
O  O25  1  0.42353000  0.01227000  0.48093000  1.0 -0.4970112566
O  O26  1  0.01227000  0.42353000  0.08327000  1.0 -0.4970112566
O  O27  1  0.48093000  0.08327000  0.42353000  1.0 -0.4970112566
O  O28  1  0.08327000  0.48093000  0.01227000  1.0 -0.4970112566
O  O29  1  0.57647000  0.98773000  0.51907000  1.0 -0.4970112566
O  O30  1  0.98773000  0.57647000  0.91673000  1.0 -0.4970112566
O  O31  1  0.51907000  0.91673000  0.57647000  1.0 -0.4970112566
O  O32  1  0.91673000  0.51907000  0.98773000  1.0 -0.4970112566
O  O33  1  0.01580000  0.09060000  0.52100000  1.0 -0.1767819702
O  O34  1  0.09060000  0.01580000  0.37260000  1.0 -0.1767819702
O  O35  1  0.52100000  0.37260000  0.01580000  1.0 -0.1767819702
O  O36  1  0.37260000  0.52100000  0.09060000  1.0 -0.1767819702
O  O37  1  0.98420000  0.90940000  0.47900000  1.0 -0.1767819702
O  O38  1  0.90940000  0.98420000  0.62740000  1.0 -0.1767819702
O  O39  1  0.47900000  0.62740000  0.98420000  1.0 -0.1767819702
O  O40  1  0.62740000  0.47900000  0.90940000  1.0 -0.1767819702
