# DDEC6 charges by PACMAN v1.1 (https://github.com/mtap-research/PACMAN-charge/)
data_CAJWER_FSR_pacman
_symmetry_space_group_name_H-M   'P 1'
_cell_length_a   23.04260000
_cell_length_b   23.04260000
_cell_length_c   9.95220000
_cell_angle_alpha   77.80160000
_cell_angle_beta   102.19800000
_cell_angle_gamma   155.54800000
_symmetry_Int_Tables_number   1
_chemical_formula_structural   InH26(C21O4)2
_chemical_formula_sum   'In2 H52 C84 O16'
_cell_volume   2135.57656410
_cell_formula_units_Z   2
loop_
 _symmetry_equiv_pos_site_id
 _symmetry_equiv_pos_as_xyz
  1  'x, y, z'
loop_
 _atom_site_type_symbol
 _atom_site_label
 _atom_site_symmetry_multiplicity
 _atom_site_fract_x
 _atom_site_fract_y
 _atom_site_fract_z
 _atom_site_occupancy
 _atom_site_charge
In  In1  1  0.41496000  0.58504000  0.09716000  1.0 1.3520594598
In  In2  1  0.58504000  0.41496000  0.90284000  1.0 1.3520594598
H  H1  1  0.91670000  0.08330000  0.09470000  1.0 0.1285167024
H  H2  1  0.20370000  0.21070000  0.16790000  1.0 0.1285167024
H  H3  1  0.78930000  0.79630000  0.16790000  1.0 0.1285167024
H  H4  1  0.24720000  0.16360000  0.20200000  1.0 0.1285167024
H  H5  1  0.83640000  0.75280000  0.20200000  1.0 0.1285167024
H  H6  1  0.30220000  0.11260000  0.25270000  1.0 0.1175134193
H  H7  1  0.88740000  0.69780000  0.25270000  1.0 0.1175134193
H  H8  1  0.95830000  0.67710000  0.17990000  1.0 0.1285167024
H  H9  1  0.32290000  0.04170000  0.17990000  1.0 0.1285167024
H  H10  1  0.31150000  0.03210000  0.40340000  1.0 0.1078027324
H  H11  1  0.96790000  0.68850000  0.40340000  1.0 0.1078027324
H  H12  1  0.36850000  0.98330000  0.44560000  1.0 0.100423011
H  H13  1  0.01670000  0.63150000  0.44560000  1.0 0.100423011
H  H14  1  0.15570000  0.56870000  0.31000000  1.0 0.100423011
H  H15  1  0.43130000  0.84430000  0.31000000  1.0 0.100423011
H  H16  1  0.10320000  0.62380000  0.24640000  1.0 0.100423011
H  H17  1  0.37620000  0.89680000  0.24640000  1.0 0.100423011
H  H18  1  0.35420000  0.77680000  0.65620000  1.0 0.0681092228
H  H19  1  0.22320000  0.64580000  0.65620000  1.0 0.0681092228
H  H20  1  0.30590000  0.83610000  0.58850000  1.0 0.0764071257
H  H21  1  0.16390000  0.69410000  0.58850000  1.0 0.0764071257
H  H22  1  0.33350000  0.66650000  0.71670000  1.0 0.1175134193
H  H23  1  0.41490000  0.58510000  0.60940000  1.0 0.14352282
H  H24  1  0.33710000  0.66290000  0.31850000  1.0 0.1285167024
H  H25  1  0.99930000  0.61250000  0.25390000  1.0 0.100423011
H  H26  1  0.38750000  0.00070000  0.25390000  1.0 0.100423011
H  H27  1  0.08330000  0.91670000  0.90530000  1.0 0.1285167024
H  H28  1  0.21070000  0.20370000  0.83210000  1.0 0.1285167024
H  H29  1  0.79630000  0.78930000  0.83210000  1.0 0.1285167024
H  H30  1  0.16360000  0.24720000  0.79800000  1.0 0.1285167024
H  H31  1  0.75280000  0.83640000  0.79800000  1.0 0.1285167024
H  H32  1  0.11260000  0.30220000  0.74730000  1.0 0.1175134193
H  H33  1  0.69780000  0.88740000  0.74730000  1.0 0.1175134193
H  H34  1  0.67710000  0.95830000  0.82010000  1.0 0.1285167024
H  H35  1  0.04170000  0.32290000  0.82010000  1.0 0.1285167024
H  H36  1  0.03210000  0.31150000  0.59660000  1.0 0.1078027324
H  H37  1  0.68850000  0.96790000  0.59660000  1.0 0.1078027324
H  H38  1  0.98330000  0.36850000  0.55440000  1.0 0.100423011
H  H39  1  0.63150000  0.01670000  0.55440000  1.0 0.100423011
H  H40  1  0.56870000  0.15570000  0.69000000  1.0 0.100423011
H  H41  1  0.84430000  0.43130000  0.69000000  1.0 0.100423011
H  H42  1  0.62380000  0.10320000  0.75360000  1.0 0.100423011
H  H43  1  0.89680000  0.37620000  0.75360000  1.0 0.100423011
H  H44  1  0.77680000  0.35420000  0.34380000  1.0 0.059034924
H  H45  1  0.64580000  0.22320000  0.34380000  1.0 0.059034924
H  H46  1  0.83610000  0.30590000  0.41150000  1.0 0.0764071257
H  H47  1  0.69410000  0.16390000  0.41150000  1.0 0.0764071257
H  H48  1  0.66650000  0.33350000  0.28330000  1.0 0.1175134193
H  H49  1  0.58510000  0.41490000  0.39060000  1.0 0.14352282
H  H50  1  0.66290000  0.33710000  0.68150000  1.0 0.1285167024
H  H51  1  0.61250000  0.99930000  0.74610000  1.0 0.100423011
H  H52  1  0.00070000  0.38750000  0.74610000  1.0 0.100423011
C  C1  1  0.19318000  0.31662000  0.11730000  1.0 0.5341573915
C  C2  1  0.68338000  0.80682000  0.11730000  1.0 0.5341573915
C  C3  1  0.07565000  0.16695000  0.13260000  1.0 -0.0103662086
C  C4  1  0.83305000  0.92435000  0.13260000  1.0 -0.0103662086
C  C5  1  0.93830000  0.06170000  0.11640000  1.0 -0.1007405683
C  C6  1  0.10817000  0.13643000  0.15870000  1.0 -0.1455057911
C  C7  1  0.86357000  0.89183000  0.15870000  1.0 -0.1455057911
C  C8  1  0.00210000  0.99790000  0.17160000  1.0 0.0681092228
C  C9  1  0.03620000  0.96380000  0.20070000  1.0 0.0681092228
C  C10  1  0.17328000  0.06832000  0.21280000  1.0 -0.1259750067
C  C11  1  0.93168000  0.82672000  0.21280000  1.0 -0.1259750067
C  C12  1  0.20663000  0.03817000  0.24040000  1.0 -0.1381090857
C  C13  1  0.96183000  0.79337000  0.24040000  1.0 -0.1381090857
C  C14  1  0.10060000  0.89940000  0.24980000  1.0 0.059034924
C  C15  1  0.13430000  0.86570000  0.28900000  1.0 0.059034924
C  C16  1  0.03620000  0.73420000  0.24300000  1.0 -0.0706600505
C  C17  1  0.26580000  0.96380000  0.24300000  1.0 -0.0706600505
C  C18  1  0.25120000  0.95120000  0.36400000  1.0 -0.0520467574
C  C19  1  0.04880000  0.74880000  0.36400000  1.0 -0.0520467574
C  C20  1  0.28030000  0.91570000  0.39800000  1.0 -0.0520467574
C  C21  1  0.08430000  0.71970000  0.39800000  1.0 -0.0520467574
C  C22  1  0.19820000  0.80180000  0.35790000  1.0 0.0404175506
C  C23  1  0.23200000  0.76800000  0.39250000  1.0 0.0404175506
C  C24  1  0.19980000  0.63620000  0.35890000  1.0 -0.1381090857
C  C25  1  0.36380000  0.80020000  0.35890000  1.0 -0.1381090857
C  C26  1  0.16920000  0.66960000  0.32180000  1.0 -0.1381090857
C  C27  1  0.33040000  0.83080000  0.32180000  1.0 -0.1381090857
C  C28  1  0.31860000  0.76100000  0.56430000  1.0 -0.0520467574
C  C29  1  0.23900000  0.68140000  0.56430000  1.0 -0.0520467574
C  C30  1  0.28810000  0.79450000  0.52460000  1.0 -0.0627687662
C  C31  1  0.20550000  0.71190000  0.52460000  1.0 -0.0627687662
C  C32  1  0.29650000  0.70350000  0.47100000  1.0 0.059034924
C  C33  1  0.33010000  0.66990000  0.51230000  1.0 0.0404175506
C  C34  1  0.34500000  0.65500000  0.64700000  1.0 -0.1909957766
C  C35  1  0.37690000  0.62310000  0.68460000  1.0 -0.0288229599
C  C36  1  0.39330000  0.60670000  0.58460000  1.0 -0.1110935896
C  C37  1  0.37900000  0.62100000  0.45060000  1.0 0.0105440039
C  C38  1  0.34710000  0.65290000  0.41300000  1.0 -0.1593998014
C  C39  1  0.39650000  0.60350000  0.33990000  1.0 0.5513085784
C  C40  1  0.39140000  0.60860000  0.83090000  1.0 0.5341573915
C  C41  1  0.06540000  0.70080000  0.27800000  1.0 -0.0706600505
C  C42  1  0.29920000  0.93460000  0.27800000  1.0 -0.0706600505
C  C43  1  0.31662000  0.19318000  0.88270000  1.0 0.5341573915
C  C44  1  0.80682000  0.68338000  0.88270000  1.0 0.5341573915
C  C45  1  0.16695000  0.07565000  0.86740000  1.0 -0.0103662086
C  C46  1  0.92435000  0.83305000  0.86740000  1.0 -0.0103662086
C  C47  1  0.06170000  0.93830000  0.88360000  1.0 -0.1007405683
C  C48  1  0.13643000  0.10817000  0.84130000  1.0 -0.1455057911
C  C49  1  0.89183000  0.86357000  0.84130000  1.0 -0.1455057911
C  C50  1  0.99790000  0.00210000  0.82840000  1.0 0.0681092228
C  C51  1  0.96380000  0.03620000  0.79930000  1.0 0.0681092228
C  C52  1  0.06832000  0.17328000  0.78720000  1.0 -0.1259750067
C  C53  1  0.82672000  0.93168000  0.78720000  1.0 -0.1259750067
C  C54  1  0.03817000  0.20663000  0.75960000  1.0 -0.1381090857
C  C55  1  0.79337000  0.96183000  0.75960000  1.0 -0.1381090857
C  C56  1  0.89940000  0.10060000  0.75020000  1.0 0.059034924
C  C57  1  0.86570000  0.13430000  0.71100000  1.0 0.059034924
C  C58  1  0.73420000  0.03620000  0.75700000  1.0 -0.0706600505
C  C59  1  0.96380000  0.26580000  0.75700000  1.0 -0.0706600505
C  C60  1  0.95120000  0.25120000  0.63600000  1.0 -0.0520467574
C  C61  1  0.74880000  0.04880000  0.63600000  1.0 -0.0520467574
C  C62  1  0.91570000  0.28030000  0.60200000  1.0 -0.0520467574
C  C63  1  0.71970000  0.08430000  0.60200000  1.0 -0.0520467574
C  C64  1  0.80180000  0.19820000  0.64210000  1.0 0.0404175506
C  C65  1  0.76800000  0.23200000  0.60750000  1.0 0.0404175506
C  C66  1  0.63620000  0.19980000  0.64110000  1.0 -0.1381090857
C  C67  1  0.80020000  0.36380000  0.64110000  1.0 -0.1381090857
C  C68  1  0.66960000  0.16920000  0.67820000  1.0 -0.1381090857
C  C69  1  0.83080000  0.33040000  0.67820000  1.0 -0.1381090857
C  C70  1  0.76100000  0.31860000  0.43570000  1.0 -0.0520467574
C  C71  1  0.68140000  0.23900000  0.43570000  1.0 -0.0520467574
C  C72  1  0.79450000  0.28810000  0.47540000  1.0 -0.0627687662
C  C73  1  0.71190000  0.20550000  0.47540000  1.0 -0.0627687662
C  C74  1  0.70350000  0.29650000  0.52900000  1.0 0.059034924
C  C75  1  0.66990000  0.33010000  0.48770000  1.0 0.0404175506
C  C76  1  0.65500000  0.34500000  0.35300000  1.0 -0.1909957766
C  C77  1  0.62310000  0.37690000  0.31540000  1.0 -0.0288229599
C  C78  1  0.60670000  0.39330000  0.41540000  1.0 -0.1110935896
C  C79  1  0.62100000  0.37900000  0.54940000  1.0 0.0105440039
C  C80  1  0.65290000  0.34710000  0.58700000  1.0 -0.1593998014
C  C81  1  0.60350000  0.39650000  0.66010000  1.0 0.5513085784
C  C82  1  0.60860000  0.39140000  0.16910000  1.0 0.5341573915
C  C83  1  0.70080000  0.06540000  0.72200000  1.0 -0.0706600505
C  C84  1  0.93460000  0.29920000  0.72200000  1.0 -0.0706600505
O  O1  1  0.42029000  0.57971000  0.87110000  1.0 -0.5304129063
O  O2  1  0.37506000  0.62494000  0.92070000  1.0 -0.5186747997
O  O3  1  0.42360000  0.57640000  0.36210000  1.0 -0.4679047107
O  O4  1  0.38090000  0.61910000  0.21490000  1.0 -0.5186747997
O  O5  1  0.17219000  0.35221000  0.08610000  1.0 -0.5186747997
O  O6  1  0.64779000  0.82781000  0.08610000  1.0 -0.5186747997
O  O7  1  0.31665000  0.40835000  0.14360000  1.0 -0.4986142083
O  O8  1  0.59165000  0.68335000  0.14360000  1.0 -0.4986142083
O  O9  1  0.57971000  0.42029000  0.12890000  1.0 -0.5304129063
O  O10  1  0.62494000  0.37506000  0.07930000  1.0 -0.5186747997
O  O11  1  0.57640000  0.42360000  0.63790000  1.0 -0.4679047107
O  O12  1  0.61910000  0.38090000  0.78510000  1.0 -0.5186747997
O  O13  1  0.35221000  0.17219000  0.91390000  1.0 -0.5186747997
O  O14  1  0.82781000  0.64779000  0.91390000  1.0 -0.5186747997
O  O15  1  0.40835000  0.31665000  0.85640000  1.0 -0.4986142083
O  O16  1  0.68335000  0.59165000  0.85640000  1.0 -0.4986142083
