# DDEC6 charges by PACMAN v1.1 (https://github.com/mtap-research/PACMAN-charge/)
data_CAMWOG_FSR_pacman
_symmetry_space_group_name_H-M   'P 1'
_cell_length_a   12.38000000
_cell_length_b   15.04000000
_cell_length_c   14.04000000
_cell_angle_alpha   90.00000000
_cell_angle_beta   102.75000000
_cell_angle_gamma   90.00000000
_symmetry_Int_Tables_number   1
_chemical_formula_structural   AlH3C5N2O5
_chemical_formula_sum   'Al8 H24 C40 N16 O40'
_cell_volume   2549.72098044
_cell_formula_units_Z   8
loop_
 _symmetry_equiv_pos_site_id
 _symmetry_equiv_pos_as_xyz
  1  'x, y, z'
loop_
 _atom_site_type_symbol
 _atom_site_label
 _atom_site_symmetry_multiplicity
 _atom_site_fract_x
 _atom_site_fract_y
 _atom_site_fract_z
 _atom_site_occupancy
 _atom_site_charge
Al  Al1  1  0.26570000  0.43930000  0.55940000  1.0 1.6235576863
Al  Al2  1  0.73430000  0.93930000  0.94060000  1.0 1.6235576863
Al  Al3  1  0.73430000  0.56070000  0.44060000  1.0 1.6235576863
Al  Al4  1  0.26570000  0.06070000  0.05940000  1.0 1.6235576863
Al  Al5  1  0.00000000  0.50000000  0.50000000  1.0 1.653797924
Al  Al6  1  0.00000000  0.00000000  0.00000000  1.0 1.653797924
Al  Al7  1  0.50000000  0.50000000  0.50000000  1.0 1.6675789351
Al  Al8  1  0.50000000  0.00000000  0.00000000  1.0 1.6675789351
H  H1  1  0.17374000  0.57484000  0.50249000  1.0 0.4394750441
H  H2  1  0.30653000  0.48747000  0.41455000  1.0 0.4394750441
H  H3  1  0.70070000  0.12545000  0.71498000  1.0 0.2916257972
H  H4  1  0.91014000  0.26094000  0.86282000  1.0 0.3047626311
H  H5  1  0.21019000  0.27751000  0.82017000  1.0 0.1718762344
H  H6  1  0.41652000  0.19902000  0.74353000  1.0 0.1718762344
H  H7  1  0.82626000  0.07484000  0.99751000  1.0 0.4394750441
H  H8  1  0.69347000  0.98747000  0.08545000  1.0 0.4394750441
H  H9  1  0.29930000  0.62545000  0.78502000  1.0 0.2916257972
H  H10  1  0.08986000  0.76094000  0.63718000  1.0 0.3047626311
H  H11  1  0.78981000  0.77751000  0.67983000  1.0 0.1718762344
H  H12  1  0.58348000  0.69902000  0.75647000  1.0 0.1718762344
H  H13  1  0.82626000  0.42516000  0.49751000  1.0 0.4394750441
H  H14  1  0.69347000  0.51253000  0.58545000  1.0 0.4394750441
H  H15  1  0.29930000  0.87455000  0.28502000  1.0 0.2916257972
H  H16  1  0.08986000  0.73906000  0.13718000  1.0 0.3047626311
H  H17  1  0.78981000  0.72249000  0.17983000  1.0 0.1718762344
H  H18  1  0.58348000  0.80098000  0.25647000  1.0 0.1718762344
H  H19  1  0.17374000  0.92516000  0.00249000  1.0 0.4394750441
H  H20  1  0.30653000  0.01253000  0.91455000  1.0 0.4394750441
H  H21  1  0.70070000  0.37455000  0.21498000  1.0 0.2916257972
H  H22  1  0.91014000  0.23906000  0.36282000  1.0 0.3047626311
H  H23  1  0.21019000  0.22249000  0.32017000  1.0 0.1718762344
H  H24  1  0.41652000  0.30098000  0.24353000  1.0 0.1718762344
C  C1  1  0.08800000  0.39730000  0.67600000  1.0 0.5694236452
C  C2  1  0.56900000  0.14300000  0.76300000  1.0 0.0281936749
C  C3  1  0.58200000  0.07070000  0.83300000  1.0 0.5932977492
C  C4  1  0.07100000  0.34170000  0.75000000  1.0 -0.0156607884
C  C5  1  0.52500000  0.26040000  0.66300000  1.0 0.0130890784
C  C6  1  0.13400000  0.28410000  0.81400000  1.0 -0.169858933
C  C7  1  0.47100000  0.33950000  0.61300000  1.0 0.6294195498
C  C8  1  0.09500000  0.16470000  0.93300000  1.0 0.5932977492
C  C9  1  0.07400000  0.23700000  0.86700000  1.0 -0.0072250534
C  C10  1  0.48600000  0.19910000  0.72800000  1.0 -0.2065887829
C  C11  1  0.91200000  0.89730000  0.82400000  1.0 0.5694236452
C  C12  1  0.43100000  0.64300000  0.73700000  1.0 0.0281936749
C  C13  1  0.41800000  0.57070000  0.66700000  1.0 0.5932977492
C  C14  1  0.92900000  0.84170000  0.75000000  1.0 -0.0156607884
C  C15  1  0.47500000  0.76040000  0.83700000  1.0 0.0130890784
C  C16  1  0.86600000  0.78410000  0.68600000  1.0 -0.169858933
C  C17  1  0.52900000  0.83950000  0.88700000  1.0 0.6294195498
C  C18  1  0.90500000  0.66470000  0.56700000  1.0 0.5932977492
C  C19  1  0.92600000  0.73700000  0.63300000  1.0 -0.0072250534
C  C20  1  0.51400000  0.69910000  0.77200000  1.0 -0.2065887829
C  C21  1  0.91200000  0.60270000  0.32400000  1.0 0.5694236452
C  C22  1  0.43100000  0.85700000  0.23700000  1.0 0.0281936749
C  C23  1  0.41800000  0.92930000  0.16700000  1.0 0.5932977492
C  C24  1  0.92900000  0.65830000  0.25000000  1.0 -0.0156607884
C  C25  1  0.47500000  0.73960000  0.33700000  1.0 0.0130890784
C  C26  1  0.86600000  0.71590000  0.18600000  1.0 -0.169858933
C  C27  1  0.52900000  0.66050000  0.38700000  1.0 0.6294195498
C  C28  1  0.90500000  0.83530000  0.06700000  1.0 0.5932977492
C  C29  1  0.92600000  0.76300000  0.13300000  1.0 -0.0072250534
C  C30  1  0.51400000  0.80090000  0.27200000  1.0 -0.2065887829
C  C31  1  0.08800000  0.10270000  0.17600000  1.0 0.5694236452
C  C32  1  0.56900000  0.35700000  0.26300000  1.0 0.0281936749
C  C33  1  0.58200000  0.42930000  0.33300000  1.0 0.5932977492
C  C34  1  0.07100000  0.15830000  0.25000000  1.0 -0.0156607884
C  C35  1  0.52500000  0.23960000  0.16300000  1.0 0.0130890784
C  C36  1  0.13400000  0.21590000  0.31400000  1.0 -0.169858933
C  C37  1  0.47100000  0.16050000  0.11300000  1.0 0.6294195498
C  C38  1  0.09500000  0.33530000  0.43300000  1.0 0.5932977492
C  C39  1  0.07400000  0.26300000  0.36700000  1.0 -0.0072250534
C  C40  1  0.48600000  0.30090000  0.22800000  1.0 -0.2065887829
N  N1  1  0.64400000  0.15960000  0.71200000  1.0 -0.0300385226
N  N2  1  0.96500000  0.33910000  0.76500000  1.0 -0.169858933
N  N3  1  0.62900000  0.23330000  0.65400000  1.0 -0.19711287
N  N4  1  0.96600000  0.27490000  0.83900000  1.0 -0.0738119972
N  N5  1  0.35600000  0.65960000  0.78800000  1.0 -0.0300385226
N  N6  1  0.03500000  0.83910000  0.73500000  1.0 -0.169858933
N  N7  1  0.37100000  0.73330000  0.84600000  1.0 -0.19711287
N  N8  1  0.03400000  0.77490000  0.66100000  1.0 -0.0738119972
N  N9  1  0.35600000  0.84040000  0.28800000  1.0 -0.0300385226
N  N10  1  0.03500000  0.66090000  0.23500000  1.0 -0.169858933
N  N11  1  0.37100000  0.76670000  0.34600000  1.0 -0.19711287
N  N12  1  0.03400000  0.72510000  0.16100000  1.0 -0.0738119972
N  N13  1  0.64400000  0.34040000  0.21200000  1.0 -0.0300385226
N  N14  1  0.96500000  0.16090000  0.26500000  1.0 -0.169858933
N  N15  1  0.62900000  0.26670000  0.15400000  1.0 -0.19711287
N  N16  1  0.96600000  0.22510000  0.33900000  1.0 -0.0738119972
O  O1  1  0.15250000  0.51810000  0.51730000  1.0 -1.0002870714
O  O2  1  0.34600000  0.47720000  0.47800000  1.0 -1.0002870714
O  O3  1  0.53310000  0.38900000  0.57050000  1.0 -0.5970521574
O  O4  1  0.50690000  0.06610000  0.88510000  1.0 -0.5809967225
O  O5  1  0.37200000  0.35250000  0.61500000  1.0 -0.5487988596
O  O6  1  0.66840000  0.02190000  0.84040000  1.0 -0.5809967225
O  O7  1  0.19300000  0.39390000  0.65380000  1.0 -0.6628630167
O  O8  1  0.19820000  0.15070000  0.97510000  1.0 -0.5809967225
O  O9  1  0.02000000  0.44690000  0.62610000  1.0 -0.5140112048
O  O10  1  0.01200000  0.11840000  0.94460000  1.0 -0.5936131185
O  O11  1  0.84750000  0.01810000  0.98270000  1.0 -1.0002870714
O  O12  1  0.65400000  0.97720000  0.02200000  1.0 -1.0002870714
O  O13  1  0.46690000  0.88900000  0.92950000  1.0 -0.5970521574
O  O14  1  0.49310000  0.56610000  0.61490000  1.0 -0.5809967225
O  O15  1  0.62800000  0.85250000  0.88500000  1.0 -0.5487988596
O  O16  1  0.33160000  0.52190000  0.65960000  1.0 -0.5809967225
O  O17  1  0.80700000  0.89390000  0.84620000  1.0 -0.6628630167
O  O18  1  0.80180000  0.65070000  0.52490000  1.0 -0.5809967225
O  O19  1  0.98000000  0.94690000  0.87390000  1.0 -0.5140112048
O  O20  1  0.98800000  0.61840000  0.55540000  1.0 -0.5936131185
O  O21  1  0.84750000  0.48190000  0.48270000  1.0 -1.0002870714
O  O22  1  0.65400000  0.52280000  0.52200000  1.0 -1.0002870714
O  O23  1  0.46690000  0.61100000  0.42950000  1.0 -0.5970521574
O  O24  1  0.49310000  0.93390000  0.11490000  1.0 -0.5809967225
O  O25  1  0.62800000  0.64750000  0.38500000  1.0 -0.5487988596
O  O26  1  0.33160000  0.97810000  0.15960000  1.0 -0.5809967225
O  O27  1  0.80700000  0.60610000  0.34620000  1.0 -0.6628630167
O  O28  1  0.80180000  0.84930000  0.02490000  1.0 -0.5809967225
O  O29  1  0.98000000  0.55310000  0.37390000  1.0 -0.5140112048
O  O30  1  0.98800000  0.88160000  0.05540000  1.0 -0.5936131185
O  O31  1  0.15250000  0.98190000  0.01730000  1.0 -1.0002870714
O  O32  1  0.34600000  0.02280000  0.97800000  1.0 -1.0002870714
O  O33  1  0.53310000  0.11100000  0.07050000  1.0 -0.5970521574
O  O34  1  0.50690000  0.43390000  0.38510000  1.0 -0.5809967225
O  O35  1  0.37200000  0.14750000  0.11500000  1.0 -0.5487988596
O  O36  1  0.66840000  0.47810000  0.34040000  1.0 -0.5809967225
O  O37  1  0.19300000  0.10610000  0.15380000  1.0 -0.6628630167
O  O38  1  0.19820000  0.34930000  0.47510000  1.0 -0.5809967225
O  O39  1  0.02000000  0.05310000  0.12610000  1.0 -0.5140112048
O  O40  1  0.01200000  0.38160000  0.44460000  1.0 -0.5936131185
