# DDEC6 charges by PACMAN v1.1 (https://github.com/mtap-research/PACMAN-charge/)
data_CANBIG_ASR_pacman
_symmetry_space_group_name_H-M   'P 1'
_cell_length_a   25.02110000
_cell_length_b   25.02110000
_cell_length_c   25.02110000
_cell_angle_alpha   151.53100000
_cell_angle_beta   105.12300000
_cell_angle_gamma   81.95340000
_symmetry_Int_Tables_number   1
_chemical_formula_structural   CuH91C77(NO10)2
_chemical_formula_sum   'Cu4 H364 C308 N8 O80'
_cell_volume   7071.21803008
_cell_formula_units_Z   4
loop_
 _symmetry_equiv_pos_site_id
 _symmetry_equiv_pos_as_xyz
  1  'x, y, z'
loop_
 _atom_site_type_symbol
 _atom_site_label
 _atom_site_symmetry_multiplicity
 _atom_site_fract_x
 _atom_site_fract_y
 _atom_site_fract_z
 _atom_site_occupancy
 _atom_site_charge
Cu  Cu1  1  0.98115000  0.07147000  0.09032000  1.0 0.8880096268
Cu  Cu2  1  0.51885000  0.60917000  0.09032000  1.0 0.8880096268
Cu  Cu3  1  0.48115000  0.39083000  0.90968000  1.0 0.8880096268
Cu  Cu4  1  0.01885000  0.92853000  0.90968000  1.0 0.8880096268
H  H1  1  0.35299000  0.37259000  0.39116000  1.0 0.0490883119
H  H2  1  0.28685000  0.18794000  0.21529000  1.0 0.1306681
H  H3  1  0.23417000  0.36369000  0.47842000  1.0 0.1210351776
H  H4  1  0.14073000  0.27398000  0.35843000  1.0 0.1306681
H  H5  1  0.19341000  0.09822000  0.09529000  1.0 0.1306681
H  H6  1  0.51806000  0.30191000  0.42391000  1.0 0.3326524179
H  H7  1  0.41169000  0.68331000  0.40828000  1.0 0.0924268831
H  H8  1  0.43945000  0.57787000  0.30438000  1.0 0.0802747515
H  H9  1  0.52009000  0.64903000  0.44318000  1.0 0.0701283443
H  H10  1  0.51236000  0.73947000  0.47517000  1.0 0.0701283443
H  H11  1  0.35207000  0.49624000  0.23751000  1.0 0.0614754687
H  H12  1  0.33249000  0.57266000  0.34603000  1.0 0.1085623553
H  H13  1  0.30107000  0.37471000  0.18314000  1.0 0.0978004437
H  H14  1  0.36500000  0.35594000  0.18180000  1.0 0.03943876
H  H15  1  0.56728000  0.86867000  0.65753000  1.0 0.0278010791
H  H16  1  0.56570000  0.78786000  0.63754000  1.0 0.0701283443
H  H17  1  0.57872000  0.98132000  0.83922000  1.0 0.0701283443
H  H18  1  0.52221000  0.99609000  0.80682000  1.0 0.0978004437
H  H19  1  0.34256000  0.27962000  0.19260000  1.0 0.0701283443
H  H20  1  0.28388000  0.32252000  0.22058000  1.0 0.0924268831
H  H21  1  0.32298000  0.30259000  0.29945000  1.0 0.0614754687
H  H22  1  0.37886000  0.39235000  0.37669000  1.0 0.1085623553
H  H23  1  0.51394000  0.05975000  0.95039000  1.0 0.0802747515
H  H24  1  0.55357000  0.98993000  0.93176000  1.0 0.0701283443
H  H25  1  0.47621000  0.00652000  0.98119000  1.0 0.0227676508
H  H26  1  0.43262000  0.95425000  0.87781000  1.0 0.1085623553
H  H27  1  0.35342000  0.48456000  0.53012000  1.0 0.0802747515
H  H28  1  0.29298000  0.40069000  0.44481000  1.0 0.0490883119
H  H29  1  0.52950000  0.91388000  0.95272000  1.0 0.0614754687
H  H30  1  0.52213000  0.77752000  0.82841000  1.0 0.0924268831
H  H31  1  0.24873000  0.56309000  0.56060000  1.0 0.0978004437
H  H32  1  0.30979000  0.64427000  0.64900000  1.0 0.1743001997
H  H33  1  0.44407000  0.89737000  0.96448000  1.0 0.0004374724
H  H34  1  0.48584000  0.83094000  0.94814000  1.0 0.0802747515
H  H35  1  0.25575000  0.51669000  0.61160000  1.0 0.0614754687
H  H36  1  0.26543000  0.65201000  0.72712000  1.0 0.0701283443
H  H37  1  0.39389000  0.72098000  0.76087000  1.0 0.2011043023
H  H38  1  0.43637000  0.65360000  0.74233000  1.0 0.1359376798
H  H39  1  0.32557000  0.58675000  0.75012000  1.0 0.1085623553
H  H40  1  0.35593000  0.53333000  0.66356000  1.0 0.0924268831
H  H41  1  0.36026000  0.77394000  0.88160000  1.0 0.0924268831
H  H42  1  0.40538000  0.71687000  0.87441000  1.0 0.1306681
H  H43  1  0.66374000  0.22864000  0.30604000  1.0 0.0924268831
H  H44  1  0.69379000  0.32320000  0.39573000  1.0 0.0978004437
H  H45  1  0.71035000  0.05607000  0.29302000  1.0 0.0924268831
H  H46  1  0.14701000  0.53817000  0.01960000  1.0 0.0490883119
H  H47  1  0.21315000  0.42844000  0.90109000  1.0 0.1306681
H  H48  1  0.26583000  0.74425000  0.12952000  1.0 0.1210351776
H  H49  1  0.35927000  0.71770000  0.13325000  1.0 0.1306681
H  H50  1  0.30659000  0.40188000  0.90481000  1.0 0.1306681
H  H51  1  0.98194000  0.40585000  0.78385000  1.0 0.3362874032
H  H52  1  0.08831000  0.49659000  0.27162000  1.0 0.0924268831
H  H53  1  0.06055000  0.36493000  0.13842000  1.0 0.0802747515
H  H54  1  0.97991000  0.42309000  0.12894000  1.0 0.0701283443
H  H55  1  0.98764000  0.46281000  0.22711000  1.0 0.0701283443
H  H56  1  0.14793000  0.38544000  0.14417000  1.0 0.0614754687
H  H57  1  0.16751000  0.51354000  0.24017000  1.0 0.1085623553
H  H58  1  0.19893000  0.38207000  0.07364000  1.0 0.0978004437
H  H59  1  0.13500000  0.31680000  0.99094000  1.0 0.03943876
H  H60  1  0.93272000  0.59025000  0.30139000  1.0 0.0278010791
H  H61  1  0.93430000  0.57184000  0.22216000  1.0 0.0701283443
H  H62  1  0.92128000  0.76050000  0.40260000  1.0 0.0701283443
H  H63  1  0.97779000  0.78461000  0.47388000  1.0 0.0978004437
H  H64  1  0.15744000  0.35004000  0.93706000  1.0 0.0701283443
H  H65  1  0.21612000  0.43670000  0.03864000  1.0 0.0924268831
H  H66  1  0.17702000  0.47647000  0.97961000  1.0 0.0614754687
H  H67  1  0.12114000  0.49783000  0.01349000  1.0 0.1085623553
H  H68  1  0.98606000  0.93645000  0.54581000  1.0 0.0802747515
H  H69  1  0.94643000  0.87819000  0.43636000  1.0 0.0701283443
H  H70  1  0.02379000  0.00498000  0.53031000  1.0 0.0227676508
H  H71  1  0.06738000  0.94519000  0.52163000  1.0 0.1085623553
H  H72  1  0.14658000  0.67670000  0.13114000  1.0 0.0802747515
H  H73  1  0.20702000  0.65183000  0.10771000  1.0 0.0490883119
H  H74  1  0.97050000  0.92322000  0.38438000  1.0 0.0614754687
H  H75  1  0.97787000  0.80628000  0.25539000  1.0 0.0924268831
H  H76  1  0.25127000  0.81187000  0.31436000  1.0 0.0978004437
H  H77  1  0.19021000  0.83921000  0.33448000  1.0 0.1743001997
H  H78  1  0.05593000  0.02041000  0.45330000  1.0 0.0004374724
H  H79  1  0.01416000  0.96230000  0.34510000  1.0 0.0802747515
H  H80  1  0.24425000  0.85585000  0.26094000  1.0 0.0614754687
H  H81  1  0.23457000  0.96169000  0.38658000  1.0 0.0701283443
H  H82  1  0.10611000  0.86698000  0.32709000  1.0 0.2011043023
H  H83  1  0.06363000  0.80596000  0.21723000  1.0 0.1359376798
H  H84  1  0.17443000  0.92455000  0.26118000  1.0 0.1085623553
H  H85  1  0.14407000  0.80763000  0.17740000  1.0 0.0924268831
H  H86  1  0.13974000  0.02134000  0.41368000  1.0 0.0924268831
H  H87  1  0.09462000  0.96903000  0.31149000  1.0 0.1306681
H  H88  1  0.83626000  0.14230000  0.56490000  1.0 0.0924268831
H  H89  1  0.80621000  0.20194000  0.62941000  1.0 0.0978004437
H  H90  1  0.78965000  0.08267000  0.34572000  1.0 0.0924268831
H  H91  1  0.48143000  0.46183000  0.60884000  1.0 0.0490883119
H  H92  1  0.47265000  0.57156000  0.78471000  1.0 0.1306681
H  H93  1  0.38527000  0.25575000  0.52158000  1.0 0.1210351776
H  H94  1  0.41555000  0.28230000  0.64157000  1.0 0.1306681
H  H95  1  0.50293000  0.59812000  0.90471000  1.0 0.1306681
H  H96  1  0.37800000  0.59415000  0.57609000  1.0 0.3326524179
H  H97  1  0.77503000  0.50341000  0.59172000  1.0 0.0924268831
H  H98  1  0.77349000  0.63507000  0.69562000  1.0 0.0802747515
H  H99  1  0.70585000  0.57691000  0.55682000  1.0 0.0701283443
H  H100  1  0.76431000  0.53720000  0.52483000  1.0 0.0701283443
H  H101  1  0.75873000  0.61456000  0.76249000  1.0 0.0614754687
H  H102  1  0.72663000  0.48646000  0.65397000  1.0 0.1085623553
H  H103  1  0.69157000  0.61793000  0.81686000  1.0 0.0978004437
H  H104  1  0.67414000  0.68320000  0.81820000  1.0 0.03943876
H  H105  1  0.71114000  0.40975000  0.34247000  1.0 0.0278010791
H  H106  1  0.65032000  0.42816000  0.36246000  1.0 0.0701283443
H  H107  1  0.64210000  0.23950000  0.16078000  1.0 0.0701283443
H  H108  1  0.68927000  0.21539000  0.19318000  1.0 0.0978004437
H  H109  1  0.58702000  0.64996000  0.80740000  1.0 0.0701283443
H  H110  1  0.60194000  0.56330000  0.77942000  1.0 0.0924268831
H  H111  1  0.50314000  0.52353000  0.70055000  1.0 0.0614754687
H  H112  1  0.51566000  0.50217000  0.62331000  1.0 0.1085623553
H  H113  1  0.60936000  0.06355000  0.04961000  1.0 0.0802747515
H  H114  1  0.55817000  0.12181000  0.06824000  1.0 0.0701283443
H  H115  1  0.52533000  0.99502000  0.01881000  1.0 0.0227676508
H  H116  1  0.57644000  0.05481000  0.12219000  1.0 0.1085623553
H  H117  1  0.45444000  0.32330000  0.46988000  1.0 0.0802747515
H  H118  1  0.45588000  0.34817000  0.55519000  1.0 0.0490883119
H  H119  1  0.46116000  0.07678000  0.04728000  1.0 0.0614754687
H  H120  1  0.44911000  0.19372000  0.17159000  1.0 0.0924268831
H  H121  1  0.50249000  0.18813000  0.43940000  1.0 0.0978004437
H  H122  1  0.49527000  0.16079000  0.35100000  1.0 0.1743001997
H  H123  1  0.43289000  0.97959000  0.03552000  1.0 0.0004374724
H  H124  1  0.38280000  0.03770000  0.05186000  1.0 0.0802747515
H  H125  1  0.40509000  0.14415000  0.38840000  1.0 0.0614754687
H  H126  1  0.42489000  0.03831000  0.27288000  1.0 0.0701283443
H  H127  1  0.46011000  0.13302000  0.23913000  1.0 0.2011043023
H  H128  1  0.41127000  0.19404000  0.25767000  1.0 0.1359376798
H  H129  1  0.33663000  0.07545000  0.24988000  1.0 0.1085623553
H  H130  1  0.36977000  0.19237000  0.33644000  1.0 0.0924268831
H  H131  1  0.39234000  0.97866000  0.11840000  1.0 0.0924268831
H  H132  1  0.34246000  0.03097000  0.12559000  1.0 0.1306681
H  H133  1  0.42260000  0.85770000  0.69396000  1.0 0.0924268831
H  H134  1  0.42747000  0.79806000  0.60427000  1.0 0.0978004437
H  H135  1  0.26305000  0.91733000  0.70698000  1.0 0.0924268831
H  H136  1  0.01857000  0.62741000  0.98040000  1.0 0.0490883119
H  H137  1  0.02735000  0.81206000  0.09891000  1.0 0.1306681
H  H138  1  0.11473000  0.63631000  0.87048000  1.0 0.1210351776
H  H139  1  0.08445000  0.72602000  0.86675000  1.0 0.1306681
H  H140  1  0.99707000  0.90178000  0.09519000  1.0 0.1306681
H  H141  1  0.12200000  0.69809000  0.21615000  1.0 0.3326524179
H  H142  1  0.72497000  0.31669000  0.72838000  1.0 0.0924268831
H  H143  1  0.72651000  0.42213000  0.86158000  1.0 0.0802747515
H  H144  1  0.79415000  0.35097000  0.87106000  1.0 0.0701283443
H  H145  1  0.73569000  0.26053000  0.77289000  1.0 0.0701283443
H  H146  1  0.74127000  0.50376000  0.85583000  1.0 0.0614754687
H  H147  1  0.77337000  0.42734000  0.75983000  1.0 0.1085623553
H  H148  1  0.80843000  0.62529000  0.92636000  1.0 0.0978004437
H  H149  1  0.82586000  0.64406000  0.00906000  1.0 0.03943876
H  H150  1  0.78886000  0.13133000  0.69861000  1.0 0.0278010791
H  H151  1  0.84968000  0.21214000  0.77784000  1.0 0.0701283443
H  H152  1  0.85790000  0.01868000  0.59740000  1.0 0.0701283443
H  H153  1  0.81073000  0.00391000  0.52612000  1.0 0.0978004437
H  H154  1  0.91298000  0.72038000  0.06294000  1.0 0.0701283443
H  H155  1  0.89806000  0.67748000  0.96136000  1.0 0.0924268831
H  H156  1  0.99686000  0.69741000  0.02039000  1.0 0.0614754687
H  H157  1  0.98434000  0.60765000  0.98651000  1.0 0.1085623553
H  H158  1  0.89064000  0.94025000  0.45419000  1.0 0.0802747515
H  H159  1  0.94183000  0.01007000  0.56364000  1.0 0.0701283443
H  H160  1  0.97467000  0.99348000  0.46969000  1.0 0.0227676508
H  H161  1  0.92356000  0.04575000  0.47837000  1.0 0.1085623553
H  H162  1  0.04556000  0.51544000  0.86886000  1.0 0.0802747515
H  H163  1  0.04412000  0.59931000  0.89229000  1.0 0.0490883119
H  H164  1  0.03884000  0.08612000  0.61562000  1.0 0.0614754687
H  H165  1  0.05089000  0.22248000  0.74461000  1.0 0.0924268831
H  H166  1  0.99751000  0.43691000  0.68564000  1.0 0.0978004437
H  H167  1  0.00473000  0.35573000  0.66552000  1.0 0.1743001997
H  H168  1  0.06711000  0.10263000  0.54670000  1.0 0.0004374724
H  H169  1  0.11720000  0.16906000  0.65490000  1.0 0.0802747515
H  H170  1  0.09491000  0.48331000  0.73906000  1.0 0.0614754687
H  H171  1  0.07511000  0.34799000  0.61342000  1.0 0.0701283443
H  H172  1  0.03989000  0.27902000  0.67291000  1.0 0.2011043023
H  H173  1  0.08873000  0.34640000  0.78277000  1.0 0.1359376798
H  H174  1  0.16337000  0.41325000  0.73882000  1.0 0.1085623553
H  H175  1  0.13023000  0.46667000  0.82260000  1.0 0.0924268831
H  H176  1  0.10766000  0.22606000  0.58632000  1.0 0.0924268831
H  H177  1  0.15754000  0.28313000  0.68851000  1.0 0.1306681
H  H178  1  0.07740000  0.77136000  0.43510000  1.0 0.0924268831
H  H179  1  0.07253000  0.67680000  0.37059000  1.0 0.0978004437
H  H180  1  0.23695000  0.94393000  0.65428000  1.0 0.0924268831
H  H181  1  0.64701000  0.62741000  0.60884000  1.0 0.0490883119
H  H182  1  0.71315000  0.81206000  0.78471000  1.0 0.1306681
H  H183  1  0.76583000  0.63631000  0.52158000  1.0 0.1210351776
H  H184  1  0.85927000  0.72602000  0.64157000  1.0 0.1306681
H  H185  1  0.80659000  0.90178000  0.90471000  1.0 0.1306681
H  H186  1  0.48194000  0.69809000  0.57609000  1.0 0.3326524179
H  H187  1  0.58831000  0.31669000  0.59172000  1.0 0.0924268831
H  H188  1  0.56055000  0.42213000  0.69562000  1.0 0.0802747515
H  H189  1  0.47991000  0.35097000  0.55682000  1.0 0.0701283443
H  H190  1  0.48763000  0.26053000  0.52483000  1.0 0.0701283443
H  H191  1  0.64793000  0.50376000  0.76249000  1.0 0.0614754687
H  H192  1  0.66751000  0.42734000  0.65397000  1.0 0.1085623553
H  H193  1  0.69893000  0.62529000  0.81686000  1.0 0.0978004437
H  H194  1  0.63500000  0.64406000  0.81820000  1.0 0.03943876
H  H195  1  0.43272000  0.13133000  0.34247000  1.0 0.0278010791
H  H196  1  0.43430000  0.21214000  0.36246000  1.0 0.0701283443
H  H197  1  0.42128000  0.01868000  0.16078000  1.0 0.0701283443
H  H198  1  0.47779000  0.00391000  0.19318000  1.0 0.0978004437
H  H199  1  0.65744000  0.72038000  0.80740000  1.0 0.0701283443
H  H200  1  0.71612000  0.67748000  0.77942000  1.0 0.0924268831
H  H201  1  0.67702000  0.69741000  0.70055000  1.0 0.0614754687
H  H202  1  0.62114000  0.60765000  0.62331000  1.0 0.1085623553
H  H203  1  0.48606000  0.94025000  0.04961000  1.0 0.0802747515
H  H204  1  0.44643000  0.01007000  0.06824000  1.0 0.0701283443
H  H205  1  0.52379000  0.99348000  0.01881000  1.0 0.0227676508
H  H206  1  0.56738000  0.04575000  0.12219000  1.0 0.1085623553
H  H207  1  0.64658000  0.51544000  0.46988000  1.0 0.0802747515
H  H208  1  0.70702000  0.59931000  0.55519000  1.0 0.0490883119
H  H209  1  0.47050000  0.08612000  0.04728000  1.0 0.0614754687
H  H210  1  0.47787000  0.22248000  0.17159000  1.0 0.0924268831
H  H211  1  0.75127000  0.43691000  0.43940000  1.0 0.0978004437
H  H212  1  0.69021000  0.35573000  0.35100000  1.0 0.1743001997
H  H213  1  0.55593000  0.10263000  0.03552000  1.0 0.0004374724
H  H214  1  0.51416000  0.16906000  0.05186000  1.0 0.0802747515
H  H215  1  0.74425000  0.48331000  0.38840000  1.0 0.0614754687
H  H216  1  0.73457000  0.34799000  0.27288000  1.0 0.0701283443
H  H217  1  0.60611000  0.27902000  0.23913000  1.0 0.2011043023
H  H218  1  0.56363000  0.34640000  0.25767000  1.0 0.1359376798
H  H219  1  0.67443000  0.41325000  0.24988000  1.0 0.1085623553
H  H220  1  0.64407000  0.46667000  0.33644000  1.0 0.0924268831
H  H221  1  0.63974000  0.22606000  0.11840000  1.0 0.0924268831
H  H222  1  0.59462000  0.28313000  0.12559000  1.0 0.1306681
H  H223  1  0.33626000  0.77136000  0.69396000  1.0 0.0924268831
H  H224  1  0.30621000  0.67680000  0.60427000  1.0 0.0978004437
H  H225  1  0.28965000  0.94393000  0.70698000  1.0 0.0924268831
H  H226  1  0.85299000  0.46183000  0.98040000  1.0 0.0490883119
H  H227  1  0.78685000  0.57156000  0.09891000  1.0 0.1306681
H  H228  1  0.73417000  0.25575000  0.87048000  1.0 0.1210351776
H  H229  1  0.64073000  0.28230000  0.86675000  1.0 0.1306681
H  H230  1  0.69341000  0.59812000  0.09519000  1.0 0.1306681
H  H231  1  0.01806000  0.59415000  0.21615000  1.0 0.3362874032
H  H232  1  0.91169000  0.50341000  0.72838000  1.0 0.0924268831
H  H233  1  0.93945000  0.63507000  0.86158000  1.0 0.0802747515
H  H234  1  0.02009000  0.57691000  0.87106000  1.0 0.0701283443
H  H235  1  0.01237000  0.53719000  0.77289000  1.0 0.0701283443
H  H236  1  0.85207000  0.61456000  0.85583000  1.0 0.0614754687
H  H237  1  0.83249000  0.48646000  0.75983000  1.0 0.1085623553
H  H238  1  0.80107000  0.61793000  0.92636000  1.0 0.0978004437
H  H239  1  0.86500000  0.68320000  0.00906000  1.0 0.03943876
H  H240  1  0.06728000  0.40975000  0.69861000  1.0 0.0278010791
H  H241  1  0.06570000  0.42816000  0.77784000  1.0 0.0701283443
H  H242  1  0.07872000  0.23950000  0.59740000  1.0 0.0701283443
H  H243  1  0.02221000  0.21539000  0.52612000  1.0 0.0978004437
H  H244  1  0.84256000  0.64996000  0.06294000  1.0 0.0701283443
H  H245  1  0.78388000  0.56330000  0.96136000  1.0 0.0924268831
H  H246  1  0.82298000  0.52353000  0.02039000  1.0 0.0614754687
H  H247  1  0.87886000  0.50217000  0.98651000  1.0 0.1085623553
H  H248  1  0.01394000  0.06355000  0.45419000  1.0 0.0802747515
H  H249  1  0.05357000  0.12181000  0.56364000  1.0 0.0701283443
H  H250  1  0.97621000  0.99502000  0.46969000  1.0 0.0227676508
H  H251  1  0.93262000  0.05481000  0.47837000  1.0 0.1085623553
H  H252  1  0.85342000  0.32330000  0.86886000  1.0 0.0802747515
H  H253  1  0.79298000  0.34817000  0.89229000  1.0 0.0490883119
H  H254  1  0.02950000  0.07678000  0.61562000  1.0 0.0614754687
H  H255  1  0.02213000  0.19372000  0.74461000  1.0 0.0924268831
H  H256  1  0.74873000  0.18813000  0.68564000  1.0 0.0978004437
H  H257  1  0.80979000  0.16079000  0.66552000  1.0 0.1743001997
H  H258  1  0.94407000  0.97959000  0.54670000  1.0 0.0004374724
H  H259  1  0.98584000  0.03770000  0.65490000  1.0 0.0802747515
H  H260  1  0.75575000  0.14415000  0.73906000  1.0 0.0614754687
H  H261  1  0.76543000  0.03831000  0.61342000  1.0 0.0701283443
H  H262  1  0.89389000  0.13302000  0.67291000  1.0 0.2011043023
H  H263  1  0.93637000  0.19404000  0.78277000  1.0 0.1359376798
H  H264  1  0.82557000  0.07545000  0.73882000  1.0 0.1085623553
H  H265  1  0.85593000  0.19237000  0.82260000  1.0 0.0924268831
H  H266  1  0.86026000  0.97866000  0.58632000  1.0 0.0924268831
H  H267  1  0.90538000  0.03097000  0.68851000  1.0 0.1306681
H  H268  1  0.16374000  0.85770000  0.43510000  1.0 0.0924268831
H  H269  1  0.19379000  0.79806000  0.37059000  1.0 0.0978004437
H  H270  1  0.21035000  0.91733000  0.65428000  1.0 0.0924268831
H  H271  1  0.51857000  0.53817000  0.39116000  1.0 0.0490883119
H  H272  1  0.52735000  0.42844000  0.21529000  1.0 0.1306681
H  H273  1  0.61473000  0.74425000  0.47842000  1.0 0.1210351776
H  H274  1  0.58445000  0.71770000  0.35843000  1.0 0.1306681
H  H275  1  0.49707000  0.40188000  0.09529000  1.0 0.1306681
H  H276  1  0.62200000  0.40585000  0.42391000  1.0 0.3326524179
H  H277  1  0.22497000  0.49659000  0.40828000  1.0 0.0924268831
H  H278  1  0.22651000  0.36493000  0.30438000  1.0 0.0802747515
H  H279  1  0.29415000  0.42309000  0.44318000  1.0 0.0701283443
H  H280  1  0.23570000  0.46281000  0.47517000  1.0 0.0701283443
H  H281  1  0.24127000  0.38544000  0.23751000  1.0 0.0614754687
H  H282  1  0.27337000  0.51354000  0.34603000  1.0 0.1085623553
H  H283  1  0.30843000  0.38207000  0.18314000  1.0 0.0978004437
H  H284  1  0.32586000  0.31680000  0.18180000  1.0 0.03943876
H  H285  1  0.28886000  0.59025000  0.65753000  1.0 0.0278010791
H  H286  1  0.34968000  0.57184000  0.63754000  1.0 0.0701283443
H  H287  1  0.35790000  0.76050000  0.83922000  1.0 0.0701283443
H  H288  1  0.31073000  0.78461000  0.80682000  1.0 0.0978004437
H  H289  1  0.41298000  0.35004000  0.19260000  1.0 0.0701283443
H  H290  1  0.39806000  0.43670000  0.22058000  1.0 0.0924268831
H  H291  1  0.49686000  0.47647000  0.29945000  1.0 0.0614754687
H  H292  1  0.48434000  0.49783000  0.37669000  1.0 0.1085623553
H  H293  1  0.39064000  0.93645000  0.95039000  1.0 0.0802747515
H  H294  1  0.44183000  0.87819000  0.93176000  1.0 0.0701283443
H  H295  1  0.47467000  0.00498000  0.98119000  1.0 0.0227676508
H  H296  1  0.42356000  0.94519000  0.87781000  1.0 0.1085623553
H  H297  1  0.54556000  0.67670000  0.53012000  1.0 0.0802747515
H  H298  1  0.54412000  0.65183000  0.44481000  1.0 0.0490883119
H  H299  1  0.53884000  0.92322000  0.95272000  1.0 0.0614754687
H  H300  1  0.55089000  0.80628000  0.82841000  1.0 0.0924268831
H  H301  1  0.49751000  0.81187000  0.56060000  1.0 0.0978004437
H  H302  1  0.50473000  0.83921000  0.64900000  1.0 0.1743001997
H  H303  1  0.56711000  0.02041000  0.96448000  1.0 0.0004374724
H  H304  1  0.61720000  0.96230000  0.94814000  1.0 0.0802747515
H  H305  1  0.59491000  0.85585000  0.61160000  1.0 0.0614754687
H  H306  1  0.57511000  0.96169000  0.72712000  1.0 0.0701283443
H  H307  1  0.53989000  0.86698000  0.76087000  1.0 0.2011043023
H  H308  1  0.58873000  0.80596000  0.74233000  1.0 0.1359376798
H  H309  1  0.66337000  0.92455000  0.75012000  1.0 0.1085623553
H  H310  1  0.63023000  0.80763000  0.66356000  1.0 0.0924268831
H  H311  1  0.60766000  0.02134000  0.88160000  1.0 0.0924268831
H  H312  1  0.65754000  0.96903000  0.87441000  1.0 0.1306681
H  H313  1  0.57740000  0.14230000  0.30604000  1.0 0.0924268831
H  H314  1  0.57253000  0.20194000  0.39573000  1.0 0.0978004437
H  H315  1  0.73695000  0.08267000  0.29302000  1.0 0.0924268831
H  H316  1  0.98143000  0.37259000  0.01960000  1.0 0.0490883119
H  H317  1  0.97265000  0.18794000  0.90109000  1.0 0.1306681
H  H318  1  0.88527000  0.36369000  0.12952000  1.0 0.1210351776
H  H319  1  0.91555000  0.27398000  0.13325000  1.0 0.1306681
H  H320  1  0.00293000  0.09822000  0.90481000  1.0 0.1306681
H  H321  1  0.87800000  0.30191000  0.78385000  1.0 0.3362874032
H  H322  1  0.27503000  0.68331000  0.27162000  1.0 0.0924268831
H  H323  1  0.27349000  0.57787000  0.13842000  1.0 0.0802747515
H  H324  1  0.20585000  0.64903000  0.12894000  1.0 0.0701283443
H  H325  1  0.26431000  0.73948000  0.22711000  1.0 0.0701283443
H  H326  1  0.25873000  0.49624000  0.14417000  1.0 0.0614754687
H  H327  1  0.22663000  0.57266000  0.24017000  1.0 0.1085623553
H  H328  1  0.19157000  0.37471000  0.07364000  1.0 0.0978004437
H  H329  1  0.17414000  0.35594000  0.99094000  1.0 0.03943876
H  H330  1  0.21114000  0.86867000  0.30139000  1.0 0.0278010791
H  H331  1  0.15032000  0.78786000  0.22216000  1.0 0.0701283443
H  H332  1  0.14210000  0.98132000  0.40260000  1.0 0.0701283443
H  H333  1  0.18927000  0.99609000  0.47388000  1.0 0.0978004437
H  H334  1  0.08702000  0.27962000  0.93706000  1.0 0.0701283443
H  H335  1  0.10194000  0.32252000  0.03864000  1.0 0.0924268831
H  H336  1  0.00314000  0.30259000  0.97961000  1.0 0.0614754687
H  H337  1  0.01566000  0.39235000  0.01349000  1.0 0.1085623553
H  H338  1  0.10936000  0.05975000  0.54581000  1.0 0.0802747515
H  H339  1  0.05817000  0.98993000  0.43636000  1.0 0.0701283443
H  H340  1  0.02533000  0.00652000  0.53031000  1.0 0.0227676508
H  H341  1  0.07644000  0.95425000  0.52163000  1.0 0.1085623553
H  H342  1  0.95444000  0.48456000  0.13114000  1.0 0.0802747515
H  H343  1  0.95588000  0.40069000  0.10771000  1.0 0.0490883119
H  H344  1  0.96116000  0.91388000  0.38438000  1.0 0.0614754687
H  H345  1  0.94911000  0.77752000  0.25539000  1.0 0.0924268831
H  H346  1  0.00249000  0.56309000  0.31436000  1.0 0.0978004437
H  H347  1  0.99527000  0.64427000  0.33448000  1.0 0.1743001997
H  H348  1  0.93289000  0.89737000  0.45330000  1.0 0.0004374724
H  H349  1  0.88280000  0.83094000  0.34510000  1.0 0.0802747515
H  H350  1  0.90509000  0.51669000  0.26094000  1.0 0.0614754687
H  H351  1  0.92489000  0.65201000  0.38658000  1.0 0.0701283443
H  H352  1  0.96011000  0.72098000  0.32709000  1.0 0.2011043023
H  H353  1  0.91127000  0.65360000  0.21723000  1.0 0.1359376798
H  H354  1  0.83663000  0.58675000  0.26118000  1.0 0.1085623553
H  H355  1  0.86977000  0.53333000  0.17740000  1.0 0.0924268831
H  H356  1  0.89234000  0.77394000  0.41368000  1.0 0.0924268831
H  H357  1  0.84246000  0.71687000  0.31149000  1.0 0.1306681
H  H358  1  0.92260000  0.22864000  0.56490000  1.0 0.0924268831
H  H359  1  0.92747000  0.32320000  0.62941000  1.0 0.0978004437
H  H360  1  0.76305000  0.05607000  0.34572000  1.0 0.0924268831
H  H361  1  0.32393000  0.32393000  0.50000000  1.0 0.1306681
H  H362  1  0.17607000  0.67607000  0.00000000  1.0 0.1306681
H  H363  1  0.67607000  0.67607000  0.50000000  1.0 0.1306681
H  H364  1  0.82393000  0.32393000  0.00000000  1.0 0.1306681
C  C1  1  0.09943000  0.11564000  0.13719000  1.0 0.5812580552
C  C2  1  0.32981000  0.33602000  0.43059000  1.0 -0.061156821
C  C3  1  0.51337000  0.41985000  0.47052000  1.0 -0.0698436505
C  C4  1  0.36663000  0.37675000  0.43408000  1.0 -0.2159875255
C  C5  1  0.25719000  0.20543000  0.24436000  1.0 -0.2523346298
C  C6  1  0.26929000  0.28420000  0.35809000  1.0 0.0111329151
C  C7  1  0.22589000  0.30982000  0.40067000  1.0 -0.1974864626
C  C8  1  0.17040000  0.25647000  0.32933000  1.0 -0.0981847594
C  C9  1  0.15829000  0.17769000  0.21560000  1.0 -0.0292053134
C  C10  1  0.20169000  0.15207000  0.17302000  1.0 -0.0916056336
C  C11  1  0.58570000  0.32122000  0.41408000  1.0 -0.0698436505
C  C12  1  0.43690000  0.63090000  0.38000000  1.0 -0.190171712
C  C13  1  0.49530000  0.70030000  0.46900000  1.0 0.0111329151
C  C14  1  0.35720000  0.51750000  0.29570000  1.0 -0.1803278986
C  C15  1  0.34080000  0.41150000  0.23310000  1.0 0.03943876
C  C16  1  0.54550000  0.84020000  0.65930000  1.0 -0.0394949887
C  C17  1  0.54060000  0.94140000  0.78320000  1.0 -0.1699846011
C  C18  1  0.32520000  0.34480000  0.25640000  1.0 -0.049518027
C  C19  1  0.33760000  0.37150000  0.34210000  1.0 -0.1803278986
C  C20  1  0.51610000  0.98410000  0.90000000  1.0 -0.1517564465
C  C21  1  0.46980000  0.95110000  0.90070000  1.0 -0.010462823
C  C22  1  0.31380000  0.47170000  0.49610000  1.0 -0.0292053134
C  C23  1  0.50140000  0.84160000  0.87980000  1.0 -0.061156821
C  C24  1  0.28700000  0.57250000  0.59450000  1.0 0.0227676508
C  C25  1  0.46280000  0.83020000  0.90860000  1.0 -0.2821934033
C  C26  1  0.28250000  0.58500000  0.66550000  1.0 -0.1197019924
C  C27  1  0.41770000  0.72070000  0.79900000  1.0 -0.1382857297
C  C28  1  0.33690000  0.59690000  0.72400000  1.0 -0.1803278986
C  C29  1  0.38060000  0.70920000  0.82940000  1.0 -0.206227306
C  C30  1  0.65770000  0.20168000  0.31642000  1.0 -0.0292053134
C  C31  1  0.61236000  0.22526000  0.35450000  1.0 0.0490883119
C  C32  1  0.60352000  0.18582000  0.36970000  1.0 -0.190171712
C  C33  1  0.64004000  0.12271000  0.34673000  1.0 0.1306681
C  C34  1  0.68539000  0.09914000  0.30865000  1.0 -0.0759042163
C  C35  1  0.69422000  0.13857000  0.29345000  1.0 0.03943876
C  C36  1  0.58230000  0.09780000  0.38850000  1.0 0.0924268831
C  C37  1  0.79370000  0.14230000  0.31540000  1.0 0.0227676508
C  C38  1  0.40057000  0.53776000  0.01621000  1.0 0.5812580552
C  C39  1  0.17019000  0.60078000  0.00621000  1.0 -0.061156821
C  C40  1  0.98663000  0.45715000  0.90648000  1.0 -0.0698436505
C  C41  1  0.13337000  0.56745000  0.01012000  1.0 -0.2159875255
C  C42  1  0.24281000  0.48717000  0.94824000  1.0 -0.2523346298
C  C43  1  0.23071000  0.58880000  0.01491000  1.0 0.0111329151
C  C44  1  0.27411000  0.67478000  0.08393000  1.0 -0.1974864626
C  C45  1  0.32960000  0.65893000  0.08607000  1.0 -0.0981847594
C  C46  1  0.34171000  0.55731000  0.01940000  1.0 -0.0292053134
C  C47  1  0.29831000  0.47133000  0.95038000  1.0 -0.0916056336
C  C48  1  0.91430000  0.32838000  0.73552000  1.0 -0.0698436505
C  C49  1  0.06310000  0.44310000  0.19400000  1.0 -0.190171712
C  C50  1  0.00470000  0.47370000  0.20500000  1.0 0.0111329151
C  C51  1  0.14280000  0.43850000  0.16030000  1.0 -0.1803278986
C  C52  1  0.15920000  0.39230000  0.07070000  1.0 0.03943876
C  C53  1  0.95450000  0.61380000  0.29470000  1.0 -0.0394949887
C  C54  1  0.95940000  0.74260000  0.40080000  1.0 -0.1699846011
C  C55  1  0.17480000  0.43120000  0.01960000  1.0 -0.049518027
C  C56  1  0.16240000  0.50450000  0.03390000  1.0 -0.1803278986
C  C57  1  0.98390000  0.88390000  0.46800000  1.0 -0.1517564465
C  C58  1  0.03020000  0.93090000  0.48130000  1.0 -0.010462823
C  C59  1  0.18620000  0.68230000  0.15790000  1.0 -0.0292053134
C  C60  1  0.99860000  0.87840000  0.34020000  1.0 -0.061156821
C  C61  1  0.21300000  0.80750000  0.28550000  1.0 0.0278010791
C  C62  1  0.03720000  0.94580000  0.36740000  1.0 -0.2821934033
C  C63  1  0.21750000  0.88300000  0.30250000  1.0 -0.1197019924
C  C64  1  0.08230000  0.88130000  0.30300000  1.0 -0.1382857297
C  C65  1  0.16310000  0.88710000  0.26000000  1.0 -0.1803278986
C  C66  1  0.11940000  0.94880000  0.32860000  1.0 -0.206227306
C  C67  1  0.84230000  0.15872000  0.54398000  1.0 -0.0292053134
C  C68  1  0.88764000  0.24214000  0.61290000  1.0 0.0490883119
C  C69  1  0.89648000  0.26618000  0.58230000  1.0 -0.190171712
C  C70  1  0.85996000  0.20669000  0.48267000  1.0 0.1306681
C  C71  1  0.81461000  0.12326000  0.41375000  1.0 -0.0759042163
C  C72  1  0.80578000  0.09923000  0.44435000  1.0 0.03943876
C  C73  1  0.91770000  0.30620000  0.51550000  1.0 0.0802747515
C  C74  1  0.70630000  0.02170000  0.34860000  1.0 0.0278010791
C  C75  1  0.47845000  0.46224000  0.86281000  1.0 0.5812580552
C  C76  1  0.40543000  0.39922000  0.56941000  1.0 -0.061156821
C  C77  1  0.44933000  0.54285000  0.52948000  1.0 -0.0698436505
C  C78  1  0.44267000  0.43255000  0.56592000  1.0 -0.2159875255
C  C79  1  0.46107000  0.51283000  0.75564000  1.0 -0.2523346298
C  C80  1  0.42611000  0.41120000  0.64191000  1.0 0.0111329151
C  C81  1  0.40915000  0.32522000  0.59933000  1.0 -0.1974864626
C  C82  1  0.42714000  0.34107000  0.67067000  1.0 -0.0981847594
C  C83  1  0.46209000  0.44269000  0.78440000  1.0 -0.0292053134
C  C84  1  0.47905000  0.52867000  0.82698000  1.0 -0.0916056336
C  C85  1  0.40714000  0.67162000  0.58592000  1.0 -0.0698436505
C  C86  1  0.75090000  0.55690000  0.62000000  1.0 -0.190171712
C  C87  1  0.73130000  0.52630000  0.53100000  1.0 0.0111329151
C  C88  1  0.72180000  0.56150000  0.70430000  1.0 -0.1803278986
C  C89  1  0.67840000  0.60770000  0.76690000  1.0 0.03943876
C  C90  1  0.68090000  0.38620000  0.34070000  1.0 -0.0394949887
C  C91  1  0.65820000  0.25740000  0.21680000  1.0 -0.1699846011
C  C92  1  0.58840000  0.56880000  0.74360000  1.0 -0.049518027
C  C93  1  0.52940000  0.49550000  0.65790000  1.0 -0.1803278986
C  C94  1  0.58410000  0.11610000  0.10000000  1.0 -0.1517564465
C  C95  1  0.55040000  0.06910000  0.09930000  1.0 -0.010462823
C  C96  1  0.47560000  0.31770000  0.50390000  1.0 -0.0292053134
C  C97  1  0.46180000  0.12160000  0.12020000  1.0 -0.061156821
C  C98  1  0.47800000  0.19250000  0.40550000  1.0 0.0227676508
C  C99  1  0.42160000  0.05420000  0.09140000  1.0 -0.2821934033
C  C100  1  0.41950000  0.11700000  0.33450000  1.0 -0.1197019924
C  C101  1  0.42170000  0.11870000  0.20100000  1.0 -0.1382857297
C  C102  1  0.37290000  0.11290000  0.27600000  1.0 -0.1803278986
C  C103  1  0.37980000  0.05120000  0.17060000  1.0 -0.206227306
C  C104  1  0.38526000  0.84128000  0.68358000  1.0 -0.0292053134
C  C105  1  0.37076000  0.75786000  0.64550000  1.0 0.0490883119
C  C106  1  0.31612000  0.73382000  0.63030000  1.0 -0.190171712
C  C107  1  0.27598000  0.79331000  0.65327000  1.0 0.1306681
C  C108  1  0.29049000  0.87674000  0.69135000  1.0 -0.0759042163
C  C109  1  0.34512000  0.90077000  0.70655000  1.0 0.03943876
C  C110  1  0.20930000  0.69380000  0.61150000  1.0 0.0802747515
C  C111  1  0.32690000  0.97830000  0.68460000  1.0 0.0227676508
C  C112  1  0.02155000  0.88436000  0.98379000  1.0 0.5812580552
C  C113  1  0.09457000  0.66398000  0.99379000  1.0 -0.061156821
C  C114  1  0.05067000  0.58015000  0.09352000  1.0 -0.0698436505
C  C115  1  0.05733000  0.62325000  0.98988000  1.0 -0.2159875255
C  C116  1  0.03893000  0.79457000  0.05176000  1.0 -0.2523346298
C  C117  1  0.07389000  0.71580000  0.98509000  1.0 0.0111329151
C  C118  1  0.09085000  0.69018000  0.91607000  1.0 -0.1974864626
C  C119  1  0.07286000  0.74353000  0.91393000  1.0 -0.0981847594
C  C120  1  0.03791000  0.82231000  0.98060000  1.0 -0.0292053134
C  C121  1  0.02095000  0.84793000  0.04962000  1.0 -0.0916056336
C  C122  1  0.09286000  0.67878000  0.26448000  1.0 -0.0698436505
C  C123  1  0.74910000  0.36910000  0.80600000  1.0 -0.190171712
C  C124  1  0.76870000  0.29970000  0.79500000  1.0 0.0111329151
C  C125  1  0.77820000  0.48250000  0.83970000  1.0 -0.1803278986
C  C126  1  0.82160000  0.58850000  0.92930000  1.0 0.03943876
C  C127  1  0.81910000  0.15980000  0.70530000  1.0 -0.0394949887
C  C128  1  0.84180000  0.05860000  0.59920000  1.0 -0.1699846011
C  C129  1  0.91160000  0.65520000  0.98040000  1.0 -0.049518027
C  C130  1  0.97060000  0.62850000  0.96610000  1.0 -0.1803278986
C  C131  1  0.91590000  0.01590000  0.53200000  1.0 -0.1517564465
C  C132  1  0.94960000  0.04890000  0.51870000  1.0 -0.010462823
C  C133  1  0.02440000  0.52830000  0.84210000  1.0 -0.0292053134
C  C134  1  0.03820000  0.15840000  0.65980000  1.0 -0.061156821
C  C135  1  0.02200000  0.42750000  0.71450000  1.0 0.0227676508
C  C136  1  0.07840000  0.16980000  0.63260000  1.0 -0.2821934033
C  C137  1  0.08050000  0.41500000  0.69750000  1.0 -0.1197019924
C  C138  1  0.07830000  0.27930000  0.69700000  1.0 -0.1382857297
C  C139  1  0.12710000  0.40310000  0.74000000  1.0 -0.1803278986
C  C140  1  0.12020000  0.29080000  0.67140000  1.0 -0.206227306
C  C141  1  0.11474000  0.79832000  0.45602000  1.0 -0.0292053134
C  C142  1  0.12924000  0.77474000  0.38710000  1.0 0.0490883119
C  C143  1  0.18388000  0.81418000  0.41770000  1.0 -0.190171712
C  C144  1  0.22402000  0.87729000  0.51733000  1.0 0.1306681
C  C145  1  0.20951000  0.90086000  0.58625000  1.0 -0.0759042163
C  C146  1  0.15488000  0.86143000  0.55565000  1.0 0.03943876
C  C147  1  0.29070000  0.90220000  0.48450000  1.0 0.0802747515
C  C148  1  0.17310000  0.85770000  0.65140000  1.0 0.0227676508
C  C149  1  0.90057000  0.88436000  0.86281000  1.0 0.5812580552
C  C150  1  0.67019000  0.66398000  0.56941000  1.0 -0.061156821
C  C151  1  0.48663000  0.58015000  0.52948000  1.0 -0.0698436505
C  C152  1  0.63337000  0.62325000  0.56592000  1.0 -0.2159875255
C  C153  1  0.74281000  0.79457000  0.75564000  1.0 -0.2523346298
C  C154  1  0.73071000  0.71580000  0.64191000  1.0 0.0111329151
C  C155  1  0.77411000  0.69018000  0.59933000  1.0 -0.1974864626
C  C156  1  0.82960000  0.74353000  0.67067000  1.0 -0.0981847594
C  C157  1  0.84171000  0.82231000  0.78440000  1.0 -0.0292053134
C  C158  1  0.79831000  0.84793000  0.82698000  1.0 -0.0916056336
C  C159  1  0.41430000  0.67878000  0.58592000  1.0 -0.0698436505
C  C160  1  0.56310000  0.36910000  0.62000000  1.0 -0.190171712
C  C161  1  0.50470000  0.29970000  0.53100000  1.0 0.0111329151
C  C162  1  0.64280000  0.48250000  0.70430000  1.0 -0.1803278986
C  C163  1  0.65920000  0.58850000  0.76690000  1.0 0.03943876
C  C164  1  0.45450000  0.15980000  0.34070000  1.0 -0.0394949887
C  C165  1  0.45940000  0.05860000  0.21680000  1.0 -0.1699846011
C  C166  1  0.67480000  0.65520000  0.74360000  1.0 -0.049518027
C  C167  1  0.66240000  0.62850000  0.65790000  1.0 -0.1803278986
C  C168  1  0.48390000  0.01590000  0.10000000  1.0 -0.1517564465
C  C169  1  0.53020000  0.04890000  0.09930000  1.0 -0.010462823
C  C170  1  0.68620000  0.52830000  0.50390000  1.0 -0.0292053134
C  C171  1  0.49860000  0.15840000  0.12020000  1.0 -0.061156821
C  C172  1  0.71300000  0.42750000  0.40550000  1.0 0.0278010791
C  C173  1  0.53720000  0.16980000  0.09140000  1.0 -0.2821934033
C  C174  1  0.71750000  0.41500000  0.33450000  1.0 -0.1197019924
C  C175  1  0.58230000  0.27930000  0.20100000  1.0 -0.1382857297
C  C176  1  0.66310000  0.40310000  0.27600000  1.0 -0.1803278986
C  C177  1  0.61940000  0.29080000  0.17060000  1.0 -0.206227306
C  C178  1  0.34230000  0.79832000  0.68358000  1.0 -0.0292053134
C  C179  1  0.38764000  0.77474000  0.64550000  1.0 0.0490883119
C  C180  1  0.39648000  0.81418000  0.63030000  1.0 -0.190171712
C  C181  1  0.35996000  0.87729000  0.65327000  1.0 0.1306681
C  C182  1  0.31461000  0.90086000  0.69135000  1.0 -0.0759042163
C  C183  1  0.30578000  0.86143000  0.70655000  1.0 0.03943876
C  C184  1  0.41770000  0.90220000  0.61150000  1.0 0.0924268831
C  C185  1  0.20630000  0.85770000  0.68460000  1.0 0.0227676508
C  C186  1  0.59943000  0.46224000  0.98379000  1.0 0.5812580552
C  C187  1  0.82981000  0.39922000  0.99379000  1.0 -0.061156821
C  C188  1  0.01337000  0.54285000  0.09352000  1.0 -0.0698436505
C  C189  1  0.86663000  0.43255000  0.98988000  1.0 -0.2159875255
C  C190  1  0.75719000  0.51283000  0.05176000  1.0 -0.2523346298
C  C191  1  0.76929000  0.41120000  0.98509000  1.0 0.0111329151
C  C192  1  0.72589000  0.32522000  0.91607000  1.0 -0.1974864626
C  C193  1  0.67040000  0.34107000  0.91393000  1.0 -0.0981847594
C  C194  1  0.65829000  0.44269000  0.98060000  1.0 -0.0292053134
C  C195  1  0.70169000  0.52867000  0.04962000  1.0 -0.0916056336
C  C196  1  0.08570000  0.67162000  0.26448000  1.0 -0.0698436505
C  C197  1  0.93690000  0.55690000  0.80600000  1.0 -0.190171712
C  C198  1  0.99530000  0.52630000  0.79500000  1.0 0.0111329151
C  C199  1  0.85720000  0.56150000  0.83970000  1.0 -0.1803278986
C  C200  1  0.84080000  0.60770000  0.92930000  1.0 0.03943876
C  C201  1  0.04550000  0.38620000  0.70530000  1.0 -0.0394949887
C  C202  1  0.04060000  0.25740000  0.59920000  1.0 -0.1699846011
C  C203  1  0.82520000  0.56880000  0.98040000  1.0 -0.049518027
C  C204  1  0.83760000  0.49550000  0.96610000  1.0 -0.190171712
C  C205  1  0.01610000  0.11610000  0.53200000  1.0 -0.1517564465
C  C206  1  0.96980000  0.06910000  0.51870000  1.0 -0.010462823
C  C207  1  0.81380000  0.31770000  0.84210000  1.0 -0.0292053134
C  C208  1  0.00140000  0.12160000  0.65980000  1.0 -0.061156821
C  C209  1  0.78700000  0.19250000  0.71450000  1.0 0.0278010791
C  C210  1  0.96280000  0.05420000  0.63260000  1.0 -0.2821934033
C  C211  1  0.78250000  0.11700000  0.69750000  1.0 -0.1197019924
C  C212  1  0.91770000  0.11870000  0.69700000  1.0 -0.1382857297
C  C213  1  0.83690000  0.11290000  0.74000000  1.0 -0.1803278986
C  C214  1  0.88060000  0.05120000  0.67140000  1.0 -0.206227306
C  C215  1  0.15770000  0.84128000  0.45602000  1.0 -0.0292053134
C  C216  1  0.11236000  0.75786000  0.38710000  1.0 0.0490883119
C  C217  1  0.10352000  0.73382000  0.41770000  1.0 -0.190171712
C  C218  1  0.14004000  0.79331000  0.51733000  1.0 0.1306681
C  C219  1  0.18539000  0.87674000  0.58625000  1.0 -0.0759042163
C  C220  1  0.19422000  0.90077000  0.55565000  1.0 0.03943876
C  C221  1  0.08230000  0.69380000  0.48450000  1.0 0.0802747515
C  C222  1  0.29370000  0.97830000  0.65140000  1.0 0.0227676508
C  C223  1  0.52155000  0.53776000  0.13719000  1.0 0.5812580552
C  C224  1  0.59457000  0.60078000  0.43059000  1.0 -0.061156821
C  C225  1  0.55067000  0.45715000  0.47052000  1.0 -0.0698436505
C  C226  1  0.55733000  0.56745000  0.43408000  1.0 -0.2159875255
C  C227  1  0.53893000  0.48717000  0.24436000  1.0 -0.2523346298
C  C228  1  0.57389000  0.58880000  0.35809000  1.0 0.0111329151
C  C229  1  0.59085000  0.67478000  0.40067000  1.0 -0.1974864626
C  C230  1  0.57286000  0.65893000  0.32933000  1.0 -0.0981847594
C  C231  1  0.53791000  0.55731000  0.21560000  1.0 -0.0292053134
C  C232  1  0.52095000  0.47133000  0.17302000  1.0 -0.0916056336
C  C233  1  0.59286000  0.32838000  0.41408000  1.0 -0.0698436505
C  C234  1  0.24910000  0.44310000  0.38000000  1.0 -0.190171712
C  C235  1  0.26870000  0.47370000  0.46900000  1.0 0.0111329151
C  C236  1  0.27820000  0.43850000  0.29570000  1.0 -0.1803278986
C  C237  1  0.32160000  0.39230000  0.23310000  1.0 0.03943876
C  C238  1  0.31910000  0.61380000  0.65930000  1.0 -0.0394949887
C  C239  1  0.34180000  0.74260000  0.78320000  1.0 -0.1699846011
C  C240  1  0.41160000  0.43120000  0.25640000  1.0 -0.049518027
C  C241  1  0.47060000  0.50450000  0.34210000  1.0 -0.1803278986
C  C242  1  0.41590000  0.88390000  0.90000000  1.0 -0.1517564465
C  C243  1  0.44960000  0.93090000  0.90070000  1.0 -0.010462823
C  C244  1  0.52440000  0.68230000  0.49610000  1.0 -0.0292053134
C  C245  1  0.53820000  0.87840000  0.87980000  1.0 -0.061156821
C  C246  1  0.52200000  0.80750000  0.59450000  1.0 0.0227676508
C  C247  1  0.57840000  0.94580000  0.90860000  1.0 -0.2821934033
C  C248  1  0.58050000  0.88300000  0.66550000  1.0 -0.1197019924
C  C249  1  0.57830000  0.88130000  0.79900000  1.0 -0.1382857297
C  C250  1  0.62710000  0.88710000  0.72400000  1.0 -0.1803278986
C  C251  1  0.62020000  0.94880000  0.82940000  1.0 -0.206227306
C  C252  1  0.61474000  0.15872000  0.31642000  1.0 -0.0292053134
C  C253  1  0.62924000  0.24214000  0.35450000  1.0 0.0490883119
C  C254  1  0.68388000  0.26618000  0.36970000  1.0 -0.190171712
C  C255  1  0.72402000  0.20669000  0.34673000  1.0 0.1306681
C  C256  1  0.70951000  0.12326000  0.30865000  1.0 -0.0759042163
C  C257  1  0.65488000  0.09923000  0.29345000  1.0 0.03943876
C  C258  1  0.79070000  0.30620000  0.38850000  1.0 0.0802747515
C  C259  1  0.67310000  0.02170000  0.31540000  1.0 0.0227676508
C  C260  1  0.97845000  0.11564000  0.01621000  1.0 0.5812580552
C  C261  1  0.90543000  0.33602000  0.00621000  1.0 -0.061156821
C  C262  1  0.94933000  0.41985000  0.90648000  1.0 -0.0698436505
C  C263  1  0.94267000  0.37675000  0.01012000  1.0 -0.2159875255
C  C264  1  0.96107000  0.20543000  0.94824000  1.0 -0.2523346298
C  C265  1  0.92611000  0.28420000  0.01491000  1.0 0.0111329151
C  C266  1  0.90915000  0.30982000  0.08393000  1.0 -0.190171712
C  C267  1  0.92714000  0.25647000  0.08607000  1.0 -0.0981847594
C  C268  1  0.96209000  0.17769000  0.01940000  1.0 -0.0292053134
C  C269  1  0.97905000  0.15207000  0.95038000  1.0 -0.0916056336
C  C270  1  0.90714000  0.32122000  0.73552000  1.0 -0.0698436505
C  C271  1  0.25090000  0.63090000  0.19400000  1.0 -0.190171712
C  C272  1  0.23130000  0.70030000  0.20500000  1.0 0.0111329151
C  C273  1  0.22180000  0.51750000  0.16030000  1.0 -0.1803278986
C  C274  1  0.17840000  0.41150000  0.07070000  1.0 0.03943876
C  C275  1  0.18090000  0.84020000  0.29470000  1.0 -0.0394949887
C  C276  1  0.15820000  0.94140000  0.40080000  1.0 -0.1699846011
C  C277  1  0.08840000  0.34480000  0.01960000  1.0 -0.049518027
C  C278  1  0.02940000  0.37150000  0.03390000  1.0 -0.1803278986
C  C279  1  0.08410000  0.98410000  0.46800000  1.0 -0.1517564465
C  C280  1  0.05040000  0.95110000  0.48130000  1.0 -0.010462823
C  C281  1  0.97560000  0.47170000  0.15790000  1.0 -0.0292053134
C  C282  1  0.96180000  0.84160000  0.34020000  1.0 -0.061156821
C  C283  1  0.97800000  0.57250000  0.28550000  1.0 0.0278010791
C  C284  1  0.92160000  0.83020000  0.36740000  1.0 -0.2821934033
C  C285  1  0.91950000  0.58500000  0.30250000  1.0 -0.1197019924
C  C286  1  0.92170000  0.72070000  0.30300000  1.0 -0.1382857297
C  C287  1  0.87290000  0.59690000  0.26000000  1.0 -0.1803278986
C  C288  1  0.87980000  0.70920000  0.32860000  1.0 -0.206227306
C  C289  1  0.88526000  0.20168000  0.54398000  1.0 -0.0292053134
C  C290  1  0.87076000  0.22526000  0.61290000  1.0 0.0490883119
C  C291  1  0.81612000  0.18582000  0.58230000  1.0 -0.190171712
C  C292  1  0.77598000  0.12271000  0.48267000  1.0 0.1306681
C  C293  1  0.79049000  0.09914000  0.41375000  1.0 -0.0759042163
C  C294  1  0.84512000  0.13857000  0.44435000  1.0 0.03943876
C  C295  1  0.70930000  0.09780000  0.51550000  1.0 0.0924268831
C  C296  1  0.82690000  0.14230000  0.34860000  1.0 0.0227676508
C  C297  1  0.46271000  0.46271000  0.50000000  1.0 -0.2700540457
C  C298  1  0.42329000  0.42329000  0.50000000  1.0 -0.0698436505
C  C299  1  0.34907000  0.34907000  0.50000000  1.0 -0.3587989518
C  C300  1  0.03729000  0.53729000  0.00000000  1.0 -0.2700540457
C  C301  1  0.07671000  0.57671000  0.00000000  1.0 -0.0698436505
C  C302  1  0.15093000  0.65093000  0.00000000  1.0 -0.3587989518
C  C303  1  0.53729000  0.53729000  0.50000000  1.0 -0.2700540457
C  C304  1  0.57671000  0.57671000  0.50000000  1.0 -0.0698436505
C  C305  1  0.65093000  0.65093000  0.50000000  1.0 -0.3587989518
C  C306  1  0.96271000  0.46271000  0.00000000  1.0 -0.2700540457
C  C307  1  0.92329000  0.42329000  0.00000000  1.0 -0.061156821
C  C308  1  0.84907000  0.34907000  0.00000000  1.0 -0.3587989518
N  N1  1  0.53570000  0.33900000  0.43370000  1.0 -0.3587989518
N  N2  1  0.96430000  0.39800000  0.80330000  1.0 -0.3587989518
N  N3  1  0.40530000  0.60200000  0.56630000  1.0 -0.3587989518
N  N4  1  0.09470000  0.66100000  0.19670000  1.0 -0.3587989518
N  N5  1  0.46430000  0.66100000  0.56630000  1.0 -0.3587989518
N  N6  1  0.03570000  0.60200000  0.19670000  1.0 -0.3587989518
N  N7  1  0.59470000  0.39800000  0.43370000  1.0 -0.3587989518
N  N8  1  0.90530000  0.33900000  0.80330000  1.0 -0.3587989518
O  O1  1  0.09183000  0.02992000  0.02851000  1.0 -0.5310309004
O  O2  1  0.05984000  0.15008000  0.18196000  1.0 -0.5310309004
O  O3  1  0.41420000  0.56890000  0.36530000  1.0 0.0227676508
O  O4  1  0.49090000  0.78280000  0.58010000  1.0 -0.1197019924
O  O5  1  0.34700000  0.44150000  0.31570000  1.0 0.0490883119
O  O6  1  0.50850000  0.90040000  0.78410000  1.0 -0.2821934033
O  O7  1  0.31160000  0.46240000  0.43120000  1.0 -0.0209777914
O  O8  1  0.46970000  0.83960000  0.82210000  1.0 -0.0209777914
O  O9  1  0.63126000  0.08357000  0.36189000  1.0 -0.0916056336
O  O10  1  0.73931000  0.11522000  0.25569000  1.0 -0.1099226732
O  O11  1  0.40817000  0.43668000  0.93809000  1.0 -0.5310309004
O  O12  1  0.44016000  0.62212000  0.09024000  1.0 -0.5310309004
O  O13  1  0.08580000  0.45110000  0.15470000  1.0 0.0227676508
O  O14  1  0.00910000  0.58920000  0.29190000  1.0 -0.1197019924
O  O15  1  0.15300000  0.46870000  0.09450000  1.0 0.0490883119
O  O16  1  0.99150000  0.77560000  0.39190000  1.0 -0.2821934033
O  O17  1  0.18840000  0.61960000  0.15080000  1.0 -0.0209777914
O  O18  1  0.03030000  0.85240000  0.36990000  1.0 -0.0209777914
O  O19  1  0.86874000  0.23063000  0.45231000  1.0 -0.0916056336
O  O20  1  0.76069000  0.01638000  0.37591000  1.0 -0.1099226732
O  O21  1  0.50141000  0.56332000  0.97149000  1.0 -0.5310309004
O  O22  1  0.46812000  0.37788000  0.81804000  1.0 -0.5310309004
O  O23  1  0.70360000  0.54890000  0.63470000  1.0 0.0227676508
O  O24  1  0.70270000  0.41080000  0.41990000  1.0 -0.1197019924
O  O25  1  0.62580000  0.53130000  0.68430000  1.0 0.0490883119
O  O26  1  0.61630000  0.22440000  0.21590000  1.0 -0.2821934033
O  O27  1  0.53120000  0.38040000  0.56880000  1.0 -0.0209777914
O  O28  1  0.51750000  0.14760000  0.17790000  1.0 -0.0209777914
O  O29  1  0.22168000  0.76937000  0.63811000  1.0 -0.0916056336
O  O30  1  0.35953000  0.98362000  0.74431000  1.0 -0.1099226732
O  O31  1  0.99859000  0.97008000  0.06191000  1.0 -0.5310309004
O  O32  1  0.03188000  0.84992000  0.90976000  1.0 -0.5310309004
O  O33  1  0.79640000  0.43110000  0.84530000  1.0 0.0227676508
O  O34  1  0.79730000  0.21720000  0.70810000  1.0 -0.1197019924
O  O35  1  0.87420000  0.55850000  0.90550000  1.0 0.0490883119
O  O36  1  0.88370000  0.09960000  0.60810000  1.0 -0.2821934033
O  O37  1  0.96880000  0.53760000  0.84920000  1.0 -0.0209777914
O  O38  1  0.98250000  0.16040000  0.63010000  1.0 -0.0209777914
O  O39  1  0.27832000  0.91643000  0.54769000  1.0 -0.0916056336
O  O40  1  0.14047000  0.88478000  0.62409000  1.0 -0.1099226732
O  O41  1  0.90817000  0.97008000  0.97149000  1.0 -0.5310309004
O  O42  1  0.94016000  0.84992000  0.81804000  1.0 -0.5310309004
O  O43  1  0.58580000  0.43110000  0.63470000  1.0 0.0227676508
O  O44  1  0.50910000  0.21720000  0.41990000  1.0 -0.1197019924
O  O45  1  0.65300000  0.55850000  0.68430000  1.0 0.0490883119
O  O46  1  0.49150000  0.09960000  0.21590000  1.0 -0.2821934033
O  O47  1  0.68840000  0.53760000  0.56880000  1.0 -0.0209777914
O  O48  1  0.53030000  0.16040000  0.17790000  1.0 -0.0209777914
O  O49  1  0.36874000  0.91643000  0.63811000  1.0 -0.0916056336
O  O50  1  0.26069000  0.88478000  0.74431000  1.0 -0.1099226732
O  O51  1  0.59183000  0.56332000  0.06191000  1.0 -0.5310309004
O  O52  1  0.55984000  0.37788000  0.90976000  1.0 -0.5310309004
O  O53  1  0.91420000  0.54890000  0.84530000  1.0 0.0227676508
O  O54  1  0.99090000  0.41080000  0.70810000  1.0 -0.1197019924
O  O55  1  0.84700000  0.53130000  0.90550000  1.0 0.0490883119
O  O56  1  0.00850000  0.22440000  0.60810000  1.0 -0.2821934033
O  O57  1  0.81160000  0.38040000  0.84920000  1.0 -0.0209777914
O  O58  1  0.96970000  0.14760000  0.63010000  1.0 -0.0209777914
O  O59  1  0.13126000  0.76937000  0.54769000  1.0 -0.0916056336
O  O60  1  0.23931000  0.98362000  0.62409000  1.0 -0.1099226732
O  O61  1  0.49859000  0.43668000  0.02851000  1.0 -0.5310309004
O  O62  1  0.53188000  0.62212000  0.18196000  1.0 -0.5310309004
O  O63  1  0.29640000  0.45110000  0.36530000  1.0 0.0227676508
O  O64  1  0.29730000  0.58920000  0.58010000  1.0 -0.1197019924
O  O65  1  0.37420000  0.46870000  0.31570000  1.0 0.0490883119
O  O66  1  0.38370000  0.77560000  0.78410000  1.0 -0.2821934033
O  O67  1  0.46880000  0.61960000  0.43120000  1.0 -0.0209777914
O  O68  1  0.48250000  0.85240000  0.82210000  1.0 -0.0209777914
O  O69  1  0.77832000  0.23063000  0.36189000  1.0 -0.0916056336
O  O70  1  0.64047000  0.01638000  0.25569000  1.0 -0.1099226732
O  O71  1  0.00141000  0.02992000  0.93809000  1.0 -0.5310309004
O  O72  1  0.96812000  0.15008000  0.09024000  1.0 -0.5310309004
O  O73  1  0.20360000  0.56890000  0.15470000  1.0 0.0227676508
O  O74  1  0.20270000  0.78280000  0.29190000  1.0 -0.1197019924
O  O75  1  0.12580000  0.44150000  0.09450000  1.0 0.0490883119
O  O76  1  0.11630000  0.90040000  0.39190000  1.0 -0.2821934033
O  O77  1  0.03120000  0.46240000  0.15080000  1.0 -0.0209777914
O  O78  1  0.01750000  0.83960000  0.36990000  1.0 -0.0209777914
O  O79  1  0.72168000  0.08357000  0.45231000  1.0 -0.0916056336
O  O80  1  0.85953000  0.11522000  0.37591000  1.0 -0.1099226732
