# DDEC6 charges by PACMAN v1.1 (https://github.com/mtap-research/PACMAN-charge/)
data_CANBAY_ASR_pacman
_symmetry_space_group_name_H-M   'P 1'
_cell_length_a   44.61000000
_cell_length_b   44.61000000
_cell_length_c   44.61000000
_cell_angle_alpha   109.47100000
_cell_angle_beta   109.47100000
_cell_angle_gamma   109.47100000
_symmetry_Int_Tables_number   1
_chemical_formula_structural   CuH7C22N2(O2F3)2
_chemical_formula_sum   'Cu96 H672 C2112 N192 O384 F576'
_cell_volume   68340.52748631
_cell_formula_units_Z   96
loop_
 _symmetry_equiv_pos_site_id
 _symmetry_equiv_pos_as_xyz
  1  'x, y, z'
loop_
 _atom_site_type_symbol
 _atom_site_label
 _atom_site_symmetry_multiplicity
 _atom_site_fract_x
 _atom_site_fract_y
 _atom_site_fract_z
 _atom_site_occupancy
 _atom_site_charge
Cu  Cu1  1  0.61945000  0.61961000  0.76392000  1.0 0.8775438872
Cu  Cu2  1  0.60601000  0.45718000  0.85183000  1.0 0.8644963882
Cu  Cu3  1  0.64827000  0.52894000  0.88033000  1.0 0.8726042666
Cu  Cu4  1  0.58214000  0.58218000  0.69112000  1.0 0.8775438872
Cu  Cu5  1  0.85569000  0.85553000  0.23608000  1.0 0.8775438872
Cu  Cu6  1  0.60535000  0.75418000  0.14817000  1.0 0.8644963882
Cu  Cu7  1  0.64861000  0.76794000  0.11967000  1.0 0.8726042666
Cu  Cu8  1  0.89106000  0.89102000  0.30888000  1.0 0.8775438872
Cu  Cu9  1  0.14431000  0.38039000  0.99984000  1.0 0.8775438872
Cu  Cu10  1  0.39465000  0.54282000  0.14883000  1.0 0.8644963882
Cu  Cu11  1  0.35139000  0.47106000  0.11933000  1.0 0.8726042666
Cu  Cu12  1  0.10894000  0.41782000  0.99996000  1.0 0.8775438872
Cu  Cu13  1  0.38055000  0.14447000  0.00016000  1.0 0.8775438872
Cu  Cu14  1  0.39399000  0.24582000  0.85117000  1.0 0.8644963882
Cu  Cu15  1  0.35173000  0.23206000  0.88067000  1.0 0.8726042666
Cu  Cu16  1  0.41786000  0.10898000  0.00004000  1.0 0.8775438872
Cu  Cu17  1  0.76392000  0.61945000  0.61961000  1.0 0.8775438872
Cu  Cu18  1  0.85183000  0.60601000  0.45718000  1.0 0.8644963882
Cu  Cu19  1  0.88033000  0.64827000  0.52894000  1.0 0.8726042666
Cu  Cu20  1  0.69112000  0.58214000  0.58218000  1.0 0.8775438872
Cu  Cu21  1  0.23608000  0.85569000  0.85553000  1.0 0.8775438872
Cu  Cu22  1  0.14817000  0.60535000  0.75418000  1.0 0.8644963882
Cu  Cu23  1  0.11967000  0.64861000  0.76794000  1.0 0.8726042666
Cu  Cu24  1  0.30888000  0.89106000  0.89102000  1.0 0.8775438872
Cu  Cu25  1  0.99984000  0.14431000  0.38039000  1.0 0.8775438872
Cu  Cu26  1  0.14883000  0.39465000  0.54282000  1.0 0.8644963882
Cu  Cu27  1  0.11933000  0.35139000  0.47106000  1.0 0.8726042666
Cu  Cu28  1  0.99996000  0.10894000  0.41782000  1.0 0.8775438872
Cu  Cu29  1  0.00016000  0.38055000  0.14447000  1.0 0.8775438872
Cu  Cu30  1  0.85117000  0.39399000  0.24582000  1.0 0.8644963882
Cu  Cu31  1  0.88067000  0.35173000  0.23206000  1.0 0.8726042666
Cu  Cu32  1  0.00004000  0.41786000  0.10898000  1.0 0.8775438872
Cu  Cu33  1  0.61961000  0.76392000  0.61945000  1.0 0.8775438872
Cu  Cu34  1  0.45718000  0.85183000  0.60601000  1.0 0.8644963882
Cu  Cu35  1  0.52894000  0.88033000  0.64827000  1.0 0.8726042666
Cu  Cu36  1  0.58218000  0.69112000  0.58214000  1.0 0.8775438872
Cu  Cu37  1  0.85553000  0.23608000  0.85569000  1.0 0.8775438872
Cu  Cu38  1  0.75418000  0.14817000  0.60535000  1.0 0.8644963882
Cu  Cu39  1  0.76794000  0.11967000  0.64861000  1.0 0.8726042666
Cu  Cu40  1  0.89102000  0.30888000  0.89106000  1.0 0.8775438872
Cu  Cu41  1  0.38039000  0.99984000  0.14431000  1.0 0.8775438872
Cu  Cu42  1  0.54282000  0.14883000  0.39465000  1.0 0.8644963882
Cu  Cu43  1  0.47106000  0.11933000  0.35139000  1.0 0.8726042666
Cu  Cu44  1  0.41782000  0.99996000  0.10894000  1.0 0.8775438872
Cu  Cu45  1  0.14447000  0.00016000  0.38055000  1.0 0.8775438872
Cu  Cu46  1  0.24582000  0.85117000  0.39399000  1.0 0.8644963882
Cu  Cu47  1  0.23206000  0.88067000  0.35173000  1.0 0.8726042666
Cu  Cu48  1  0.10898000  0.00004000  0.41786000  1.0 0.8775438872
Cu  Cu49  1  0.14447000  0.14431000  0.76392000  1.0 0.8775438872
Cu  Cu50  1  0.24582000  0.39465000  0.85183000  1.0 0.8644963882
Cu  Cu51  1  0.23206000  0.35139000  0.88033000  1.0 0.8726042666
Cu  Cu52  1  0.10898000  0.10894000  0.69112000  1.0 0.8775438872
Cu  Cu53  1  0.38039000  0.38055000  0.23608000  1.0 0.8775438872
Cu  Cu54  1  0.54282000  0.39399000  0.14817000  1.0 0.8644963882
Cu  Cu55  1  0.47106000  0.35173000  0.11967000  1.0 0.8726042666
Cu  Cu56  1  0.41782000  0.41786000  0.30888000  1.0 0.8775438872
Cu  Cu57  1  0.85553000  0.61945000  0.99984000  1.0 0.8775438872
Cu  Cu58  1  0.75418000  0.60601000  0.14883000  1.0 0.8644963882
Cu  Cu59  1  0.76794000  0.64827000  0.11933000  1.0 0.8726042666
Cu  Cu60  1  0.89102000  0.58214000  0.99996000  1.0 0.8775438872
Cu  Cu61  1  0.61961000  0.85569000  0.00016000  1.0 0.8775438872
Cu  Cu62  1  0.45718000  0.60535000  0.85117000  1.0 0.8644963882
Cu  Cu63  1  0.52894000  0.64861000  0.88067000  1.0 0.8726042666
Cu  Cu64  1  0.58218000  0.89106000  0.00004000  1.0 0.8775438872
Cu  Cu65  1  0.85569000  0.00016000  0.61961000  1.0 0.8775438872
Cu  Cu66  1  0.60535000  0.85117000  0.45718000  1.0 0.8644963882
Cu  Cu67  1  0.64861000  0.88067000  0.52894000  1.0 0.8726042666
Cu  Cu68  1  0.89106000  0.00004000  0.58218000  1.0 0.8775438872
Cu  Cu69  1  0.61945000  0.99984000  0.85553000  1.0 0.8775438872
Cu  Cu70  1  0.60601000  0.14883000  0.75418000  1.0 0.8644963882
Cu  Cu71  1  0.64827000  0.11933000  0.76794000  1.0 0.8726042666
Cu  Cu72  1  0.58214000  0.99996000  0.89102000  1.0 0.8775438872
Cu  Cu73  1  0.38055000  0.23608000  0.38039000  1.0 0.8775438872
Cu  Cu74  1  0.39399000  0.14817000  0.54282000  1.0 0.8644963882
Cu  Cu75  1  0.35173000  0.11967000  0.47106000  1.0 0.8726042666
Cu  Cu76  1  0.41786000  0.30888000  0.41782000  1.0 0.8775438872
Cu  Cu77  1  0.14431000  0.76392000  0.14447000  1.0 0.8726042666
Cu  Cu78  1  0.39465000  0.85183000  0.24582000  1.0 0.8644963882
Cu  Cu79  1  0.35139000  0.88033000  0.23206000  1.0 0.8726042666
Cu  Cu80  1  0.10894000  0.69112000  0.10898000  1.0 0.8775438872
Cu  Cu81  1  0.99984000  0.85553000  0.61945000  1.0 0.8775438872
Cu  Cu82  1  0.14883000  0.75418000  0.60601000  1.0 0.8644963882
Cu  Cu83  1  0.11933000  0.76794000  0.64827000  1.0 0.8726042666
Cu  Cu84  1  0.99996000  0.89102000  0.58214000  1.0 0.8775438872
Cu  Cu85  1  0.00016000  0.61961000  0.85569000  1.0 0.8775438872
Cu  Cu86  1  0.85117000  0.45718000  0.60535000  1.0 0.8644963882
Cu  Cu87  1  0.88067000  0.52894000  0.64861000  1.0 0.8726042666
Cu  Cu88  1  0.00004000  0.58218000  0.89106000  1.0 0.8775438872
Cu  Cu89  1  0.76392000  0.14447000  0.14431000  1.0 0.8775438872
Cu  Cu90  1  0.85183000  0.24582000  0.39465000  1.0 0.8644963882
Cu  Cu91  1  0.88033000  0.23206000  0.35139000  1.0 0.8726042666
Cu  Cu92  1  0.69112000  0.10898000  0.10894000  1.0 0.8775438872
Cu  Cu93  1  0.23608000  0.38039000  0.38055000  1.0 0.8775438872
Cu  Cu94  1  0.14817000  0.54282000  0.39399000  1.0 0.8644963882
Cu  Cu95  1  0.11967000  0.47106000  0.35173000  1.0 0.8726042666
Cu  Cu96  1  0.30888000  0.41782000  0.41786000  1.0 0.8775438872
H  H1  1  0.56245000  0.42123000  0.73276000  1.0 0.1211127901
H  H2  1  0.61459000  0.53221000  0.78138000  1.0 0.1397298889
H  H3  1  0.54611000  0.46976000  0.67125000  1.0 0.1292084738
H  H4  1  0.71948000  0.61676000  0.77504000  1.0 0.1292084738
H  H5  1  0.78085000  0.62776000  0.72569000  1.0 0.1211127901
H  H6  1  0.67703000  0.60900000  0.67529000  1.0 0.1292084738
H  H7  1  0.42009000  0.56047000  0.73364000  1.0 0.1397298889
H  H8  1  0.47118000  0.54973000  0.67493000  1.0 0.2484278562
H  H9  1  0.53116000  0.61422000  0.78520000  1.0 0.1397298889
H  H10  1  0.56410000  0.56224000  0.87092000  1.0 0.1292084738
H  H11  1  0.45810000  0.51362000  0.84796000  1.0 0.1211127901
H  H12  1  0.51490000  0.45976000  0.85676000  1.0 0.1292084738
H  H13  1  0.34364000  0.57733000  0.72609000  1.0 0.1105480904
H  H14  1  0.28979000  0.57252000  0.62989000  1.0 0.0822339581
H  H15  1  0.28690000  0.63095000  0.71887000  1.0 0.0989527799
H  H16  1  0.21851000  0.66680000  0.62121000  1.0 0.2484278562
H  H17  1  0.24482000  0.60678000  0.71394000  1.0 0.1105480904
H  H18  1  0.26583000  0.56246000  0.63345000  1.0 0.089401739
H  H19  1  0.32950000  0.58662000  0.73688000  1.0 0.089401739
H  H20  1  0.38858000  0.49355000  0.70637000  1.0 0.2987540215
H  H21  1  0.34714000  0.44412000  0.60980000  1.0 0.089401739
H  H22  1  0.41314000  0.34774000  0.57606000  1.0 0.2902703984
H  H23  1  0.37138000  0.36247000  0.59747000  1.0 0.1105480904
H  H24  1  0.45169000  0.46613000  0.63956000  1.0 0.1292084738
H  H25  1  0.78481000  0.73205000  0.85936000  1.0 0.1292084738
H  H26  1  0.82042000  0.80436000  0.96438000  1.0 0.0989527799
H  H27  1  0.85664000  0.73181000  0.94367000  1.0 0.1397298889
H  H28  1  0.85304000  0.68452000  0.90308000  1.0 0.2902703984
H  H29  1  0.68847000  0.82969000  0.26724000  1.0 0.1211127901
H  H30  1  0.75083000  0.83321000  0.21862000  1.0 0.1397298889
H  H31  1  0.79851000  0.87486000  0.32875000  1.0 0.1292084738
H  H32  1  0.84172000  0.94444000  0.22496000  1.0 0.1292084738
H  H33  1  0.90207000  0.05516000  0.27431000  1.0 0.1211127901
H  H34  1  0.93371000  0.00174000  0.32471000  1.0 0.1292084738
H  H35  1  0.82683000  0.68645000  0.26636000  1.0 0.1397298889
H  H36  1  0.87480000  0.79625000  0.32507000  1.0 0.2484278562
H  H37  1  0.82902000  0.74596000  0.21480000  1.0 0.1397298889
H  H38  1  0.69132000  0.69318000  0.12908000  1.0 0.1292084738
H  H39  1  0.66566000  0.61014000  0.15204000  1.0 0.1211127901
H  H40  1  0.60300000  0.65814000  0.14324000  1.0 0.1292084738
H  H41  1  0.85124000  0.61755000  0.27391000  1.0 0.1105480904
H  H42  1  0.94263000  0.65990000  0.37011000  1.0 0.0822339581
H  H43  1  0.91208000  0.56803000  0.28113000  1.0 0.0989527799
H  H44  1  0.04559000  0.59730000  0.37879000  1.0 0.2484278562
H  H45  1  0.89284000  0.53088000  0.28606000  1.0 0.1105480904
H  H46  1  0.92901000  0.63238000  0.36655000  1.0 0.089401739
H  H47  1  0.84974000  0.59262000  0.26312000  1.0 0.089401739
H  H48  1  0.78718000  0.68221000  0.29363000  1.0 0.2987540215
H  H49  1  0.83432000  0.73734000  0.39020000  1.0 0.089401739
H  H50  1  0.77168000  0.83708000  0.42394000  1.0 0.2902703984
H  H51  1  0.76500000  0.77391000  0.40253000  1.0 0.1105480904
H  H52  1  0.82657000  0.81213000  0.36044000  1.0 0.1292084738
H  H53  1  0.87269000  0.92545000  0.14064000  1.0 0.1292084738
H  H54  1  0.83998000  0.85604000  0.03562000  1.0 0.0989527799
H  H55  1  0.78814000  0.91297000  0.05633000  1.0 0.1397298889
H  H56  1  0.78144000  0.94996000  0.09692000  1.0 0.2902703984
H  H57  1  0.31153000  0.57877000  0.14122000  1.0 0.1211127901
H  H58  1  0.24917000  0.46779000  0.08238000  1.0 0.1397298889
H  H59  1  0.20149000  0.53024000  0.07635000  1.0 0.1292084738
H  H60  1  0.15828000  0.38324000  0.10272000  1.0 0.1292084738
H  H61  1  0.09793000  0.37224000  0.15309000  1.0 0.1211127901
H  H62  1  0.06629000  0.39100000  0.06803000  1.0 0.1292084738
H  H63  1  0.17317000  0.43953000  0.85962000  1.0 0.1397298889
H  H64  1  0.12520000  0.45027000  0.92145000  1.0 0.2484278562
H  H65  1  0.17098000  0.38578000  0.91694000  1.0 0.1397298889
H  H66  1  0.30868000  0.43776000  0.00186000  1.0 0.1292084738
H  H67  1  0.33434000  0.48638000  0.94448000  1.0 0.1211127901
H  H68  1  0.39700000  0.54024000  0.05514000  1.0 0.1292084738
H  H69  1  0.14876000  0.42267000  0.76631000  1.0 0.1105480904
H  H70  1  0.05737000  0.42748000  0.71727000  1.0 0.0822339581
H  H71  1  0.08792000  0.36905000  0.65595000  1.0 0.0989527799
H  H72  1  0.95441000  0.33320000  0.55171000  1.0 0.2484278562
H  H73  1  0.10716000  0.39322000  0.63804000  1.0 0.1105480904
H  H74  1  0.07099000  0.43754000  0.70337000  1.0 0.089401739
H  H75  1  0.15026000  0.41338000  0.74288000  1.0 0.089401739
H  H76  1  0.21282000  0.50645000  0.89503000  1.0 0.2987540215
H  H77  1  0.16568000  0.55588000  0.90302000  1.0 0.089401739
H  H78  1  0.22832000  0.65226000  0.06540000  1.0 0.2902703984
H  H79  1  0.23500000  0.63753000  0.00891000  1.0 0.1105480904
H  H80  1  0.17343000  0.53387000  0.98556000  1.0 0.1292084738
H  H81  1  0.12731000  0.26795000  0.05276000  1.0 0.1292084738
H  H82  1  0.16002000  0.19564000  0.01606000  1.0 0.0989527799
H  H83  1  0.21186000  0.26819000  0.12483000  1.0 0.1397298889
H  H84  1  0.21856000  0.31548000  0.16852000  1.0 0.2902703984
H  H85  1  0.43755000  0.17031000  0.85878000  1.0 0.1211127901
H  H86  1  0.38541000  0.16679000  0.91762000  1.0 0.1397298889
H  H87  1  0.45389000  0.12514000  0.92365000  1.0 0.1292084738
H  H88  1  0.28052000  0.05556000  0.89728000  1.0 0.1292084738
H  H89  1  0.21915000  0.94484000  0.84691000  1.0 0.1211127901
H  H90  1  0.32297000  0.99826000  0.93197000  1.0 0.1292084738
H  H91  1  0.57991000  0.31355000  0.14038000  1.0 0.1397298889
H  H92  1  0.52882000  0.20375000  0.07855000  1.0 0.2484278562
H  H93  1  0.46884000  0.25404000  0.08306000  1.0 0.1397298889
H  H94  1  0.43590000  0.30682000  0.99814000  1.0 0.1292084738
H  H95  1  0.54190000  0.38986000  0.05552000  1.0 0.1211127901
H  H96  1  0.48510000  0.34186000  0.94486000  1.0 0.1292084738
H  H97  1  0.65636000  0.38245000  0.23369000  1.0 0.1105480904
H  H98  1  0.71021000  0.34010000  0.28273000  1.0 0.0822339581
H  H99  1  0.71310000  0.43197000  0.34405000  1.0 0.0989527799
H  H100  1  0.78149000  0.40270000  0.44829000  1.0 0.2484278562
H  H101  1  0.75518000  0.46912000  0.36196000  1.0 0.1105480904
H  H102  1  0.73417000  0.36762000  0.29663000  1.0 0.089401739
H  H103  1  0.67050000  0.40738000  0.25712000  1.0 0.089401739
H  H104  1  0.61142000  0.31779000  0.10497000  1.0 0.2987540215
H  H105  1  0.65286000  0.26266000  0.09698000  1.0 0.089401739
H  H106  1  0.58686000  0.16292000  0.93460000  1.0 0.2902703984
H  H107  1  0.62862000  0.22609000  0.99109000  1.0 0.1105480904
H  H108  1  0.54831000  0.18787000  0.01444000  1.0 0.1292084738
H  H109  1  0.21519000  0.07455000  0.94724000  1.0 0.1292084738
H  H110  1  0.17958000  0.14396000  0.98394000  1.0 0.0989527799
H  H111  1  0.14336000  0.08703000  0.87517000  1.0 0.1397298889
H  H112  1  0.14696000  0.05004000  0.83148000  1.0 0.2902703984
H  H113  1  0.73276000  0.56245000  0.42123000  1.0 0.1211127901
H  H114  1  0.78138000  0.61459000  0.53221000  1.0 0.1397298889
H  H115  1  0.67125000  0.54611000  0.46976000  1.0 0.1292084738
H  H116  1  0.77504000  0.71948000  0.61676000  1.0 0.1292084738
H  H117  1  0.72569000  0.78085000  0.62776000  1.0 0.1211127901
H  H118  1  0.67529000  0.67703000  0.60900000  1.0 0.1292084738
H  H119  1  0.73364000  0.42009000  0.56047000  1.0 0.1397298889
H  H120  1  0.67493000  0.47118000  0.54973000  1.0 0.2484278562
H  H121  1  0.78520000  0.53116000  0.61422000  1.0 0.1397298889
H  H122  1  0.87092000  0.56410000  0.56224000  1.0 0.1292084738
H  H123  1  0.84796000  0.45810000  0.51362000  1.0 0.1211127901
H  H124  1  0.85676000  0.51490000  0.45976000  1.0 0.1292084738
H  H125  1  0.72609000  0.34364000  0.57733000  1.0 0.1105480904
H  H126  1  0.62989000  0.28979000  0.57252000  1.0 0.0822339581
H  H127  1  0.71887000  0.28690000  0.63095000  1.0 0.0989527799
H  H128  1  0.62121000  0.21851000  0.66680000  1.0 0.2484278562
H  H129  1  0.71394000  0.24482000  0.60678000  1.0 0.1105480904
H  H130  1  0.63345000  0.26583000  0.56246000  1.0 0.089401739
H  H131  1  0.73688000  0.32950000  0.58662000  1.0 0.089401739
H  H132  1  0.70637000  0.38858000  0.49355000  1.0 0.2987540215
H  H133  1  0.60980000  0.34714000  0.44412000  1.0 0.089401739
H  H134  1  0.57606000  0.41314000  0.34774000  1.0 0.2902703984
H  H135  1  0.59747000  0.37138000  0.36247000  1.0 0.1105480904
H  H136  1  0.63956000  0.45169000  0.46613000  1.0 0.1292084738
H  H137  1  0.85936000  0.78481000  0.73205000  1.0 0.1292084738
H  H138  1  0.96438000  0.82042000  0.80436000  1.0 0.0989527799
H  H139  1  0.94367000  0.85664000  0.73181000  1.0 0.1397298889
H  H140  1  0.90308000  0.85304000  0.68452000  1.0 0.2902703984
H  H141  1  0.26724000  0.68847000  0.82969000  1.0 0.1211127901
H  H142  1  0.21862000  0.75083000  0.83321000  1.0 0.1397298889
H  H143  1  0.32875000  0.79851000  0.87486000  1.0 0.1292084738
H  H144  1  0.22496000  0.84172000  0.94444000  1.0 0.1292084738
H  H145  1  0.27431000  0.90207000  0.05516000  1.0 0.1211127901
H  H146  1  0.32471000  0.93371000  0.00174000  1.0 0.1292084738
H  H147  1  0.26636000  0.82683000  0.68645000  1.0 0.1397298889
H  H148  1  0.32507000  0.87480000  0.79625000  1.0 0.2484278562
H  H149  1  0.21480000  0.82902000  0.74596000  1.0 0.1397298889
H  H150  1  0.12908000  0.69132000  0.69318000  1.0 0.1292084738
H  H151  1  0.15204000  0.66566000  0.61014000  1.0 0.1211127901
H  H152  1  0.14324000  0.60300000  0.65814000  1.0 0.1292084738
H  H153  1  0.27391000  0.85124000  0.61755000  1.0 0.1105480904
H  H154  1  0.37011000  0.94263000  0.65990000  1.0 0.0822339581
H  H155  1  0.28113000  0.91208000  0.56803000  1.0 0.0989527799
H  H156  1  0.37879000  0.04559000  0.59730000  1.0 0.2484278562
H  H157  1  0.28606000  0.89284000  0.53088000  1.0 0.1105480904
H  H158  1  0.36655000  0.92901000  0.63238000  1.0 0.089401739
H  H159  1  0.26312000  0.84974000  0.59262000  1.0 0.089401739
H  H160  1  0.29363000  0.78718000  0.68221000  1.0 0.2987540215
H  H161  1  0.39020000  0.83432000  0.73734000  1.0 0.089401739
H  H162  1  0.42394000  0.77168000  0.83708000  1.0 0.2902703984
H  H163  1  0.40253000  0.76500000  0.77391000  1.0 0.1105480904
H  H164  1  0.36044000  0.82657000  0.81213000  1.0 0.1292084738
H  H165  1  0.14064000  0.87269000  0.92545000  1.0 0.1292084738
H  H166  1  0.03562000  0.83998000  0.85604000  1.0 0.0989527799
H  H167  1  0.05633000  0.78814000  0.91297000  1.0 0.1397298889
H  H168  1  0.09692000  0.78144000  0.94996000  1.0 0.2902703984
H  H169  1  0.14122000  0.31153000  0.57877000  1.0 0.1211127901
H  H170  1  0.08238000  0.24917000  0.46779000  1.0 0.1397298889
H  H171  1  0.07635000  0.20149000  0.53024000  1.0 0.1292084738
H  H172  1  0.10272000  0.15828000  0.38324000  1.0 0.1292084738
H  H173  1  0.15309000  0.09793000  0.37224000  1.0 0.1211127901
H  H174  1  0.06803000  0.06629000  0.39100000  1.0 0.1292084738
H  H175  1  0.85962000  0.17317000  0.43953000  1.0 0.1397298889
H  H176  1  0.92145000  0.12520000  0.45027000  1.0 0.2484278562
H  H177  1  0.91694000  0.17098000  0.38578000  1.0 0.1397298889
H  H178  1  0.00186000  0.30868000  0.43776000  1.0 0.1292084738
H  H179  1  0.94448000  0.33434000  0.48638000  1.0 0.1211127901
H  H180  1  0.05514000  0.39700000  0.54024000  1.0 0.1292084738
H  H181  1  0.76631000  0.14876000  0.42267000  1.0 0.1105480904
H  H182  1  0.71727000  0.05737000  0.42748000  1.0 0.0822339581
H  H183  1  0.65595000  0.08792000  0.36905000  1.0 0.0989527799
H  H184  1  0.55171000  0.95441000  0.33320000  1.0 0.2484278562
H  H185  1  0.63804000  0.10716000  0.39322000  1.0 0.1105480904
H  H186  1  0.70337000  0.07099000  0.43754000  1.0 0.089401739
H  H187  1  0.74288000  0.15026000  0.41338000  1.0 0.089401739
H  H188  1  0.89503000  0.21282000  0.50645000  1.0 0.2987540215
H  H189  1  0.90302000  0.16568000  0.55588000  1.0 0.089401739
H  H190  1  0.06540000  0.22832000  0.65226000  1.0 0.2902703984
H  H191  1  0.00891000  0.23500000  0.63753000  1.0 0.1105480904
H  H192  1  0.98556000  0.17343000  0.53387000  1.0 0.1292084738
H  H193  1  0.05276000  0.12731000  0.26795000  1.0 0.1292084738
H  H194  1  0.01606000  0.16002000  0.19564000  1.0 0.0989527799
H  H195  1  0.12483000  0.21186000  0.26819000  1.0 0.1397298889
H  H196  1  0.16852000  0.21856000  0.31548000  1.0 0.2902703984
H  H197  1  0.85878000  0.43755000  0.17031000  1.0 0.1211127901
H  H198  1  0.91762000  0.38541000  0.16679000  1.0 0.1397298889
H  H199  1  0.92365000  0.45389000  0.12514000  1.0 0.1292084738
H  H200  1  0.89728000  0.28052000  0.05556000  1.0 0.1292084738
H  H201  1  0.84691000  0.21915000  0.94484000  1.0 0.1211127901
H  H202  1  0.93197000  0.32297000  0.99826000  1.0 0.1292084738
H  H203  1  0.14038000  0.57991000  0.31355000  1.0 0.1397298889
H  H204  1  0.07855000  0.52882000  0.20375000  1.0 0.2484278562
H  H205  1  0.08306000  0.46884000  0.25404000  1.0 0.1397298889
H  H206  1  0.99814000  0.43590000  0.30682000  1.0 0.1292084738
H  H207  1  0.05552000  0.54190000  0.38986000  1.0 0.1211127901
H  H208  1  0.94486000  0.48510000  0.34186000  1.0 0.1292084738
H  H209  1  0.23369000  0.65636000  0.38245000  1.0 0.1105480904
H  H210  1  0.28273000  0.71021000  0.34010000  1.0 0.0822339581
H  H211  1  0.34405000  0.71310000  0.43197000  1.0 0.0989527799
H  H212  1  0.44829000  0.78149000  0.40270000  1.0 0.2484278562
H  H213  1  0.36196000  0.75518000  0.46912000  1.0 0.1105480904
H  H214  1  0.29663000  0.73417000  0.36762000  1.0 0.089401739
H  H215  1  0.25712000  0.67050000  0.40738000  1.0 0.089401739
H  H216  1  0.10497000  0.61142000  0.31779000  1.0 0.2987540215
H  H217  1  0.09698000  0.65286000  0.26266000  1.0 0.089401739
H  H218  1  0.93460000  0.58686000  0.16292000  1.0 0.2902703984
H  H219  1  0.99109000  0.62862000  0.22609000  1.0 0.1105480904
H  H220  1  0.01444000  0.54831000  0.18787000  1.0 0.1292084738
H  H221  1  0.94724000  0.21519000  0.07455000  1.0 0.1292084738
H  H222  1  0.98394000  0.17958000  0.14396000  1.0 0.0989527799
H  H223  1  0.87517000  0.14336000  0.08703000  1.0 0.1397298889
H  H224  1  0.83148000  0.14696000  0.05004000  1.0 0.2902703984
H  H225  1  0.42123000  0.73276000  0.56245000  1.0 0.1211127901
H  H226  1  0.53221000  0.78138000  0.61459000  1.0 0.1397298889
H  H227  1  0.46976000  0.67125000  0.54611000  1.0 0.1292084738
H  H228  1  0.61676000  0.77504000  0.71948000  1.0 0.1292084738
H  H229  1  0.62776000  0.72569000  0.78085000  1.0 0.1211127901
H  H230  1  0.60900000  0.67529000  0.67703000  1.0 0.1292084738
H  H231  1  0.56047000  0.73364000  0.42009000  1.0 0.1397298889
H  H232  1  0.54973000  0.67493000  0.47118000  1.0 0.2484278562
H  H233  1  0.61422000  0.78520000  0.53116000  1.0 0.1397298889
H  H234  1  0.56224000  0.87092000  0.56410000  1.0 0.1292084738
H  H235  1  0.51362000  0.84796000  0.45810000  1.0 0.1211127901
H  H236  1  0.45976000  0.85676000  0.51490000  1.0 0.1292084738
H  H237  1  0.57733000  0.72609000  0.34364000  1.0 0.1105480904
H  H238  1  0.57252000  0.62989000  0.28979000  1.0 0.0822339581
H  H239  1  0.63095000  0.71887000  0.28690000  1.0 0.0989527799
H  H240  1  0.66680000  0.62121000  0.21851000  1.0 0.2484278562
H  H241  1  0.60678000  0.71394000  0.24482000  1.0 0.1105480904
H  H242  1  0.56246000  0.63345000  0.26583000  1.0 0.089401739
H  H243  1  0.58662000  0.73688000  0.32950000  1.0 0.089401739
H  H244  1  0.49355000  0.70637000  0.38858000  1.0 0.2987540215
H  H245  1  0.44412000  0.60980000  0.34714000  1.0 0.089401739
H  H246  1  0.34774000  0.57606000  0.41314000  1.0 0.2902703984
H  H247  1  0.36247000  0.59747000  0.37138000  1.0 0.1105480904
H  H248  1  0.46613000  0.63956000  0.45169000  1.0 0.1292084738
H  H249  1  0.73205000  0.85936000  0.78481000  1.0 0.1292084738
H  H250  1  0.80436000  0.96438000  0.82042000  1.0 0.0989527799
H  H251  1  0.73181000  0.94367000  0.85664000  1.0 0.1397298889
H  H252  1  0.68452000  0.90308000  0.85304000  1.0 0.2902703984
H  H253  1  0.82969000  0.26724000  0.68847000  1.0 0.1211127901
H  H254  1  0.83321000  0.21862000  0.75083000  1.0 0.1397298889
H  H255  1  0.87486000  0.32875000  0.79851000  1.0 0.1292084738
H  H256  1  0.94444000  0.22496000  0.84172000  1.0 0.1292084738
H  H257  1  0.05516000  0.27431000  0.90207000  1.0 0.1211127901
H  H258  1  0.00174000  0.32471000  0.93371000  1.0 0.1292084738
H  H259  1  0.68645000  0.26636000  0.82683000  1.0 0.1397298889
H  H260  1  0.79625000  0.32507000  0.87480000  1.0 0.2484278562
H  H261  1  0.74596000  0.21480000  0.82902000  1.0 0.1397298889
H  H262  1  0.69318000  0.12908000  0.69132000  1.0 0.1292084738
H  H263  1  0.61014000  0.15204000  0.66566000  1.0 0.1211127901
H  H264  1  0.65814000  0.14324000  0.60300000  1.0 0.1292084738
H  H265  1  0.61755000  0.27391000  0.85124000  1.0 0.1105480904
H  H266  1  0.65990000  0.37011000  0.94263000  1.0 0.0822339581
H  H267  1  0.56803000  0.28113000  0.91208000  1.0 0.0989527799
H  H268  1  0.59730000  0.37879000  0.04559000  1.0 0.2484278562
H  H269  1  0.53088000  0.28606000  0.89284000  1.0 0.1105480904
H  H270  1  0.63238000  0.36655000  0.92901000  1.0 0.089401739
H  H271  1  0.59262000  0.26312000  0.84974000  1.0 0.089401739
H  H272  1  0.68221000  0.29363000  0.78718000  1.0 0.2987540215
H  H273  1  0.73734000  0.39020000  0.83432000  1.0 0.089401739
H  H274  1  0.83708000  0.42394000  0.77168000  1.0 0.2902703984
H  H275  1  0.77391000  0.40253000  0.76500000  1.0 0.1105480904
H  H276  1  0.81213000  0.36044000  0.82657000  1.0 0.1292084738
H  H277  1  0.92545000  0.14064000  0.87269000  1.0 0.1292084738
H  H278  1  0.85604000  0.03562000  0.83998000  1.0 0.0989527799
H  H279  1  0.91297000  0.05633000  0.78814000  1.0 0.1397298889
H  H280  1  0.94996000  0.09692000  0.78144000  1.0 0.2902703984
H  H281  1  0.57877000  0.14122000  0.31153000  1.0 0.1211127901
H  H282  1  0.46779000  0.08238000  0.24917000  1.0 0.1397298889
H  H283  1  0.53024000  0.07635000  0.20149000  1.0 0.1292084738
H  H284  1  0.38324000  0.10272000  0.15828000  1.0 0.1292084738
H  H285  1  0.37224000  0.15309000  0.09793000  1.0 0.1211127901
H  H286  1  0.39100000  0.06803000  0.06629000  1.0 0.1292084738
H  H287  1  0.43953000  0.85962000  0.17317000  1.0 0.1397298889
H  H288  1  0.45027000  0.92145000  0.12520000  1.0 0.2484278562
H  H289  1  0.38578000  0.91694000  0.17098000  1.0 0.1397298889
H  H290  1  0.43776000  0.00186000  0.30868000  1.0 0.1292084738
H  H291  1  0.48638000  0.94448000  0.33434000  1.0 0.1211127901
H  H292  1  0.54024000  0.05514000  0.39700000  1.0 0.1292084738
H  H293  1  0.42267000  0.76631000  0.14876000  1.0 0.1105480904
H  H294  1  0.42748000  0.71727000  0.05737000  1.0 0.0822339581
H  H295  1  0.36905000  0.65595000  0.08792000  1.0 0.0989527799
H  H296  1  0.33320000  0.55171000  0.95441000  1.0 0.2484278562
H  H297  1  0.39322000  0.63804000  0.10716000  1.0 0.1105480904
H  H298  1  0.43754000  0.70337000  0.07099000  1.0 0.089401739
H  H299  1  0.41338000  0.74288000  0.15026000  1.0 0.089401739
H  H300  1  0.50645000  0.89503000  0.21282000  1.0 0.2987540215
H  H301  1  0.55588000  0.90302000  0.16568000  1.0 0.089401739
H  H302  1  0.65226000  0.06540000  0.22832000  1.0 0.2902703984
H  H303  1  0.63753000  0.00891000  0.23500000  1.0 0.1105480904
H  H304  1  0.53387000  0.98556000  0.17343000  1.0 0.1292084738
H  H305  1  0.26795000  0.05276000  0.12731000  1.0 0.1292084738
H  H306  1  0.19564000  0.01606000  0.16002000  1.0 0.0989527799
H  H307  1  0.26819000  0.12483000  0.21186000  1.0 0.1397298889
H  H308  1  0.31548000  0.16852000  0.21856000  1.0 0.2902703984
H  H309  1  0.17031000  0.85878000  0.43755000  1.0 0.1211127901
H  H310  1  0.16679000  0.91762000  0.38541000  1.0 0.1397298889
H  H311  1  0.12514000  0.92365000  0.45389000  1.0 0.1292084738
H  H312  1  0.05556000  0.89728000  0.28052000  1.0 0.1292084738
H  H313  1  0.94484000  0.84691000  0.21915000  1.0 0.1211127901
H  H314  1  0.99826000  0.93197000  0.32297000  1.0 0.1292084738
H  H315  1  0.31355000  0.14038000  0.57991000  1.0 0.1397298889
H  H316  1  0.20375000  0.07855000  0.52882000  1.0 0.2484278562
H  H317  1  0.25404000  0.08306000  0.46884000  1.0 0.1397298889
H  H318  1  0.30682000  0.99814000  0.43590000  1.0 0.1292084738
H  H319  1  0.38986000  0.05552000  0.54190000  1.0 0.1211127901
H  H320  1  0.34186000  0.94486000  0.48510000  1.0 0.1292084738
H  H321  1  0.38245000  0.23369000  0.65636000  1.0 0.1105480904
H  H322  1  0.34010000  0.28273000  0.71021000  1.0 0.0822339581
H  H323  1  0.43197000  0.34405000  0.71310000  1.0 0.0989527799
H  H324  1  0.40270000  0.44829000  0.78149000  1.0 0.2484278562
H  H325  1  0.46912000  0.36196000  0.75518000  1.0 0.1105480904
H  H326  1  0.36762000  0.29663000  0.73417000  1.0 0.089401739
H  H327  1  0.40738000  0.25712000  0.67050000  1.0 0.089401739
H  H328  1  0.31779000  0.10497000  0.61142000  1.0 0.2987540215
H  H329  1  0.26266000  0.09698000  0.65286000  1.0 0.089401739
H  H330  1  0.16292000  0.93460000  0.58686000  1.0 0.2902703984
H  H331  1  0.22609000  0.99109000  0.62862000  1.0 0.1105480904
H  H332  1  0.18787000  0.01444000  0.54831000  1.0 0.1292084738
H  H333  1  0.07455000  0.94724000  0.21519000  1.0 0.1292084738
H  H334  1  0.14396000  0.98394000  0.17958000  1.0 0.0989527799
H  H335  1  0.08703000  0.87517000  0.14336000  1.0 0.1397298889
H  H336  1  0.05004000  0.83148000  0.14696000  1.0 0.2902703984
H  H337  1  0.17031000  0.31153000  0.73276000  1.0 0.1211127901
H  H338  1  0.16679000  0.24917000  0.78138000  1.0 0.1397298889
H  H339  1  0.12514000  0.20149000  0.67125000  1.0 0.1292084738
H  H340  1  0.05556000  0.15828000  0.77504000  1.0 0.1292084738
H  H341  1  0.94484000  0.09793000  0.72569000  1.0 0.1211127901
H  H342  1  0.99826000  0.06629000  0.67529000  1.0 0.1292084738
H  H343  1  0.31355000  0.17317000  0.73364000  1.0 0.1397298889
H  H344  1  0.20375000  0.12520000  0.67493000  1.0 0.2484278562
H  H345  1  0.25404000  0.17098000  0.78520000  1.0 0.1397298889
H  H346  1  0.30682000  0.30868000  0.87092000  1.0 0.1292084738
H  H347  1  0.38986000  0.33434000  0.84796000  1.0 0.1211127901
H  H348  1  0.34186000  0.39700000  0.85676000  1.0 0.1292084738
H  H349  1  0.38245000  0.14876000  0.72609000  1.0 0.1105480904
H  H350  1  0.34010000  0.05737000  0.62989000  1.0 0.0822339581
H  H351  1  0.43197000  0.08792000  0.71887000  1.0 0.0989527799
H  H352  1  0.40270000  0.95441000  0.62121000  1.0 0.2484278562
H  H353  1  0.46912000  0.10716000  0.71394000  1.0 0.1105480904
H  H354  1  0.36762000  0.07099000  0.63345000  1.0 0.089401739
H  H355  1  0.40738000  0.15026000  0.73688000  1.0 0.089401739
H  H356  1  0.31779000  0.21282000  0.70637000  1.0 0.2987540215
H  H357  1  0.26266000  0.16568000  0.60980000  1.0 0.089401739
H  H358  1  0.16292000  0.22832000  0.57606000  1.0 0.2902703984
H  H359  1  0.22609000  0.23500000  0.59747000  1.0 0.1105480904
H  H360  1  0.18787000  0.17343000  0.63956000  1.0 0.1292084738
H  H361  1  0.07455000  0.12731000  0.85936000  1.0 0.1292084738
H  H362  1  0.14396000  0.16002000  0.96438000  1.0 0.0989527799
H  H363  1  0.08703000  0.21186000  0.94367000  1.0 0.1397298889
H  H364  1  0.05004000  0.21856000  0.90308000  1.0 0.2902703984
H  H365  1  0.57877000  0.43755000  0.26724000  1.0 0.1211127901
H  H366  1  0.46779000  0.38541000  0.21862000  1.0 0.1397298889
H  H367  1  0.53024000  0.45389000  0.32875000  1.0 0.1292084738
H  H368  1  0.38324000  0.28052000  0.22496000  1.0 0.1292084738
H  H369  1  0.37224000  0.21915000  0.27431000  1.0 0.1211127901
H  H370  1  0.39100000  0.32297000  0.32471000  1.0 0.1292084738
H  H371  1  0.43953000  0.57991000  0.26636000  1.0 0.1397298889
H  H372  1  0.45027000  0.52882000  0.32507000  1.0 0.2484278562
H  H373  1  0.38578000  0.46884000  0.21480000  1.0 0.1397298889
H  H374  1  0.43776000  0.43590000  0.12908000  1.0 0.1292084738
H  H375  1  0.48638000  0.54190000  0.15204000  1.0 0.1211127901
H  H376  1  0.54024000  0.48510000  0.14324000  1.0 0.1292084738
H  H377  1  0.42267000  0.65636000  0.27391000  1.0 0.1105480904
H  H378  1  0.42748000  0.71021000  0.37011000  1.0 0.0822339581
H  H379  1  0.36905000  0.71310000  0.28113000  1.0 0.0989527799
H  H380  1  0.33320000  0.78149000  0.37879000  1.0 0.2484278562
H  H381  1  0.39322000  0.75518000  0.28606000  1.0 0.1105480904
H  H382  1  0.43754000  0.73417000  0.36655000  1.0 0.089401739
H  H383  1  0.41338000  0.67050000  0.26312000  1.0 0.089401739
H  H384  1  0.50645000  0.61142000  0.29363000  1.0 0.2987540215
H  H385  1  0.55588000  0.65286000  0.39020000  1.0 0.089401739
H  H386  1  0.65226000  0.58686000  0.42394000  1.0 0.2902703984
H  H387  1  0.63753000  0.62862000  0.40253000  1.0 0.1105480904
H  H388  1  0.53387000  0.54831000  0.36044000  1.0 0.1292084738
H  H389  1  0.26795000  0.21519000  0.14064000  1.0 0.1292084738
H  H390  1  0.19564000  0.17958000  0.03562000  1.0 0.0989527799
H  H391  1  0.26819000  0.14336000  0.05633000  1.0 0.1397298889
H  H392  1  0.31548000  0.14696000  0.09692000  1.0 0.2902703984
H  H393  1  0.82969000  0.56245000  0.14122000  1.0 0.1211127901
H  H394  1  0.83321000  0.61459000  0.08238000  1.0 0.1397298889
H  H395  1  0.87486000  0.54611000  0.07635000  1.0 0.1292084738
H  H396  1  0.94444000  0.71948000  0.10272000  1.0 0.1292084738
H  H397  1  0.05516000  0.78085000  0.15309000  1.0 0.1211127901
H  H398  1  0.00174000  0.67703000  0.06803000  1.0 0.1292084738
H  H399  1  0.68645000  0.42009000  0.85962000  1.0 0.1397298889
H  H400  1  0.79625000  0.47118000  0.92145000  1.0 0.2484278562
H  H401  1  0.74596000  0.53116000  0.91694000  1.0 0.1397298889
H  H402  1  0.69318000  0.56410000  0.00186000  1.0 0.1292084738
H  H403  1  0.61014000  0.45810000  0.94448000  1.0 0.1211127901
H  H404  1  0.65814000  0.51490000  0.05514000  1.0 0.1292084738
H  H405  1  0.61755000  0.34364000  0.76631000  1.0 0.1105480904
H  H406  1  0.65990000  0.28979000  0.71727000  1.0 0.0822339581
H  H407  1  0.56803000  0.28690000  0.65595000  1.0 0.0989527799
H  H408  1  0.59730000  0.21851000  0.55171000  1.0 0.2484278562
H  H409  1  0.53088000  0.24482000  0.63804000  1.0 0.1105480904
H  H410  1  0.63238000  0.26583000  0.70337000  1.0 0.089401739
H  H411  1  0.59262000  0.32950000  0.74288000  1.0 0.089401739
H  H412  1  0.68221000  0.38858000  0.89503000  1.0 0.2987540215
H  H413  1  0.73734000  0.34714000  0.90302000  1.0 0.089401739
H  H414  1  0.83708000  0.41314000  0.06540000  1.0 0.2902703984
H  H415  1  0.77391000  0.37138000  0.00891000  1.0 0.1105480904
H  H416  1  0.81213000  0.45169000  0.98556000  1.0 0.1292084738
H  H417  1  0.92545000  0.78481000  0.05276000  1.0 0.1292084738
H  H418  1  0.85604000  0.82042000  0.01606000  1.0 0.0989527799
H  H419  1  0.91297000  0.85664000  0.12483000  1.0 0.1397298889
H  H420  1  0.94996000  0.85304000  0.16852000  1.0 0.2902703984
H  H421  1  0.42123000  0.68847000  0.85878000  1.0 0.1211127901
H  H422  1  0.53221000  0.75083000  0.91762000  1.0 0.1397298889
H  H423  1  0.46976000  0.79851000  0.92365000  1.0 0.1292084738
H  H424  1  0.61676000  0.84172000  0.89728000  1.0 0.1292084738
H  H425  1  0.62776000  0.90207000  0.84691000  1.0 0.1211127901
H  H426  1  0.60900000  0.93371000  0.93197000  1.0 0.1292084738
H  H427  1  0.56047000  0.82683000  0.14038000  1.0 0.1397298889
H  H428  1  0.54973000  0.87480000  0.07855000  1.0 0.2484278562
H  H429  1  0.61422000  0.82902000  0.08306000  1.0 0.1397298889
H  H430  1  0.56224000  0.69132000  0.99814000  1.0 0.1292084738
H  H431  1  0.51362000  0.66566000  0.05552000  1.0 0.1211127901
H  H432  1  0.45976000  0.60300000  0.94486000  1.0 0.1292084738
H  H433  1  0.57733000  0.85124000  0.23369000  1.0 0.1105480904
H  H434  1  0.57252000  0.94263000  0.28273000  1.0 0.0822339581
H  H435  1  0.63095000  0.91208000  0.34405000  1.0 0.0989527799
H  H436  1  0.66680000  0.04559000  0.44829000  1.0 0.2484278562
H  H437  1  0.60678000  0.89284000  0.36196000  1.0 0.1105480904
H  H438  1  0.56246000  0.92901000  0.29663000  1.0 0.089401739
H  H439  1  0.58662000  0.84974000  0.25712000  1.0 0.089401739
H  H440  1  0.49355000  0.78718000  0.10497000  1.0 0.2987540215
H  H441  1  0.44412000  0.83432000  0.09698000  1.0 0.089401739
H  H442  1  0.34774000  0.77168000  0.93460000  1.0 0.2902703984
H  H443  1  0.36247000  0.76500000  0.99109000  1.0 0.1105480904
H  H444  1  0.46613000  0.82657000  0.01444000  1.0 0.1292084738
H  H445  1  0.73205000  0.87269000  0.94724000  1.0 0.1292084738
H  H446  1  0.80436000  0.83998000  0.98394000  1.0 0.0989527799
H  H447  1  0.73181000  0.78814000  0.87517000  1.0 0.1397298889
H  H448  1  0.68452000  0.78144000  0.83148000  1.0 0.2902703984
H  H449  1  0.68847000  0.85878000  0.42123000  1.0 0.1211127901
H  H450  1  0.75083000  0.91762000  0.53221000  1.0 0.1397298889
H  H451  1  0.79851000  0.92365000  0.46976000  1.0 0.1292084738
H  H452  1  0.84172000  0.89728000  0.61676000  1.0 0.1292084738
H  H453  1  0.90207000  0.84691000  0.62776000  1.0 0.1211127901
H  H454  1  0.93371000  0.93197000  0.60900000  1.0 0.1292084738
H  H455  1  0.82683000  0.14038000  0.56047000  1.0 0.1397298889
H  H456  1  0.87480000  0.07855000  0.54973000  1.0 0.2484278562
H  H457  1  0.82902000  0.08306000  0.61422000  1.0 0.1397298889
H  H458  1  0.69132000  0.99814000  0.56224000  1.0 0.1292084738
H  H459  1  0.66566000  0.05552000  0.51362000  1.0 0.1211127901
H  H460  1  0.60300000  0.94486000  0.45976000  1.0 0.1292084738
H  H461  1  0.85124000  0.23369000  0.57733000  1.0 0.1105480904
H  H462  1  0.94263000  0.28273000  0.57252000  1.0 0.0822339581
H  H463  1  0.91208000  0.34405000  0.63095000  1.0 0.0989527799
H  H464  1  0.04559000  0.44829000  0.66680000  1.0 0.2484278562
H  H465  1  0.89284000  0.36196000  0.60678000  1.0 0.1105480904
H  H466  1  0.92901000  0.29663000  0.56246000  1.0 0.089401739
H  H467  1  0.84974000  0.25712000  0.58662000  1.0 0.089401739
H  H468  1  0.78718000  0.10497000  0.49355000  1.0 0.2987540215
H  H469  1  0.83432000  0.09698000  0.44412000  1.0 0.089401739
H  H470  1  0.77168000  0.93460000  0.34774000  1.0 0.2902703984
H  H471  1  0.76500000  0.99109000  0.36247000  1.0 0.1105480904
H  H472  1  0.82657000  0.01444000  0.46613000  1.0 0.1292084738
H  H473  1  0.87269000  0.94724000  0.73205000  1.0 0.1292084738
H  H474  1  0.83998000  0.98394000  0.80436000  1.0 0.0989527799
H  H475  1  0.78814000  0.87517000  0.73181000  1.0 0.1397298889
H  H476  1  0.78144000  0.83148000  0.68452000  1.0 0.2902703984
H  H477  1  0.56245000  0.14122000  0.82969000  1.0 0.1211127901
H  H478  1  0.61459000  0.08238000  0.83321000  1.0 0.1397298889
H  H479  1  0.54611000  0.07635000  0.87486000  1.0 0.1292084738
H  H480  1  0.71948000  0.10272000  0.94444000  1.0 0.1292084738
H  H481  1  0.78085000  0.15309000  0.05516000  1.0 0.1211127901
H  H482  1  0.67703000  0.06803000  0.00174000  1.0 0.1292084738
H  H483  1  0.42009000  0.85962000  0.68645000  1.0 0.1397298889
H  H484  1  0.47118000  0.92145000  0.79625000  1.0 0.2484278562
H  H485  1  0.53116000  0.91694000  0.74596000  1.0 0.1397298889
H  H486  1  0.56410000  0.00186000  0.69318000  1.0 0.1292084738
H  H487  1  0.45810000  0.94448000  0.61014000  1.0 0.1211127901
H  H488  1  0.51490000  0.05514000  0.65814000  1.0 0.1292084738
H  H489  1  0.34364000  0.76631000  0.61755000  1.0 0.1105480904
H  H490  1  0.28979000  0.71727000  0.65990000  1.0 0.0822339581
H  H491  1  0.28690000  0.65595000  0.56803000  1.0 0.0989527799
H  H492  1  0.21851000  0.55171000  0.59730000  1.0 0.2484278562
H  H493  1  0.24482000  0.63804000  0.53088000  1.0 0.1105480904
H  H494  1  0.26583000  0.70337000  0.63238000  1.0 0.089401739
H  H495  1  0.32950000  0.74288000  0.59262000  1.0 0.089401739
H  H496  1  0.38858000  0.89503000  0.68221000  1.0 0.2987540215
H  H497  1  0.34714000  0.90302000  0.73734000  1.0 0.089401739
H  H498  1  0.41314000  0.06540000  0.83708000  1.0 0.2902703984
H  H499  1  0.37138000  0.00891000  0.77391000  1.0 0.1105480904
H  H500  1  0.45169000  0.98556000  0.81213000  1.0 0.1292084738
H  H501  1  0.78481000  0.05276000  0.92545000  1.0 0.1292084738
H  H502  1  0.82042000  0.01606000  0.85604000  1.0 0.0989527799
H  H503  1  0.85664000  0.12483000  0.91297000  1.0 0.1397298889
H  H504  1  0.85304000  0.16852000  0.94996000  1.0 0.2902703984
H  H505  1  0.43755000  0.26724000  0.57877000  1.0 0.1211127901
H  H506  1  0.38541000  0.21862000  0.46779000  1.0 0.1397298889
H  H507  1  0.45389000  0.32875000  0.53024000  1.0 0.1292084738
H  H508  1  0.28052000  0.22496000  0.38324000  1.0 0.1292084738
H  H509  1  0.21915000  0.27431000  0.37224000  1.0 0.1211127901
H  H510  1  0.32297000  0.32471000  0.39100000  1.0 0.1292084738
H  H511  1  0.57991000  0.26636000  0.43953000  1.0 0.1397298889
H  H512  1  0.52882000  0.32507000  0.45027000  1.0 0.2484278562
H  H513  1  0.46884000  0.21480000  0.38578000  1.0 0.1397298889
H  H514  1  0.43590000  0.12908000  0.43776000  1.0 0.1292084738
H  H515  1  0.54190000  0.15204000  0.48638000  1.0 0.1211127901
H  H516  1  0.48510000  0.14324000  0.54024000  1.0 0.1292084738
H  H517  1  0.65636000  0.27391000  0.42267000  1.0 0.1105480904
H  H518  1  0.71021000  0.37011000  0.42748000  1.0 0.0822339581
H  H519  1  0.71310000  0.28113000  0.36905000  1.0 0.0989527799
H  H520  1  0.78149000  0.37879000  0.33320000  1.0 0.2484278562
H  H521  1  0.75518000  0.28606000  0.39322000  1.0 0.1105480904
H  H522  1  0.73417000  0.36655000  0.43754000  1.0 0.089401739
H  H523  1  0.67050000  0.26312000  0.41338000  1.0 0.089401739
H  H524  1  0.61142000  0.29363000  0.50645000  1.0 0.2987540215
H  H525  1  0.65286000  0.39020000  0.55588000  1.0 0.089401739
H  H526  1  0.58686000  0.42394000  0.65226000  1.0 0.2902703984
H  H527  1  0.62862000  0.40253000  0.63753000  1.0 0.1105480904
H  H528  1  0.54831000  0.36044000  0.53387000  1.0 0.1292084738
H  H529  1  0.21519000  0.14064000  0.26795000  1.0 0.1292084738
H  H530  1  0.17958000  0.03562000  0.19564000  1.0 0.0989527799
H  H531  1  0.14336000  0.05633000  0.26819000  1.0 0.1397298889
H  H532  1  0.14696000  0.09692000  0.31548000  1.0 0.2902703984
H  H533  1  0.31153000  0.73276000  0.17031000  1.0 0.1211127901
H  H534  1  0.24917000  0.78138000  0.16679000  1.0 0.1397298889
H  H535  1  0.20149000  0.67125000  0.12514000  1.0 0.1292084738
H  H536  1  0.15828000  0.77504000  0.05556000  1.0 0.1292084738
H  H537  1  0.09793000  0.72569000  0.94484000  1.0 0.1211127901
H  H538  1  0.06629000  0.67529000  0.99826000  1.0 0.1292084738
H  H539  1  0.17317000  0.73364000  0.31355000  1.0 0.1397298889
H  H540  1  0.12520000  0.67493000  0.20375000  1.0 0.2484278562
H  H541  1  0.17098000  0.78520000  0.25404000  1.0 0.1397298889
H  H542  1  0.30868000  0.87092000  0.30682000  1.0 0.1292084738
H  H543  1  0.33434000  0.84796000  0.38986000  1.0 0.1211127901
H  H544  1  0.39700000  0.85676000  0.34186000  1.0 0.1292084738
H  H545  1  0.14876000  0.72609000  0.38245000  1.0 0.1105480904
H  H546  1  0.05737000  0.62989000  0.34010000  1.0 0.0822339581
H  H547  1  0.08792000  0.71887000  0.43197000  1.0 0.0989527799
H  H548  1  0.95441000  0.62121000  0.40270000  1.0 0.2484278562
H  H549  1  0.10716000  0.71394000  0.46912000  1.0 0.1105480904
H  H550  1  0.07099000  0.63345000  0.36762000  1.0 0.089401739
H  H551  1  0.15026000  0.73688000  0.40738000  1.0 0.089401739
H  H552  1  0.21282000  0.70637000  0.31779000  1.0 0.2987540215
H  H553  1  0.16568000  0.60980000  0.26266000  1.0 0.089401739
H  H554  1  0.22832000  0.57606000  0.16292000  1.0 0.2902703984
H  H555  1  0.23500000  0.59747000  0.22609000  1.0 0.1105480904
H  H556  1  0.17343000  0.63956000  0.18787000  1.0 0.1292084738
H  H557  1  0.12731000  0.85936000  0.07455000  1.0 0.1292084738
H  H558  1  0.16002000  0.96438000  0.14396000  1.0 0.0989527799
H  H559  1  0.21186000  0.94367000  0.08703000  1.0 0.1397298889
H  H560  1  0.21856000  0.90308000  0.05004000  1.0 0.2902703984
H  H561  1  0.14122000  0.82969000  0.56245000  1.0 0.1211127901
H  H562  1  0.08238000  0.83321000  0.61459000  1.0 0.1397298889
H  H563  1  0.07635000  0.87486000  0.54611000  1.0 0.1292084738
H  H564  1  0.10272000  0.94444000  0.71948000  1.0 0.1292084738
H  H565  1  0.15309000  0.05516000  0.78085000  1.0 0.1211127901
H  H566  1  0.06803000  0.00174000  0.67703000  1.0 0.1292084738
H  H567  1  0.85962000  0.68645000  0.42009000  1.0 0.1397298889
H  H568  1  0.92145000  0.79625000  0.47118000  1.0 0.2484278562
H  H569  1  0.91694000  0.74596000  0.53116000  1.0 0.1397298889
H  H570  1  0.00186000  0.69318000  0.56410000  1.0 0.1292084738
H  H571  1  0.94448000  0.61014000  0.45810000  1.0 0.1211127901
H  H572  1  0.05514000  0.65814000  0.51490000  1.0 0.1292084738
H  H573  1  0.76631000  0.61755000  0.34364000  1.0 0.1105480904
H  H574  1  0.71727000  0.65990000  0.28979000  1.0 0.0822339581
H  H575  1  0.65595000  0.56803000  0.28690000  1.0 0.0989527799
H  H576  1  0.55171000  0.59730000  0.21851000  1.0 0.2484278562
H  H577  1  0.63804000  0.53088000  0.24482000  1.0 0.1105480904
H  H578  1  0.70337000  0.63238000  0.26583000  1.0 0.089401739
H  H579  1  0.74288000  0.59262000  0.32950000  1.0 0.089401739
H  H580  1  0.89503000  0.68221000  0.38858000  1.0 0.2987540215
H  H581  1  0.90302000  0.73734000  0.34714000  1.0 0.089401739
H  H582  1  0.06540000  0.83708000  0.41314000  1.0 0.2902703984
H  H583  1  0.00891000  0.77391000  0.37138000  1.0 0.1105480904
H  H584  1  0.98556000  0.81213000  0.45169000  1.0 0.1292084738
H  H585  1  0.05276000  0.92545000  0.78481000  1.0 0.1292084738
H  H586  1  0.01606000  0.85604000  0.82042000  1.0 0.0989527799
H  H587  1  0.12483000  0.91297000  0.85664000  1.0 0.1397298889
H  H588  1  0.16852000  0.94996000  0.85304000  1.0 0.2902703984
H  H589  1  0.85878000  0.42123000  0.68847000  1.0 0.1211127901
H  H590  1  0.91762000  0.53221000  0.75083000  1.0 0.1397298889
H  H591  1  0.92365000  0.46976000  0.79851000  1.0 0.1292084738
H  H592  1  0.89728000  0.61676000  0.84172000  1.0 0.1292084738
H  H593  1  0.84691000  0.62776000  0.90207000  1.0 0.1211127901
H  H594  1  0.93197000  0.60900000  0.93371000  1.0 0.1292084738
H  H595  1  0.14038000  0.56047000  0.82683000  1.0 0.1397298889
H  H596  1  0.07855000  0.54973000  0.87480000  1.0 0.2484278562
H  H597  1  0.08306000  0.61422000  0.82902000  1.0 0.1397298889
H  H598  1  0.99814000  0.56224000  0.69132000  1.0 0.1292084738
H  H599  1  0.05552000  0.51362000  0.66566000  1.0 0.1211127901
H  H600  1  0.94486000  0.45976000  0.60300000  1.0 0.1292084738
H  H601  1  0.23369000  0.57733000  0.85124000  1.0 0.1105480904
H  H602  1  0.28273000  0.57252000  0.94263000  1.0 0.0822339581
H  H603  1  0.34405000  0.63095000  0.91208000  1.0 0.0989527799
H  H604  1  0.44829000  0.66680000  0.04559000  1.0 0.2484278562
H  H605  1  0.36196000  0.60678000  0.89284000  1.0 0.1105480904
H  H606  1  0.29663000  0.56246000  0.92901000  1.0 0.089401739
H  H607  1  0.25712000  0.58662000  0.84974000  1.0 0.089401739
H  H608  1  0.10497000  0.49355000  0.78718000  1.0 0.2987540215
H  H609  1  0.09698000  0.44412000  0.83432000  1.0 0.089401739
H  H610  1  0.93460000  0.34774000  0.77168000  1.0 0.2902703984
H  H611  1  0.99109000  0.36247000  0.76500000  1.0 0.1105480904
H  H612  1  0.01444000  0.46613000  0.82657000  1.0 0.1292084738
H  H613  1  0.94724000  0.73205000  0.87269000  1.0 0.1292084738
H  H614  1  0.98394000  0.80436000  0.83998000  1.0 0.0989527799
H  H615  1  0.87517000  0.73181000  0.78814000  1.0 0.1397298889
H  H616  1  0.83148000  0.68452000  0.78144000  1.0 0.2902703984
H  H617  1  0.73276000  0.17031000  0.31153000  1.0 0.1211127901
H  H618  1  0.78138000  0.16679000  0.24917000  1.0 0.1397298889
H  H619  1  0.67125000  0.12514000  0.20149000  1.0 0.1292084738
H  H620  1  0.77504000  0.05556000  0.15828000  1.0 0.1292084738
H  H621  1  0.72569000  0.94484000  0.09793000  1.0 0.1211127901
H  H622  1  0.67529000  0.99826000  0.06629000  1.0 0.1292084738
H  H623  1  0.73364000  0.31355000  0.17317000  1.0 0.1397298889
H  H624  1  0.67493000  0.20375000  0.12520000  1.0 0.2484278562
H  H625  1  0.78520000  0.25404000  0.17098000  1.0 0.1397298889
H  H626  1  0.87092000  0.30682000  0.30868000  1.0 0.1292084738
H  H627  1  0.84796000  0.38986000  0.33434000  1.0 0.1211127901
H  H628  1  0.85676000  0.34186000  0.39700000  1.0 0.1292084738
H  H629  1  0.72609000  0.38245000  0.14876000  1.0 0.1105480904
H  H630  1  0.62989000  0.34010000  0.05737000  1.0 0.0822339581
H  H631  1  0.71887000  0.43197000  0.08792000  1.0 0.0989527799
H  H632  1  0.62121000  0.40270000  0.95441000  1.0 0.2484278562
H  H633  1  0.71394000  0.46912000  0.10716000  1.0 0.1105480904
H  H634  1  0.63345000  0.36762000  0.07099000  1.0 0.089401739
H  H635  1  0.73688000  0.40738000  0.15026000  1.0 0.089401739
H  H636  1  0.70637000  0.31779000  0.21282000  1.0 0.2987540215
H  H637  1  0.60980000  0.26266000  0.16568000  1.0 0.089401739
H  H638  1  0.57606000  0.16292000  0.22832000  1.0 0.2902703984
H  H639  1  0.59747000  0.22609000  0.23500000  1.0 0.1105480904
H  H640  1  0.63956000  0.18787000  0.17343000  1.0 0.1292084738
H  H641  1  0.85936000  0.07455000  0.12731000  1.0 0.1292084738
H  H642  1  0.96438000  0.14396000  0.16002000  1.0 0.0989527799
H  H643  1  0.94367000  0.08703000  0.21186000  1.0 0.1397298889
H  H644  1  0.90308000  0.05004000  0.21856000  1.0 0.2902703984
H  H645  1  0.26724000  0.57877000  0.43755000  1.0 0.1211127901
H  H646  1  0.21862000  0.46779000  0.38541000  1.0 0.1397298889
H  H647  1  0.32875000  0.53024000  0.45389000  1.0 0.1292084738
H  H648  1  0.22496000  0.38324000  0.28052000  1.0 0.1292084738
H  H649  1  0.27431000  0.37224000  0.21915000  1.0 0.1211127901
H  H650  1  0.32471000  0.39100000  0.32297000  1.0 0.1292084738
H  H651  1  0.26636000  0.43953000  0.57991000  1.0 0.1397298889
H  H652  1  0.32507000  0.45027000  0.52882000  1.0 0.2484278562
H  H653  1  0.21480000  0.38578000  0.46884000  1.0 0.1397298889
H  H654  1  0.12908000  0.43776000  0.43590000  1.0 0.1292084738
H  H655  1  0.15204000  0.48638000  0.54190000  1.0 0.1211127901
H  H656  1  0.14324000  0.54024000  0.48510000  1.0 0.1292084738
H  H657  1  0.27391000  0.42267000  0.65636000  1.0 0.1105480904
H  H658  1  0.37011000  0.42748000  0.71021000  1.0 0.0822339581
H  H659  1  0.28113000  0.36905000  0.71310000  1.0 0.0989527799
H  H660  1  0.37879000  0.33320000  0.78149000  1.0 0.2484278562
H  H661  1  0.28606000  0.39322000  0.75518000  1.0 0.1105480904
H  H662  1  0.36655000  0.43754000  0.73417000  1.0 0.089401739
H  H663  1  0.26312000  0.41338000  0.67050000  1.0 0.089401739
H  H664  1  0.29363000  0.50645000  0.61142000  1.0 0.2987540215
H  H665  1  0.39020000  0.55588000  0.65286000  1.0 0.089401739
H  H666  1  0.42394000  0.65226000  0.58686000  1.0 0.2902703984
H  H667  1  0.40253000  0.63753000  0.62862000  1.0 0.1105480904
H  H668  1  0.36044000  0.53387000  0.54831000  1.0 0.1292084738
H  H669  1  0.14064000  0.26795000  0.21519000  1.0 0.1292084738
H  H670  1  0.03562000  0.19564000  0.17958000  1.0 0.0989527799
H  H671  1  0.05633000  0.26819000  0.14336000  1.0 0.1397298889
H  H672  1  0.09692000  0.31548000  0.14696000  1.0 0.2902703984
C  C1  1  0.54228000  0.58947000  0.72751000  1.0 0.5697969047
C  C2  1  0.59100000  0.54170000  0.72710000  1.0 0.5786961199
C  C3  1  0.72760000  0.60914000  0.66174000  1.0 0.5491832924
C  C4  1  0.56730000  0.44282000  0.73102000  1.0 -0.1400545277
C  C5  1  0.59118000  0.47715000  0.76245000  1.0 -0.0594045132
C  C6  1  0.59827000  0.50875000  0.75990000  1.0 -0.1066595837
C  C7  1  0.58147000  0.50598000  0.72591000  1.0 -0.0286045992
C  C8  1  0.55759000  0.47165000  0.69448000  1.0 -0.1497997291
C  C9  1  0.55050000  0.44006000  0.69702000  1.0 0.0500818461
C  C10  1  0.60949000  0.48270000  0.79779000  1.0 0.5491832924
C  C11  1  0.52531000  0.40333000  0.66336000  1.0 -0.003553914
C  C12  1  0.53651000  0.37957000  0.65278000  1.0 -0.0407305662
C  C13  1  0.49208000  0.39851000  0.64517000  1.0 0.0500818461
C  C14  1  0.53308000  0.38663000  0.63287000  1.0 0.0822339581
C  C15  1  0.49123000  0.38230000  0.65503000  1.0 0.018651283
C  C16  1  0.72205000  0.61720000  0.75487000  1.0 -0.1400545277
C  C17  1  0.75475000  0.62309000  0.75508000  1.0 0.089401739
C  C18  1  0.75850000  0.62373000  0.72555000  1.0 -0.1400545277
C  C19  1  0.72954000  0.61848000  0.69582000  1.0 -0.0773466312
C  C20  1  0.69682000  0.61259000  0.69561000  1.0 -0.097147461
C  C21  1  0.69308000  0.61195000  0.72513000  1.0 -0.0221237334
C  C22  1  0.66527000  0.62002000  0.73121000  1.0 0.5697969047
C  C23  1  0.78358000  0.62362000  0.78422000  1.0 0.0076524367
C  C24  1  0.79516000  0.59772000  0.77528000  1.0 -0.0710923863
C  C25  1  0.82075000  0.64958000  0.80145000  1.0 0.0500818461
C  C26  1  0.80065000  0.64895000  0.82088000  1.0 0.0586255876
C  C27  1  0.77533000  0.59744000  0.79523000  1.0 -0.0594045132
C  C28  1  0.47550000  0.58800000  0.76450000  1.0 0.018651283
C  C29  1  0.50727000  0.58238000  0.72901000  1.0 0.0033744084
C  C30  1  0.44210000  0.56560000  0.73270000  1.0 -0.2782574761
C  C31  1  0.47287000  0.55965000  0.69826000  1.0 -0.2304901092
C  C32  1  0.48060000  0.60490000  0.80250000  1.0 0.5697969047
C  C33  1  0.44070000  0.55050000  0.69960000  1.0 0.0586255876
C  C34  1  0.50820000  0.59750000  0.76310000  1.0 -0.1066595837
C  C35  1  0.54246000  0.54141000  0.86397000  1.0 -0.097147461
C  C36  1  0.57423000  0.50629000  0.86324000  1.0 0.5636959083
C  C37  1  0.54146000  0.50817000  0.85811000  1.0 -0.0407305662
C  C38  1  0.47947000  0.51218000  0.85051000  1.0 -0.1400545277
C  C39  1  0.51045000  0.54285000  0.85920000  1.0 -0.0710923863
C  C40  1  0.50883000  0.57463000  0.86164000  1.0 0.5491832924
C  C41  1  0.47929000  0.47940000  0.84561000  1.0 0.0586255876
C  C42  1  0.51233000  0.47914000  0.85399000  1.0 -0.1280884867
C  C43  1  0.40424000  0.52628000  0.66408000  1.0 0.069381688
C  C44  1  0.37250000  0.49290000  0.65780000  1.0 -0.0594045132
C  C45  1  0.40060000  0.49527000  0.63567000  1.0 0.1789682263
C  C46  1  0.37581000  0.53051000  0.65900000  1.0 -0.0710923863
C  C47  1  0.39760000  0.52950000  0.63490000  1.0 0.089401739
C  C48  1  0.45081000  0.45085000  0.84564000  1.0 0.018651283
C  C49  1  0.41370000  0.43286000  0.81980000  1.0 -0.0286045992
C  C50  1  0.43296000  0.41375000  0.81945000  1.0 0.0405704229
C  C51  1  0.45867000  0.43962000  0.87145000  1.0 -0.0286045992
C  C52  1  0.43978000  0.45911000  0.87173000  1.0 -0.0407305662
C  C53  1  0.33313000  0.54769000  0.66058000  1.0 0.305928302
C  C54  1  0.31685000  0.56888000  0.67435000  1.0 0.069381688
C  C55  1  0.32728000  0.58245000  0.71149000  1.0 -0.1187212648
C  C56  1  0.31399000  0.60320000  0.72707000  1.0 -0.0407305662
C  C57  1  0.29592000  0.58021000  0.65473000  1.0 -0.1400545277
C  C58  1  0.29389000  0.61464000  0.70727000  1.0 -0.0137260842
C  C59  1  0.28400000  0.60253000  0.67097000  1.0 -0.0594045132
C  C60  1  0.22007000  0.58256000  0.64149000  1.0 0.2615700247
C  C61  1  0.28850000  0.59885000  0.73117000  1.0 0.0405704229
C  C62  1  0.25913000  0.59806000  0.70615000  1.0 -0.2304901092
C  C63  1  0.25068000  0.58449000  0.66973000  1.0 -0.0137260842
C  C64  1  0.27161000  0.57173000  0.65834000  1.0 -0.0710923863
C  C65  1  0.30098000  0.57252000  0.68336000  1.0 0.0033744084
C  C66  1  0.30943000  0.58609000  0.71978000  1.0 -0.0594045132
C  C67  1  0.32330000  0.55907000  0.67129000  1.0 0.1987753132
C  C68  1  0.29759000  0.61343000  0.76992000  1.0 0.0586255876
C  C69  1  0.26096000  0.61293000  0.64925000  1.0 0.0822339581
C  C70  1  0.32079000  0.61300000  0.76457000  1.0 0.2341807169
C  C71  1  0.36457000  0.43605000  0.61216000  1.0 -0.1789925533
C  C72  1  0.40117000  0.46094000  0.62639000  1.0 -0.1187212648
C  C73  1  0.41293000  0.49979000  0.63778000  1.0 0.1789682263
C  C74  1  0.44148000  0.39841000  0.62257000  1.0 0.2805857536
C  C75  1  0.41557000  0.41243000  0.61906000  1.0 0.0586255876
C  C76  1  0.37897000  0.38755000  0.60484000  1.0 -0.1497997291
C  C77  1  0.35347000  0.39936000  0.60139000  1.0 -0.1400545277
C  C78  1  0.42667000  0.44912000  0.62983000  1.0 -0.2228164356
C  C79  1  0.31470000  0.37300000  0.58624000  1.0 0.5203534123
C  C80  1  0.79935000  0.74180000  0.88499000  1.0 -0.2997391801
C  C81  1  0.79923000  0.77049000  0.90988000  1.0 0.1211127901
C  C82  1  0.82050000  0.78476000  0.94736000  1.0 -0.0594045132
C  C83  1  0.84189000  0.77035000  0.95996000  1.0 0.0500818461
C  C84  1  0.84202000  0.74167000  0.93507000  1.0 -0.1187212648
C  C85  1  0.82074000  0.72739000  0.89757000  1.0 -0.0286045992
C  C86  1  0.86366000  0.78312000  0.99848000  1.0 0.2202187013
C  C87  1  0.77138000  0.78061000  0.89667000  1.0 0.2805857536
C  C88  1  0.82196000  0.69749000  0.87083000  1.0 0.2805857536
C  C89  1  0.86196000  0.81477000  0.27249000  1.0 0.5697969047
C  C90  1  0.81460000  0.86390000  0.27290000  1.0 0.5786961199
C  C91  1  0.94740000  0.06586000  0.33826000  1.0 0.5491832924
C  C92  1  0.71180000  0.83628000  0.26898000  1.0 -0.1400545277
C  C93  1  0.71470000  0.82873000  0.23755000  1.0 -0.0594045132
C  C94  1  0.74885000  0.83837000  0.24010000  1.0 -0.1066595837
C  C95  1  0.78007000  0.85556000  0.27409000  1.0 -0.0286045992
C  C96  1  0.77717000  0.86311000  0.30552000  1.0 -0.1497997291
C  C97  1  0.74304000  0.85348000  0.30298000  1.0 0.0500818461
C  C98  1  0.68491000  0.81170000  0.20221000  1.0 0.5491832924
C  C99  1  0.73997000  0.86195000  0.33664000  1.0 -0.003553914
C  C100  1  0.72679000  0.88373000  0.34722000  1.0 -0.0407305662
C  C101  1  0.75334000  0.84691000  0.35483000  1.0 0.0500818461
C  C102  1  0.75376000  0.90021000  0.36713000  1.0 0.0822339581
C  C103  1  0.72727000  0.83620000  0.34497000  1.0 0.018651283
C  C104  1  0.86233000  0.96718000  0.24513000  1.0 -0.1400545277
C  C105  1  0.86801000  0.99967000  0.24492000  1.0 0.089401739
C  C106  1  0.89818000  0.03295000  0.27445000  1.0 -0.1400545277
C  C107  1  0.92266000  0.03372000  0.30418000  1.0 -0.0773466312
C  C108  1  0.91698000  0.00121000  0.30439000  1.0 -0.097147461
C  C109  1  0.88682000  0.96795000  0.27487000  1.0 -0.0221237334
C  C110  1  0.88881000  0.93406000  0.26879000  1.0 0.5697969047
C  C111  1  0.83940000  0.99936000  0.21578000  1.0 0.0076524367
C  C112  1  0.82244000  0.01988000  0.22472000  1.0 -0.0710923863
C  C113  1  0.84813000  0.01930000  0.19855000  1.0 0.0500818461
C  C114  1  0.82807000  0.97977000  0.17912000  1.0 0.0586255876
C  C115  1  0.80221000  0.98010000  0.20477000  1.0 -0.0594045132
C  C116  1  0.82350000  0.71100000  0.23550000  1.0 0.018651283
C  C117  1  0.85337000  0.77826000  0.27099000  1.0 0.0033744084
C  C118  1  0.83290000  0.70940000  0.26730000  1.0 -0.2782574761
C  C119  1  0.86139000  0.77461000  0.30174000  1.0 -0.2304901092
C  C120  1  0.80240000  0.67810000  0.19750000  1.0 0.5697969047
C  C121  1  0.85090000  0.74110000  0.30040000  1.0 0.0586255876
C  C122  1  0.83440000  0.74510000  0.23690000  1.0 -0.1066595837
C  C123  1  0.67744000  0.67849000  0.13603000  1.0 -0.097147461
C  C124  1  0.64305000  0.71099000  0.13676000  1.0 0.5636959083
C  C125  1  0.65006000  0.68335000  0.14189000  1.0 -0.0407305662
C  C126  1  0.66167000  0.62896000  0.14949000  1.0 -0.1400545277
C  C127  1  0.68365000  0.65125000  0.14080000  1.0 -0.0710923863
C  C128  1  0.71299000  0.64719000  0.13836000  1.0 0.5491832924
C  C129  1  0.63379000  0.63368000  0.15439000  1.0 0.0586255876
C  C130  1  0.62515000  0.65834000  0.14601000  1.0 -0.1187212648
C  C131  1  0.86220000  0.74016000  0.33592000  1.0 0.069381688
C  C132  1  0.83510000  0.71470000  0.34220000  1.0 -0.0594045132
C  C133  1  0.85960000  0.76493000  0.36433000  1.0 0.1789682263
C  C134  1  0.87151000  0.71681000  0.34100000  1.0 -0.0710923863
C  C135  1  0.89460000  0.76270000  0.36510000  1.0 0.089401739
C  C136  1  0.60521000  0.60517000  0.15436000  1.0 0.018651283
C  C137  1  0.61306000  0.59390000  0.18020000  1.0 -0.0286045992
C  C138  1  0.59430000  0.61351000  0.18055000  1.0 0.0405704229
C  C139  1  0.56817000  0.58722000  0.12855000  1.0 -0.0286045992
C  C140  1  0.58738000  0.56805000  0.12827000  1.0 -0.0407305662
C  C141  1  0.88711000  0.67255000  0.33942000  1.0 0.305928302
C  C142  1  0.89453000  0.64250000  0.32565000  1.0 0.069381688
C  C143  1  0.87096000  0.61579000  0.28851000  1.0 -0.1187212648
C  C144  1  0.87613000  0.58692000  0.27293000  1.0 -0.0407305662
C  C145  1  0.92548000  0.64119000  0.34527000  1.0 -0.1400545277
C  C146  1  0.90737000  0.58662000  0.29273000  1.0 -0.0137260842
C  C147  1  0.93156000  0.61303000  0.32903000  1.0 -0.0594045132
C  C148  1  0.94107000  0.57858000  0.35851000  1.0 0.2615700247
C  C149  1  0.86768000  0.55733000  0.26883000  1.0 0.0405704229
C  C150  1  0.89191000  0.55298000  0.29385000  1.0 -0.2304901092
C  C151  1  0.91476000  0.58095000  0.33027000  1.0 -0.0137260842
C  C152  1  0.91339000  0.61327000  0.34166000  1.0 -0.0710923863
C  C153  1  0.88916000  0.61762000  0.31664000  1.0 0.0033744084
C  C154  1  0.86631000  0.58965000  0.28022000  1.0 -0.0504267388
C  C155  1  0.88778000  0.65201000  0.32871000  1.0 0.1987753132
C  C156  1  0.84351000  0.52767000  0.23008000  1.0 0.0586255876
C  C157  1  0.96368000  0.61171000  0.35075000  1.0 0.089401739
C  C158  1  0.84843000  0.55622000  0.23543000  1.0 0.2341807169
C  C159  1  0.82389000  0.75241000  0.38784000  1.0 -0.1789925533
C  C160  1  0.83455000  0.77478000  0.37361000  1.0 -0.1187212648
C  C161  1  0.86201000  0.77515000  0.36222000  1.0 0.1789682263
C  C162  1  0.77584000  0.81891000  0.37743000  1.0 0.2805857536
C  C163  1  0.79337000  0.79651000  0.38094000  1.0 0.0586255876
C  C164  1  0.78271000  0.77413000  0.39516000  1.0 -0.1497997291
C  C165  1  0.79797000  0.75208000  0.39861000  1.0 -0.1497997291
C  C166  1  0.81929000  0.79684000  0.37017000  1.0 -0.2228164356
C  C167  1  0.78676000  0.72846000  0.41376000  1.0 0.5203534123
C  C168  1  0.85681000  0.91436000  0.11501000  1.0 -0.2997391801
C  C169  1  0.86061000  0.88935000  0.09012000  1.0 0.1211127901
C  C170  1  0.83740000  0.87314000  0.05264000  1.0 -0.0504267388
C  C171  1  0.81039000  0.88193000  0.04004000  1.0 0.0500818461
C  C172  1  0.80660000  0.90695000  0.06493000  1.0 -0.1280884867
C  C173  1  0.82982000  0.92317000  0.10243000  1.0 -0.0286045992
C  C174  1  0.78464000  0.86518000  0.00152000  1.0 0.2202187013
C  C175  1  0.88394000  0.87471000  0.10333000  1.0 0.2805857536
C  C176  1  0.82666000  0.95113000  0.12917000  1.0 0.2805857536
C  C177  1  0.13804000  0.41053000  0.95281000  1.0 0.5697969047
C  C178  1  0.18540000  0.45830000  0.04930000  1.0 0.5786961199
C  C179  1  0.05260000  0.39086000  0.11846000  1.0 0.5491832924
C  C180  1  0.28820000  0.55718000  0.12448000  1.0 -0.1400545277
C  C181  1  0.28530000  0.52285000  0.11403000  1.0 -0.0594045132
C  C182  1  0.25115000  0.49125000  0.08952000  1.0 -0.1066595837
C  C183  1  0.21993000  0.49402000  0.07549000  1.0 -0.0286045992
C  C184  1  0.22283000  0.52835000  0.08594000  1.0 -0.1497997291
C  C185  1  0.25696000  0.55994000  0.11044000  1.0 0.0500818461
C  C186  1  0.31509000  0.51730000  0.12679000  1.0 0.5491832924
C  C187  1  0.26003000  0.59667000  0.12198000  1.0 -0.003553914
C  C188  1  0.27321000  0.62043000  0.15694000  1.0 -0.0407305662
C  C189  1  0.24666000  0.60149000  0.09357000  1.0 0.0500818461
C  C190  1  0.24624000  0.61337000  0.14645000  1.0 0.0822339581
C  C191  1  0.27273000  0.61770000  0.10893000  1.0 0.018651283
C  C192  1  0.13767000  0.38280000  0.10485000  1.0 -0.1400545277
C  C193  1  0.13199000  0.37691000  0.13166000  1.0 0.089401739
C  C194  1  0.10182000  0.37627000  0.13477000  1.0 -0.1400545277
C  C195  1  0.07734000  0.38152000  0.11106000  1.0 -0.0773466312
C  C196  1  0.08302000  0.38741000  0.08423000  1.0 -0.097147461
C  C197  1  0.11318000  0.38805000  0.08113000  1.0 -0.0221237334
C  C198  1  0.11119000  0.37998000  0.04525000  1.0 0.5697969047
C  C199  1  0.16060000  0.37638000  0.15996000  1.0 0.0076524367
C  C200  1  0.17756000  0.40228000  0.19744000  1.0 -0.0710923863
C  C201  1  0.15187000  0.35042000  0.17117000  1.0 0.0500818461
C  C202  1  0.17193000  0.35105000  0.15170000  1.0 0.0586255876
C  C203  1  0.19779000  0.40256000  0.17789000  1.0 -0.0594045132
C  C204  1  0.17650000  0.41200000  0.88750000  1.0 0.018651283
C  C205  1  0.14663000  0.41762000  0.92489000  1.0 0.0033744084
C  C206  1  0.16710000  0.43440000  0.87650000  1.0 -0.2782574761
C  C207  1  0.13861000  0.44035000  0.91322000  1.0 -0.2304901092
C  C208  1  0.19760000  0.39510000  0.87570000  1.0 0.5697969047
C  C209  1  0.14910000  0.44950000  0.89020000  1.0 0.0586255876
C  C210  1  0.16560000  0.40250000  0.91070000  1.0 -0.1066595837
C  C211  1  0.32256000  0.45859000  0.00105000  1.0 -0.097147461
C  C212  1  0.35695000  0.49371000  0.06794000  1.0 0.5636959083
C  C213  1  0.34994000  0.49183000  0.03329000  1.0 -0.0407305662
C  C214  1  0.33833000  0.48782000  0.96729000  1.0 -0.1400545277
C  C215  1  0.31635000  0.45715000  0.96760000  1.0 -0.0710923863
C  C216  1  0.28701000  0.42537000  0.93420000  1.0 0.5491832924
C  C217  1  0.36621000  0.52060000  0.99989000  1.0 0.0586255876
C  C218  1  0.37485000  0.52086000  0.03319000  1.0 -0.1187212648
C  C219  1  0.13780000  0.47372000  0.87796000  1.0 0.069381688
C  C220  1  0.16490000  0.50710000  0.87960000  1.0 -0.0594045132
C  C221  1  0.14040000  0.50473000  0.90533000  1.0 0.1789682263
C  C222  1  0.12849000  0.46949000  0.84530000  1.0 -0.0710923863
C  C223  1  0.10540000  0.47050000  0.86810000  1.0 0.089401739
C  C224  1  0.39479000  0.54915000  0.99996000  1.0 0.018651283
C  C225  1  0.38694000  0.56714000  0.98084000  1.0 -0.0286045992
C  C226  1  0.40570000  0.58625000  0.01921000  1.0 0.0405704229
C  C227  1  0.43183000  0.56038000  0.01905000  1.0 -0.0286045992
C  C228  1  0.41262000  0.54089000  0.98067000  1.0 -0.0407305662
C  C229  1  0.11289000  0.45231000  0.78544000  1.0 0.305928302
C  C230  1  0.10547000  0.43112000  0.74797000  1.0 0.069381688
C  C231  1  0.12904000  0.41755000  0.74483000  1.0 -0.1187212648
C  C232  1  0.12387000  0.39680000  0.71079000  1.0 -0.0407305662
C  C233  1  0.07452000  0.41979000  0.71571000  1.0 -0.1400545277
C  C234  1  0.09263000  0.38536000  0.67925000  1.0 -0.0137260842
C  C235  1  0.06844000  0.39747000  0.68147000  1.0 -0.0594045132
C  C236  1  0.05893000  0.41744000  0.63751000  1.0 0.2615700247
C  C237  1  0.13232000  0.40115000  0.68965000  1.0 0.0405704229
C  C238  1  0.10809000  0.40194000  0.66107000  1.0 -0.2304901092
C  C239  1  0.08524000  0.41551000  0.66619000  1.0 -0.0137260842
C  C240  1  0.08661000  0.42827000  0.69988000  1.0 -0.0710923863
C  C241  1  0.11084000  0.42748000  0.72846000  1.0 0.0033744084
C  C242  1  0.13369000  0.41391000  0.72334000  1.0 -0.0594045132
C  C243  1  0.11222000  0.44093000  0.76423000  1.0 0.1987753132
C  C244  1  0.15649000  0.38657000  0.68416000  1.0 0.0586255876
C  C245  1  0.03632000  0.38707000  0.64803000  1.0 0.0822339581
C  C246  1  0.15157000  0.38700000  0.70779000  1.0 0.2341807169
C  C247  1  0.17611000  0.56395000  0.92852000  1.0 -0.1789925533
C  C248  1  0.16545000  0.53906000  0.94023000  1.0 -0.1187212648
C  C249  1  0.13799000  0.50021000  0.91314000  1.0 0.1789682263
C  C250  1  0.22416000  0.60159000  0.04307000  1.0 0.2805857536
C  C251  1  0.20663000  0.58757000  0.00314000  1.0 0.0586255876
C  C252  1  0.21729000  0.61245000  0.99142000  1.0 -0.1497997291
C  C253  1  0.20203000  0.60064000  0.95411000  1.0 -0.1400545277
C  C254  1  0.18071000  0.55088000  0.97755000  1.0 -0.2228164356
C  C255  1  0.21324000  0.62700000  0.94170000  1.0 0.5203534123
C  C256  1  0.14319000  0.25820000  0.05755000  1.0 -0.2997391801
C  C257  1  0.13939000  0.22951000  0.02874000  1.0 0.1211127901
C  C258  1  0.16260000  0.21524000  0.03574000  1.0 -0.0594045132
C  C259  1  0.18961000  0.22965000  0.07154000  1.0 0.0500818461
C  C260  1  0.19340000  0.25833000  0.10035000  1.0 -0.1280884867
C  C261  1  0.17018000  0.27261000  0.09335000  1.0 -0.0286045992
C  C262  1  0.21536000  0.21688000  0.08054000  1.0 0.2202187013
C  C263  1  0.11606000  0.21939000  0.99077000  1.0 0.2805857536
C  C264  1  0.17334000  0.30251000  0.12447000  1.0 0.2805857536
C  C265  1  0.45772000  0.18523000  0.04719000  1.0 0.5697969047
C  C266  1  0.40900000  0.13610000  0.95070000  1.0 0.5786961199
C  C267  1  0.27240000  0.93414000  0.88154000  1.0 0.5491832924
C  C268  1  0.43270000  0.16372000  0.87552000  1.0 -0.1400545277
C  C269  1  0.40882000  0.17127000  0.88597000  1.0 -0.0594045132
C  C270  1  0.40173000  0.16163000  0.91048000  1.0 -0.1066595837
C  C271  1  0.41853000  0.14444000  0.92451000  1.0 -0.0286045992
C  C272  1  0.44241000  0.13689000  0.91406000  1.0 -0.1497997291
C  C273  1  0.44950000  0.14652000  0.88956000  1.0 0.0500818461
C  C274  1  0.39051000  0.18830000  0.87321000  1.0 0.5491832924
C  C275  1  0.47469000  0.13805000  0.87802000  1.0 -0.003553914
C  C276  1  0.46349000  0.11627000  0.84306000  1.0 -0.0407305662
C  C277  1  0.50792000  0.15309000  0.90643000  1.0 0.0500818461
C  C278  1  0.46692000  0.09979000  0.85355000  1.0 0.0822339581
C  C279  1  0.50877000  0.16380000  0.89107000  1.0 0.018651283
C  C280  1  0.27795000  0.03282000  0.89515000  1.0 -0.1400545277
C  C281  1  0.24525000  0.00033000  0.86834000  1.0 0.089401739
C  C282  1  0.24150000  0.96705000  0.86523000  1.0 -0.1400545277
C  C283  1  0.27046000  0.96628000  0.88894000  1.0 -0.0773466312
C  C284  1  0.30318000  0.99879000  0.91577000  1.0 -0.097147461
C  C285  1  0.30692000  0.03205000  0.91887000  1.0 -0.0221237334
C  C286  1  0.33473000  0.06594000  0.95475000  1.0 0.5697969047
C  C287  1  0.21642000  0.00064000  0.84004000  1.0 0.0076524367
C  C288  1  0.20484000  0.98012000  0.80256000  1.0 -0.0710923863
C  C289  1  0.17925000  0.98070000  0.82883000  1.0 0.0500818461
C  C290  1  0.19935000  0.02023000  0.84830000  1.0 0.0586255876
C  C291  1  0.22467000  0.01990000  0.82211000  1.0 -0.0594045132
C  C292  1  0.52450000  0.28900000  0.11250000  1.0 0.018651283
C  C293  1  0.49273000  0.22174000  0.07511000  1.0 0.0033744084
C  C294  1  0.55790000  0.29060000  0.12350000  1.0 -0.2782574761
C  C295  1  0.52713000  0.22539000  0.08678000  1.0 -0.2304901092
C  C296  1  0.51940000  0.32190000  0.12430000  1.0 0.5697969047
C  C297  1  0.55930000  0.25890000  0.10980000  1.0 0.0586255876
C  C298  1  0.49180000  0.25490000  0.08930000  1.0 -0.1066595837
C  C299  1  0.45754000  0.32151000  0.99895000  1.0 -0.097147461
C  C300  1  0.42577000  0.28901000  0.93206000  1.0 0.5636959083
C  C301  1  0.45854000  0.31665000  0.96671000  1.0 -0.0407305662
C  C302  1  0.52053000  0.37104000  0.03271000  1.0 -0.1400545277
C  C303  1  0.48955000  0.34875000  0.03240000  1.0 -0.0710923863
C  C304  1  0.49117000  0.35281000  0.06580000  1.0 0.5491832924
C  C305  1  0.52071000  0.36632000  0.00011000  1.0 0.0586255876
C  C306  1  0.48767000  0.34166000  0.96681000  1.0 -0.1187212648
C  C307  1  0.59576000  0.25984000  0.12204000  1.0 0.069381688
C  C308  1  0.62750000  0.28530000  0.12040000  1.0 -0.0594045132
C  C309  1  0.59940000  0.23507000  0.09467000  1.0 0.1789682263
C  C310  1  0.62419000  0.28319000  0.15470000  1.0 -0.0710923863
C  C311  1  0.60240000  0.23730000  0.13190000  1.0 0.089401739
C  C312  1  0.54919000  0.39483000  0.00004000  1.0 0.018651283
C  C313  1  0.58630000  0.40610000  0.01916000  1.0 -0.0286045992
C  C314  1  0.56704000  0.38649000  0.98079000  1.0 0.0405704229
C  C315  1  0.54133000  0.41278000  0.98095000  1.0 -0.0286045992
C  C316  1  0.56022000  0.43195000  0.01933000  1.0 -0.0407305662
C  C317  1  0.66687000  0.32745000  0.21456000  1.0 0.2987540215
C  C318  1  0.68315000  0.35750000  0.25203000  1.0 0.069381688
C  C319  1  0.67272000  0.38421000  0.25517000  1.0 -0.1187212648
C  C320  1  0.68601000  0.41308000  0.28921000  1.0 -0.0407305662
C  C321  1  0.70408000  0.35881000  0.28429000  1.0 -0.1400545277
C  C322  1  0.70611000  0.41338000  0.32075000  1.0 -0.0137260842
C  C323  1  0.71600000  0.38697000  0.31853000  1.0 -0.0594045132
C  C324  1  0.77993000  0.42142000  0.36249000  1.0 0.2615700247
C  C325  1  0.71150000  0.44267000  0.31035000  1.0 0.0405704229
C  C326  1  0.74087000  0.44702000  0.33893000  1.0 -0.2304901092
C  C327  1  0.74932000  0.41905000  0.33381000  1.0 -0.0137260842
C  C328  1  0.72839000  0.38673000  0.30012000  1.0 -0.0710923863
C  C329  1  0.69902000  0.38238000  0.27154000  1.0 0.0076524367
C  C330  1  0.69057000  0.41035000  0.27666000  1.0 -0.0594045132
C  C331  1  0.67670000  0.34799000  0.23577000  1.0 0.1987753132
C  C332  1  0.70241000  0.47233000  0.31584000  1.0 0.0586255876
C  C333  1  0.73904000  0.38829000  0.35197000  1.0 0.0822339581
C  C334  1  0.67921000  0.44378000  0.29221000  1.0 0.2341807169
C  C335  1  0.63543000  0.24759000  0.07148000  1.0 -0.1789925533
C  C336  1  0.59883000  0.22522000  0.05977000  1.0 -0.1187212648
C  C337  1  0.58707000  0.22485000  0.08686000  1.0 0.1789682263
C  C338  1  0.55852000  0.18109000  0.95693000  1.0 0.2805857536
C  C339  1  0.58443000  0.20349000  0.99686000  1.0 0.0586255876
C  C340  1  0.62103000  0.22587000  0.00858000  1.0 -0.1497997291
C  C341  1  0.64653000  0.24792000  0.04589000  1.0 -0.1497997291
C  C342  1  0.57333000  0.20316000  0.02245000  1.0 -0.2228164356
C  C343  1  0.68530000  0.27154000  0.05830000  1.0 0.5203534123
C  C344  1  0.20065000  0.08564000  0.94245000  1.0 -0.2997391801
C  C345  1  0.20077000  0.11065000  0.97126000  1.0 0.1211127901
C  C346  1  0.17950000  0.12686000  0.96426000  1.0 -0.0594045132
C  C347  1  0.15811000  0.11807000  0.92846000  1.0 0.0500818461
C  C348  1  0.15798000  0.09305000  0.89965000  1.0 -0.1280884867
C  C349  1  0.17926000  0.07683000  0.90665000  1.0 -0.0286045992
C  C350  1  0.13634000  0.13482000  0.91946000  1.0 0.2202187013
C  C351  1  0.22862000  0.12529000  0.00923000  1.0 0.2805857536
C  C352  1  0.17804000  0.04887000  0.87553000  1.0 0.2805857536
C  C353  1  0.72751000  0.54228000  0.58947000  1.0 0.5697969047
C  C354  1  0.72710000  0.59100000  0.54170000  1.0 0.5786961199
C  C355  1  0.66174000  0.72760000  0.60914000  1.0 0.5491832924
C  C356  1  0.73102000  0.56730000  0.44282000  1.0 -0.1400545277
C  C357  1  0.76245000  0.59118000  0.47715000  1.0 -0.0594045132
C  C358  1  0.75990000  0.59827000  0.50875000  1.0 -0.1066595837
C  C359  1  0.72591000  0.58147000  0.50598000  1.0 -0.0286045992
C  C360  1  0.69448000  0.55759000  0.47165000  1.0 -0.1497997291
C  C361  1  0.69702000  0.55050000  0.44006000  1.0 0.0500818461
C  C362  1  0.79779000  0.60949000  0.48270000  1.0 0.5491832924
C  C363  1  0.66336000  0.52531000  0.40333000  1.0 -0.003553914
C  C364  1  0.65278000  0.53651000  0.37957000  1.0 -0.0407305662
C  C365  1  0.64517000  0.49208000  0.39851000  1.0 0.0500818461
C  C366  1  0.63287000  0.53308000  0.38663000  1.0 0.0822339581
C  C367  1  0.65503000  0.49123000  0.38230000  1.0 0.018651283
C  C368  1  0.75487000  0.72205000  0.61720000  1.0 -0.1400545277
C  C369  1  0.75508000  0.75475000  0.62309000  1.0 0.089401739
C  C370  1  0.72555000  0.75850000  0.62373000  1.0 -0.1400545277
C  C371  1  0.69582000  0.72954000  0.61848000  1.0 -0.0773466312
C  C372  1  0.69561000  0.69682000  0.61259000  1.0 -0.097147461
C  C373  1  0.72513000  0.69308000  0.61195000  1.0 -0.0221237334
C  C374  1  0.73121000  0.66527000  0.62002000  1.0 0.5697969047
C  C375  1  0.78422000  0.78358000  0.62362000  1.0 0.0076524367
C  C376  1  0.77528000  0.79516000  0.59772000  1.0 -0.0710923863
C  C377  1  0.80145000  0.82075000  0.64958000  1.0 0.0500818461
C  C378  1  0.82088000  0.80065000  0.64895000  1.0 0.0586255876
C  C379  1  0.79523000  0.77533000  0.59744000  1.0 -0.0594045132
C  C380  1  0.76450000  0.47550000  0.58800000  1.0 0.018651283
C  C381  1  0.72901000  0.50727000  0.58238000  1.0 0.0033744084
C  C382  1  0.73270000  0.44210000  0.56560000  1.0 -0.2782574761
C  C383  1  0.69826000  0.47287000  0.55965000  1.0 -0.2304901092
C  C384  1  0.80250000  0.48060000  0.60490000  1.0 0.5697969047
C  C385  1  0.69960000  0.44070000  0.55050000  1.0 0.0586255876
C  C386  1  0.76310000  0.50820000  0.59750000  1.0 -0.1066595837
C  C387  1  0.86397000  0.54246000  0.54141000  1.0 -0.097147461
C  C388  1  0.86324000  0.57423000  0.50629000  1.0 0.5636959083
C  C389  1  0.85811000  0.54146000  0.50817000  1.0 -0.0407305662
C  C390  1  0.85051000  0.47947000  0.51218000  1.0 -0.1400545277
C  C391  1  0.85920000  0.51045000  0.54285000  1.0 -0.0710923863
C  C392  1  0.86164000  0.50883000  0.57463000  1.0 0.5491832924
C  C393  1  0.84561000  0.47929000  0.47940000  1.0 0.0586255876
C  C394  1  0.85399000  0.51233000  0.47914000  1.0 -0.1187212648
C  C395  1  0.66408000  0.40424000  0.52628000  1.0 0.069381688
C  C396  1  0.65780000  0.37250000  0.49290000  1.0 -0.0594045132
C  C397  1  0.63567000  0.40060000  0.49527000  1.0 0.1789682263
C  C398  1  0.65900000  0.37581000  0.53051000  1.0 -0.0710923863
C  C399  1  0.63490000  0.39760000  0.52950000  1.0 0.089401739
C  C400  1  0.84564000  0.45081000  0.45085000  1.0 0.018651283
C  C401  1  0.81980000  0.41370000  0.43286000  1.0 -0.0286045992
C  C402  1  0.81945000  0.43296000  0.41375000  1.0 0.0405704229
C  C403  1  0.87145000  0.45867000  0.43962000  1.0 -0.0286045992
C  C404  1  0.87173000  0.43978000  0.45911000  1.0 -0.0407305662
C  C405  1  0.66058000  0.33313000  0.54769000  1.0 0.305928302
C  C406  1  0.67435000  0.31685000  0.56888000  1.0 0.069381688
C  C407  1  0.71149000  0.32728000  0.58245000  1.0 -0.1187212648
C  C408  1  0.72707000  0.31399000  0.60320000  1.0 -0.0407305662
C  C409  1  0.65473000  0.29592000  0.58021000  1.0 -0.1400545277
C  C410  1  0.70727000  0.29389000  0.61464000  1.0 -0.0137260842
C  C411  1  0.67097000  0.28400000  0.60253000  1.0 -0.0594045132
C  C412  1  0.64149000  0.22007000  0.58256000  1.0 0.2615700247
C  C413  1  0.73117000  0.28850000  0.59885000  1.0 0.0405704229
C  C414  1  0.70615000  0.25913000  0.59806000  1.0 -0.2304901092
C  C415  1  0.66973000  0.25068000  0.58449000  1.0 -0.0137260842
C  C416  1  0.65834000  0.27161000  0.57173000  1.0 -0.0710923863
C  C417  1  0.68336000  0.30098000  0.57252000  1.0 0.0076524367
C  C418  1  0.71978000  0.30943000  0.58609000  1.0 -0.0594045132
C  C419  1  0.67129000  0.32330000  0.55907000  1.0 0.1987753132
C  C420  1  0.76992000  0.29759000  0.61343000  1.0 0.0586255876
C  C421  1  0.64925000  0.26096000  0.61293000  1.0 0.089401739
C  C422  1  0.76457000  0.32079000  0.61300000  1.0 0.2341807169
C  C423  1  0.61216000  0.36457000  0.43605000  1.0 -0.1789925533
C  C424  1  0.62639000  0.40117000  0.46094000  1.0 -0.1187212648
C  C425  1  0.63778000  0.41293000  0.49979000  1.0 0.1789682263
C  C426  1  0.62257000  0.44148000  0.39841000  1.0 0.2805857536
C  C427  1  0.61906000  0.41557000  0.41243000  1.0 0.0586255876
C  C428  1  0.60484000  0.37897000  0.38755000  1.0 -0.1497997291
C  C429  1  0.60139000  0.35347000  0.39936000  1.0 -0.1400545277
C  C430  1  0.62983000  0.42667000  0.44912000  1.0 -0.2228164356
C  C431  1  0.58624000  0.31470000  0.37300000  1.0 0.5203534123
C  C432  1  0.88499000  0.79935000  0.74180000  1.0 -0.2997391801
C  C433  1  0.90988000  0.79923000  0.77049000  1.0 0.1211127901
C  C434  1  0.94736000  0.82050000  0.78476000  1.0 -0.0504267388
C  C435  1  0.95996000  0.84189000  0.77035000  1.0 0.0500818461
C  C436  1  0.93507000  0.84202000  0.74167000  1.0 -0.1280884867
C  C437  1  0.89757000  0.82074000  0.72739000  1.0 -0.0286045992
C  C438  1  0.99848000  0.86366000  0.78312000  1.0 0.2202187013
C  C439  1  0.89667000  0.77138000  0.78061000  1.0 0.2805857536
C  C440  1  0.87083000  0.82196000  0.69749000  1.0 0.2805857536
C  C441  1  0.27249000  0.86196000  0.81477000  1.0 0.5697969047
C  C442  1  0.27290000  0.81460000  0.86390000  1.0 0.5786961199
C  C443  1  0.33826000  0.94740000  0.06586000  1.0 0.5491832924
C  C444  1  0.26898000  0.71180000  0.83628000  1.0 -0.1400545277
C  C445  1  0.23755000  0.71470000  0.82873000  1.0 -0.0594045132
C  C446  1  0.24010000  0.74885000  0.83837000  1.0 -0.1066595837
C  C447  1  0.27409000  0.78007000  0.85556000  1.0 -0.0286045992
C  C448  1  0.30552000  0.77717000  0.86311000  1.0 -0.1497997291
C  C449  1  0.30298000  0.74304000  0.85348000  1.0 0.0500818461
C  C450  1  0.20221000  0.68491000  0.81170000  1.0 0.5491832924
C  C451  1  0.33664000  0.73997000  0.86195000  1.0 -0.003553914
C  C452  1  0.34722000  0.72679000  0.88373000  1.0 -0.0407305662
C  C453  1  0.35483000  0.75334000  0.84691000  1.0 0.0500818461
C  C454  1  0.36713000  0.75376000  0.90021000  1.0 0.0822339581
C  C455  1  0.34497000  0.72727000  0.83620000  1.0 0.018651283
C  C456  1  0.24513000  0.86233000  0.96718000  1.0 -0.1400545277
C  C457  1  0.24492000  0.86801000  0.99967000  1.0 0.089401739
C  C458  1  0.27445000  0.89818000  0.03295000  1.0 -0.1400545277
C  C459  1  0.30418000  0.92266000  0.03372000  1.0 -0.0773466312
C  C460  1  0.30439000  0.91698000  0.00121000  1.0 -0.097147461
C  C461  1  0.27487000  0.88682000  0.96795000  1.0 -0.0221237334
C  C462  1  0.26879000  0.88881000  0.93406000  1.0 0.5697969047
C  C463  1  0.21578000  0.83940000  0.99936000  1.0 0.0076524367
C  C464  1  0.22472000  0.82244000  0.01988000  1.0 -0.0710923863
C  C465  1  0.19855000  0.84813000  0.01930000  1.0 0.0500818461
C  C466  1  0.17912000  0.82807000  0.97977000  1.0 0.0586255876
C  C467  1  0.20477000  0.80221000  0.98010000  1.0 -0.0594045132
C  C468  1  0.23550000  0.82350000  0.71100000  1.0 0.018651283
C  C469  1  0.27099000  0.85337000  0.77826000  1.0 0.0033744084
C  C470  1  0.26730000  0.83290000  0.70940000  1.0 -0.2782574761
C  C471  1  0.30174000  0.86139000  0.77461000  1.0 -0.2304901092
C  C472  1  0.19750000  0.80240000  0.67810000  1.0 0.5697969047
C  C473  1  0.30040000  0.85090000  0.74110000  1.0 0.0586255876
C  C474  1  0.23690000  0.83440000  0.74510000  1.0 -0.1066595837
C  C475  1  0.13603000  0.67744000  0.67849000  1.0 -0.097147461
C  C476  1  0.13676000  0.64305000  0.71099000  1.0 0.5636959083
C  C477  1  0.14189000  0.65006000  0.68335000  1.0 -0.0407305662
C  C478  1  0.14949000  0.66167000  0.62896000  1.0 -0.1400545277
C  C479  1  0.14080000  0.68365000  0.65125000  1.0 -0.0710923863
C  C480  1  0.13836000  0.71299000  0.64719000  1.0 0.5491832924
C  C481  1  0.15439000  0.63379000  0.63368000  1.0 0.0586255876
C  C482  1  0.14601000  0.62515000  0.65834000  1.0 -0.1280884867
C  C483  1  0.33592000  0.86220000  0.74016000  1.0 0.069381688
C  C484  1  0.34220000  0.83510000  0.71470000  1.0 -0.0594045132
C  C485  1  0.36433000  0.85960000  0.76493000  1.0 0.1789682263
C  C486  1  0.34100000  0.87151000  0.71681000  1.0 -0.0710923863
C  C487  1  0.36510000  0.89460000  0.76270000  1.0 0.089401739
C  C488  1  0.15436000  0.60521000  0.60517000  1.0 0.018651283
C  C489  1  0.18020000  0.61306000  0.59390000  1.0 -0.0286045992
C  C490  1  0.18055000  0.59430000  0.61351000  1.0 0.0405704229
C  C491  1  0.12855000  0.56817000  0.58722000  1.0 -0.0286045992
C  C492  1  0.12827000  0.58738000  0.56805000  1.0 -0.0407305662
C  C493  1  0.33942000  0.88711000  0.67255000  1.0 0.305928302
C  C494  1  0.32565000  0.89453000  0.64250000  1.0 0.069381688
C  C495  1  0.28851000  0.87096000  0.61579000  1.0 -0.1187212648
C  C496  1  0.27293000  0.87613000  0.58692000  1.0 -0.0407305662
C  C497  1  0.34527000  0.92548000  0.64119000  1.0 -0.1400545277
C  C498  1  0.29273000  0.90737000  0.58662000  1.0 -0.0221237334
C  C499  1  0.32903000  0.93156000  0.61303000  1.0 -0.0594045132
C  C500  1  0.35851000  0.94107000  0.57858000  1.0 0.2615700247
C  C501  1  0.26883000  0.86768000  0.55733000  1.0 0.0405704229
C  C502  1  0.29385000  0.89191000  0.55298000  1.0 -0.2304901092
C  C503  1  0.33027000  0.91476000  0.58095000  1.0 -0.0137260842
C  C504  1  0.34166000  0.91339000  0.61327000  1.0 -0.0710923863
C  C505  1  0.31664000  0.88916000  0.61762000  1.0 0.0033744084
C  C506  1  0.28022000  0.86631000  0.58965000  1.0 -0.0594045132
C  C507  1  0.32871000  0.88778000  0.65201000  1.0 0.1987753132
C  C508  1  0.23008000  0.84351000  0.52767000  1.0 0.0586255876
C  C509  1  0.35075000  0.96368000  0.61171000  1.0 0.089401739
C  C510  1  0.23543000  0.84843000  0.55622000  1.0 0.2341807169
C  C511  1  0.38784000  0.82389000  0.75241000  1.0 -0.1789925533
C  C512  1  0.37361000  0.83455000  0.77478000  1.0 -0.1187212648
C  C513  1  0.36222000  0.86201000  0.77515000  1.0 0.1789682263
C  C514  1  0.37743000  0.77584000  0.81891000  1.0 0.2805857536
C  C515  1  0.38094000  0.79337000  0.79651000  1.0 0.0586255876
C  C516  1  0.39516000  0.78271000  0.77413000  1.0 -0.1497997291
C  C517  1  0.39861000  0.79797000  0.75208000  1.0 -0.1497997291
C  C518  1  0.37017000  0.81929000  0.79684000  1.0 -0.2228164356
C  C519  1  0.41376000  0.78676000  0.72846000  1.0 0.5203534123
C  C520  1  0.11501000  0.85681000  0.91436000  1.0 -0.2997391801
C  C521  1  0.09012000  0.86061000  0.88935000  1.0 0.1211127901
C  C522  1  0.05264000  0.83740000  0.87314000  1.0 -0.0504267388
C  C523  1  0.04004000  0.81039000  0.88193000  1.0 0.0500818461
C  C524  1  0.06493000  0.80660000  0.90695000  1.0 -0.1280884867
C  C525  1  0.10243000  0.82982000  0.92317000  1.0 -0.0286045992
C  C526  1  0.00152000  0.78464000  0.86518000  1.0 0.2202187013
C  C527  1  0.10333000  0.88394000  0.87471000  1.0 0.2805857536
C  C528  1  0.12917000  0.82666000  0.95113000  1.0 0.2805857536
C  C529  1  0.95281000  0.13804000  0.41053000  1.0 0.5697969047
C  C530  1  0.04930000  0.18540000  0.45830000  1.0 0.5786961199
C  C531  1  0.11846000  0.05260000  0.39086000  1.0 0.5491832924
C  C532  1  0.12448000  0.28820000  0.55718000  1.0 -0.1400545277
C  C533  1  0.11403000  0.28530000  0.52285000  1.0 -0.0594045132
C  C534  1  0.08952000  0.25115000  0.49125000  1.0 -0.1066595837
C  C535  1  0.07549000  0.21993000  0.49402000  1.0 -0.0286045992
C  C536  1  0.08594000  0.22283000  0.52835000  1.0 -0.1497997291
C  C537  1  0.11044000  0.25696000  0.55994000  1.0 0.0500818461
C  C538  1  0.12679000  0.31509000  0.51730000  1.0 0.5491832924
C  C539  1  0.12198000  0.26003000  0.59667000  1.0 -0.003553914
C  C540  1  0.15694000  0.27321000  0.62043000  1.0 -0.0407305662
C  C541  1  0.09357000  0.24666000  0.60149000  1.0 0.0500818461
C  C542  1  0.14645000  0.24624000  0.61337000  1.0 0.0822339581
C  C543  1  0.10893000  0.27273000  0.61770000  1.0 0.018651283
C  C544  1  0.10485000  0.13767000  0.38280000  1.0 -0.1400545277
C  C545  1  0.13166000  0.13199000  0.37691000  1.0 0.089401739
C  C546  1  0.13477000  0.10182000  0.37627000  1.0 -0.1400545277
C  C547  1  0.11106000  0.07734000  0.38152000  1.0 -0.0773466312
C  C548  1  0.08423000  0.08302000  0.38741000  1.0 -0.097147461
C  C549  1  0.08113000  0.11318000  0.38805000  1.0 -0.0221237334
C  C550  1  0.04525000  0.11119000  0.37998000  1.0 0.5697969047
C  C551  1  0.15996000  0.16060000  0.37638000  1.0 0.0076524367
C  C552  1  0.19744000  0.17756000  0.40228000  1.0 -0.0710923863
C  C553  1  0.17117000  0.15187000  0.35042000  1.0 0.0500818461
C  C554  1  0.15170000  0.17193000  0.35105000  1.0 0.0586255876
C  C555  1  0.17789000  0.19779000  0.40256000  1.0 -0.0594045132
C  C556  1  0.88750000  0.17650000  0.41200000  1.0 0.018651283
C  C557  1  0.92489000  0.14663000  0.41762000  1.0 0.0033744084
C  C558  1  0.87650000  0.16710000  0.43440000  1.0 -0.2782574761
C  C559  1  0.91322000  0.13861000  0.44035000  1.0 -0.2304901092
C  C560  1  0.87570000  0.19760000  0.39510000  1.0 0.5697969047
C  C561  1  0.89020000  0.14910000  0.44950000  1.0 0.0586255876
C  C562  1  0.91070000  0.16560000  0.40250000  1.0 -0.1066595837
C  C563  1  0.00105000  0.32256000  0.45859000  1.0 -0.097147461
C  C564  1  0.06794000  0.35695000  0.49371000  1.0 0.5636959083
C  C565  1  0.03329000  0.34994000  0.49183000  1.0 -0.0407305662
C  C566  1  0.96729000  0.33833000  0.48782000  1.0 -0.1400545277
C  C567  1  0.96760000  0.31635000  0.45715000  1.0 -0.0710923863
C  C568  1  0.93420000  0.28701000  0.42537000  1.0 0.5491832924
C  C569  1  0.99989000  0.36621000  0.52060000  1.0 0.0586255876
C  C570  1  0.03319000  0.37485000  0.52086000  1.0 -0.1280884867
C  C571  1  0.87796000  0.13780000  0.47372000  1.0 0.069381688
C  C572  1  0.87960000  0.16490000  0.50710000  1.0 -0.0594045132
C  C573  1  0.90533000  0.14040000  0.50473000  1.0 0.1708097757
C  C574  1  0.84530000  0.12849000  0.46949000  1.0 -0.0710923863
C  C575  1  0.86810000  0.10540000  0.47050000  1.0 0.089401739
C  C576  1  0.99996000  0.39479000  0.54915000  1.0 0.018651283
C  C577  1  0.98084000  0.38694000  0.56714000  1.0 -0.0286045992
C  C578  1  0.01921000  0.40570000  0.58625000  1.0 0.0405704229
C  C579  1  0.01905000  0.43183000  0.56038000  1.0 -0.0286045992
C  C580  1  0.98067000  0.41262000  0.54089000  1.0 -0.0407305662
C  C581  1  0.78544000  0.11289000  0.45231000  1.0 0.305928302
C  C582  1  0.74797000  0.10547000  0.43112000  1.0 0.069381688
C  C583  1  0.74483000  0.12904000  0.41755000  1.0 -0.1187212648
C  C584  1  0.71079000  0.12387000  0.39680000  1.0 -0.0407305662
C  C585  1  0.71571000  0.07452000  0.41979000  1.0 -0.1400545277
C  C586  1  0.67925000  0.09263000  0.38536000  1.0 -0.0137260842
C  C587  1  0.68147000  0.06844000  0.39747000  1.0 -0.0594045132
C  C588  1  0.63751000  0.05893000  0.41744000  1.0 0.2615700247
C  C589  1  0.68965000  0.13232000  0.40115000  1.0 0.0405704229
C  C590  1  0.66107000  0.10809000  0.40194000  1.0 -0.2304901092
C  C591  1  0.66619000  0.08524000  0.41551000  1.0 -0.0137260842
C  C592  1  0.69988000  0.08661000  0.42827000  1.0 -0.0710923863
C  C593  1  0.72846000  0.11084000  0.42748000  1.0 0.0076524367
C  C594  1  0.72334000  0.13369000  0.41391000  1.0 -0.0594045132
C  C595  1  0.76423000  0.11222000  0.44093000  1.0 0.1987753132
C  C596  1  0.68416000  0.15649000  0.38657000  1.0 0.0586255876
C  C597  1  0.64803000  0.03632000  0.38707000  1.0 0.0822339581
C  C598  1  0.70779000  0.15157000  0.38700000  1.0 0.2341807169
C  C599  1  0.92852000  0.17611000  0.56395000  1.0 -0.1789925533
C  C600  1  0.94023000  0.16545000  0.53906000  1.0 -0.1187212648
C  C601  1  0.91314000  0.13799000  0.50021000  1.0 0.1789682263
C  C602  1  0.04307000  0.22416000  0.60159000  1.0 0.2805857536
C  C603  1  0.00314000  0.20663000  0.58757000  1.0 0.0586255876
C  C604  1  0.99142000  0.21729000  0.61245000  1.0 -0.1497997291
C  C605  1  0.95411000  0.20203000  0.60064000  1.0 -0.1400545277
C  C606  1  0.97755000  0.18071000  0.55088000  1.0 -0.2228164356
C  C607  1  0.94170000  0.21324000  0.62700000  1.0 0.5203534123
C  C608  1  0.05755000  0.14319000  0.25820000  1.0 -0.2997391801
C  C609  1  0.02874000  0.13939000  0.22951000  1.0 0.1211127901
C  C610  1  0.03574000  0.16260000  0.21524000  1.0 -0.0594045132
C  C611  1  0.07154000  0.18961000  0.22965000  1.0 0.0500818461
C  C612  1  0.10035000  0.19340000  0.25833000  1.0 -0.1280884867
C  C613  1  0.09335000  0.17018000  0.27261000  1.0 -0.0286045992
C  C614  1  0.08054000  0.21536000  0.21688000  1.0 0.2202187013
C  C615  1  0.99077000  0.11606000  0.21939000  1.0 0.2805857536
C  C616  1  0.12447000  0.17334000  0.30251000  1.0 0.2805857536
C  C617  1  0.04719000  0.45772000  0.18523000  1.0 0.5697969047
C  C618  1  0.95070000  0.40900000  0.13610000  1.0 0.5786961199
C  C619  1  0.88154000  0.27240000  0.93414000  1.0 0.5491832924
C  C620  1  0.87552000  0.43270000  0.16372000  1.0 -0.1400545277
C  C621  1  0.88597000  0.40882000  0.17127000  1.0 -0.0594045132
C  C622  1  0.91048000  0.40173000  0.16163000  1.0 -0.1066595837
C  C623  1  0.92451000  0.41853000  0.14444000  1.0 -0.0286045992
C  C624  1  0.91406000  0.44241000  0.13689000  1.0 -0.1497997291
C  C625  1  0.88956000  0.44950000  0.14652000  1.0 0.0500818461
C  C626  1  0.87321000  0.39051000  0.18830000  1.0 0.5491832924
C  C627  1  0.87802000  0.47469000  0.13805000  1.0 -0.003553914
C  C628  1  0.84306000  0.46349000  0.11627000  1.0 -0.0407305662
C  C629  1  0.90643000  0.50792000  0.15309000  1.0 0.0500818461
C  C630  1  0.85355000  0.46692000  0.09979000  1.0 0.0822339581
C  C631  1  0.89107000  0.50877000  0.16380000  1.0 0.018651283
C  C632  1  0.89515000  0.27795000  0.03282000  1.0 -0.1400545277
C  C633  1  0.86834000  0.24525000  0.00033000  1.0 0.089401739
C  C634  1  0.86523000  0.24150000  0.96705000  1.0 -0.1400545277
C  C635  1  0.88894000  0.27046000  0.96628000  1.0 -0.0773466312
C  C636  1  0.91577000  0.30318000  0.99879000  1.0 -0.097147461
C  C637  1  0.91887000  0.30692000  0.03205000  1.0 -0.0221237334
C  C638  1  0.95475000  0.33473000  0.06594000  1.0 0.5697969047
C  C639  1  0.84004000  0.21642000  0.00064000  1.0 0.0076524367
C  C640  1  0.80256000  0.20484000  0.98012000  1.0 -0.0710923863
C  C641  1  0.82883000  0.17925000  0.98070000  1.0 0.0500818461
C  C642  1  0.84830000  0.19935000  0.02023000  1.0 0.0586255876
C  C643  1  0.82211000  0.22467000  0.01990000  1.0 -0.0594045132
C  C644  1  0.11250000  0.52450000  0.28900000  1.0 0.018651283
C  C645  1  0.07511000  0.49273000  0.22174000  1.0 0.0033744084
C  C646  1  0.12350000  0.55790000  0.29060000  1.0 -0.2782574761
C  C647  1  0.08678000  0.52713000  0.22539000  1.0 -0.2304901092
C  C648  1  0.12430000  0.51940000  0.32190000  1.0 0.5697969047
C  C649  1  0.10980000  0.55930000  0.25890000  1.0 0.0586255876
C  C650  1  0.08930000  0.49180000  0.25490000  1.0 -0.1066595837
C  C651  1  0.99895000  0.45754000  0.32151000  1.0 -0.097147461
C  C652  1  0.93206000  0.42577000  0.28901000  1.0 0.5636959083
C  C653  1  0.96671000  0.45854000  0.31665000  1.0 -0.0407305662
C  C654  1  0.03271000  0.52053000  0.37104000  1.0 -0.1400545277
C  C655  1  0.03240000  0.48955000  0.34875000  1.0 -0.0710923863
C  C656  1  0.06580000  0.49117000  0.35281000  1.0 0.5491832924
C  C657  1  0.00011000  0.52071000  0.36632000  1.0 0.0586255876
C  C658  1  0.96681000  0.48767000  0.34166000  1.0 -0.1187212648
C  C659  1  0.12204000  0.59576000  0.25984000  1.0 0.069381688
C  C660  1  0.12040000  0.62750000  0.28530000  1.0 -0.0594045132
C  C661  1  0.09467000  0.59940000  0.23507000  1.0 0.1789682263
C  C662  1  0.15470000  0.62419000  0.28319000  1.0 -0.0710923863
C  C663  1  0.13190000  0.60240000  0.23730000  1.0 0.089401739
C  C664  1  0.00004000  0.54919000  0.39483000  1.0 0.018651283
C  C665  1  0.01916000  0.58630000  0.40610000  1.0 -0.0221237334
C  C666  1  0.98079000  0.56704000  0.38649000  1.0 0.0405704229
C  C667  1  0.98095000  0.54133000  0.41278000  1.0 -0.0286045992
C  C668  1  0.01933000  0.56022000  0.43195000  1.0 -0.0407305662
C  C669  1  0.21456000  0.66687000  0.32745000  1.0 0.305928302
C  C670  1  0.25203000  0.68315000  0.35750000  1.0 0.069381688
C  C671  1  0.25517000  0.67272000  0.38421000  1.0 -0.1187212648
C  C672  1  0.28921000  0.68601000  0.41308000  1.0 -0.0407305662
C  C673  1  0.28429000  0.70408000  0.35881000  1.0 -0.1400545277
C  C674  1  0.32075000  0.70611000  0.41338000  1.0 -0.0137260842
C  C675  1  0.31853000  0.71600000  0.38697000  1.0 -0.0594045132
C  C676  1  0.36249000  0.77993000  0.42142000  1.0 0.2615700247
C  C677  1  0.31035000  0.71150000  0.44267000  1.0 0.0405704229
C  C678  1  0.33893000  0.74087000  0.44702000  1.0 -0.2304901092
C  C679  1  0.33381000  0.74932000  0.41905000  1.0 -0.0137260842
C  C680  1  0.30012000  0.72839000  0.38673000  1.0 -0.0710923863
C  C681  1  0.27154000  0.69902000  0.38238000  1.0 0.0076524367
C  C682  1  0.27666000  0.69057000  0.41035000  1.0 -0.0594045132
C  C683  1  0.23577000  0.67670000  0.34799000  1.0 0.1987753132
C  C684  1  0.31584000  0.70241000  0.47233000  1.0 0.0586255876
C  C685  1  0.35197000  0.73904000  0.38829000  1.0 0.0822339581
C  C686  1  0.29221000  0.67921000  0.44378000  1.0 0.2341807169
C  C687  1  0.07148000  0.63543000  0.24759000  1.0 -0.1789925533
C  C688  1  0.05977000  0.59883000  0.22522000  1.0 -0.1187212648
C  C689  1  0.08686000  0.58707000  0.22485000  1.0 0.1789682263
C  C690  1  0.95693000  0.55852000  0.18109000  1.0 0.2805857536
C  C691  1  0.99686000  0.58443000  0.20349000  1.0 0.0586255876
C  C692  1  0.00858000  0.62103000  0.22587000  1.0 -0.1497997291
C  C693  1  0.04589000  0.64653000  0.24792000  1.0 -0.1497997291
C  C694  1  0.02245000  0.57333000  0.20316000  1.0 -0.2228164356
C  C695  1  0.05830000  0.68530000  0.27154000  1.0 0.5203534123
C  C696  1  0.94245000  0.20065000  0.08564000  1.0 -0.2997391801
C  C697  1  0.97126000  0.20077000  0.11065000  1.0 0.1211127901
C  C698  1  0.96426000  0.17950000  0.12686000  1.0 -0.0504267388
C  C699  1  0.92846000  0.15811000  0.11807000  1.0 0.0500818461
C  C700  1  0.89965000  0.15798000  0.09305000  1.0 -0.1280884867
C  C701  1  0.90665000  0.17926000  0.07683000  1.0 -0.0286045992
C  C702  1  0.91946000  0.13634000  0.13482000  1.0 0.2202187013
C  C703  1  0.00923000  0.22862000  0.12529000  1.0 0.2805857536
C  C704  1  0.87553000  0.17804000  0.04887000  1.0 0.2805857536
C  C705  1  0.58947000  0.72751000  0.54228000  1.0 0.5697969047
C  C706  1  0.54170000  0.72710000  0.59100000  1.0 0.5786961199
C  C707  1  0.60914000  0.66174000  0.72760000  1.0 0.5491832924
C  C708  1  0.44282000  0.73102000  0.56730000  1.0 -0.1400545277
C  C709  1  0.47715000  0.76245000  0.59118000  1.0 -0.0594045132
C  C710  1  0.50875000  0.75990000  0.59827000  1.0 -0.1066595837
C  C711  1  0.50598000  0.72591000  0.58147000  1.0 -0.0286045992
C  C712  1  0.47165000  0.69448000  0.55759000  1.0 -0.1497997291
C  C713  1  0.44006000  0.69702000  0.55050000  1.0 0.0500818461
C  C714  1  0.48270000  0.79779000  0.60949000  1.0 0.5491832924
C  C715  1  0.40333000  0.66336000  0.52531000  1.0 -0.003553914
C  C716  1  0.37957000  0.65278000  0.53651000  1.0 -0.0407305662
C  C717  1  0.39851000  0.64517000  0.49208000  1.0 0.0500818461
C  C718  1  0.38663000  0.63287000  0.53308000  1.0 0.0822339581
C  C719  1  0.38230000  0.65503000  0.49123000  1.0 0.018651283
C  C720  1  0.61720000  0.75487000  0.72205000  1.0 -0.1400545277
C  C721  1  0.62309000  0.75508000  0.75475000  1.0 0.089401739
C  C722  1  0.62373000  0.72555000  0.75850000  1.0 -0.1400545277
C  C723  1  0.61848000  0.69582000  0.72954000  1.0 -0.0773466312
C  C724  1  0.61259000  0.69561000  0.69682000  1.0 -0.097147461
C  C725  1  0.61195000  0.72513000  0.69308000  1.0 -0.0221237334
C  C726  1  0.62002000  0.73121000  0.66527000  1.0 0.5697969047
C  C727  1  0.62362000  0.78422000  0.78358000  1.0 0.0076524367
C  C728  1  0.59772000  0.77528000  0.79516000  1.0 -0.0710923863
C  C729  1  0.64958000  0.80145000  0.82075000  1.0 0.0500818461
C  C730  1  0.64895000  0.82088000  0.80065000  1.0 0.0586255876
C  C731  1  0.59744000  0.79523000  0.77533000  1.0 -0.0594045132
C  C732  1  0.58800000  0.76450000  0.47550000  1.0 0.018651283
C  C733  1  0.58238000  0.72901000  0.50727000  1.0 0.0033744084
C  C734  1  0.56560000  0.73270000  0.44210000  1.0 -0.2782574761
C  C735  1  0.55965000  0.69826000  0.47287000  1.0 -0.2304901092
C  C736  1  0.60490000  0.80250000  0.48060000  1.0 0.5697969047
C  C737  1  0.55050000  0.69960000  0.44070000  1.0 0.0586255876
C  C738  1  0.59750000  0.76310000  0.50820000  1.0 -0.1066595837
C  C739  1  0.54141000  0.86397000  0.54246000  1.0 -0.097147461
C  C740  1  0.50629000  0.86324000  0.57423000  1.0 0.5636959083
C  C741  1  0.50817000  0.85811000  0.54146000  1.0 -0.0407305662
C  C742  1  0.51218000  0.85051000  0.47947000  1.0 -0.1400545277
C  C743  1  0.54285000  0.85920000  0.51045000  1.0 -0.0710923863
C  C744  1  0.57463000  0.86164000  0.50883000  1.0 0.5491832924
C  C745  1  0.47940000  0.84561000  0.47929000  1.0 0.0586255876
C  C746  1  0.47914000  0.85399000  0.51233000  1.0 -0.1187212648
C  C747  1  0.52628000  0.66408000  0.40424000  1.0 0.069381688
C  C748  1  0.49290000  0.65780000  0.37250000  1.0 -0.0594045132
C  C749  1  0.49527000  0.63567000  0.40060000  1.0 0.1789682263
C  C750  1  0.53051000  0.65900000  0.37581000  1.0 -0.0710923863
C  C751  1  0.52950000  0.63490000  0.39760000  1.0 0.089401739
C  C752  1  0.45085000  0.84564000  0.45081000  1.0 0.018651283
C  C753  1  0.43286000  0.81980000  0.41370000  1.0 -0.0286045992
C  C754  1  0.41375000  0.81945000  0.43296000  1.0 0.0405704229
C  C755  1  0.43962000  0.87145000  0.45867000  1.0 -0.0286045992
C  C756  1  0.45911000  0.87173000  0.43978000  1.0 -0.0407305662
C  C757  1  0.54769000  0.66058000  0.33313000  1.0 0.2987540215
C  C758  1  0.56888000  0.67435000  0.31685000  1.0 0.069381688
C  C759  1  0.58245000  0.71149000  0.32728000  1.0 -0.1187212648
C  C760  1  0.60320000  0.72707000  0.31399000  1.0 -0.0407305662
C  C761  1  0.58021000  0.65473000  0.29592000  1.0 -0.1400545277
C  C762  1  0.61464000  0.70727000  0.29389000  1.0 -0.0137260842
C  C763  1  0.60253000  0.67097000  0.28400000  1.0 -0.0594045132
C  C764  1  0.58256000  0.64149000  0.22007000  1.0 0.2615700247
C  C765  1  0.59885000  0.73117000  0.28850000  1.0 0.0405704229
C  C766  1  0.59806000  0.70615000  0.25913000  1.0 -0.2304901092
C  C767  1  0.58449000  0.66973000  0.25068000  1.0 -0.0137260842
C  C768  1  0.57173000  0.65834000  0.27161000  1.0 -0.0710923863
C  C769  1  0.57252000  0.68336000  0.30098000  1.0 0.0033744084
C  C770  1  0.58609000  0.71978000  0.30943000  1.0 -0.0594045132
C  C771  1  0.55907000  0.67129000  0.32330000  1.0 0.1987753132
C  C772  1  0.61343000  0.76992000  0.29759000  1.0 0.0586255876
C  C773  1  0.61293000  0.64925000  0.26096000  1.0 0.089401739
C  C774  1  0.61300000  0.76457000  0.32079000  1.0 0.2341807169
C  C775  1  0.43605000  0.61216000  0.36457000  1.0 -0.1789925533
C  C776  1  0.46094000  0.62639000  0.40117000  1.0 -0.1187212648
C  C777  1  0.49979000  0.63778000  0.41293000  1.0 0.1789682263
C  C778  1  0.39841000  0.62257000  0.44148000  1.0 0.2805857536
C  C779  1  0.41243000  0.61906000  0.41557000  1.0 0.0586255876
C  C780  1  0.38755000  0.60484000  0.37897000  1.0 -0.1497997291
C  C781  1  0.39936000  0.60139000  0.35347000  1.0 -0.1497997291
C  C782  1  0.44912000  0.62983000  0.42667000  1.0 -0.2228164356
C  C783  1  0.37300000  0.58624000  0.31470000  1.0 0.5203534123
C  C784  1  0.74180000  0.88499000  0.79935000  1.0 -0.2997391801
C  C785  1  0.77049000  0.90988000  0.79923000  1.0 0.1211127901
C  C786  1  0.78476000  0.94736000  0.82050000  1.0 -0.0504267388
C  C787  1  0.77035000  0.95996000  0.84189000  1.0 0.0500818461
C  C788  1  0.74167000  0.93507000  0.84202000  1.0 -0.1280884867
C  C789  1  0.72739000  0.89757000  0.82074000  1.0 -0.0286045992
C  C790  1  0.78312000  0.99848000  0.86366000  1.0 0.2202187013
C  C791  1  0.78061000  0.89667000  0.77138000  1.0 0.2805857536
C  C792  1  0.69749000  0.87083000  0.82196000  1.0 0.2805857536
C  C793  1  0.81477000  0.27249000  0.86196000  1.0 0.5697969047
C  C794  1  0.86390000  0.27290000  0.81460000  1.0 0.5786961199
C  C795  1  0.06586000  0.33826000  0.94740000  1.0 0.5491832924
C  C796  1  0.83628000  0.26898000  0.71180000  1.0 -0.1400545277
C  C797  1  0.82873000  0.23755000  0.71470000  1.0 -0.0594045132
C  C798  1  0.83837000  0.24010000  0.74885000  1.0 -0.1066595837
C  C799  1  0.85556000  0.27409000  0.78007000  1.0 -0.0286045992
C  C800  1  0.86311000  0.30552000  0.77717000  1.0 -0.1497997291
C  C801  1  0.85348000  0.30298000  0.74304000  1.0 0.0500818461
C  C802  1  0.81170000  0.20221000  0.68491000  1.0 0.5491832924
C  C803  1  0.86195000  0.33664000  0.73997000  1.0 -0.003553914
C  C804  1  0.88373000  0.34722000  0.72679000  1.0 -0.0407305662
C  C805  1  0.84691000  0.35483000  0.75334000  1.0 0.0500818461
C  C806  1  0.90021000  0.36713000  0.75376000  1.0 0.0822339581
C  C807  1  0.83620000  0.34497000  0.72727000  1.0 0.018651283
C  C808  1  0.96718000  0.24513000  0.86233000  1.0 -0.1400545277
C  C809  1  0.99967000  0.24492000  0.86801000  1.0 0.089401739
C  C810  1  0.03295000  0.27445000  0.89818000  1.0 -0.1400545277
C  C811  1  0.03372000  0.30418000  0.92266000  1.0 -0.0773466312
C  C812  1  0.00121000  0.30439000  0.91698000  1.0 -0.097147461
C  C813  1  0.96795000  0.27487000  0.88682000  1.0 -0.0221237334
C  C814  1  0.93406000  0.26879000  0.88881000  1.0 0.5697969047
C  C815  1  0.99936000  0.21578000  0.83940000  1.0 0.0076524367
C  C816  1  0.01988000  0.22472000  0.82244000  1.0 -0.0710923863
C  C817  1  0.01930000  0.19855000  0.84813000  1.0 0.0500818461
C  C818  1  0.97977000  0.17912000  0.82807000  1.0 0.0586255876
C  C819  1  0.98010000  0.20477000  0.80221000  1.0 -0.0594045132
C  C820  1  0.71100000  0.23550000  0.82350000  1.0 0.018651283
C  C821  1  0.77826000  0.27099000  0.85337000  1.0 0.0033744084
C  C822  1  0.70940000  0.26730000  0.83290000  1.0 -0.2782574761
C  C823  1  0.77461000  0.30174000  0.86139000  1.0 -0.2304901092
C  C824  1  0.67810000  0.19750000  0.80240000  1.0 0.5697969047
C  C825  1  0.74110000  0.30040000  0.85090000  1.0 0.0586255876
C  C826  1  0.74510000  0.23690000  0.83440000  1.0 -0.1066595837
C  C827  1  0.67849000  0.13603000  0.67744000  1.0 -0.097147461
C  C828  1  0.71099000  0.13676000  0.64305000  1.0 0.5636959083
C  C829  1  0.68335000  0.14189000  0.65006000  1.0 -0.0407305662
C  C830  1  0.62896000  0.14949000  0.66167000  1.0 -0.1400545277
C  C831  1  0.65125000  0.14080000  0.68365000  1.0 -0.0710923863
C  C832  1  0.64719000  0.13836000  0.71299000  1.0 0.5491832924
C  C833  1  0.63368000  0.15439000  0.63379000  1.0 0.0586255876
C  C834  1  0.65834000  0.14601000  0.62515000  1.0 -0.1187212648
C  C835  1  0.74016000  0.33592000  0.86220000  1.0 0.069381688
C  C836  1  0.71470000  0.34220000  0.83510000  1.0 -0.0594045132
C  C837  1  0.76493000  0.36433000  0.85960000  1.0 0.1789682263
C  C838  1  0.71681000  0.34100000  0.87151000  1.0 -0.0710923863
C  C839  1  0.76270000  0.36510000  0.89460000  1.0 0.089401739
C  C840  1  0.60517000  0.15436000  0.60521000  1.0 0.018651283
C  C841  1  0.59390000  0.18020000  0.61306000  1.0 -0.0286045992
C  C842  1  0.61351000  0.18055000  0.59430000  1.0 0.0405704229
C  C843  1  0.58722000  0.12855000  0.56817000  1.0 -0.0286045992
C  C844  1  0.56805000  0.12827000  0.58738000  1.0 -0.0407305662
C  C845  1  0.67255000  0.33942000  0.88711000  1.0 0.305928302
C  C846  1  0.64250000  0.32565000  0.89453000  1.0 0.069381688
C  C847  1  0.61579000  0.28851000  0.87096000  1.0 -0.1187212648
C  C848  1  0.58692000  0.27293000  0.87613000  1.0 -0.0407305662
C  C849  1  0.64119000  0.34527000  0.92548000  1.0 -0.1400545277
C  C850  1  0.58662000  0.29273000  0.90737000  1.0 -0.0137260842
C  C851  1  0.61303000  0.32903000  0.93156000  1.0 -0.0594045132
C  C852  1  0.57858000  0.35851000  0.94107000  1.0 0.2615700247
C  C853  1  0.55733000  0.26883000  0.86768000  1.0 0.0405704229
C  C854  1  0.55298000  0.29385000  0.89191000  1.0 -0.2304901092
C  C855  1  0.58095000  0.33027000  0.91476000  1.0 -0.0137260842
C  C856  1  0.61327000  0.34166000  0.91339000  1.0 -0.0710923863
C  C857  1  0.61762000  0.31664000  0.88916000  1.0 0.0033744084
C  C858  1  0.58965000  0.28022000  0.86631000  1.0 -0.0594045132
C  C859  1  0.65201000  0.32871000  0.88778000  1.0 0.1987753132
C  C860  1  0.52767000  0.23008000  0.84351000  1.0 0.0586255876
C  C861  1  0.61171000  0.35075000  0.96368000  1.0 0.089401739
C  C862  1  0.55622000  0.23543000  0.84843000  1.0 0.2341807169
C  C863  1  0.75241000  0.38784000  0.82389000  1.0 -0.1789925533
C  C864  1  0.77478000  0.37361000  0.83455000  1.0 -0.1187212648
C  C865  1  0.77515000  0.36222000  0.86201000  1.0 0.1789682263
C  C866  1  0.81891000  0.37743000  0.77584000  1.0 0.2805857536
C  C867  1  0.79651000  0.38094000  0.79337000  1.0 0.0586255876
C  C868  1  0.77413000  0.39516000  0.78271000  1.0 -0.1497997291
C  C869  1  0.75208000  0.39861000  0.79797000  1.0 -0.1400545277
C  C870  1  0.79684000  0.37017000  0.81929000  1.0 -0.2228164356
C  C871  1  0.72846000  0.41376000  0.78676000  1.0 0.5203534123
C  C872  1  0.91436000  0.11501000  0.85681000  1.0 -0.2997391801
C  C873  1  0.88935000  0.09012000  0.86061000  1.0 0.1211127901
C  C874  1  0.87314000  0.05264000  0.83740000  1.0 -0.0504267388
C  C875  1  0.88193000  0.04004000  0.81039000  1.0 0.0500818461
C  C876  1  0.90695000  0.06493000  0.80660000  1.0 -0.1280884867
C  C877  1  0.92317000  0.10243000  0.82982000  1.0 -0.0286045992
C  C878  1  0.86518000  0.00152000  0.78464000  1.0 0.2202187013
C  C879  1  0.87471000  0.10333000  0.88394000  1.0 0.2805857536
C  C880  1  0.95113000  0.12917000  0.82666000  1.0 0.2902703984
C  C881  1  0.41053000  0.95281000  0.13804000  1.0 0.5697969047
C  C882  1  0.45830000  0.04930000  0.18540000  1.0 0.5786961199
C  C883  1  0.39086000  0.11846000  0.05260000  1.0 0.5491832924
C  C884  1  0.55718000  0.12448000  0.28820000  1.0 -0.1400545277
C  C885  1  0.52285000  0.11403000  0.28530000  1.0 -0.0594045132
C  C886  1  0.49125000  0.08952000  0.25115000  1.0 -0.1066595837
C  C887  1  0.49402000  0.07549000  0.21993000  1.0 -0.0286045992
C  C888  1  0.52835000  0.08594000  0.22283000  1.0 -0.1497997291
C  C889  1  0.55994000  0.11044000  0.25696000  1.0 0.0500818461
C  C890  1  0.51730000  0.12679000  0.31509000  1.0 0.5491832924
C  C891  1  0.59667000  0.12198000  0.26003000  1.0 -0.003553914
C  C892  1  0.62043000  0.15694000  0.27321000  1.0 -0.0407305662
C  C893  1  0.60149000  0.09357000  0.24666000  1.0 0.0500818461
C  C894  1  0.61337000  0.14645000  0.24624000  1.0 0.0822339581
C  C895  1  0.61770000  0.10893000  0.27273000  1.0 0.018651283
C  C896  1  0.38280000  0.10485000  0.13767000  1.0 -0.1400545277
C  C897  1  0.37691000  0.13166000  0.13199000  1.0 0.089401739
C  C898  1  0.37627000  0.13477000  0.10182000  1.0 -0.1400545277
C  C899  1  0.38152000  0.11106000  0.07734000  1.0 -0.0773466312
C  C900  1  0.38741000  0.08423000  0.08302000  1.0 -0.097147461
C  C901  1  0.38805000  0.08113000  0.11318000  1.0 -0.0221237334
C  C902  1  0.37998000  0.04525000  0.11119000  1.0 0.5697969047
C  C903  1  0.37638000  0.15996000  0.16060000  1.0 0.0076524367
C  C904  1  0.40228000  0.19744000  0.17756000  1.0 -0.0710923863
C  C905  1  0.35042000  0.17117000  0.15187000  1.0 0.0500818461
C  C906  1  0.35105000  0.15170000  0.17193000  1.0 0.0586255876
C  C907  1  0.40256000  0.17789000  0.19779000  1.0 -0.0594045132
C  C908  1  0.41200000  0.88750000  0.17650000  1.0 0.018651283
C  C909  1  0.41762000  0.92489000  0.14663000  1.0 0.0033744084
C  C910  1  0.43440000  0.87650000  0.16710000  1.0 -0.2782574761
C  C911  1  0.44035000  0.91322000  0.13861000  1.0 -0.2304901092
C  C912  1  0.39510000  0.87570000  0.19760000  1.0 0.5697969047
C  C913  1  0.44950000  0.89020000  0.14910000  1.0 0.0586255876
C  C914  1  0.40250000  0.91070000  0.16560000  1.0 -0.1066595837
C  C915  1  0.45859000  0.00105000  0.32256000  1.0 -0.097147461
C  C916  1  0.49371000  0.06794000  0.35695000  1.0 0.5636959083
C  C917  1  0.49183000  0.03329000  0.34994000  1.0 -0.0407305662
C  C918  1  0.48782000  0.96729000  0.33833000  1.0 -0.1400545277
C  C919  1  0.45715000  0.96760000  0.31635000  1.0 -0.0710923863
C  C920  1  0.42537000  0.93420000  0.28701000  1.0 0.5491832924
C  C921  1  0.52060000  0.99989000  0.36621000  1.0 0.0586255876
C  C922  1  0.52086000  0.03319000  0.37485000  1.0 -0.1187212648
C  C923  1  0.47372000  0.87796000  0.13780000  1.0 0.069381688
C  C924  1  0.50710000  0.87960000  0.16490000  1.0 -0.0594045132
C  C925  1  0.50473000  0.90533000  0.14040000  1.0 0.1708097757
C  C926  1  0.46949000  0.84530000  0.12849000  1.0 -0.0710923863
C  C927  1  0.47050000  0.86810000  0.10540000  1.0 0.089401739
C  C928  1  0.54915000  0.99996000  0.39479000  1.0 0.018651283
C  C929  1  0.56714000  0.98084000  0.38694000  1.0 -0.0286045992
C  C930  1  0.58625000  0.01921000  0.40570000  1.0 0.0405704229
C  C931  1  0.56038000  0.01905000  0.43183000  1.0 -0.0286045992
C  C932  1  0.54089000  0.98067000  0.41262000  1.0 -0.0407305662
C  C933  1  0.45231000  0.78544000  0.11289000  1.0 0.2987540215
C  C934  1  0.43112000  0.74797000  0.10547000  1.0 0.069381688
C  C935  1  0.41755000  0.74483000  0.12904000  1.0 -0.1187212648
C  C936  1  0.39680000  0.71079000  0.12387000  1.0 -0.0407305662
C  C937  1  0.41979000  0.71571000  0.07452000  1.0 -0.1400545277
C  C938  1  0.38536000  0.67925000  0.09263000  1.0 -0.0221237334
C  C939  1  0.39747000  0.68147000  0.06844000  1.0 -0.0594045132
C  C940  1  0.41744000  0.63751000  0.05893000  1.0 0.2615700247
C  C941  1  0.40115000  0.68965000  0.13232000  1.0 0.0405704229
C  C942  1  0.40194000  0.66107000  0.10809000  1.0 -0.2304901092
C  C943  1  0.41551000  0.66619000  0.08524000  1.0 -0.0137260842
C  C944  1  0.42827000  0.69988000  0.08661000  1.0 -0.0773466312
C  C945  1  0.42748000  0.72846000  0.11084000  1.0 0.0033744084
C  C946  1  0.41391000  0.72334000  0.13369000  1.0 -0.0594045132
C  C947  1  0.44093000  0.76423000  0.11222000  1.0 0.1987753132
C  C948  1  0.38657000  0.68416000  0.15649000  1.0 0.0586255876
C  C949  1  0.38707000  0.64803000  0.03632000  1.0 0.089401739
C  C950  1  0.38700000  0.70779000  0.15157000  1.0 0.2341807169
C  C951  1  0.56395000  0.92852000  0.17611000  1.0 -0.1789925533
C  C952  1  0.53906000  0.94023000  0.16545000  1.0 -0.1187212648
C  C953  1  0.50021000  0.91314000  0.13799000  1.0 0.1858860137
C  C954  1  0.60159000  0.04307000  0.22416000  1.0 0.2805857536
C  C955  1  0.58757000  0.00314000  0.20663000  1.0 0.0586255876
C  C956  1  0.61245000  0.99142000  0.21729000  1.0 -0.1497997291
C  C957  1  0.60064000  0.95411000  0.20203000  1.0 -0.1497997291
C  C958  1  0.55088000  0.97755000  0.18071000  1.0 -0.2228164356
C  C959  1  0.62700000  0.94170000  0.21324000  1.0 0.5203534123
C  C960  1  0.25820000  0.05755000  0.14319000  1.0 -0.2997391801
C  C961  1  0.22951000  0.02874000  0.13939000  1.0 0.1211127901
C  C962  1  0.21524000  0.03574000  0.16260000  1.0 -0.0594045132
C  C963  1  0.22965000  0.07154000  0.18961000  1.0 0.0500818461
C  C964  1  0.25833000  0.10035000  0.19340000  1.0 -0.1280884867
C  C965  1  0.27261000  0.09335000  0.17018000  1.0 -0.0286045992
C  C966  1  0.21688000  0.08054000  0.21536000  1.0 0.2202187013
C  C967  1  0.21939000  0.99077000  0.11606000  1.0 0.2805857536
C  C968  1  0.30251000  0.12447000  0.17334000  1.0 0.2805857536
C  C969  1  0.18523000  0.04719000  0.45772000  1.0 0.5697969047
C  C970  1  0.13610000  0.95070000  0.40900000  1.0 0.5786961199
C  C971  1  0.93414000  0.88154000  0.27240000  1.0 0.5491832924
C  C972  1  0.16372000  0.87552000  0.43270000  1.0 -0.1497997291
C  C973  1  0.17127000  0.88597000  0.40882000  1.0 -0.0594045132
C  C974  1  0.16163000  0.91048000  0.40173000  1.0 -0.1066595837
C  C975  1  0.14444000  0.92451000  0.41853000  1.0 -0.0286045992
C  C976  1  0.13689000  0.91406000  0.44241000  1.0 -0.1497997291
C  C977  1  0.14652000  0.88956000  0.44950000  1.0 0.0500818461
C  C978  1  0.18830000  0.87321000  0.39051000  1.0 0.5491832924
C  C979  1  0.13805000  0.87802000  0.47469000  1.0 -0.003553914
C  C980  1  0.11627000  0.84306000  0.46349000  1.0 -0.0407305662
C  C981  1  0.15309000  0.90643000  0.50792000  1.0 0.0500818461
C  C982  1  0.09979000  0.85355000  0.46692000  1.0 0.0822339581
C  C983  1  0.16380000  0.89107000  0.50877000  1.0 0.018651283
C  C984  1  0.03282000  0.89515000  0.27795000  1.0 -0.1400545277
C  C985  1  0.00033000  0.86834000  0.24525000  1.0 0.089401739
C  C986  1  0.96705000  0.86523000  0.24150000  1.0 -0.1400545277
C  C987  1  0.96628000  0.88894000  0.27046000  1.0 -0.0773466312
C  C988  1  0.99879000  0.91577000  0.30318000  1.0 -0.097147461
C  C989  1  0.03205000  0.91887000  0.30692000  1.0 -0.0221237334
C  C990  1  0.06594000  0.95475000  0.33473000  1.0 0.5697969047
C  C991  1  0.00064000  0.84004000  0.21642000  1.0 0.0076524367
C  C992  1  0.98012000  0.80256000  0.20484000  1.0 -0.0710923863
C  C993  1  0.98070000  0.82883000  0.17925000  1.0 0.0500818461
C  C994  1  0.02023000  0.84830000  0.19935000  1.0 0.0586255876
C  C995  1  0.01990000  0.82211000  0.22467000  1.0 -0.0594045132
C  C996  1  0.28900000  0.11250000  0.52450000  1.0 0.018651283
C  C997  1  0.22174000  0.07511000  0.49273000  1.0 0.0033744084
C  C998  1  0.29060000  0.12350000  0.55790000  1.0 -0.2782574761
C  C999  1  0.22539000  0.08678000  0.52713000  1.0 -0.2304901092
C  C1000  1  0.32190000  0.12430000  0.51940000  1.0 0.5697969047
C  C1001  1  0.25890000  0.10980000  0.55930000  1.0 0.0586255876
C  C1002  1  0.25490000  0.08930000  0.49180000  1.0 -0.1066595837
C  C1003  1  0.32151000  0.99895000  0.45754000  1.0 -0.097147461
C  C1004  1  0.28901000  0.93206000  0.42577000  1.0 0.5636959083
C  C1005  1  0.31665000  0.96671000  0.45854000  1.0 -0.0407305662
C  C1006  1  0.37104000  0.03271000  0.52053000  1.0 -0.1400545277
C  C1007  1  0.34875000  0.03240000  0.48955000  1.0 -0.0710923863
C  C1008  1  0.35281000  0.06580000  0.49117000  1.0 0.5491832924
C  C1009  1  0.36632000  0.00011000  0.52071000  1.0 0.0586255876
C  C1010  1  0.34166000  0.96681000  0.48767000  1.0 -0.1187212648
C  C1011  1  0.25984000  0.12204000  0.59576000  1.0 0.069381688
C  C1012  1  0.28530000  0.12040000  0.62750000  1.0 -0.0594045132
C  C1013  1  0.23507000  0.09467000  0.59940000  1.0 0.1708097757
C  C1014  1  0.28319000  0.15470000  0.62419000  1.0 -0.0710923863
C  C1015  1  0.23730000  0.13190000  0.60240000  1.0 0.089401739
C  C1016  1  0.39483000  0.00004000  0.54919000  1.0 0.018651283
C  C1017  1  0.40610000  0.01916000  0.58630000  1.0 -0.0286045992
C  C1018  1  0.38649000  0.98079000  0.56704000  1.0 0.0405704229
C  C1019  1  0.41278000  0.98095000  0.54133000  1.0 -0.0286045992
C  C1020  1  0.43195000  0.01933000  0.56022000  1.0 -0.0407305662
C  C1021  1  0.32745000  0.21456000  0.66687000  1.0 0.305928302
C  C1022  1  0.35750000  0.25203000  0.68315000  1.0 0.069381688
C  C1023  1  0.38421000  0.25517000  0.67272000  1.0 -0.1187212648
C  C1024  1  0.41308000  0.28921000  0.68601000  1.0 -0.0407305662
C  C1025  1  0.35881000  0.28429000  0.70408000  1.0 -0.1400545277
C  C1026  1  0.41338000  0.32075000  0.70611000  1.0 -0.0137260842
C  C1027  1  0.38697000  0.31853000  0.71600000  1.0 -0.0594045132
C  C1028  1  0.42142000  0.36249000  0.77993000  1.0 0.2615700247
C  C1029  1  0.44267000  0.31035000  0.71150000  1.0 0.0405704229
C  C1030  1  0.44702000  0.33893000  0.74087000  1.0 -0.2304901092
C  C1031  1  0.41905000  0.33381000  0.74932000  1.0 -0.0137260842
C  C1032  1  0.38673000  0.30012000  0.72839000  1.0 -0.0710923863
C  C1033  1  0.38238000  0.27154000  0.69902000  1.0 0.0033744084
C  C1034  1  0.41035000  0.27666000  0.69057000  1.0 -0.0594045132
C  C1035  1  0.34799000  0.23577000  0.67670000  1.0 0.1987753132
C  C1036  1  0.47233000  0.31584000  0.70241000  1.0 0.0586255876
C  C1037  1  0.38829000  0.35197000  0.73904000  1.0 0.089401739
C  C1038  1  0.44378000  0.29221000  0.67921000  1.0 0.2341807169
C  C1039  1  0.24759000  0.07148000  0.63543000  1.0 -0.1789925533
C  C1040  1  0.22522000  0.05977000  0.59883000  1.0 -0.1187212648
C  C1041  1  0.22485000  0.08686000  0.58707000  1.0 0.1789682263
C  C1042  1  0.18109000  0.95693000  0.55852000  1.0 0.2805857536
C  C1043  1  0.20349000  0.99686000  0.58443000  1.0 0.0586255876
C  C1044  1  0.22587000  0.00858000  0.62103000  1.0 -0.1497997291
C  C1045  1  0.24792000  0.04589000  0.64653000  1.0 -0.1400545277
C  C1046  1  0.20316000  0.02245000  0.57333000  1.0 -0.2228164356
C  C1047  1  0.27154000  0.05830000  0.68530000  1.0 0.5203534123
C  C1048  1  0.08564000  0.94245000  0.20065000  1.0 -0.2997391801
C  C1049  1  0.11065000  0.97126000  0.20077000  1.0 0.1211127901
C  C1050  1  0.12686000  0.96426000  0.17950000  1.0 -0.0504267388
C  C1051  1  0.11807000  0.92846000  0.15811000  1.0 0.0500818461
C  C1052  1  0.09305000  0.89965000  0.15798000  1.0 -0.1280884867
C  C1053  1  0.07683000  0.90665000  0.17926000  1.0 -0.0286045992
C  C1054  1  0.13482000  0.91946000  0.13634000  1.0 0.2202187013
C  C1055  1  0.12529000  0.00923000  0.22862000  1.0 0.2805857536
C  C1056  1  0.04887000  0.87553000  0.17804000  1.0 0.2805857536
C  C1057  1  0.18523000  0.13804000  0.72751000  1.0 0.5697969047
C  C1058  1  0.13610000  0.18540000  0.72710000  1.0 0.5786961199
C  C1059  1  0.93414000  0.05260000  0.66174000  1.0 0.5491832924
C  C1060  1  0.16372000  0.28820000  0.73102000  1.0 -0.1400545277
C  C1061  1  0.17127000  0.28530000  0.76245000  1.0 -0.0594045132
C  C1062  1  0.16163000  0.25115000  0.75990000  1.0 -0.1066595837
C  C1063  1  0.14444000  0.21993000  0.72591000  1.0 -0.0286045992
C  C1064  1  0.13689000  0.22283000  0.69448000  1.0 -0.1497997291
C  C1065  1  0.14652000  0.25696000  0.69702000  1.0 0.0500818461
C  C1066  1  0.18830000  0.31509000  0.79779000  1.0 0.5491832924
C  C1067  1  0.13805000  0.26003000  0.66336000  1.0 -0.003553914
C  C1068  1  0.11627000  0.27321000  0.65278000  1.0 -0.0407305662
C  C1069  1  0.15309000  0.24666000  0.64517000  1.0 0.0500818461
C  C1070  1  0.09979000  0.24624000  0.63287000  1.0 0.0822339581
C  C1071  1  0.16380000  0.27273000  0.65503000  1.0 0.018651283
C  C1072  1  0.03282000  0.13767000  0.75487000  1.0 -0.1400545277
C  C1073  1  0.00033000  0.13199000  0.75508000  1.0 0.089401739
C  C1074  1  0.96705000  0.10182000  0.72555000  1.0 -0.1400545277
C  C1075  1  0.96628000  0.07734000  0.69582000  1.0 -0.0773466312
C  C1076  1  0.99879000  0.08302000  0.69561000  1.0 -0.097147461
C  C1077  1  0.03205000  0.11318000  0.72513000  1.0 -0.0221237334
C  C1078  1  0.06594000  0.11119000  0.73121000  1.0 0.5697969047
C  C1079  1  0.00064000  0.16060000  0.78422000  1.0 0.0076524367
C  C1080  1  0.98012000  0.17756000  0.77528000  1.0 -0.0710923863
C  C1081  1  0.98070000  0.15187000  0.80145000  1.0 0.0500818461
C  C1082  1  0.02023000  0.17193000  0.82088000  1.0 0.0586255876
C  C1083  1  0.01990000  0.19779000  0.79523000  1.0 -0.0594045132
C  C1084  1  0.28900000  0.17650000  0.76450000  1.0 0.018651283
C  C1085  1  0.22174000  0.14663000  0.72901000  1.0 0.0033744084
C  C1086  1  0.29060000  0.16710000  0.73270000  1.0 -0.2782574761
C  C1087  1  0.22539000  0.13861000  0.69826000  1.0 -0.2304901092
C  C1088  1  0.32190000  0.19760000  0.80250000  1.0 0.5697969047
C  C1089  1  0.25890000  0.14910000  0.69960000  1.0 0.0586255876
C  C1090  1  0.25490000  0.16560000  0.76310000  1.0 -0.1066595837
C  C1091  1  0.32151000  0.32256000  0.86397000  1.0 -0.097147461
C  C1092  1  0.28901000  0.35695000  0.86324000  1.0 0.5636959083
C  C1093  1  0.31665000  0.34994000  0.85811000  1.0 -0.0407305662
C  C1094  1  0.37104000  0.33833000  0.85051000  1.0 -0.1400545277
C  C1095  1  0.34875000  0.31635000  0.85920000  1.0 -0.0710923863
C  C1096  1  0.35281000  0.28701000  0.86164000  1.0 0.5491832924
C  C1097  1  0.36632000  0.36621000  0.84561000  1.0 0.0586255876
C  C1098  1  0.34166000  0.37485000  0.85399000  1.0 -0.1280884867
C  C1099  1  0.25984000  0.13780000  0.66408000  1.0 0.069381688
C  C1100  1  0.28530000  0.16490000  0.65780000  1.0 -0.0594045132
C  C1101  1  0.23507000  0.14040000  0.63567000  1.0 0.1708097757
C  C1102  1  0.28319000  0.12849000  0.65900000  1.0 -0.0710923863
C  C1103  1  0.23730000  0.10540000  0.63490000  1.0 0.089401739
C  C1104  1  0.39483000  0.39479000  0.84564000  1.0 0.018651283
C  C1105  1  0.40610000  0.38694000  0.81980000  1.0 -0.0286045992
C  C1106  1  0.38649000  0.40570000  0.81945000  1.0 0.0405704229
C  C1107  1  0.41278000  0.43183000  0.87145000  1.0 -0.0286045992
C  C1108  1  0.43195000  0.41262000  0.87173000  1.0 -0.0407305662
C  C1109  1  0.32745000  0.11289000  0.66058000  1.0 0.305928302
C  C1110  1  0.35750000  0.10547000  0.67435000  1.0 0.069381688
C  C1111  1  0.38421000  0.12904000  0.71149000  1.0 -0.1187212648
C  C1112  1  0.41308000  0.12387000  0.72707000  1.0 -0.0407305662
C  C1113  1  0.35881000  0.07452000  0.65473000  1.0 -0.1400545277
C  C1114  1  0.41338000  0.09263000  0.70727000  1.0 -0.0137260842
C  C1115  1  0.38697000  0.06844000  0.67097000  1.0 -0.0594045132
C  C1116  1  0.42142000  0.05893000  0.64149000  1.0 0.2615700247
C  C1117  1  0.44267000  0.13232000  0.73117000  1.0 0.0405704229
C  C1118  1  0.44702000  0.10809000  0.70615000  1.0 -0.2304901092
C  C1119  1  0.41905000  0.08524000  0.66973000  1.0 -0.0137260842
C  C1120  1  0.38673000  0.08661000  0.65834000  1.0 -0.0710923863
C  C1121  1  0.38238000  0.11084000  0.68336000  1.0 0.0033744084
C  C1122  1  0.41035000  0.13369000  0.71978000  1.0 -0.0594045132
C  C1123  1  0.34799000  0.11222000  0.67129000  1.0 0.1987753132
C  C1124  1  0.47233000  0.15649000  0.76992000  1.0 0.0586255876
C  C1125  1  0.38829000  0.03632000  0.64925000  1.0 0.0822339581
C  C1126  1  0.44378000  0.15157000  0.76457000  1.0 0.2341807169
C  C1127  1  0.24759000  0.17611000  0.61216000  1.0 -0.1789925533
C  C1128  1  0.22522000  0.16545000  0.62639000  1.0 -0.1187212648
C  C1129  1  0.22485000  0.13799000  0.63778000  1.0 0.1789682263
C  C1130  1  0.18109000  0.22416000  0.62257000  1.0 0.2805857536
C  C1131  1  0.20349000  0.20663000  0.61906000  1.0 0.0586255876
C  C1132  1  0.22587000  0.21729000  0.60484000  1.0 -0.1497997291
C  C1133  1  0.24792000  0.20203000  0.60139000  1.0 -0.1400545277
C  C1134  1  0.20316000  0.18071000  0.62983000  1.0 -0.2228164356
C  C1135  1  0.27154000  0.21324000  0.58624000  1.0 0.5203534123
C  C1136  1  0.08564000  0.14319000  0.88499000  1.0 -0.2997391801
C  C1137  1  0.11065000  0.13939000  0.90988000  1.0 0.1211127901
C  C1138  1  0.12686000  0.16260000  0.94736000  1.0 -0.0594045132
C  C1139  1  0.11807000  0.18961000  0.95996000  1.0 0.0500818461
C  C1140  1  0.09305000  0.19340000  0.93507000  1.0 -0.1280884867
C  C1141  1  0.07683000  0.17018000  0.89757000  1.0 -0.0286045992
C  C1142  1  0.13482000  0.21536000  0.99848000  1.0 0.2202187013
C  C1143  1  0.12529000  0.11606000  0.89667000  1.0 0.2805857536
C  C1144  1  0.04887000  0.17334000  0.87083000  1.0 0.2805857536
C  C1145  1  0.41053000  0.45772000  0.27249000  1.0 0.5697969047
C  C1146  1  0.45830000  0.40900000  0.27290000  1.0 0.5786961199
C  C1147  1  0.39086000  0.27240000  0.33826000  1.0 0.5491832924
C  C1148  1  0.55718000  0.43270000  0.26898000  1.0 -0.1400545277
C  C1149  1  0.52285000  0.40882000  0.23755000  1.0 -0.0594045132
C  C1150  1  0.49125000  0.40173000  0.24010000  1.0 -0.1066595837
C  C1151  1  0.49402000  0.41853000  0.27409000  1.0 -0.0286045992
C  C1152  1  0.52835000  0.44241000  0.30552000  1.0 -0.1497997291
C  C1153  1  0.55994000  0.44950000  0.30298000  1.0 0.0500818461
C  C1154  1  0.51730000  0.39051000  0.20221000  1.0 0.5491832924
C  C1155  1  0.59667000  0.47469000  0.33664000  1.0 -0.003553914
C  C1156  1  0.62043000  0.46349000  0.34722000  1.0 -0.0407305662
C  C1157  1  0.60149000  0.50792000  0.35483000  1.0 0.0500818461
C  C1158  1  0.61337000  0.46692000  0.36713000  1.0 0.0822339581
C  C1159  1  0.61770000  0.50877000  0.34497000  1.0 0.018651283
C  C1160  1  0.38280000  0.27795000  0.24513000  1.0 -0.1400545277
C  C1161  1  0.37691000  0.24525000  0.24492000  1.0 0.089401739
C  C1162  1  0.37627000  0.24150000  0.27445000  1.0 -0.1400545277
C  C1163  1  0.38152000  0.27046000  0.30418000  1.0 -0.0773466312
C  C1164  1  0.38741000  0.30318000  0.30439000  1.0 -0.097147461
C  C1165  1  0.38805000  0.30692000  0.27487000  1.0 -0.0221237334
C  C1166  1  0.37998000  0.33473000  0.26879000  1.0 0.5697969047
C  C1167  1  0.37638000  0.21642000  0.21578000  1.0 0.0076524367
C  C1168  1  0.40228000  0.20484000  0.22472000  1.0 -0.0710923863
C  C1169  1  0.35042000  0.17925000  0.19855000  1.0 0.0500818461
C  C1170  1  0.35105000  0.19935000  0.17912000  1.0 0.0586255876
C  C1171  1  0.40256000  0.22467000  0.20477000  1.0 -0.0594045132
C  C1172  1  0.41200000  0.52450000  0.23550000  1.0 0.018651283
C  C1173  1  0.41762000  0.49273000  0.27099000  1.0 0.0033744084
C  C1174  1  0.43440000  0.55790000  0.26730000  1.0 -0.2782574761
C  C1175  1  0.44035000  0.52713000  0.30174000  1.0 -0.2304901092
C  C1176  1  0.39510000  0.51940000  0.19750000  1.0 0.5697969047
C  C1177  1  0.44950000  0.55930000  0.30040000  1.0 0.0586255876
C  C1178  1  0.40250000  0.49180000  0.23690000  1.0 -0.1066595837
C  C1179  1  0.45859000  0.45754000  0.13603000  1.0 -0.097147461
C  C1180  1  0.49371000  0.42577000  0.13676000  1.0 0.5636959083
C  C1181  1  0.49183000  0.45854000  0.14189000  1.0 -0.0407305662
C  C1182  1  0.48782000  0.52053000  0.14949000  1.0 -0.1400545277
C  C1183  1  0.45715000  0.48955000  0.14080000  1.0 -0.0710923863
C  C1184  1  0.42537000  0.49117000  0.13836000  1.0 0.5491832924
C  C1185  1  0.52060000  0.52071000  0.15439000  1.0 0.0586255876
C  C1186  1  0.52086000  0.48767000  0.14601000  1.0 -0.1187212648
C  C1187  1  0.47372000  0.59576000  0.33592000  1.0 0.069381688
C  C1188  1  0.50710000  0.62750000  0.34220000  1.0 -0.0594045132
C  C1189  1  0.50473000  0.59940000  0.36433000  1.0 0.1708097757
C  C1190  1  0.46949000  0.62419000  0.34100000  1.0 -0.0710923863
C  C1191  1  0.47050000  0.60240000  0.36510000  1.0 0.089401739
C  C1192  1  0.54915000  0.54919000  0.15436000  1.0 0.018651283
C  C1193  1  0.56714000  0.58630000  0.18020000  1.0 -0.0286045992
C  C1194  1  0.58625000  0.56704000  0.18055000  1.0 0.0405704229
C  C1195  1  0.56038000  0.54133000  0.12855000  1.0 -0.0286045992
C  C1196  1  0.54089000  0.56022000  0.12827000  1.0 -0.0407305662
C  C1197  1  0.45231000  0.66687000  0.33942000  1.0 0.305928302
C  C1198  1  0.43112000  0.68315000  0.32565000  1.0 0.069381688
C  C1199  1  0.41755000  0.67272000  0.28851000  1.0 -0.1187212648
C  C1200  1  0.39680000  0.68601000  0.27293000  1.0 -0.0407305662
C  C1201  1  0.41979000  0.70408000  0.34527000  1.0 -0.1400545277
C  C1202  1  0.38536000  0.70611000  0.29273000  1.0 -0.0221237334
C  C1203  1  0.39747000  0.71600000  0.32903000  1.0 -0.0594045132
C  C1204  1  0.41744000  0.77993000  0.35851000  1.0 0.2615700247
C  C1205  1  0.40115000  0.71150000  0.26883000  1.0 0.0405704229
C  C1206  1  0.40194000  0.74087000  0.29385000  1.0 -0.2304901092
C  C1207  1  0.41551000  0.74932000  0.33027000  1.0 -0.0137260842
C  C1208  1  0.42827000  0.72839000  0.34166000  1.0 -0.0710923863
C  C1209  1  0.42748000  0.69902000  0.31664000  1.0 0.0033744084
C  C1210  1  0.41391000  0.69057000  0.28022000  1.0 -0.0594045132
C  C1211  1  0.44093000  0.67670000  0.32871000  1.0 0.1987753132
C  C1212  1  0.38657000  0.70241000  0.23008000  1.0 0.0586255876
C  C1213  1  0.38707000  0.73904000  0.35075000  1.0 0.0822339581
C  C1214  1  0.38700000  0.67921000  0.23543000  1.0 0.2341807169
C  C1215  1  0.56395000  0.63543000  0.38784000  1.0 -0.1789925533
C  C1216  1  0.53906000  0.59883000  0.37361000  1.0 -0.1187212648
C  C1217  1  0.50021000  0.58707000  0.36222000  1.0 0.1789682263
C  C1218  1  0.60159000  0.55852000  0.37743000  1.0 0.2805857536
C  C1219  1  0.58757000  0.58443000  0.38094000  1.0 0.0586255876
C  C1220  1  0.61245000  0.62103000  0.39516000  1.0 -0.1497997291
C  C1221  1  0.60064000  0.64653000  0.39861000  1.0 -0.1400545277
C  C1222  1  0.55088000  0.57333000  0.37017000  1.0 -0.2228164356
C  C1223  1  0.62700000  0.68530000  0.41376000  1.0 0.5203534123
C  C1224  1  0.25820000  0.20065000  0.11501000  1.0 -0.2997391801
C  C1225  1  0.22951000  0.20077000  0.09012000  1.0 0.1211127901
C  C1226  1  0.21524000  0.17950000  0.05264000  1.0 -0.0594045132
C  C1227  1  0.22965000  0.15811000  0.04004000  1.0 0.0500818461
C  C1228  1  0.25833000  0.15798000  0.06493000  1.0 -0.1280884867
C  C1229  1  0.27261000  0.17926000  0.10243000  1.0 -0.0286045992
C  C1230  1  0.21688000  0.13634000  0.00152000  1.0 0.2202187013
C  C1231  1  0.21939000  0.22862000  0.10333000  1.0 0.2805857536
C  C1232  1  0.30251000  0.17804000  0.12917000  1.0 0.2805857536
C  C1233  1  0.81477000  0.54228000  0.95281000  1.0 0.5697969047
C  C1234  1  0.86390000  0.59100000  0.04930000  1.0 0.5786961199
C  C1235  1  0.06586000  0.72760000  0.11846000  1.0 0.5491832924
C  C1236  1  0.83628000  0.56730000  0.12448000  1.0 -0.1400545277
C  C1237  1  0.82873000  0.59118000  0.11403000  1.0 -0.0594045132
C  C1238  1  0.83837000  0.59827000  0.08952000  1.0 -0.1066595837
C  C1239  1  0.85556000  0.58147000  0.07549000  1.0 -0.0286045992
C  C1240  1  0.86311000  0.55759000  0.08594000  1.0 -0.1497997291
C  C1241  1  0.85348000  0.55050000  0.11044000  1.0 0.0500818461
C  C1242  1  0.81170000  0.60949000  0.12679000  1.0 0.5491832924
C  C1243  1  0.86195000  0.52531000  0.12198000  1.0 -0.003553914
C  C1244  1  0.88373000  0.53651000  0.15694000  1.0 -0.0407305662
C  C1245  1  0.84691000  0.49208000  0.09357000  1.0 0.0500818461
C  C1246  1  0.90021000  0.53308000  0.14645000  1.0 0.0822339581
C  C1247  1  0.83620000  0.49123000  0.10893000  1.0 0.018651283
C  C1248  1  0.96718000  0.72205000  0.10485000  1.0 -0.1400545277
C  C1249  1  0.99967000  0.75475000  0.13166000  1.0 0.089401739
C  C1250  1  0.03295000  0.75850000  0.13477000  1.0 -0.1400545277
C  C1251  1  0.03372000  0.72954000  0.11106000  1.0 -0.0773466312
C  C1252  1  0.00121000  0.69682000  0.08423000  1.0 -0.097147461
C  C1253  1  0.96795000  0.69308000  0.08113000  1.0 -0.0221237334
C  C1254  1  0.93406000  0.66527000  0.04525000  1.0 0.5697969047
C  C1255  1  0.99936000  0.78358000  0.15996000  1.0 0.0076524367
C  C1256  1  0.01988000  0.79516000  0.19744000  1.0 -0.0710923863
C  C1257  1  0.01930000  0.82075000  0.17117000  1.0 0.0500818461
C  C1258  1  0.97977000  0.80065000  0.15170000  1.0 0.0586255876
C  C1259  1  0.98010000  0.77533000  0.17789000  1.0 -0.0594045132
C  C1260  1  0.71100000  0.47550000  0.88750000  1.0 0.018651283
C  C1261  1  0.77826000  0.50727000  0.92489000  1.0 0.0033744084
C  C1262  1  0.70940000  0.44210000  0.87650000  1.0 -0.2782574761
C  C1263  1  0.77461000  0.47287000  0.91322000  1.0 -0.2304901092
C  C1264  1  0.67810000  0.48060000  0.87570000  1.0 0.5697969047
C  C1265  1  0.74110000  0.44070000  0.89020000  1.0 0.0586255876
C  C1266  1  0.74510000  0.50820000  0.91070000  1.0 -0.1066595837
C  C1267  1  0.67849000  0.54246000  0.00105000  1.0 -0.097147461
C  C1268  1  0.71099000  0.57423000  0.06794000  1.0 0.5636959083
C  C1269  1  0.68335000  0.54146000  0.03329000  1.0 -0.0407305662
C  C1270  1  0.62896000  0.47947000  0.96729000  1.0 -0.1400545277
C  C1271  1  0.65125000  0.51045000  0.96760000  1.0 -0.0710923863
C  C1272  1  0.64719000  0.50883000  0.93420000  1.0 0.5491832924
C  C1273  1  0.63368000  0.47929000  0.99989000  1.0 0.0586255876
C  C1274  1  0.65834000  0.51233000  0.03319000  1.0 -0.1187212648
C  C1275  1  0.74016000  0.40424000  0.87796000  1.0 0.069381688
C  C1276  1  0.71470000  0.37250000  0.87960000  1.0 -0.0594045132
C  C1277  1  0.76493000  0.40060000  0.90533000  1.0 0.1789682263
C  C1278  1  0.71681000  0.37581000  0.84530000  1.0 -0.0710923863
C  C1279  1  0.76270000  0.39760000  0.86810000  1.0 0.089401739
C  C1280  1  0.60517000  0.45081000  0.99996000  1.0 0.018651283
C  C1281  1  0.59390000  0.41370000  0.98084000  1.0 -0.0286045992
C  C1282  1  0.61351000  0.43296000  0.01921000  1.0 0.0405704229
C  C1283  1  0.58722000  0.45867000  0.01905000  1.0 -0.0286045992
C  C1284  1  0.56805000  0.43978000  0.98067000  1.0 -0.0407305662
C  C1285  1  0.67255000  0.33313000  0.78544000  1.0 0.305928302
C  C1286  1  0.64250000  0.31685000  0.74797000  1.0 0.069381688
C  C1287  1  0.61579000  0.32728000  0.74483000  1.0 -0.1187212648
C  C1288  1  0.58692000  0.31399000  0.71079000  1.0 -0.0407305662
C  C1289  1  0.64119000  0.29592000  0.71571000  1.0 -0.1400545277
C  C1290  1  0.58662000  0.29389000  0.67925000  1.0 -0.0137260842
C  C1291  1  0.61303000  0.28400000  0.68147000  1.0 -0.0594045132
C  C1292  1  0.57858000  0.22007000  0.63751000  1.0 0.2615700247
C  C1293  1  0.55733000  0.28850000  0.68965000  1.0 0.0405704229
C  C1294  1  0.55298000  0.25913000  0.66107000  1.0 -0.2304901092
C  C1295  1  0.58095000  0.25068000  0.66619000  1.0 -0.0137260842
C  C1296  1  0.61327000  0.27161000  0.69988000  1.0 -0.0710923863
C  C1297  1  0.61762000  0.30098000  0.72846000  1.0 0.0076524367
C  C1298  1  0.58965000  0.30943000  0.72334000  1.0 -0.0594045132
C  C1299  1  0.65201000  0.32330000  0.76423000  1.0 0.1987753132
C  C1300  1  0.52767000  0.29759000  0.68416000  1.0 0.0586255876
C  C1301  1  0.61171000  0.26096000  0.64803000  1.0 0.089401739
C  C1302  1  0.55622000  0.32079000  0.70779000  1.0 0.2341807169
C  C1303  1  0.75241000  0.36457000  0.92852000  1.0 -0.1789925533
C  C1304  1  0.77478000  0.40117000  0.94023000  1.0 -0.1187212648
C  C1305  1  0.77515000  0.41293000  0.91314000  1.0 0.1789682263
C  C1306  1  0.81891000  0.44148000  0.04307000  1.0 0.2805857536
C  C1307  1  0.79651000  0.41557000  0.00314000  1.0 0.0586255876
C  C1308  1  0.77413000  0.37897000  0.99142000  1.0 -0.1497997291
C  C1309  1  0.75208000  0.35347000  0.95411000  1.0 -0.1400545277
C  C1310  1  0.79684000  0.42667000  0.97755000  1.0 -0.2228164356
C  C1311  1  0.72846000  0.31470000  0.94170000  1.0 0.5203534123
C  C1312  1  0.91436000  0.79935000  0.05755000  1.0 -0.2997391801
C  C1313  1  0.88935000  0.79923000  0.02874000  1.0 0.1211127901
C  C1314  1  0.87314000  0.82050000  0.03574000  1.0 -0.0504267388
C  C1315  1  0.88193000  0.84189000  0.07154000  1.0 0.0500818461
C  C1316  1  0.90695000  0.84202000  0.10035000  1.0 -0.1280884867
C  C1317  1  0.92317000  0.82074000  0.09335000  1.0 -0.0286045992
C  C1318  1  0.86518000  0.86366000  0.08054000  1.0 0.2202187013
C  C1319  1  0.87471000  0.77138000  0.99077000  1.0 0.2805857536
C  C1320  1  0.95113000  0.82196000  0.12447000  1.0 0.2805857536
C  C1321  1  0.58947000  0.86196000  0.04719000  1.0 0.5697969047
C  C1322  1  0.54170000  0.81460000  0.95070000  1.0 0.5786961199
C  C1323  1  0.60914000  0.94740000  0.88154000  1.0 0.5491832924
C  C1324  1  0.44282000  0.71180000  0.87552000  1.0 -0.1400545277
C  C1325  1  0.47715000  0.71470000  0.88597000  1.0 -0.0594045132
C  C1326  1  0.50875000  0.74885000  0.91048000  1.0 -0.1066595837
C  C1327  1  0.50598000  0.78007000  0.92451000  1.0 -0.0286045992
C  C1328  1  0.47165000  0.77717000  0.91406000  1.0 -0.1497997291
C  C1329  1  0.44006000  0.74304000  0.88956000  1.0 0.0500818461
C  C1330  1  0.48270000  0.68491000  0.87321000  1.0 0.5491832924
C  C1331  1  0.40333000  0.73997000  0.87802000  1.0 -0.003553914
C  C1332  1  0.37957000  0.72679000  0.84306000  1.0 -0.0407305662
C  C1333  1  0.39851000  0.75334000  0.90643000  1.0 0.0500818461
C  C1334  1  0.38663000  0.75376000  0.85355000  1.0 0.0822339581
C  C1335  1  0.38230000  0.72727000  0.89107000  1.0 0.018651283
C  C1336  1  0.61720000  0.86233000  0.89515000  1.0 -0.1400545277
C  C1337  1  0.62309000  0.86801000  0.86834000  1.0 0.089401739
C  C1338  1  0.62373000  0.89818000  0.86523000  1.0 -0.1400545277
C  C1339  1  0.61848000  0.92266000  0.88894000  1.0 -0.0773466312
C  C1340  1  0.61259000  0.91698000  0.91577000  1.0 -0.097147461
C  C1341  1  0.61195000  0.88682000  0.91887000  1.0 -0.0221237334
C  C1342  1  0.62002000  0.88881000  0.95475000  1.0 0.5697969047
C  C1343  1  0.62362000  0.83940000  0.84004000  1.0 0.0076524367
C  C1344  1  0.59772000  0.82244000  0.80256000  1.0 -0.0710923863
C  C1345  1  0.64958000  0.84813000  0.82883000  1.0 0.0500818461
C  C1346  1  0.64895000  0.82807000  0.84830000  1.0 0.0586255876
C  C1347  1  0.59744000  0.80221000  0.82211000  1.0 -0.0594045132
C  C1348  1  0.58800000  0.82350000  0.11250000  1.0 0.0076524367
C  C1349  1  0.58238000  0.85337000  0.07511000  1.0 0.0033744084
C  C1350  1  0.56560000  0.83290000  0.12350000  1.0 -0.2782574761
C  C1351  1  0.55965000  0.86139000  0.08678000  1.0 -0.2304901092
C  C1352  1  0.60490000  0.80240000  0.12430000  1.0 0.5697969047
C  C1353  1  0.55050000  0.85090000  0.10980000  1.0 0.0586255876
C  C1354  1  0.59750000  0.83440000  0.08930000  1.0 -0.1066595837
C  C1355  1  0.54141000  0.67744000  0.99895000  1.0 -0.097147461
C  C1356  1  0.50629000  0.64305000  0.93206000  1.0 0.5636959083
C  C1357  1  0.50817000  0.65006000  0.96671000  1.0 -0.0407305662
C  C1358  1  0.51218000  0.66167000  0.03271000  1.0 -0.1400545277
C  C1359  1  0.54285000  0.68365000  0.03240000  1.0 -0.0710923863
C  C1360  1  0.57463000  0.71299000  0.06580000  1.0 0.5491832924
C  C1361  1  0.47940000  0.63379000  0.00011000  1.0 0.0586255876
C  C1362  1  0.47914000  0.62515000  0.96681000  1.0 -0.1280884867
C  C1363  1  0.52628000  0.86220000  0.12204000  1.0 0.069381688
C  C1364  1  0.49290000  0.83510000  0.12040000  1.0 -0.0594045132
C  C1365  1  0.49527000  0.85960000  0.09467000  1.0 0.1789682263
C  C1366  1  0.53051000  0.87151000  0.15470000  1.0 -0.0710923863
C  C1367  1  0.52950000  0.89460000  0.13190000  1.0 0.089401739
C  C1368  1  0.45085000  0.60521000  0.00004000  1.0 0.018651283
C  C1369  1  0.43286000  0.61306000  0.01916000  1.0 -0.0286045992
C  C1370  1  0.41375000  0.59430000  0.98079000  1.0 0.0405704229
C  C1371  1  0.43962000  0.56817000  0.98095000  1.0 -0.0286045992
C  C1372  1  0.45911000  0.58738000  0.01933000  1.0 -0.0407305662
C  C1373  1  0.54769000  0.88711000  0.21456000  1.0 0.305928302
C  C1374  1  0.56888000  0.89453000  0.25203000  1.0 0.069381688
C  C1375  1  0.58245000  0.87096000  0.25517000  1.0 -0.1187212648
C  C1376  1  0.60320000  0.87613000  0.28921000  1.0 -0.0407305662
C  C1377  1  0.58021000  0.92548000  0.28429000  1.0 -0.1400545277
C  C1378  1  0.61464000  0.90737000  0.32075000  1.0 -0.0221237334
C  C1379  1  0.60253000  0.93156000  0.31853000  1.0 -0.0594045132
C  C1380  1  0.58256000  0.94107000  0.36249000  1.0 0.2615700247
C  C1381  1  0.59885000  0.86768000  0.31035000  1.0 0.0405704229
C  C1382  1  0.59806000  0.89191000  0.33893000  1.0 -0.2304901092
C  C1383  1  0.58449000  0.91476000  0.33381000  1.0 -0.0137260842
C  C1384  1  0.57173000  0.91339000  0.30012000  1.0 -0.0710923863
C  C1385  1  0.57252000  0.88916000  0.27154000  1.0 0.0076524367
C  C1386  1  0.58609000  0.86631000  0.27666000  1.0 -0.0594045132
C  C1387  1  0.55907000  0.88778000  0.23577000  1.0 0.1987753132
C  C1388  1  0.61343000  0.84351000  0.31584000  1.0 0.0586255876
C  C1389  1  0.61293000  0.96368000  0.35197000  1.0 0.089401739
C  C1390  1  0.61300000  0.84843000  0.29221000  1.0 0.2341807169
C  C1391  1  0.43605000  0.82389000  0.07148000  1.0 -0.1789925533
C  C1392  1  0.46094000  0.83455000  0.05977000  1.0 -0.1187212648
C  C1393  1  0.49979000  0.86201000  0.08686000  1.0 0.1789682263
C  C1394  1  0.39841000  0.77584000  0.95693000  1.0 0.2805857536
C  C1395  1  0.41243000  0.79337000  0.99686000  1.0 0.0586255876
C  C1396  1  0.38755000  0.78271000  0.00858000  1.0 -0.1497997291
C  C1397  1  0.39936000  0.79797000  0.04589000  1.0 -0.1400545277
C  C1398  1  0.44912000  0.81929000  0.02245000  1.0 -0.2228164356
C  C1399  1  0.37300000  0.78676000  0.05830000  1.0 0.5203534123
C  C1400  1  0.74180000  0.85681000  0.94245000  1.0 -0.2997391801
C  C1401  1  0.77049000  0.86061000  0.97126000  1.0 0.1211127901
C  C1402  1  0.78476000  0.83740000  0.96426000  1.0 -0.0594045132
C  C1403  1  0.77035000  0.81039000  0.92846000  1.0 0.0500818461
C  C1404  1  0.74167000  0.80660000  0.89965000  1.0 -0.1280884867
C  C1405  1  0.72739000  0.82982000  0.90665000  1.0 -0.0286045992
C  C1406  1  0.78312000  0.78464000  0.91946000  1.0 0.2202187013
C  C1407  1  0.78061000  0.88394000  0.00923000  1.0 0.2805857536
C  C1408  1  0.69749000  0.82666000  0.87553000  1.0 0.2902703984
C  C1409  1  0.86196000  0.04719000  0.58947000  1.0 0.5697969047
C  C1410  1  0.81460000  0.95070000  0.54170000  1.0 0.5786961199
C  C1411  1  0.94740000  0.88154000  0.60914000  1.0 0.5491832924
C  C1412  1  0.71180000  0.87552000  0.44282000  1.0 -0.1400545277
C  C1413  1  0.71470000  0.88597000  0.47715000  1.0 -0.0594045132
C  C1414  1  0.74885000  0.91048000  0.50875000  1.0 -0.1066595837
C  C1415  1  0.78007000  0.92451000  0.50598000  1.0 -0.0286045992
C  C1416  1  0.77717000  0.91406000  0.47165000  1.0 -0.1497997291
C  C1417  1  0.74304000  0.88956000  0.44006000  1.0 0.0500818461
C  C1418  1  0.68491000  0.87321000  0.48270000  1.0 0.5491832924
C  C1419  1  0.73997000  0.87802000  0.40333000  1.0 -0.003553914
C  C1420  1  0.72679000  0.84306000  0.37957000  1.0 -0.0407305662
C  C1421  1  0.75334000  0.90643000  0.39851000  1.0 0.0500818461
C  C1422  1  0.75376000  0.85355000  0.38663000  1.0 0.0822339581
C  C1423  1  0.72727000  0.89107000  0.38230000  1.0 0.018651283
C  C1424  1  0.86233000  0.89515000  0.61720000  1.0 -0.1400545277
C  C1425  1  0.86801000  0.86834000  0.62309000  1.0 0.089401739
C  C1426  1  0.89818000  0.86523000  0.62373000  1.0 -0.1400545277
C  C1427  1  0.92266000  0.88894000  0.61848000  1.0 -0.0773466312
C  C1428  1  0.91698000  0.91577000  0.61259000  1.0 -0.097147461
C  C1429  1  0.88682000  0.91887000  0.61195000  1.0 -0.0221237334
C  C1430  1  0.88881000  0.95475000  0.62002000  1.0 0.5697969047
C  C1431  1  0.83940000  0.84004000  0.62362000  1.0 0.0076524367
C  C1432  1  0.82244000  0.80256000  0.59772000  1.0 -0.0710923863
C  C1433  1  0.84813000  0.82883000  0.64958000  1.0 0.0500818461
C  C1434  1  0.82807000  0.84830000  0.64895000  1.0 0.0586255876
C  C1435  1  0.80221000  0.82211000  0.59744000  1.0 -0.0594045132
C  C1436  1  0.82350000  0.11250000  0.58800000  1.0 0.018651283
C  C1437  1  0.85337000  0.07511000  0.58238000  1.0 0.0033744084
C  C1438  1  0.83290000  0.12350000  0.56560000  1.0 -0.2782574761
C  C1439  1  0.86139000  0.08678000  0.55965000  1.0 -0.2304901092
C  C1440  1  0.80240000  0.12430000  0.60490000  1.0 0.5697969047
C  C1441  1  0.85090000  0.10980000  0.55050000  1.0 0.0586255876
C  C1442  1  0.83440000  0.08930000  0.59750000  1.0 -0.1066595837
C  C1443  1  0.67744000  0.99895000  0.54141000  1.0 -0.097147461
C  C1444  1  0.64305000  0.93206000  0.50629000  1.0 0.5636959083
C  C1445  1  0.65006000  0.96671000  0.50817000  1.0 -0.0407305662
C  C1446  1  0.66167000  0.03271000  0.51218000  1.0 -0.1400545277
C  C1447  1  0.68365000  0.03240000  0.54285000  1.0 -0.0710923863
C  C1448  1  0.71299000  0.06580000  0.57463000  1.0 0.5491832924
C  C1449  1  0.63379000  0.00011000  0.47940000  1.0 0.0586255876
C  C1450  1  0.62515000  0.96681000  0.47914000  1.0 -0.1280884867
C  C1451  1  0.86220000  0.12204000  0.52628000  1.0 0.069381688
C  C1452  1  0.83510000  0.12040000  0.49290000  1.0 -0.0594045132
C  C1453  1  0.85960000  0.09467000  0.49527000  1.0 0.1789682263
C  C1454  1  0.87151000  0.15470000  0.53051000  1.0 -0.0710923863
C  C1455  1  0.89460000  0.13190000  0.52950000  1.0 0.089401739
C  C1456  1  0.60521000  0.00004000  0.45085000  1.0 0.018651283
C  C1457  1  0.61306000  0.01916000  0.43286000  1.0 -0.0286045992
C  C1458  1  0.59430000  0.98079000  0.41375000  1.0 0.0405704229
C  C1459  1  0.56817000  0.98095000  0.43962000  1.0 -0.0286045992
C  C1460  1  0.58738000  0.01933000  0.45911000  1.0 -0.0407305662
C  C1461  1  0.88711000  0.21456000  0.54769000  1.0 0.305928302
C  C1462  1  0.89453000  0.25203000  0.56888000  1.0 0.069381688
C  C1463  1  0.87096000  0.25517000  0.58245000  1.0 -0.1187212648
C  C1464  1  0.87613000  0.28921000  0.60320000  1.0 -0.0407305662
C  C1465  1  0.92548000  0.28429000  0.58021000  1.0 -0.1400545277
C  C1466  1  0.90737000  0.32075000  0.61464000  1.0 -0.0137260842
C  C1467  1  0.93156000  0.31853000  0.60253000  1.0 -0.0594045132
C  C1468  1  0.94107000  0.36249000  0.58256000  1.0 0.2615700247
C  C1469  1  0.86768000  0.31035000  0.59885000  1.0 0.0405704229
C  C1470  1  0.89191000  0.33893000  0.59806000  1.0 -0.2304901092
C  C1471  1  0.91476000  0.33381000  0.58449000  1.0 -0.0137260842
C  C1472  1  0.91339000  0.30012000  0.57173000  1.0 -0.0710923863
C  C1473  1  0.88916000  0.27154000  0.57252000  1.0 0.0076524367
C  C1474  1  0.86631000  0.27666000  0.58609000  1.0 -0.0594045132
C  C1475  1  0.88778000  0.23577000  0.55907000  1.0 0.1987753132
C  C1476  1  0.84351000  0.31584000  0.61343000  1.0 0.0586255876
C  C1477  1  0.96368000  0.35197000  0.61293000  1.0 0.089401739
C  C1478  1  0.84843000  0.29221000  0.61300000  1.0 0.2341807169
C  C1479  1  0.82389000  0.07148000  0.43605000  1.0 -0.1789925533
C  C1480  1  0.83455000  0.05977000  0.46094000  1.0 -0.1187212648
C  C1481  1  0.86201000  0.08686000  0.49979000  1.0 0.1789682263
C  C1482  1  0.77584000  0.95693000  0.39841000  1.0 0.2805857536
C  C1483  1  0.79337000  0.99686000  0.41243000  1.0 0.0586255876
C  C1484  1  0.78271000  0.00858000  0.38755000  1.0 -0.1497997291
C  C1485  1  0.79797000  0.04589000  0.39936000  1.0 -0.1400545277
C  C1486  1  0.81929000  0.02245000  0.44912000  1.0 -0.2228164356
C  C1487  1  0.78676000  0.05830000  0.37300000  1.0 0.5203534123
C  C1488  1  0.85681000  0.94245000  0.74180000  1.0 -0.2997391801
C  C1489  1  0.86061000  0.97126000  0.77049000  1.0 0.1211127901
C  C1490  1  0.83740000  0.96426000  0.78476000  1.0 -0.0504267388
C  C1491  1  0.81039000  0.92846000  0.77035000  1.0 0.0500818461
C  C1492  1  0.80660000  0.89965000  0.74167000  1.0 -0.1280884867
C  C1493  1  0.82982000  0.90665000  0.72739000  1.0 -0.0286045992
C  C1494  1  0.78464000  0.91946000  0.78312000  1.0 0.2202187013
C  C1495  1  0.88394000  0.00923000  0.78061000  1.0 0.2805857536
C  C1496  1  0.82666000  0.87553000  0.69749000  1.0 0.2805857536
C  C1497  1  0.54228000  0.95281000  0.81477000  1.0 0.5697969047
C  C1498  1  0.59100000  0.04930000  0.86390000  1.0 0.5786961199
C  C1499  1  0.72760000  0.11846000  0.06586000  1.0 0.5491832924
C  C1500  1  0.56730000  0.12448000  0.83628000  1.0 -0.1400545277
C  C1501  1  0.59118000  0.11403000  0.82873000  1.0 -0.0594045132
C  C1502  1  0.59827000  0.08952000  0.83837000  1.0 -0.1066595837
C  C1503  1  0.58147000  0.07549000  0.85556000  1.0 -0.0286045992
C  C1504  1  0.55759000  0.08594000  0.86311000  1.0 -0.1497997291
C  C1505  1  0.55050000  0.11044000  0.85348000  1.0 0.0500818461
C  C1506  1  0.60949000  0.12679000  0.81170000  1.0 0.5491832924
C  C1507  1  0.52531000  0.12198000  0.86195000  1.0 -0.003553914
C  C1508  1  0.53651000  0.15694000  0.88373000  1.0 -0.0407305662
C  C1509  1  0.49208000  0.09357000  0.84691000  1.0 0.0500818461
C  C1510  1  0.53308000  0.14645000  0.90021000  1.0 0.0822339581
C  C1511  1  0.49123000  0.10893000  0.83620000  1.0 0.018651283
C  C1512  1  0.72205000  0.10485000  0.96718000  1.0 -0.1400545277
C  C1513  1  0.75475000  0.13166000  0.99967000  1.0 0.089401739
C  C1514  1  0.75850000  0.13477000  0.03295000  1.0 -0.1400545277
C  C1515  1  0.72954000  0.11106000  0.03372000  1.0 -0.0773466312
C  C1516  1  0.69682000  0.08423000  0.00121000  1.0 -0.097147461
C  C1517  1  0.69308000  0.08113000  0.96795000  1.0 -0.0221237334
C  C1518  1  0.66527000  0.04525000  0.93406000  1.0 0.5697969047
C  C1519  1  0.78358000  0.15996000  0.99936000  1.0 0.0076524367
C  C1520  1  0.79516000  0.19744000  0.01988000  1.0 -0.0710923863
C  C1521  1  0.82075000  0.17117000  0.01930000  1.0 0.0500818461
C  C1522  1  0.80065000  0.15170000  0.97977000  1.0 0.0586255876
C  C1523  1  0.77533000  0.17789000  0.98010000  1.0 -0.0594045132
C  C1524  1  0.47550000  0.88750000  0.71100000  1.0 0.0076524367
C  C1525  1  0.50727000  0.92489000  0.77826000  1.0 0.0033744084
C  C1526  1  0.44210000  0.87650000  0.70940000  1.0 -0.2782574761
C  C1527  1  0.47287000  0.91322000  0.77461000  1.0 -0.2304901092
C  C1528  1  0.48060000  0.87570000  0.67810000  1.0 0.5697969047
C  C1529  1  0.44070000  0.89020000  0.74110000  1.0 0.0586255876
C  C1530  1  0.50820000  0.91070000  0.74510000  1.0 -0.1066595837
C  C1531  1  0.54246000  0.00105000  0.67849000  1.0 -0.097147461
C  C1532  1  0.57423000  0.06794000  0.71099000  1.0 0.5636959083
C  C1533  1  0.54146000  0.03329000  0.68335000  1.0 -0.0407305662
C  C1534  1  0.47947000  0.96729000  0.62896000  1.0 -0.1400545277
C  C1535  1  0.51045000  0.96760000  0.65125000  1.0 -0.0710923863
C  C1536  1  0.50883000  0.93420000  0.64719000  1.0 0.5491832924
C  C1537  1  0.47929000  0.99989000  0.63368000  1.0 0.0586255876
C  C1538  1  0.51233000  0.03319000  0.65834000  1.0 -0.1280884867
C  C1539  1  0.40424000  0.87796000  0.74016000  1.0 0.069381688
C  C1540  1  0.37250000  0.87960000  0.71470000  1.0 -0.0594045132
C  C1541  1  0.40060000  0.90533000  0.76493000  1.0 0.1789682263
C  C1542  1  0.37581000  0.84530000  0.71681000  1.0 -0.0710923863
C  C1543  1  0.39760000  0.86810000  0.76270000  1.0 0.089401739
C  C1544  1  0.45081000  0.99996000  0.60517000  1.0 0.018651283
C  C1545  1  0.41370000  0.98084000  0.59390000  1.0 -0.0286045992
C  C1546  1  0.43296000  0.01921000  0.61351000  1.0 0.0405704229
C  C1547  1  0.45867000  0.01905000  0.58722000  1.0 -0.0286045992
C  C1548  1  0.43978000  0.98067000  0.56805000  1.0 -0.0407305662
C  C1549  1  0.33313000  0.78544000  0.67255000  1.0 0.305928302
C  C1550  1  0.31685000  0.74797000  0.64250000  1.0 0.069381688
C  C1551  1  0.32728000  0.74483000  0.61579000  1.0 -0.1187212648
C  C1552  1  0.31399000  0.71079000  0.58692000  1.0 -0.0407305662
C  C1553  1  0.29592000  0.71571000  0.64119000  1.0 -0.1400545277
C  C1554  1  0.29389000  0.67925000  0.58662000  1.0 -0.0221237334
C  C1555  1  0.28400000  0.68147000  0.61303000  1.0 -0.0594045132
C  C1556  1  0.22007000  0.63751000  0.57858000  1.0 0.2615700247
C  C1557  1  0.28850000  0.68965000  0.55733000  1.0 0.0405704229
C  C1558  1  0.25913000  0.66107000  0.55298000  1.0 -0.2304901092
C  C1559  1  0.25068000  0.66619000  0.58095000  1.0 -0.0137260842
C  C1560  1  0.27161000  0.69988000  0.61327000  1.0 -0.0710923863
C  C1561  1  0.30098000  0.72846000  0.61762000  1.0 0.0033744084
C  C1562  1  0.30943000  0.72334000  0.58965000  1.0 -0.0594045132
C  C1563  1  0.32330000  0.76423000  0.65201000  1.0 0.1987753132
C  C1564  1  0.29759000  0.68416000  0.52767000  1.0 0.0586255876
C  C1565  1  0.26096000  0.64803000  0.61171000  1.0 0.0822339581
C  C1566  1  0.32079000  0.70779000  0.55622000  1.0 0.2341807169
C  C1567  1  0.36457000  0.92852000  0.75241000  1.0 -0.1789925533
C  C1568  1  0.40117000  0.94023000  0.77478000  1.0 -0.1187212648
C  C1569  1  0.41293000  0.91314000  0.77515000  1.0 0.1789682263
C  C1570  1  0.44148000  0.04307000  0.81891000  1.0 0.2805857536
C  C1571  1  0.41557000  0.00314000  0.79651000  1.0 0.0586255876
C  C1572  1  0.37897000  0.99142000  0.77413000  1.0 -0.1497997291
C  C1573  1  0.35347000  0.95411000  0.75208000  1.0 -0.1400545277
C  C1574  1  0.42667000  0.97755000  0.79684000  1.0 -0.2228164356
C  C1575  1  0.31470000  0.94170000  0.72846000  1.0 0.5203534123
C  C1576  1  0.79935000  0.05755000  0.91436000  1.0 -0.2997391801
C  C1577  1  0.79923000  0.02874000  0.88935000  1.0 0.1211127901
C  C1578  1  0.82050000  0.03574000  0.87314000  1.0 -0.0504267388
C  C1579  1  0.84189000  0.07154000  0.88193000  1.0 0.0500818461
C  C1580  1  0.84202000  0.10035000  0.90695000  1.0 -0.1280884867
C  C1581  1  0.82074000  0.09335000  0.92317000  1.0 -0.0221237334
C  C1582  1  0.86366000  0.08054000  0.86518000  1.0 0.2202187013
C  C1583  1  0.77138000  0.99077000  0.87471000  1.0 0.2805857536
C  C1584  1  0.82196000  0.12447000  0.95113000  1.0 0.2805857536
C  C1585  1  0.45772000  0.27249000  0.41053000  1.0 0.5697969047
C  C1586  1  0.40900000  0.27290000  0.45830000  1.0 0.5786961199
C  C1587  1  0.27240000  0.33826000  0.39086000  1.0 0.5491832924
C  C1588  1  0.43270000  0.26898000  0.55718000  1.0 -0.1400545277
C  C1589  1  0.40882000  0.23755000  0.52285000  1.0 -0.0594045132
C  C1590  1  0.40173000  0.24010000  0.49125000  1.0 -0.1066595837
C  C1591  1  0.41853000  0.27409000  0.49402000  1.0 -0.0286045992
C  C1592  1  0.44241000  0.30552000  0.52835000  1.0 -0.1497997291
C  C1593  1  0.44950000  0.30298000  0.55994000  1.0 0.0500818461
C  C1594  1  0.39051000  0.20221000  0.51730000  1.0 0.5491832924
C  C1595  1  0.47469000  0.33664000  0.59667000  1.0 -0.003553914
C  C1596  1  0.46349000  0.34722000  0.62043000  1.0 -0.0407305662
C  C1597  1  0.50792000  0.35483000  0.60149000  1.0 0.0500818461
C  C1598  1  0.46692000  0.36713000  0.61337000  1.0 0.0822339581
C  C1599  1  0.50877000  0.34497000  0.61770000  1.0 0.018651283
C  C1600  1  0.27795000  0.24513000  0.38280000  1.0 -0.1400545277
C  C1601  1  0.24525000  0.24492000  0.37691000  1.0 0.089401739
C  C1602  1  0.24150000  0.27445000  0.37627000  1.0 -0.1400545277
C  C1603  1  0.27046000  0.30418000  0.38152000  1.0 -0.0773466312
C  C1604  1  0.30318000  0.30439000  0.38741000  1.0 -0.097147461
C  C1605  1  0.30692000  0.27487000  0.38805000  1.0 -0.0221237334
C  C1606  1  0.33473000  0.26879000  0.37998000  1.0 0.5697969047
C  C1607  1  0.21642000  0.21578000  0.37638000  1.0 0.0076524367
C  C1608  1  0.20484000  0.22472000  0.40228000  1.0 -0.0710923863
C  C1609  1  0.17925000  0.19855000  0.35042000  1.0 0.0500818461
C  C1610  1  0.19935000  0.17912000  0.35105000  1.0 0.0586255876
C  C1611  1  0.22467000  0.20477000  0.40256000  1.0 -0.0594045132
C  C1612  1  0.52450000  0.23550000  0.41200000  1.0 0.018651283
C  C1613  1  0.49273000  0.27099000  0.41762000  1.0 0.0033744084
C  C1614  1  0.55790000  0.26730000  0.43440000  1.0 -0.2782574761
C  C1615  1  0.52713000  0.30174000  0.44035000  1.0 -0.2304901092
C  C1616  1  0.51940000  0.19750000  0.39510000  1.0 0.5697969047
C  C1617  1  0.55930000  0.30040000  0.44950000  1.0 0.0586255876
C  C1618  1  0.49180000  0.23690000  0.40250000  1.0 -0.1066595837
C  C1619  1  0.45754000  0.13603000  0.45859000  1.0 -0.097147461
C  C1620  1  0.42577000  0.13676000  0.49371000  1.0 0.5636959083
C  C1621  1  0.45854000  0.14189000  0.49183000  1.0 -0.0407305662
C  C1622  1  0.52053000  0.14949000  0.48782000  1.0 -0.1400545277
C  C1623  1  0.48955000  0.14080000  0.45715000  1.0 -0.0710923863
C  C1624  1  0.49117000  0.13836000  0.42537000  1.0 0.5491832924
C  C1625  1  0.52071000  0.15439000  0.52060000  1.0 0.0586255876
C  C1626  1  0.48767000  0.14601000  0.52086000  1.0 -0.1187212648
C  C1627  1  0.59576000  0.33592000  0.47372000  1.0 0.069381688
C  C1628  1  0.62750000  0.34220000  0.50710000  1.0 -0.0594045132
C  C1629  1  0.59940000  0.36433000  0.50473000  1.0 0.1789682263
C  C1630  1  0.62419000  0.34100000  0.46949000  1.0 -0.0710923863
C  C1631  1  0.60240000  0.36510000  0.47050000  1.0 0.089401739
C  C1632  1  0.54919000  0.15436000  0.54915000  1.0 0.018651283
C  C1633  1  0.58630000  0.18020000  0.56714000  1.0 -0.0221237334
C  C1634  1  0.56704000  0.18055000  0.58625000  1.0 0.0405704229
C  C1635  1  0.54133000  0.12855000  0.56038000  1.0 -0.0286045992
C  C1636  1  0.56022000  0.12827000  0.54089000  1.0 -0.0407305662
C  C1637  1  0.66687000  0.33942000  0.45231000  1.0 0.305928302
C  C1638  1  0.68315000  0.32565000  0.43112000  1.0 0.069381688
C  C1639  1  0.67272000  0.28851000  0.41755000  1.0 -0.1187212648
C  C1640  1  0.68601000  0.27293000  0.39680000  1.0 -0.0407305662
C  C1641  1  0.70408000  0.34527000  0.41979000  1.0 -0.1400545277
C  C1642  1  0.70611000  0.29273000  0.38536000  1.0 -0.0137260842
C  C1643  1  0.71600000  0.32903000  0.39747000  1.0 -0.0594045132
C  C1644  1  0.77993000  0.35851000  0.41744000  1.0 0.2615700247
C  C1645  1  0.71150000  0.26883000  0.40115000  1.0 0.0405704229
C  C1646  1  0.74087000  0.29385000  0.40194000  1.0 -0.2304901092
C  C1647  1  0.74932000  0.33027000  0.41551000  1.0 -0.0137260842
C  C1648  1  0.72839000  0.34166000  0.42827000  1.0 -0.0710923863
C  C1649  1  0.69902000  0.31664000  0.42748000  1.0 0.0076524367
C  C1650  1  0.69057000  0.28022000  0.41391000  1.0 -0.0594045132
C  C1651  1  0.67670000  0.32871000  0.44093000  1.0 0.1987753132
C  C1652  1  0.70241000  0.23008000  0.38657000  1.0 0.0586255876
C  C1653  1  0.73904000  0.35075000  0.38707000  1.0 0.089401739
C  C1654  1  0.67921000  0.23543000  0.38700000  1.0 0.2341807169
C  C1655  1  0.63543000  0.38784000  0.56395000  1.0 -0.1789925533
C  C1656  1  0.59883000  0.37361000  0.53906000  1.0 -0.1187212648
C  C1657  1  0.58707000  0.36222000  0.50021000  1.0 0.1789682263
C  C1658  1  0.55852000  0.37743000  0.60159000  1.0 0.2805857536
C  C1659  1  0.58443000  0.38094000  0.58757000  1.0 0.0586255876
C  C1660  1  0.62103000  0.39516000  0.61245000  1.0 -0.1497997291
C  C1661  1  0.64653000  0.39861000  0.60064000  1.0 -0.1400545277
C  C1662  1  0.57333000  0.37017000  0.55088000  1.0 -0.2228164356
C  C1663  1  0.68530000  0.41376000  0.62700000  1.0 0.5203534123
C  C1664  1  0.20065000  0.11501000  0.25820000  1.0 -0.2997391801
C  C1665  1  0.20077000  0.09012000  0.22951000  1.0 0.1211127901
C  C1666  1  0.17950000  0.05264000  0.21524000  1.0 -0.0594045132
C  C1667  1  0.15811000  0.04004000  0.22965000  1.0 0.0500818461
C  C1668  1  0.15798000  0.06493000  0.25833000  1.0 -0.1280884867
C  C1669  1  0.17926000  0.10243000  0.27261000  1.0 -0.0286045992
C  C1670  1  0.13634000  0.00152000  0.21688000  1.0 0.2202187013
C  C1671  1  0.22862000  0.10333000  0.21939000  1.0 0.2805857536
C  C1672  1  0.17804000  0.12917000  0.30251000  1.0 0.2805857536
C  C1673  1  0.13804000  0.72751000  0.18523000  1.0 0.5697969047
C  C1674  1  0.18540000  0.72710000  0.13610000  1.0 0.5786961199
C  C1675  1  0.05260000  0.66174000  0.93414000  1.0 0.5491832924
C  C1676  1  0.28820000  0.73102000  0.16372000  1.0 -0.1400545277
C  C1677  1  0.28530000  0.76245000  0.17127000  1.0 -0.0594045132
C  C1678  1  0.25115000  0.75990000  0.16163000  1.0 -0.1066595837
C  C1679  1  0.21993000  0.72591000  0.14444000  1.0 -0.0286045992
C  C1680  1  0.22283000  0.69448000  0.13689000  1.0 -0.1497997291
C  C1681  1  0.25696000  0.69702000  0.14652000  1.0 0.0500818461
C  C1682  1  0.31509000  0.79779000  0.18830000  1.0 0.5491832924
C  C1683  1  0.26003000  0.66336000  0.13805000  1.0 -0.003553914
C  C1684  1  0.27321000  0.65278000  0.11627000  1.0 -0.0407305662
C  C1685  1  0.24666000  0.64517000  0.15309000  1.0 0.0500818461
C  C1686  1  0.24624000  0.63287000  0.09979000  1.0 0.0822339581
C  C1687  1  0.27273000  0.65503000  0.16380000  1.0 0.018651283
C  C1688  1  0.13767000  0.75487000  0.03282000  1.0 -0.1400545277
C  C1689  1  0.13199000  0.75508000  0.00033000  1.0 0.089401739
C  C1690  1  0.10182000  0.72555000  0.96705000  1.0 -0.1400545277
C  C1691  1  0.07734000  0.69582000  0.96628000  1.0 -0.0773466312
C  C1692  1  0.08302000  0.69561000  0.99879000  1.0 -0.097147461
C  C1693  1  0.11318000  0.72513000  0.03205000  1.0 -0.0221237334
C  C1694  1  0.11119000  0.73121000  0.06594000  1.0 0.5697969047
C  C1695  1  0.16060000  0.78422000  0.00064000  1.0 0.0076524367
C  C1696  1  0.17756000  0.77528000  0.98012000  1.0 -0.0710923863
C  C1697  1  0.15187000  0.80145000  0.98070000  1.0 0.0500818461
C  C1698  1  0.17193000  0.82088000  0.02023000  1.0 0.0586255876
C  C1699  1  0.19779000  0.79523000  0.01990000  1.0 -0.0594045132
C  C1700  1  0.17650000  0.76450000  0.28900000  1.0 0.018651283
C  C1701  1  0.14663000  0.72901000  0.22174000  1.0 0.0033744084
C  C1702  1  0.16710000  0.73270000  0.29060000  1.0 -0.2782574761
C  C1703  1  0.13861000  0.69826000  0.22539000  1.0 -0.2304901092
C  C1704  1  0.19760000  0.80250000  0.32190000  1.0 0.5697969047
C  C1705  1  0.14910000  0.69960000  0.25890000  1.0 0.0586255876
C  C1706  1  0.16560000  0.76310000  0.25490000  1.0 -0.1066595837
C  C1707  1  0.32256000  0.86397000  0.32151000  1.0 -0.097147461
C  C1708  1  0.35695000  0.86324000  0.28901000  1.0 0.5636959083
C  C1709  1  0.34994000  0.85811000  0.31665000  1.0 -0.0407305662
C  C1710  1  0.33833000  0.85051000  0.37104000  1.0 -0.1400545277
C  C1711  1  0.31635000  0.85920000  0.34875000  1.0 -0.0710923863
C  C1712  1  0.28701000  0.86164000  0.35281000  1.0 0.5491832924
C  C1713  1  0.36621000  0.84561000  0.36632000  1.0 0.0586255876
C  C1714  1  0.37485000  0.85399000  0.34166000  1.0 -0.1187212648
C  C1715  1  0.13780000  0.66408000  0.25984000  1.0 0.069381688
C  C1716  1  0.16490000  0.65780000  0.28530000  1.0 -0.0594045132
C  C1717  1  0.14040000  0.63567000  0.23507000  1.0 0.1708097757
C  C1718  1  0.12849000  0.65900000  0.28319000  1.0 -0.0710923863
C  C1719  1  0.10540000  0.63490000  0.23730000  1.0 0.089401739
C  C1720  1  0.39479000  0.84564000  0.39483000  1.0 0.018651283
C  C1721  1  0.38694000  0.81980000  0.40610000  1.0 -0.0286045992
C  C1722  1  0.40570000  0.81945000  0.38649000  1.0 0.0405704229
C  C1723  1  0.43183000  0.87145000  0.41278000  1.0 -0.0286045992
C  C1724  1  0.41262000  0.87173000  0.43195000  1.0 -0.0407305662
C  C1725  1  0.11289000  0.66058000  0.32745000  1.0 0.305928302
C  C1726  1  0.10547000  0.67435000  0.35750000  1.0 0.069381688
C  C1727  1  0.12904000  0.71149000  0.38421000  1.0 -0.1187212648
C  C1728  1  0.12387000  0.72707000  0.41308000  1.0 -0.0407305662
C  C1729  1  0.07452000  0.65473000  0.35881000  1.0 -0.1400545277
C  C1730  1  0.09263000  0.70727000  0.41338000  1.0 -0.0221237334
C  C1731  1  0.06844000  0.67097000  0.38697000  1.0 -0.0594045132
C  C1732  1  0.05893000  0.64149000  0.42142000  1.0 0.2615700247
C  C1733  1  0.13232000  0.73117000  0.44267000  1.0 0.0405704229
C  C1734  1  0.10809000  0.70615000  0.44702000  1.0 -0.2304901092
C  C1735  1  0.08524000  0.66973000  0.41905000  1.0 -0.0137260842
C  C1736  1  0.08661000  0.65834000  0.38673000  1.0 -0.0710923863
C  C1737  1  0.11084000  0.68336000  0.38238000  1.0 0.0033744084
C  C1738  1  0.13369000  0.71978000  0.41035000  1.0 -0.0594045132
C  C1739  1  0.11222000  0.67129000  0.34799000  1.0 0.1987753132
C  C1740  1  0.15649000  0.76992000  0.47233000  1.0 0.0586255876
C  C1741  1  0.03632000  0.64925000  0.38829000  1.0 0.089401739
C  C1742  1  0.15157000  0.76457000  0.44378000  1.0 0.2341807169
C  C1743  1  0.17611000  0.61216000  0.24759000  1.0 -0.1789925533
C  C1744  1  0.16545000  0.62639000  0.22522000  1.0 -0.1187212648
C  C1745  1  0.13799000  0.63778000  0.22485000  1.0 0.1789682263
C  C1746  1  0.22416000  0.62257000  0.18109000  1.0 0.2805857536
C  C1747  1  0.20663000  0.61906000  0.20349000  1.0 0.0586255876
C  C1748  1  0.21729000  0.60484000  0.22587000  1.0 -0.1497997291
C  C1749  1  0.20203000  0.60139000  0.24792000  1.0 -0.1400545277
C  C1750  1  0.18071000  0.62983000  0.20316000  1.0 -0.2228164356
C  C1751  1  0.21324000  0.58624000  0.27154000  1.0 0.5203534123
C  C1752  1  0.14319000  0.88499000  0.08564000  1.0 -0.2997391801
C  C1753  1  0.13939000  0.90988000  0.11065000  1.0 0.1211127901
C  C1754  1  0.16260000  0.94736000  0.12686000  1.0 -0.0594045132
C  C1755  1  0.18961000  0.95996000  0.11807000  1.0 0.0500818461
C  C1756  1  0.19340000  0.93507000  0.09305000  1.0 -0.1280884867
C  C1757  1  0.17018000  0.89757000  0.07683000  1.0 -0.0286045992
C  C1758  1  0.21536000  0.99848000  0.13482000  1.0 0.2202187013
C  C1759  1  0.11606000  0.89667000  0.12529000  1.0 0.2805857536
C  C1760  1  0.17334000  0.87083000  0.04887000  1.0 0.2805857536
C  C1761  1  0.95281000  0.81477000  0.54228000  1.0 0.5697969047
C  C1762  1  0.04930000  0.86390000  0.59100000  1.0 0.5786961199
C  C1763  1  0.11846000  0.06586000  0.72760000  1.0 0.5491832924
C  C1764  1  0.12448000  0.83628000  0.56730000  1.0 -0.1400545277
C  C1765  1  0.11403000  0.82873000  0.59118000  1.0 -0.0594045132
C  C1766  1  0.08952000  0.83837000  0.59827000  1.0 -0.1066595837
C  C1767  1  0.07549000  0.85556000  0.58147000  1.0 -0.0286045992
C  C1768  1  0.08594000  0.86311000  0.55759000  1.0 -0.1497997291
C  C1769  1  0.11044000  0.85348000  0.55050000  1.0 0.0500818461
C  C1770  1  0.12679000  0.81170000  0.60949000  1.0 0.5491832924
C  C1771  1  0.12198000  0.86195000  0.52531000  1.0 -0.003553914
C  C1772  1  0.15694000  0.88373000  0.53651000  1.0 -0.0407305662
C  C1773  1  0.09357000  0.84691000  0.49208000  1.0 0.0500818461
C  C1774  1  0.14645000  0.90021000  0.53308000  1.0 0.0822339581
C  C1775  1  0.10893000  0.83620000  0.49123000  1.0 0.018651283
C  C1776  1  0.10485000  0.96718000  0.72205000  1.0 -0.1400545277
C  C1777  1  0.13166000  0.99967000  0.75475000  1.0 0.089401739
C  C1778  1  0.13477000  0.03295000  0.75850000  1.0 -0.1400545277
C  C1779  1  0.11106000  0.03372000  0.72954000  1.0 -0.0773466312
C  C1780  1  0.08423000  0.00121000  0.69682000  1.0 -0.097147461
C  C1781  1  0.08113000  0.96795000  0.69308000  1.0 -0.0221237334
C  C1782  1  0.04525000  0.93406000  0.66527000  1.0 0.5697969047
C  C1783  1  0.15996000  0.99936000  0.78358000  1.0 0.0076524367
C  C1784  1  0.19744000  0.01988000  0.79516000  1.0 -0.0710923863
C  C1785  1  0.17117000  0.01930000  0.82075000  1.0 0.0500818461
C  C1786  1  0.15170000  0.97977000  0.80065000  1.0 0.0586255876
C  C1787  1  0.17789000  0.98010000  0.77533000  1.0 -0.0594045132
C  C1788  1  0.88750000  0.71100000  0.47550000  1.0 0.018651283
C  C1789  1  0.92489000  0.77826000  0.50727000  1.0 0.0033744084
C  C1790  1  0.87650000  0.70940000  0.44210000  1.0 -0.2782574761
C  C1791  1  0.91322000  0.77461000  0.47287000  1.0 -0.2304901092
C  C1792  1  0.87570000  0.67810000  0.48060000  1.0 0.5697969047
C  C1793  1  0.89020000  0.74110000  0.44070000  1.0 0.0586255876
C  C1794  1  0.91070000  0.74510000  0.50820000  1.0 -0.1066595837
C  C1795  1  0.00105000  0.67849000  0.54246000  1.0 -0.097147461
C  C1796  1  0.06794000  0.71099000  0.57423000  1.0 0.5636959083
C  C1797  1  0.03329000  0.68335000  0.54146000  1.0 -0.0407305662
C  C1798  1  0.96729000  0.62896000  0.47947000  1.0 -0.1400545277
C  C1799  1  0.96760000  0.65125000  0.51045000  1.0 -0.0710923863
C  C1800  1  0.93420000  0.64719000  0.50883000  1.0 0.5491832924
C  C1801  1  0.99989000  0.63368000  0.47929000  1.0 0.0586255876
C  C1802  1  0.03319000  0.65834000  0.51233000  1.0 -0.1187212648
C  C1803  1  0.87796000  0.74016000  0.40424000  1.0 0.069381688
C  C1804  1  0.87960000  0.71470000  0.37250000  1.0 -0.0594045132
C  C1805  1  0.90533000  0.76493000  0.40060000  1.0 0.1789682263
C  C1806  1  0.84530000  0.71681000  0.37581000  1.0 -0.0710923863
C  C1807  1  0.86810000  0.76270000  0.39760000  1.0 0.089401739
C  C1808  1  0.99996000  0.60517000  0.45081000  1.0 0.018651283
C  C1809  1  0.98084000  0.59390000  0.41370000  1.0 -0.0286045992
C  C1810  1  0.01921000  0.61351000  0.43296000  1.0 0.0405704229
C  C1811  1  0.01905000  0.58722000  0.45867000  1.0 -0.0286045992
C  C1812  1  0.98067000  0.56805000  0.43978000  1.0 -0.0407305662
C  C1813  1  0.78544000  0.67255000  0.33313000  1.0 0.2987540215
C  C1814  1  0.74797000  0.64250000  0.31685000  1.0 0.069381688
C  C1815  1  0.74483000  0.61579000  0.32728000  1.0 -0.1187212648
C  C1816  1  0.71079000  0.58692000  0.31399000  1.0 -0.0407305662
C  C1817  1  0.71571000  0.64119000  0.29592000  1.0 -0.1400545277
C  C1818  1  0.67925000  0.58662000  0.29389000  1.0 -0.0137260842
C  C1819  1  0.68147000  0.61303000  0.28400000  1.0 -0.0594045132
C  C1820  1  0.63751000  0.57858000  0.22007000  1.0 0.2615700247
C  C1821  1  0.68965000  0.55733000  0.28850000  1.0 0.0405704229
C  C1822  1  0.66107000  0.55298000  0.25913000  1.0 -0.2304901092
C  C1823  1  0.66619000  0.58095000  0.25068000  1.0 -0.0137260842
C  C1824  1  0.69988000  0.61327000  0.27161000  1.0 -0.0710923863
C  C1825  1  0.72846000  0.61762000  0.30098000  1.0 0.0076524367
C  C1826  1  0.72334000  0.58965000  0.30943000  1.0 -0.0504267388
C  C1827  1  0.76423000  0.65201000  0.32330000  1.0 0.1987753132
C  C1828  1  0.68416000  0.52767000  0.29759000  1.0 0.0586255876
C  C1829  1  0.64803000  0.61171000  0.26096000  1.0 0.089401739
C  C1830  1  0.70779000  0.55622000  0.32079000  1.0 0.2341807169
C  C1831  1  0.92852000  0.75241000  0.36457000  1.0 -0.1789925533
C  C1832  1  0.94023000  0.77478000  0.40117000  1.0 -0.1187212648
C  C1833  1  0.91314000  0.77515000  0.41293000  1.0 0.1789682263
C  C1834  1  0.04307000  0.81891000  0.44148000  1.0 0.2805857536
C  C1835  1  0.00314000  0.79651000  0.41557000  1.0 0.0586255876
C  C1836  1  0.99142000  0.77413000  0.37897000  1.0 -0.1497997291
C  C1837  1  0.95411000  0.75208000  0.35347000  1.0 -0.1400545277
C  C1838  1  0.97755000  0.79684000  0.42667000  1.0 -0.2228164356
C  C1839  1  0.94170000  0.72846000  0.31470000  1.0 0.5203534123
C  C1840  1  0.05755000  0.91436000  0.79935000  1.0 -0.2997391801
C  C1841  1  0.02874000  0.88935000  0.79923000  1.0 0.1211127901
C  C1842  1  0.03574000  0.87314000  0.82050000  1.0 -0.0594045132
C  C1843  1  0.07154000  0.88193000  0.84189000  1.0 0.0500818461
C  C1844  1  0.10035000  0.90695000  0.84202000  1.0 -0.1280884867
C  C1845  1  0.09335000  0.92317000  0.82074000  1.0 -0.0286045992
C  C1846  1  0.08054000  0.86518000  0.86366000  1.0 0.2202187013
C  C1847  1  0.99077000  0.87471000  0.77138000  1.0 0.2805857536
C  C1848  1  0.12447000  0.95113000  0.82196000  1.0 0.2805857536
C  C1849  1  0.04719000  0.58947000  0.86196000  1.0 0.5697969047
C  C1850  1  0.95070000  0.54170000  0.81460000  1.0 0.5786961199
C  C1851  1  0.88154000  0.60914000  0.94740000  1.0 0.5491832924
C  C1852  1  0.87552000  0.44282000  0.71180000  1.0 -0.1400545277
C  C1853  1  0.88597000  0.47715000  0.71470000  1.0 -0.0594045132
C  C1854  1  0.91048000  0.50875000  0.74885000  1.0 -0.1066595837
C  C1855  1  0.92451000  0.50598000  0.78007000  1.0 -0.0286045992
C  C1856  1  0.91406000  0.47165000  0.77717000  1.0 -0.1497997291
C  C1857  1  0.88956000  0.44006000  0.74304000  1.0 0.0500818461
C  C1858  1  0.87321000  0.48270000  0.68491000  1.0 0.5491832924
C  C1859  1  0.87802000  0.40333000  0.73997000  1.0 -0.003553914
C  C1860  1  0.84306000  0.37957000  0.72679000  1.0 -0.0407305662
C  C1861  1  0.90643000  0.39851000  0.75334000  1.0 0.0500818461
C  C1862  1  0.85355000  0.38663000  0.75376000  1.0 0.0822339581
C  C1863  1  0.89107000  0.38230000  0.72727000  1.0 0.018651283
C  C1864  1  0.89515000  0.61720000  0.86233000  1.0 -0.1400545277
C  C1865  1  0.86834000  0.62309000  0.86801000  1.0 0.089401739
C  C1866  1  0.86523000  0.62373000  0.89818000  1.0 -0.1400545277
C  C1867  1  0.88894000  0.61848000  0.92266000  1.0 -0.0773466312
C  C1868  1  0.91577000  0.61259000  0.91698000  1.0 -0.097147461
C  C1869  1  0.91887000  0.61195000  0.88682000  1.0 -0.0221237334
C  C1870  1  0.95475000  0.62002000  0.88881000  1.0 0.5697969047
C  C1871  1  0.84004000  0.62362000  0.83940000  1.0 0.0076524367
C  C1872  1  0.80256000  0.59772000  0.82244000  1.0 -0.0710923863
C  C1873  1  0.82883000  0.64958000  0.84813000  1.0 0.0500818461
C  C1874  1  0.84830000  0.64895000  0.82807000  1.0 0.0586255876
C  C1875  1  0.82211000  0.59744000  0.80221000  1.0 -0.0594045132
C  C1876  1  0.11250000  0.58800000  0.82350000  1.0 0.018651283
C  C1877  1  0.07511000  0.58238000  0.85337000  1.0 0.0033744084
C  C1878  1  0.12350000  0.56560000  0.83290000  1.0 -0.2782574761
C  C1879  1  0.08678000  0.55965000  0.86139000  1.0 -0.2304901092
C  C1880  1  0.12430000  0.60490000  0.80240000  1.0 0.5697969047
C  C1881  1  0.10980000  0.55050000  0.85090000  1.0 0.0586255876
C  C1882  1  0.08930000  0.59750000  0.83440000  1.0 -0.1066595837
C  C1883  1  0.99895000  0.54141000  0.67744000  1.0 -0.097147461
C  C1884  1  0.93206000  0.50629000  0.64305000  1.0 0.5636959083
C  C1885  1  0.96671000  0.50817000  0.65006000  1.0 -0.0407305662
C  C1886  1  0.03271000  0.51218000  0.66167000  1.0 -0.1400545277
C  C1887  1  0.03240000  0.54285000  0.68365000  1.0 -0.0710923863
C  C1888  1  0.06580000  0.57463000  0.71299000  1.0 0.5491832924
C  C1889  1  0.00011000  0.47940000  0.63379000  1.0 0.0586255876
C  C1890  1  0.96681000  0.47914000  0.62515000  1.0 -0.1187212648
C  C1891  1  0.12204000  0.52628000  0.86220000  1.0 0.069381688
C  C1892  1  0.12040000  0.49290000  0.83510000  1.0 -0.0594045132
C  C1893  1  0.09467000  0.49527000  0.85960000  1.0 0.1789682263
C  C1894  1  0.15470000  0.53051000  0.87151000  1.0 -0.0710923863
C  C1895  1  0.13190000  0.52950000  0.89460000  1.0 0.089401739
C  C1896  1  0.00004000  0.45085000  0.60521000  1.0 0.018651283
C  C1897  1  0.01916000  0.43286000  0.61306000  1.0 -0.0286045992
C  C1898  1  0.98079000  0.41375000  0.59430000  1.0 0.0405704229
C  C1899  1  0.98095000  0.43962000  0.56817000  1.0 -0.0286045992
C  C1900  1  0.01933000  0.45911000  0.58738000  1.0 -0.0407305662
C  C1901  1  0.21456000  0.54769000  0.88711000  1.0 0.305928302
C  C1902  1  0.25203000  0.56888000  0.89453000  1.0 0.069381688
C  C1903  1  0.25517000  0.58245000  0.87096000  1.0 -0.1187212648
C  C1904  1  0.28921000  0.60320000  0.87613000  1.0 -0.0407305662
C  C1905  1  0.28429000  0.58021000  0.92548000  1.0 -0.1400545277
C  C1906  1  0.32075000  0.61464000  0.90737000  1.0 -0.0137260842
C  C1907  1  0.31853000  0.60253000  0.93156000  1.0 -0.0594045132
C  C1908  1  0.36249000  0.58256000  0.94107000  1.0 0.2615700247
C  C1909  1  0.31035000  0.59885000  0.86768000  1.0 0.0405704229
C  C1910  1  0.33893000  0.59806000  0.89191000  1.0 -0.2304901092
C  C1911  1  0.33381000  0.58449000  0.91476000  1.0 -0.0137260842
C  C1912  1  0.30012000  0.57173000  0.91339000  1.0 -0.0710923863
C  C1913  1  0.27154000  0.57252000  0.88916000  1.0 0.0033744084
C  C1914  1  0.27666000  0.58609000  0.86631000  1.0 -0.0594045132
C  C1915  1  0.23577000  0.55907000  0.88778000  1.0 0.1987753132
C  C1916  1  0.31584000  0.61343000  0.84351000  1.0 0.0586255876
C  C1917  1  0.35197000  0.61293000  0.96368000  1.0 0.0822339581
C  C1918  1  0.29221000  0.61300000  0.84843000  1.0 0.2341807169
C  C1919  1  0.07148000  0.43605000  0.82389000  1.0 -0.1789925533
C  C1920  1  0.05977000  0.46094000  0.83455000  1.0 -0.1187212648
C  C1921  1  0.08686000  0.49979000  0.86201000  1.0 0.1789682263
C  C1922  1  0.95693000  0.39841000  0.77584000  1.0 0.2805857536
C  C1923  1  0.99686000  0.41243000  0.79337000  1.0 0.0586255876
C  C1924  1  0.00858000  0.38755000  0.78271000  1.0 -0.1497997291
C  C1925  1  0.04589000  0.39936000  0.79797000  1.0 -0.1400545277
C  C1926  1  0.02245000  0.44912000  0.81929000  1.0 -0.2228164356
C  C1927  1  0.05830000  0.37300000  0.78676000  1.0 0.5203534123
C  C1928  1  0.94245000  0.74180000  0.85681000  1.0 -0.2997391801
C  C1929  1  0.97126000  0.77049000  0.86061000  1.0 0.1211127901
C  C1930  1  0.96426000  0.78476000  0.83740000  1.0 -0.0594045132
C  C1931  1  0.92846000  0.77035000  0.81039000  1.0 0.0500818461
C  C1932  1  0.89965000  0.74167000  0.80660000  1.0 -0.1280884867
C  C1933  1  0.90665000  0.72739000  0.82982000  1.0 -0.0286045992
C  C1934  1  0.91946000  0.78312000  0.78464000  1.0 0.2202187013
C  C1935  1  0.00923000  0.78061000  0.88394000  1.0 0.2805857536
C  C1936  1  0.87553000  0.69749000  0.82666000  1.0 0.2805857536
C  C1937  1  0.72751000  0.18523000  0.13804000  1.0 0.5697969047
C  C1938  1  0.72710000  0.13610000  0.18540000  1.0 0.5786961199
C  C1939  1  0.66174000  0.93414000  0.05260000  1.0 0.5491832924
C  C1940  1  0.73102000  0.16372000  0.28820000  1.0 -0.1400545277
C  C1941  1  0.76245000  0.17127000  0.28530000  1.0 -0.0594045132
C  C1942  1  0.75990000  0.16163000  0.25115000  1.0 -0.1066595837
C  C1943  1  0.72591000  0.14444000  0.21993000  1.0 -0.0286045992
C  C1944  1  0.69448000  0.13689000  0.22283000  1.0 -0.1497997291
C  C1945  1  0.69702000  0.14652000  0.25696000  1.0 0.0500818461
C  C1946  1  0.79779000  0.18830000  0.31509000  1.0 0.5491832924
C  C1947  1  0.66336000  0.13805000  0.26003000  1.0 -0.003553914
C  C1948  1  0.65278000  0.11627000  0.27321000  1.0 -0.0407305662
C  C1949  1  0.64517000  0.15309000  0.24666000  1.0 0.0500818461
C  C1950  1  0.63287000  0.09979000  0.24624000  1.0 0.0822339581
C  C1951  1  0.65503000  0.16380000  0.27273000  1.0 0.018651283
C  C1952  1  0.75487000  0.03282000  0.13767000  1.0 -0.1400545277
C  C1953  1  0.75508000  0.00033000  0.13199000  1.0 0.089401739
C  C1954  1  0.72555000  0.96705000  0.10182000  1.0 -0.1400545277
C  C1955  1  0.69582000  0.96628000  0.07734000  1.0 -0.0773466312
C  C1956  1  0.69561000  0.99879000  0.08302000  1.0 -0.097147461
C  C1957  1  0.72513000  0.03205000  0.11318000  1.0 -0.0221237334
C  C1958  1  0.73121000  0.06594000  0.11119000  1.0 0.5697969047
C  C1959  1  0.78422000  0.00064000  0.16060000  1.0 0.0076524367
C  C1960  1  0.77528000  0.98012000  0.17756000  1.0 -0.0710923863
C  C1961  1  0.80145000  0.98070000  0.15187000  1.0 0.0500818461
C  C1962  1  0.82088000  0.02023000  0.17193000  1.0 0.0586255876
C  C1963  1  0.79523000  0.01990000  0.19779000  1.0 -0.0594045132
C  C1964  1  0.76450000  0.28900000  0.17650000  1.0 0.018651283
C  C1965  1  0.72901000  0.22174000  0.14663000  1.0 0.0033744084
C  C1966  1  0.73270000  0.29060000  0.16710000  1.0 -0.2782574761
C  C1967  1  0.69826000  0.22539000  0.13861000  1.0 -0.2304901092
C  C1968  1  0.80250000  0.32190000  0.19760000  1.0 0.5697969047
C  C1969  1  0.69960000  0.25890000  0.14910000  1.0 0.0586255876
C  C1970  1  0.76310000  0.25490000  0.16560000  1.0 -0.1066595837
C  C1971  1  0.86397000  0.32151000  0.32256000  1.0 -0.097147461
C  C1972  1  0.86324000  0.28901000  0.35695000  1.0 0.5636959083
C  C1973  1  0.85811000  0.31665000  0.34994000  1.0 -0.0407305662
C  C1974  1  0.85051000  0.37104000  0.33833000  1.0 -0.1400545277
C  C1975  1  0.85920000  0.34875000  0.31635000  1.0 -0.0710923863
C  C1976  1  0.86164000  0.35281000  0.28701000  1.0 0.5491832924
C  C1977  1  0.84561000  0.36632000  0.36621000  1.0 0.0586255876
C  C1978  1  0.85399000  0.34166000  0.37485000  1.0 -0.1187212648
C  C1979  1  0.66408000  0.25984000  0.13780000  1.0 0.069381688
C  C1980  1  0.65780000  0.28530000  0.16490000  1.0 -0.0594045132
C  C1981  1  0.63567000  0.23507000  0.14040000  1.0 0.1708097757
C  C1982  1  0.65900000  0.28319000  0.12849000  1.0 -0.0710923863
C  C1983  1  0.63490000  0.23730000  0.10540000  1.0 0.089401739
C  C1984  1  0.84564000  0.39483000  0.39479000  1.0 0.018651283
C  C1985  1  0.81980000  0.40610000  0.38694000  1.0 -0.0221237334
C  C1986  1  0.81945000  0.38649000  0.40570000  1.0 0.0405704229
C  C1987  1  0.87145000  0.41278000  0.43183000  1.0 -0.0286045992
C  C1988  1  0.87173000  0.43195000  0.41262000  1.0 -0.0407305662
C  C1989  1  0.66058000  0.32745000  0.11289000  1.0 0.305928302
C  C1990  1  0.67435000  0.35750000  0.10547000  1.0 0.069381688
C  C1991  1  0.71149000  0.38421000  0.12904000  1.0 -0.1187212648
C  C1992  1  0.72707000  0.41308000  0.12387000  1.0 -0.0407305662
C  C1993  1  0.65473000  0.35881000  0.07452000  1.0 -0.1400545277
C  C1994  1  0.70727000  0.41338000  0.09263000  1.0 -0.0137260842
C  C1995  1  0.67097000  0.38697000  0.06844000  1.0 -0.0594045132
C  C1996  1  0.64149000  0.42142000  0.05893000  1.0 0.2615700247
C  C1997  1  0.73117000  0.44267000  0.13232000  1.0 0.0405704229
C  C1998  1  0.70615000  0.44702000  0.10809000  1.0 -0.2304901092
C  C1999  1  0.66973000  0.41905000  0.08524000  1.0 -0.0137260842
C  C2000  1  0.65834000  0.38673000  0.08661000  1.0 -0.0710923863
C  C2001  1  0.68336000  0.38238000  0.11084000  1.0 0.0033744084
C  C2002  1  0.71978000  0.41035000  0.13369000  1.0 -0.0594045132
C  C2003  1  0.67129000  0.34799000  0.11222000  1.0 0.1987753132
C  C2004  1  0.76992000  0.47233000  0.15649000  1.0 0.0586255876
C  C2005  1  0.64925000  0.38829000  0.03632000  1.0 0.089401739
C  C2006  1  0.76457000  0.44378000  0.15157000  1.0 0.2341807169
C  C2007  1  0.61216000  0.24759000  0.17611000  1.0 -0.1789925533
C  C2008  1  0.62639000  0.22522000  0.16545000  1.0 -0.1187212648
C  C2009  1  0.63778000  0.22485000  0.13799000  1.0 0.1789682263
C  C2010  1  0.62257000  0.18109000  0.22416000  1.0 0.2805857536
C  C2011  1  0.61906000  0.20349000  0.20663000  1.0 0.0586255876
C  C2012  1  0.60484000  0.22587000  0.21729000  1.0 -0.1497997291
C  C2013  1  0.60139000  0.24792000  0.20203000  1.0 -0.1400545277
C  C2014  1  0.62983000  0.20316000  0.18071000  1.0 -0.2228164356
C  C2015  1  0.58624000  0.27154000  0.21324000  1.0 0.5203534123
C  C2016  1  0.88499000  0.08564000  0.14319000  1.0 -0.2997391801
C  C2017  1  0.90988000  0.11065000  0.13939000  1.0 0.1211127901
C  C2018  1  0.94736000  0.12686000  0.16260000  1.0 -0.0504267388
C  C2019  1  0.95996000  0.11807000  0.18961000  1.0 0.0500818461
C  C2020  1  0.93507000  0.09305000  0.19340000  1.0 -0.1280884867
C  C2021  1  0.89757000  0.07683000  0.17018000  1.0 -0.0286045992
C  C2022  1  0.99848000  0.13482000  0.21536000  1.0 0.2202187013
C  C2023  1  0.89667000  0.12529000  0.11606000  1.0 0.2805857536
C  C2024  1  0.87083000  0.04887000  0.17334000  1.0 0.2805857536
C  C2025  1  0.27249000  0.41053000  0.45772000  1.0 0.5697969047
C  C2026  1  0.27290000  0.45830000  0.40900000  1.0 0.5786961199
C  C2027  1  0.33826000  0.39086000  0.27240000  1.0 0.5491832924
C  C2028  1  0.26898000  0.55718000  0.43270000  1.0 -0.1400545277
C  C2029  1  0.23755000  0.52285000  0.40882000  1.0 -0.0594045132
C  C2030  1  0.24010000  0.49125000  0.40173000  1.0 -0.1066595837
C  C2031  1  0.27409000  0.49402000  0.41853000  1.0 -0.0286045992
C  C2032  1  0.30552000  0.52835000  0.44241000  1.0 -0.1497997291
C  C2033  1  0.30298000  0.55994000  0.44950000  1.0 0.0500818461
C  C2034  1  0.20221000  0.51730000  0.39051000  1.0 0.5491832924
C  C2035  1  0.33664000  0.59667000  0.47469000  1.0 -0.003553914
C  C2036  1  0.34722000  0.62043000  0.46349000  1.0 -0.0407305662
C  C2037  1  0.35483000  0.60149000  0.50792000  1.0 0.0500818461
C  C2038  1  0.36713000  0.61337000  0.46692000  1.0 0.0822339581
C  C2039  1  0.34497000  0.61770000  0.50877000  1.0 0.018651283
C  C2040  1  0.24513000  0.38280000  0.27795000  1.0 -0.1400545277
C  C2041  1  0.24492000  0.37691000  0.24525000  1.0 0.089401739
C  C2042  1  0.27445000  0.37627000  0.24150000  1.0 -0.1400545277
C  C2043  1  0.30418000  0.38152000  0.27046000  1.0 -0.0773466312
C  C2044  1  0.30439000  0.38741000  0.30318000  1.0 -0.097147461
C  C2045  1  0.27487000  0.38805000  0.30692000  1.0 -0.0221237334
C  C2046  1  0.26879000  0.37998000  0.33473000  1.0 0.5697969047
C  C2047  1  0.21578000  0.37638000  0.21642000  1.0 0.0076524367
C  C2048  1  0.22472000  0.40228000  0.20484000  1.0 -0.0710923863
C  C2049  1  0.19855000  0.35042000  0.17925000  1.0 0.0500818461
C  C2050  1  0.17912000  0.35105000  0.19935000  1.0 0.0586255876
C  C2051  1  0.20477000  0.40256000  0.22467000  1.0 -0.0594045132
C  C2052  1  0.23550000  0.41200000  0.52450000  1.0 0.018651283
C  C2053  1  0.27099000  0.41762000  0.49273000  1.0 0.0033744084
C  C2054  1  0.26730000  0.43440000  0.55790000  1.0 -0.2782574761
C  C2055  1  0.30174000  0.44035000  0.52713000  1.0 -0.2304901092
C  C2056  1  0.19750000  0.39510000  0.51940000  1.0 0.5697969047
C  C2057  1  0.30040000  0.44950000  0.55930000  1.0 0.0586255876
C  C2058  1  0.23690000  0.40250000  0.49180000  1.0 -0.1066595837
C  C2059  1  0.13603000  0.45859000  0.45754000  1.0 -0.097147461
C  C2060  1  0.13676000  0.49371000  0.42577000  1.0 0.5636959083
C  C2061  1  0.14189000  0.49183000  0.45854000  1.0 -0.0407305662
C  C2062  1  0.14949000  0.48782000  0.52053000  1.0 -0.1400545277
C  C2063  1  0.14080000  0.45715000  0.48955000  1.0 -0.0710923863
C  C2064  1  0.13836000  0.42537000  0.49117000  1.0 0.5491832924
C  C2065  1  0.15439000  0.52060000  0.52071000  1.0 0.0586255876
C  C2066  1  0.14601000  0.52086000  0.48767000  1.0 -0.1280884867
C  C2067  1  0.33592000  0.47372000  0.59576000  1.0 0.069381688
C  C2068  1  0.34220000  0.50710000  0.62750000  1.0 -0.0594045132
C  C2069  1  0.36433000  0.50473000  0.59940000  1.0 0.1789682263
C  C2070  1  0.34100000  0.46949000  0.62419000  1.0 -0.0710923863
C  C2071  1  0.36510000  0.47050000  0.60240000  1.0 0.089401739
C  C2072  1  0.15436000  0.54915000  0.54919000  1.0 0.018651283
C  C2073  1  0.18020000  0.56714000  0.58630000  1.0 -0.0286045992
C  C2074  1  0.18055000  0.58625000  0.56704000  1.0 0.0405704229
C  C2075  1  0.12855000  0.56038000  0.54133000  1.0 -0.0286045992
C  C2076  1  0.12827000  0.54089000  0.56022000  1.0 -0.0407305662
C  C2077  1  0.33942000  0.45231000  0.66687000  1.0 0.305928302
C  C2078  1  0.32565000  0.43112000  0.68315000  1.0 0.069381688
C  C2079  1  0.28851000  0.41755000  0.67272000  1.0 -0.1187212648
C  C2080  1  0.27293000  0.39680000  0.68601000  1.0 -0.0407305662
C  C2081  1  0.34527000  0.41979000  0.70408000  1.0 -0.1400545277
C  C2082  1  0.29273000  0.38536000  0.70611000  1.0 -0.0137260842
C  C2083  1  0.32903000  0.39747000  0.71600000  1.0 -0.0594045132
C  C2084  1  0.35851000  0.41744000  0.77993000  1.0 0.2615700247
C  C2085  1  0.26883000  0.40115000  0.71150000  1.0 0.0405704229
C  C2086  1  0.29385000  0.40194000  0.74087000  1.0 -0.2304901092
C  C2087  1  0.33027000  0.41551000  0.74932000  1.0 -0.0137260842
C  C2088  1  0.34166000  0.42827000  0.72839000  1.0 -0.0710923863
C  C2089  1  0.31664000  0.42748000  0.69902000  1.0 0.0033744084
C  C2090  1  0.28022000  0.41391000  0.69057000  1.0 -0.0594045132
C  C2091  1  0.32871000  0.44093000  0.67670000  1.0 0.1987753132
C  C2092  1  0.23008000  0.38657000  0.70241000  1.0 0.0586255876
C  C2093  1  0.35075000  0.38707000  0.73904000  1.0 0.089401739
C  C2094  1  0.23543000  0.38700000  0.67921000  1.0 0.2341807169
C  C2095  1  0.38784000  0.56395000  0.63543000  1.0 -0.1789925533
C  C2096  1  0.37361000  0.53906000  0.59883000  1.0 -0.1187212648
C  C2097  1  0.36222000  0.50021000  0.58707000  1.0 0.1789682263
C  C2098  1  0.37743000  0.60159000  0.55852000  1.0 0.2805857536
C  C2099  1  0.38094000  0.58757000  0.58443000  1.0 0.0586255876
C  C2100  1  0.39516000  0.61245000  0.62103000  1.0 -0.1497997291
C  C2101  1  0.39861000  0.60064000  0.64653000  1.0 -0.1400545277
C  C2102  1  0.37017000  0.55088000  0.57333000  1.0 -0.2228164356
C  C2103  1  0.41376000  0.62700000  0.68530000  1.0 0.5203534123
C  C2104  1  0.11501000  0.25820000  0.20065000  1.0 -0.2997391801
C  C2105  1  0.09012000  0.22951000  0.20077000  1.0 0.1211127901
C  C2106  1  0.05264000  0.21524000  0.17950000  1.0 -0.0594045132
C  C2107  1  0.04004000  0.22965000  0.15811000  1.0 0.0500818461
C  C2108  1  0.06493000  0.25833000  0.15798000  1.0 -0.1280884867
C  C2109  1  0.10243000  0.27261000  0.17926000  1.0 -0.0286045992
C  C2110  1  0.00152000  0.21688000  0.13634000  1.0 0.2202187013
C  C2111  1  0.10333000  0.21939000  0.22862000  1.0 0.2805857536
C  C2112  1  0.12917000  0.30251000  0.17804000  1.0 0.2805857536
N  N1  1  0.20902000  0.64491000  0.60251000  1.0 -0.2068937128
N  N2  1  0.20287000  0.60218000  0.64833000  1.0 -0.4209013375
N  N3  1  0.36703000  0.55462000  0.67751000  1.0 -0.2736663303
N  N4  1  0.37126000  0.48231000  0.68333000  1.0 -0.235444483
N  N5  1  0.47410000  0.41741000  0.65217000  1.0 -0.2997391801
N  N6  1  0.43346000  0.36513000  0.59683000  1.0 -0.2997391801
N  N7  1  0.83875000  0.67895000  0.88062000  1.0 -0.3896884229
N  N8  1  0.79652000  0.67875000  0.83605000  1.0 -0.3896884229
N  N9  1  0.04240000  0.60651000  0.39749000  1.0 -0.2068937128
N  N10  1  0.95385000  0.55454000  0.35167000  1.0 -0.4209013375
N  N11  1  0.87711000  0.68952000  0.32249000  1.0 -0.2736663303
N  N12  1  0.79898000  0.68793000  0.31667000  1.0 -0.2304901092
N  N13  1  0.76524000  0.82193000  0.34783000  1.0 -0.2997391801
N  N14  1  0.76830000  0.83663000  0.40317000  1.0 -0.2997391801
N  N15  1  0.79833000  0.95813000  0.11938000  1.0 -0.3896884229
N  N16  1  0.84270000  0.96047000  0.16395000  1.0 -0.3896884229
N  N17  1  0.95760000  0.35509000  0.56411000  1.0 -0.2068937128
N  N18  1  0.04615000  0.39782000  0.60069000  1.0 -0.4209013375
N  N19  1  0.12289000  0.44538000  0.81241000  1.0 -0.2736663303
N  N20  1  0.20102000  0.51769000  0.88895000  1.0 -0.235444483
N  N21  1  0.23476000  0.58259000  0.05669000  1.0 -0.2997391801
N  N22  1  0.23170000  0.63487000  0.06833000  1.0 -0.2997391801
N  N23  1  0.20167000  0.32105000  0.15980000  1.0 -0.3896884229
N  N24  1  0.15730000  0.32125000  0.11777000  1.0 -0.3896884229
N  N25  1  0.79098000  0.39349000  0.43589000  1.0 -0.2068937128
N  N26  1  0.79713000  0.44546000  0.39931000  1.0 -0.4209013375
N  N27  1  0.63297000  0.31048000  0.18759000  1.0 -0.2736663303
N  N28  1  0.62874000  0.31207000  0.11105000  1.0 -0.2304901092
N  N29  1  0.52590000  0.17807000  0.94331000  1.0 -0.2997391801
N  N30  1  0.56654000  0.16337000  0.93167000  1.0 -0.2997391801
N  N31  1  0.16125000  0.04187000  0.84020000  1.0 -0.3896884229
N  N32  1  0.20348000  0.03953000  0.88223000  1.0 -0.3896884229
N  N33  1  0.60251000  0.20902000  0.64491000  1.0 -0.2068937128
N  N34  1  0.64833000  0.20287000  0.60218000  1.0 -0.4209013375
N  N35  1  0.67751000  0.36703000  0.55462000  1.0 -0.2736663303
N  N36  1  0.68333000  0.37126000  0.48231000  1.0 -0.2304901092
N  N37  1  0.65217000  0.47410000  0.41741000  1.0 -0.2997391801
N  N38  1  0.59683000  0.43346000  0.36513000  1.0 -0.2997391801
N  N39  1  0.88062000  0.83875000  0.67895000  1.0 -0.3896884229
N  N40  1  0.83605000  0.79652000  0.67875000  1.0 -0.3896884229
N  N41  1  0.39749000  0.04240000  0.60651000  1.0 -0.2068937128
N  N42  1  0.35167000  0.95385000  0.55454000  1.0 -0.4209013375
N  N43  1  0.32249000  0.87711000  0.68952000  1.0 -0.2736663303
N  N44  1  0.31667000  0.79898000  0.68793000  1.0 -0.235444483
N  N45  1  0.34783000  0.76524000  0.82193000  1.0 -0.2997391801
N  N46  1  0.40317000  0.76830000  0.83663000  1.0 -0.2997391801
N  N47  1  0.11938000  0.79833000  0.95813000  1.0 -0.3896884229
N  N48  1  0.16395000  0.84270000  0.96047000  1.0 -0.3896884229
N  N49  1  0.56411000  0.95760000  0.35509000  1.0 -0.2068937128
N  N50  1  0.60069000  0.04615000  0.39782000  1.0 -0.4209013375
N  N51  1  0.81241000  0.12289000  0.44538000  1.0 -0.2736663303
N  N52  1  0.88895000  0.20102000  0.51769000  1.0 -0.2304901092
N  N53  1  0.05669000  0.23476000  0.58259000  1.0 -0.2997391801
N  N54  1  0.06833000  0.23170000  0.63487000  1.0 -0.2997391801
N  N55  1  0.15980000  0.20167000  0.32105000  1.0 -0.3896884229
N  N56  1  0.11777000  0.15730000  0.32125000  1.0 -0.3896884229
N  N57  1  0.43589000  0.79098000  0.39349000  1.0 -0.2068937128
N  N58  1  0.39931000  0.79713000  0.44546000  1.0 -0.4209013375
N  N59  1  0.18759000  0.63297000  0.31048000  1.0 -0.2736663303
N  N60  1  0.11105000  0.62874000  0.31207000  1.0 -0.235444483
N  N61  1  0.94331000  0.52590000  0.17807000  1.0 -0.2997391801
N  N62  1  0.93167000  0.56654000  0.16337000  1.0 -0.2997391801
N  N63  1  0.84020000  0.16125000  0.04187000  1.0 -0.3896884229
N  N64  1  0.88223000  0.20348000  0.03953000  1.0 -0.3896884229
N  N65  1  0.64491000  0.60251000  0.20902000  1.0 -0.2068937128
N  N66  1  0.60218000  0.64833000  0.20287000  1.0 -0.4209013375
N  N67  1  0.55462000  0.67751000  0.36703000  1.0 -0.2736663303
N  N68  1  0.48231000  0.68333000  0.37126000  1.0 -0.2304901092
N  N69  1  0.41741000  0.65217000  0.47410000  1.0 -0.2997391801
N  N70  1  0.36513000  0.59683000  0.43346000  1.0 -0.2997391801
N  N71  1  0.67895000  0.88062000  0.83875000  1.0 -0.3896884229
N  N72  1  0.67875000  0.83605000  0.79652000  1.0 -0.3896884229
N  N73  1  0.60651000  0.39749000  0.04240000  1.0 -0.2068937128
N  N74  1  0.55454000  0.35167000  0.95385000  1.0 -0.4209013375
N  N75  1  0.68952000  0.32249000  0.87711000  1.0 -0.2736663303
N  N76  1  0.68793000  0.31667000  0.79898000  1.0 -0.2304901092
N  N77  1  0.82193000  0.34783000  0.76524000  1.0 -0.2997391801
N  N78  1  0.83663000  0.40317000  0.76830000  1.0 -0.2997391801
N  N79  1  0.95813000  0.11938000  0.79833000  1.0 -0.3896884229
N  N80  1  0.96047000  0.16395000  0.84270000  1.0 -0.3896884229
N  N81  1  0.35509000  0.56411000  0.95760000  1.0 -0.2068937128
N  N82  1  0.39782000  0.60069000  0.04615000  1.0 -0.4209013375
N  N83  1  0.44538000  0.81241000  0.12289000  1.0 -0.2736663303
N  N84  1  0.51769000  0.88895000  0.20102000  1.0 -0.2304901092
N  N85  1  0.58259000  0.05669000  0.23476000  1.0 -0.2997391801
N  N86  1  0.63487000  0.06833000  0.23170000  1.0 -0.2997391801
N  N87  1  0.32105000  0.15980000  0.20167000  1.0 -0.3896884229
N  N88  1  0.32125000  0.11777000  0.15730000  1.0 -0.3896884229
N  N89  1  0.39349000  0.43589000  0.79098000  1.0 -0.2068937128
N  N90  1  0.44546000  0.39931000  0.79713000  1.0 -0.4209013375
N  N91  1  0.31048000  0.18759000  0.63297000  1.0 -0.2736663303
N  N92  1  0.31207000  0.11105000  0.62874000  1.0 -0.235444483
N  N93  1  0.17807000  0.94331000  0.52590000  1.0 -0.2997391801
N  N94  1  0.16337000  0.93167000  0.56654000  1.0 -0.2997391801
N  N95  1  0.04187000  0.84020000  0.16125000  1.0 -0.3896884229
N  N96  1  0.03953000  0.88223000  0.20348000  1.0 -0.3896884229
N  N97  1  0.39349000  0.95760000  0.60251000  1.0 -0.2068937128
N  N98  1  0.44546000  0.04615000  0.64833000  1.0 -0.4209013375
N  N99  1  0.31048000  0.12289000  0.67751000  1.0 -0.2736663303
N  N100  1  0.31207000  0.20102000  0.68333000  1.0 -0.235444483
N  N101  1  0.17807000  0.23476000  0.65217000  1.0 -0.2997391801
N  N102  1  0.16337000  0.23170000  0.59683000  1.0 -0.2997391801
N  N103  1  0.04187000  0.20167000  0.88062000  1.0 -0.3896884229
N  N104  1  0.03953000  0.15730000  0.83605000  1.0 -0.3896884229
N  N105  1  0.35509000  0.79098000  0.39749000  1.0 -0.2068937128
N  N106  1  0.39782000  0.79713000  0.35167000  1.0 -0.4209013375
N  N107  1  0.44538000  0.63297000  0.32249000  1.0 -0.2736663303
N  N108  1  0.51769000  0.62874000  0.31667000  1.0 -0.2304901092
N  N109  1  0.58259000  0.52590000  0.34783000  1.0 -0.2997391801
N  N110  1  0.63487000  0.56654000  0.40317000  1.0 -0.2997391801
N  N111  1  0.32105000  0.16125000  0.11938000  1.0 -0.3896884229
N  N112  1  0.32125000  0.20348000  0.16395000  1.0 -0.3896884229
N  N113  1  0.60651000  0.20902000  0.56411000  1.0 -0.2068937128
N  N114  1  0.55454000  0.20287000  0.60069000  1.0 -0.4209013375
N  N115  1  0.68952000  0.36703000  0.81241000  1.0 -0.2736663303
N  N116  1  0.68793000  0.37126000  0.88895000  1.0 -0.2304901092
N  N117  1  0.82193000  0.47410000  0.05669000  1.0 -0.2997391801
N  N118  1  0.83663000  0.43346000  0.06833000  1.0 -0.2997391801
N  N119  1  0.95813000  0.83875000  0.15980000  1.0 -0.3896884229
N  N120  1  0.96047000  0.79652000  0.11777000  1.0 -0.3896884229
N  N121  1  0.64491000  0.04240000  0.43589000  1.0 -0.2068937128
N  N122  1  0.60218000  0.95385000  0.39931000  1.0 -0.4209013375
N  N123  1  0.55462000  0.87711000  0.18759000  1.0 -0.2736663303
N  N124  1  0.48231000  0.79898000  0.11105000  1.0 -0.2304901092
N  N125  1  0.41741000  0.76524000  0.94331000  1.0 -0.2997391801
N  N126  1  0.36513000  0.76830000  0.93167000  1.0 -0.2997391801
N  N127  1  0.67895000  0.79833000  0.84020000  1.0 -0.3896884229
N  N128  1  0.67875000  0.84270000  0.88223000  1.0 -0.3896884229
N  N129  1  0.04240000  0.43589000  0.64491000  1.0 -0.2068937128
N  N130  1  0.95385000  0.39931000  0.60218000  1.0 -0.4209013375
N  N131  1  0.87711000  0.18759000  0.55462000  1.0 -0.2736663303
N  N132  1  0.79898000  0.11105000  0.48231000  1.0 -0.2304901092
N  N133  1  0.76524000  0.94331000  0.41741000  1.0 -0.2997391801
N  N134  1  0.76830000  0.93167000  0.36513000  1.0 -0.2997391801
N  N135  1  0.79833000  0.84020000  0.67895000  1.0 -0.3896884229
N  N136  1  0.84270000  0.88223000  0.67875000  1.0 -0.3896884229
N  N137  1  0.20902000  0.56411000  0.60651000  1.0 -0.2068937128
N  N138  1  0.20287000  0.60069000  0.55454000  1.0 -0.4209013375
N  N139  1  0.36703000  0.81241000  0.68952000  1.0 -0.2736663303
N  N140  1  0.37126000  0.88895000  0.68793000  1.0 -0.235444483
N  N141  1  0.47410000  0.05669000  0.82193000  1.0 -0.2997391801
N  N142  1  0.43346000  0.06833000  0.83663000  1.0 -0.2997391801
N  N143  1  0.83875000  0.15980000  0.95813000  1.0 -0.3896884229
N  N144  1  0.79652000  0.11777000  0.96047000  1.0 -0.3896884229
N  N145  1  0.79098000  0.39749000  0.35509000  1.0 -0.2068937128
N  N146  1  0.79713000  0.35167000  0.39782000  1.0 -0.4209013375
N  N147  1  0.63297000  0.32249000  0.44538000  1.0 -0.2736663303
N  N148  1  0.62874000  0.31667000  0.51769000  1.0 -0.2304901092
N  N149  1  0.52590000  0.34783000  0.58259000  1.0 -0.2997391801
N  N150  1  0.56654000  0.40317000  0.63487000  1.0 -0.2997391801
N  N151  1  0.16125000  0.11938000  0.32105000  1.0 -0.3896884229
N  N152  1  0.20348000  0.16395000  0.32125000  1.0 -0.3896884229
N  N153  1  0.95760000  0.60251000  0.39349000  1.0 -0.2068937128
N  N154  1  0.04615000  0.64833000  0.44546000  1.0 -0.4209013375
N  N155  1  0.12289000  0.67751000  0.31048000  1.0 -0.2736663303
N  N156  1  0.20102000  0.68333000  0.31207000  1.0 -0.2304901092
N  N157  1  0.23476000  0.65217000  0.17807000  1.0 -0.2997391801
N  N158  1  0.23170000  0.59683000  0.16337000  1.0 -0.2997391801
N  N159  1  0.20167000  0.88062000  0.04187000  1.0 -0.3896884229
N  N160  1  0.15730000  0.83605000  0.03953000  1.0 -0.3896884229
N  N161  1  0.56411000  0.60651000  0.20902000  1.0 -0.2068937128
N  N162  1  0.60069000  0.55454000  0.20287000  1.0 -0.4209013375
N  N163  1  0.81241000  0.68952000  0.36703000  1.0 -0.2736663303
N  N164  1  0.88895000  0.68793000  0.37126000  1.0 -0.2304901092
N  N165  1  0.05669000  0.82193000  0.47410000  1.0 -0.2997391801
N  N166  1  0.06833000  0.83663000  0.43346000  1.0 -0.2997391801
N  N167  1  0.15980000  0.95813000  0.83875000  1.0 -0.3896884229
N  N168  1  0.11777000  0.96047000  0.79652000  1.0 -0.3896884229
N  N169  1  0.43589000  0.64491000  0.04240000  1.0 -0.2068937128
N  N170  1  0.39931000  0.60218000  0.95385000  1.0 -0.4209013375
N  N171  1  0.18759000  0.55462000  0.87711000  1.0 -0.2736663303
N  N172  1  0.11105000  0.48231000  0.79898000  1.0 -0.235444483
N  N173  1  0.94331000  0.41741000  0.76524000  1.0 -0.2997391801
N  N174  1  0.93167000  0.36513000  0.76830000  1.0 -0.2997391801
N  N175  1  0.84020000  0.67895000  0.79833000  1.0 -0.3896884229
N  N176  1  0.88223000  0.67875000  0.84270000  1.0 -0.3896884229
N  N177  1  0.60251000  0.39349000  0.95760000  1.0 -0.2068937128
N  N178  1  0.64833000  0.44546000  0.04615000  1.0 -0.4209013375
N  N179  1  0.67751000  0.31048000  0.12289000  1.0 -0.2736663303
N  N180  1  0.68333000  0.31207000  0.20102000  1.0 -0.2304901092
N  N181  1  0.65217000  0.17807000  0.23476000  1.0 -0.2997391801
N  N182  1  0.59683000  0.16337000  0.23170000  1.0 -0.2997391801
N  N183  1  0.88062000  0.04187000  0.20167000  1.0 -0.3896884229
N  N184  1  0.83605000  0.03953000  0.15730000  1.0 -0.3896884229
N  N185  1  0.39749000  0.35509000  0.79098000  1.0 -0.2068937128
N  N186  1  0.35167000  0.39782000  0.79713000  1.0 -0.4209013375
N  N187  1  0.32249000  0.44538000  0.63297000  1.0 -0.2736663303
N  N188  1  0.31667000  0.51769000  0.62874000  1.0 -0.235444483
N  N189  1  0.34783000  0.58259000  0.52590000  1.0 -0.2997391801
N  N190  1  0.40317000  0.63487000  0.56654000  1.0 -0.2997391801
N  N191  1  0.11938000  0.32105000  0.16125000  1.0 -0.3951785384
N  N192  1  0.16395000  0.32125000  0.20348000  1.0 -0.3896884229
O  O1  1  0.62990000  0.59360000  0.69710000  1.0 -0.6430622184
O  O2  1  0.69850000  0.59250000  0.63200000  1.0 -0.5088251856
O  O3  1  0.59550000  0.45110000  0.80260000  1.0 -0.6596511472
O  O4  1  0.53856000  0.57433000  0.69471000  1.0 -0.5702218263
O  O5  1  0.57950000  0.54010000  0.69880000  1.0 -0.4209013375
O  O6  1  0.61100000  0.57270000  0.75910000  1.0 -0.5604703357
O  O7  1  0.56920000  0.60680000  0.75600000  1.0 -0.4279209279
O  O8  1  0.75900000  0.62420000  0.66320000  1.0 -0.5604703357
O  O9  1  0.66190000  0.62490000  0.75860000  1.0 -0.486136478
O  O10  1  0.63280000  0.51280000  0.82860000  1.0 -0.541624295
O  O11  1  0.45230000  0.59310000  0.80420000  1.0 -0.4986312198
O  O12  1  0.51210000  0.62680000  0.82750000  1.0 -0.5088251856
O  O13  1  0.53240000  0.60410000  0.87490000  1.0 -0.3896884229
O  O14  1  0.60550000  0.53600000  0.87610000  1.0 -0.541624295
O  O15  1  0.56980000  0.47320000  0.85320000  1.0 -0.5480026919
O  O16  1  0.47520000  0.56940000  0.84780000  1.0 -0.541624295
O  O17  1  0.89650000  0.93280000  0.30290000  1.0 -0.6430622184
O  O18  1  0.96050000  0.06650000  0.36800000  1.0 -0.5088251856
O  O19  1  0.64850000  0.79290000  0.19740000  1.0 -0.6596511472
O  O20  1  0.87962000  0.84385000  0.30529000  1.0 -0.5702218263
O  O21  1  0.84130000  0.88070000  0.30120000  1.0 -0.4209013375
O  O22  1  0.81360000  0.85190000  0.24090000  1.0 -0.5702218263
O  O23  1  0.85080000  0.81320000  0.24400000  1.0 -0.4279209279
O  O24  1  0.96100000  0.09580000  0.33680000  1.0 -0.5604703357
O  O25  1  0.86630000  0.90330000  0.24140000  1.0 -0.486136478
O  O26  1  0.68420000  0.80420000  0.17140000  1.0 -0.541624295
O  O27  1  0.78890000  0.64810000  0.19580000  1.0 -0.4986312198
O  O28  1  0.79930000  0.68460000  0.17250000  1.0 -0.5088251856
O  O29  1  0.72920000  0.65750000  0.12510000  1.0 -0.3844373741
O  O30  1  0.65990000  0.72940000  0.12390000  1.0 -0.5480026919
O  O31  1  0.62000000  0.71660000  0.14680000  1.0 -0.5480026919
O  O32  1  0.72160000  0.62740000  0.15220000  1.0 -0.541624295
O  O33  1  0.10350000  0.40640000  0.03630000  1.0 -0.6430622184
O  O34  1  0.03950000  0.40750000  0.10600000  1.0 -0.5088251856
O  O35  1  0.35150000  0.54890000  0.14440000  1.0 -0.6596511472
O  O36  1  0.12038000  0.42567000  0.96423000  1.0 -0.5702218263
O  O37  1  0.15870000  0.45990000  0.03940000  1.0 -0.4209013375
O  O38  1  0.18640000  0.42730000  0.03830000  1.0 -0.5604703357
O  O39  1  0.14920000  0.39320000  0.96240000  1.0 -0.4279209279
O  O40  1  0.03900000  0.37580000  0.13480000  1.0 -0.5604703357
O  O41  1  0.13370000  0.37510000  0.03700000  1.0 -0.486136478
O  O42  1  0.31580000  0.48720000  0.12000000  1.0 -0.541624295
O  O43  1  0.21110000  0.40690000  0.85920000  1.0 -0.4986312198
O  O44  1  0.20070000  0.37320000  0.88530000  1.0 -0.5088251856
O  O45  1  0.27080000  0.39590000  0.92830000  1.0 -0.3896884229
O  O46  1  0.34010000  0.46400000  0.06950000  1.0 -0.5480026919
O  O47  1  0.38000000  0.52680000  0.09660000  1.0 -0.5480026919
O  O48  1  0.27840000  0.43060000  0.90580000  1.0 -0.541624295
O  O49  1  0.37010000  0.06720000  0.96370000  1.0 -0.6430622184
O  O50  1  0.30150000  0.93350000  0.89400000  1.0 -0.5088251856
O  O51  1  0.40450000  0.20710000  0.85560000  1.0 -0.6596511472
O  O52  1  0.46144000  0.15615000  0.03577000  1.0 -0.5702218263
O  O53  1  0.42050000  0.11930000  0.96060000  1.0 -0.4209013375
O  O54  1  0.38900000  0.14810000  0.96170000  1.0 -0.5702218263
O  O55  1  0.43080000  0.18680000  0.03760000  1.0 -0.4279209279
O  O56  1  0.24100000  0.90420000  0.86520000  1.0 -0.5604703357
O  O57  1  0.33810000  0.09670000  0.96300000  1.0 -0.486136478
O  O58  1  0.36720000  0.19580000  0.88000000  1.0 -0.541624295
O  O59  1  0.54770000  0.35190000  0.14080000  1.0 -0.4986312198
O  O60  1  0.48790000  0.31540000  0.11470000  1.0 -0.4986312198
O  O61  1  0.46760000  0.34250000  0.07170000  1.0 -0.3896884229
O  O62  1  0.39450000  0.27060000  0.93050000  1.0 -0.541624295
O  O63  1  0.43020000  0.28340000  0.90340000  1.0 -0.5480026919
O  O64  1  0.52480000  0.37260000  0.09420000  1.0 -0.541624295
O  O65  1  0.69710000  0.62990000  0.59360000  1.0 -0.6430622184
O  O66  1  0.63200000  0.69850000  0.59250000  1.0 -0.5088251856
O  O67  1  0.80260000  0.59550000  0.45110000  1.0 -0.6596511472
O  O68  1  0.69471000  0.53856000  0.57433000  1.0 -0.5702218263
O  O69  1  0.69880000  0.57950000  0.54010000  1.0 -0.4279209279
O  O70  1  0.75910000  0.61100000  0.57270000  1.0 -0.5604703357
O  O71  1  0.75600000  0.56920000  0.60680000  1.0 -0.4279209279
O  O72  1  0.66320000  0.75900000  0.62420000  1.0 -0.5604703357
O  O73  1  0.75860000  0.66190000  0.62490000  1.0 -0.4846886514
O  O74  1  0.82860000  0.63280000  0.51280000  1.0 -0.541624295
O  O75  1  0.80420000  0.45230000  0.59310000  1.0 -0.4986312198
O  O76  1  0.82750000  0.51210000  0.62680000  1.0 -0.5088251856
O  O77  1  0.87490000  0.53240000  0.60410000  1.0 -0.3896884229
O  O78  1  0.87610000  0.60550000  0.53600000  1.0 -0.541624295
O  O79  1  0.85320000  0.56980000  0.47320000  1.0 -0.5480026919
O  O80  1  0.84780000  0.47520000  0.56940000  1.0 -0.541624295
O  O81  1  0.30290000  0.89650000  0.93280000  1.0 -0.6430622184
O  O82  1  0.36800000  0.96050000  0.06650000  1.0 -0.5088251856
O  O83  1  0.19740000  0.64850000  0.79290000  1.0 -0.6596511472
O  O84  1  0.30529000  0.87962000  0.84385000  1.0 -0.5702218263
O  O85  1  0.30120000  0.84130000  0.88070000  1.0 -0.4209013375
O  O86  1  0.24090000  0.81360000  0.85190000  1.0 -0.5604703357
O  O87  1  0.24400000  0.85080000  0.81320000  1.0 -0.4279209279
O  O88  1  0.33680000  0.96100000  0.09580000  1.0 -0.5604703357
O  O89  1  0.24140000  0.86630000  0.90330000  1.0 -0.486136478
O  O90  1  0.17140000  0.68420000  0.80420000  1.0 -0.541624295
O  O91  1  0.19580000  0.78890000  0.64810000  1.0 -0.4986312198
O  O92  1  0.17250000  0.79930000  0.68460000  1.0 -0.5088251856
O  O93  1  0.12510000  0.72920000  0.65750000  1.0 -0.3896884229
O  O94  1  0.12390000  0.65990000  0.72940000  1.0 -0.541624295
O  O95  1  0.14680000  0.62000000  0.71660000  1.0 -0.5480026919
O  O96  1  0.15220000  0.72160000  0.62740000  1.0 -0.541624295
O  O97  1  0.03630000  0.10350000  0.40640000  1.0 -0.6430622184
O  O98  1  0.10600000  0.03950000  0.40750000  1.0 -0.5088251856
O  O99  1  0.14440000  0.35150000  0.54890000  1.0 -0.6596511472
O  O100  1  0.96423000  0.12038000  0.42567000  1.0 -0.5702218263
O  O101  1  0.03940000  0.15870000  0.45990000  1.0 -0.4209013375
O  O102  1  0.03830000  0.18640000  0.42730000  1.0 -0.5702218263
O  O103  1  0.96240000  0.14920000  0.39320000  1.0 -0.4279209279
O  O104  1  0.13480000  0.03900000  0.37580000  1.0 -0.5604703357
O  O105  1  0.03700000  0.13370000  0.37510000  1.0 -0.4846886514
O  O106  1  0.12000000  0.31580000  0.48720000  1.0 -0.541624295
O  O107  1  0.85920000  0.21110000  0.40690000  1.0 -0.4986312198
O  O108  1  0.88530000  0.20070000  0.37320000  1.0 -0.5088251856
O  O109  1  0.92830000  0.27080000  0.39590000  1.0 -0.3896884229
O  O110  1  0.06950000  0.34010000  0.46400000  1.0 -0.541624295
O  O111  1  0.09660000  0.38000000  0.52680000  1.0 -0.5480026919
O  O112  1  0.90580000  0.27840000  0.43060000  1.0 -0.541624295
O  O113  1  0.96370000  0.37010000  0.06720000  1.0 -0.6430622184
O  O114  1  0.89400000  0.30150000  0.93350000  1.0 -0.5088251856
O  O115  1  0.85560000  0.40450000  0.20710000  1.0 -0.6596511472
O  O116  1  0.03577000  0.46144000  0.15615000  1.0 -0.5702218263
O  O117  1  0.96060000  0.42050000  0.11930000  1.0 -0.4209013375
O  O118  1  0.96170000  0.38900000  0.14810000  1.0 -0.5702218263
O  O119  1  0.03760000  0.43080000  0.18680000  1.0 -0.4279209279
O  O120  1  0.86520000  0.24100000  0.90420000  1.0 -0.5604703357
O  O121  1  0.96300000  0.33810000  0.09670000  1.0 -0.486136478
O  O122  1  0.88000000  0.36720000  0.19580000  1.0 -0.541624295
O  O123  1  0.14080000  0.54770000  0.35190000  1.0 -0.4986312198
O  O124  1  0.11470000  0.48790000  0.31540000  1.0 -0.5088251856
O  O125  1  0.07170000  0.46760000  0.34250000  1.0 -0.3844373741
O  O126  1  0.93050000  0.39450000  0.27060000  1.0 -0.541624295
O  O127  1  0.90340000  0.43020000  0.28340000  1.0 -0.5480026919
O  O128  1  0.09420000  0.52480000  0.37260000  1.0 -0.541624295
O  O129  1  0.59360000  0.69710000  0.62990000  1.0 -0.6430622184
O  O130  1  0.59250000  0.63200000  0.69850000  1.0 -0.5088251856
O  O131  1  0.45110000  0.80260000  0.59550000  1.0 -0.6596511472
O  O132  1  0.57433000  0.69471000  0.53856000  1.0 -0.5702218263
O  O133  1  0.54010000  0.69880000  0.57950000  1.0 -0.4209013375
O  O134  1  0.57270000  0.75910000  0.61100000  1.0 -0.5702218263
O  O135  1  0.60680000  0.75600000  0.56920000  1.0 -0.4279209279
O  O136  1  0.62420000  0.66320000  0.75900000  1.0 -0.5604703357
O  O137  1  0.62490000  0.75860000  0.66190000  1.0 -0.486136478
O  O138  1  0.51280000  0.82860000  0.63280000  1.0 -0.541624295
O  O139  1  0.59310000  0.80420000  0.45230000  1.0 -0.4986312198
O  O140  1  0.62680000  0.82750000  0.51210000  1.0 -0.5088251856
O  O141  1  0.60410000  0.87490000  0.53240000  1.0 -0.3896884229
O  O142  1  0.53600000  0.87610000  0.60550000  1.0 -0.541624295
O  O143  1  0.47320000  0.85320000  0.56980000  1.0 -0.5480026919
O  O144  1  0.56940000  0.84780000  0.47520000  1.0 -0.541624295
O  O145  1  0.93280000  0.30290000  0.89650000  1.0 -0.6430622184
O  O146  1  0.06650000  0.36800000  0.96050000  1.0 -0.5088251856
O  O147  1  0.79290000  0.19740000  0.64850000  1.0 -0.6596511472
O  O148  1  0.84385000  0.30529000  0.87962000  1.0 -0.5702218263
O  O149  1  0.88070000  0.30120000  0.84130000  1.0 -0.4209013375
O  O150  1  0.85190000  0.24090000  0.81360000  1.0 -0.5702218263
O  O151  1  0.81320000  0.24400000  0.85080000  1.0 -0.4279209279
O  O152  1  0.09580000  0.33680000  0.96100000  1.0 -0.5604703357
O  O153  1  0.90330000  0.24140000  0.86630000  1.0 -0.4846886514
O  O154  1  0.80420000  0.17140000  0.68420000  1.0 -0.541624295
O  O155  1  0.64810000  0.19580000  0.78890000  1.0 -0.4986312198
O  O156  1  0.68460000  0.17250000  0.79930000  1.0 -0.5088251856
O  O157  1  0.65750000  0.12510000  0.72920000  1.0 -0.3896884229
O  O158  1  0.72940000  0.12390000  0.65990000  1.0 -0.541624295
O  O159  1  0.71660000  0.14680000  0.62000000  1.0 -0.5480026919
O  O160  1  0.62740000  0.15220000  0.72160000  1.0 -0.541624295
O  O161  1  0.40640000  0.03630000  0.10350000  1.0 -0.6430622184
O  O162  1  0.40750000  0.10600000  0.03950000  1.0 -0.5088251856
O  O163  1  0.54890000  0.14440000  0.35150000  1.0 -0.6596511472
O  O164  1  0.42567000  0.96423000  0.12038000  1.0 -0.5702218263
O  O165  1  0.45990000  0.03940000  0.15870000  1.0 -0.4209013375
O  O166  1  0.42730000  0.03830000  0.18640000  1.0 -0.5702218263
O  O167  1  0.39320000  0.96240000  0.14920000  1.0 -0.4279209279
O  O168  1  0.37580000  0.13480000  0.03900000  1.0 -0.5604703357
O  O169  1  0.37510000  0.03700000  0.13370000  1.0 -0.486136478
O  O170  1  0.48720000  0.12000000  0.31580000  1.0 -0.541624295
O  O171  1  0.40690000  0.85920000  0.21110000  1.0 -0.4986312198
O  O172  1  0.37320000  0.88530000  0.20070000  1.0 -0.5088251856
O  O173  1  0.39590000  0.92830000  0.27080000  1.0 -0.3896884229
O  O174  1  0.46400000  0.06950000  0.34010000  1.0 -0.5480026919
O  O175  1  0.52680000  0.09660000  0.38000000  1.0 -0.5480026919
O  O176  1  0.43060000  0.90580000  0.27840000  1.0 -0.541624295
O  O177  1  0.06720000  0.96370000  0.37010000  1.0 -0.6430622184
O  O178  1  0.93350000  0.89400000  0.30150000  1.0 -0.5088251856
O  O179  1  0.20710000  0.85560000  0.40450000  1.0 -0.6596511472
O  O180  1  0.15615000  0.03577000  0.46144000  1.0 -0.5702218263
O  O181  1  0.11930000  0.96060000  0.42050000  1.0 -0.4279209279
O  O182  1  0.14810000  0.96170000  0.38900000  1.0 -0.5604703357
O  O183  1  0.18680000  0.03760000  0.43080000  1.0 -0.4279209279
O  O184  1  0.90420000  0.86520000  0.24100000  1.0 -0.5604703357
O  O185  1  0.09670000  0.96300000  0.33810000  1.0 -0.486136478
O  O186  1  0.19580000  0.88000000  0.36720000  1.0 -0.541624295
O  O187  1  0.35190000  0.14080000  0.54770000  1.0 -0.4986312198
O  O188  1  0.31540000  0.11470000  0.48790000  1.0 -0.4986312198
O  O189  1  0.34250000  0.07170000  0.46760000  1.0 -0.3896884229
O  O190  1  0.27060000  0.93050000  0.39450000  1.0 -0.5480026919
O  O191  1  0.28340000  0.90340000  0.43020000  1.0 -0.5480026919
O  O192  1  0.37260000  0.09420000  0.52480000  1.0 -0.541624295
O  O193  1  0.06720000  0.10350000  0.69710000  1.0 -0.6430622184
O  O194  1  0.93350000  0.03950000  0.63200000  1.0 -0.5088251856
O  O195  1  0.20710000  0.35150000  0.80260000  1.0 -0.6596511472
O  O196  1  0.15615000  0.12038000  0.69471000  1.0 -0.5702218263
O  O197  1  0.11930000  0.15870000  0.69880000  1.0 -0.4209013375
O  O198  1  0.14810000  0.18640000  0.75910000  1.0 -0.5702218263
O  O199  1  0.18680000  0.14920000  0.75600000  1.0 -0.4279209279
O  O200  1  0.90420000  0.03900000  0.66320000  1.0 -0.5604703357
O  O201  1  0.09670000  0.13370000  0.75860000  1.0 -0.486136478
O  O202  1  0.19580000  0.31580000  0.82860000  1.0 -0.541624295
O  O203  1  0.35190000  0.21110000  0.80420000  1.0 -0.4986312198
O  O204  1  0.31540000  0.20070000  0.82750000  1.0 -0.5088251856
O  O205  1  0.34250000  0.27080000  0.87490000  1.0 -0.3896884229
O  O206  1  0.27060000  0.34010000  0.87610000  1.0 -0.541624295
O  O207  1  0.28340000  0.38000000  0.85320000  1.0 -0.5480026919
O  O208  1  0.37260000  0.27840000  0.84780000  1.0 -0.541624295
O  O209  1  0.40640000  0.37010000  0.30290000  1.0 -0.6430622184
O  O210  1  0.40750000  0.30150000  0.36800000  1.0 -0.5088251856
O  O211  1  0.54890000  0.40450000  0.19740000  1.0 -0.6596511472
O  O212  1  0.42567000  0.46144000  0.30529000  1.0 -0.5702218263
O  O213  1  0.45990000  0.42050000  0.30120000  1.0 -0.4209013375
O  O214  1  0.42730000  0.38900000  0.24090000  1.0 -0.5702218263
O  O215  1  0.39320000  0.43080000  0.24400000  1.0 -0.4279209279
O  O216  1  0.37580000  0.24100000  0.33680000  1.0 -0.5604703357
O  O217  1  0.37510000  0.33810000  0.24140000  1.0 -0.486136478
O  O218  1  0.48720000  0.36720000  0.17140000  1.0 -0.541624295
O  O219  1  0.40690000  0.54770000  0.19580000  1.0 -0.4986312198
O  O220  1  0.37320000  0.48790000  0.17250000  1.0 -0.5088251856
O  O221  1  0.39590000  0.46760000  0.12510000  1.0 -0.3844373741
O  O222  1  0.46400000  0.39450000  0.12390000  1.0 -0.541624295
O  O223  1  0.52680000  0.43020000  0.14680000  1.0 -0.5480026919
O  O224  1  0.43060000  0.52480000  0.15220000  1.0 -0.541624295
O  O225  1  0.93280000  0.62990000  0.03630000  1.0 -0.6430622184
O  O226  1  0.06650000  0.69850000  0.10600000  1.0 -0.5088251856
O  O227  1  0.79290000  0.59550000  0.14440000  1.0 -0.6596511472
O  O228  1  0.84385000  0.53856000  0.96423000  1.0 -0.5702218263
O  O229  1  0.88070000  0.57950000  0.03940000  1.0 -0.4209013375
O  O230  1  0.85190000  0.61100000  0.03830000  1.0 -0.5702218263
O  O231  1  0.81320000  0.56920000  0.96240000  1.0 -0.4279209279
O  O232  1  0.09580000  0.75900000  0.13480000  1.0 -0.5604703357
O  O233  1  0.90330000  0.66190000  0.03700000  1.0 -0.4846886514
O  O234  1  0.80420000  0.63280000  0.12000000  1.0 -0.541624295
O  O235  1  0.64810000  0.45230000  0.85920000  1.0 -0.4986312198
O  O236  1  0.68460000  0.51210000  0.88530000  1.0 -0.5088251856
O  O237  1  0.65750000  0.53240000  0.92830000  1.0 -0.3896884229
O  O238  1  0.72940000  0.60550000  0.06950000  1.0 -0.5480026919
O  O239  1  0.71660000  0.56980000  0.09660000  1.0 -0.5480026919
O  O240  1  0.62740000  0.47520000  0.90580000  1.0 -0.541624295
O  O241  1  0.59360000  0.89650000  0.96370000  1.0 -0.6430622184
O  O242  1  0.59250000  0.96050000  0.89400000  1.0 -0.5088251856
O  O243  1  0.45110000  0.64850000  0.85560000  1.0 -0.6596511472
O  O244  1  0.57433000  0.87962000  0.03577000  1.0 -0.5702218263
O  O245  1  0.54010000  0.84130000  0.96060000  1.0 -0.4209013375
O  O246  1  0.57270000  0.81360000  0.96170000  1.0 -0.5702218263
O  O247  1  0.60680000  0.85080000  0.03760000  1.0 -0.4279209279
O  O248  1  0.62420000  0.96100000  0.86520000  1.0 -0.5604703357
O  O249  1  0.62490000  0.86630000  0.96300000  1.0 -0.486136478
O  O250  1  0.51280000  0.68420000  0.88000000  1.0 -0.541624295
O  O251  1  0.59310000  0.78890000  0.14080000  1.0 -0.4986312198
O  O252  1  0.62680000  0.79930000  0.11470000  1.0 -0.5088251856
O  O253  1  0.60410000  0.72920000  0.07170000  1.0 -0.3844373741
O  O254  1  0.53600000  0.65990000  0.93050000  1.0 -0.541624295
O  O255  1  0.47320000  0.62000000  0.90340000  1.0 -0.5480026919
O  O256  1  0.56940000  0.72160000  0.09420000  1.0 -0.541624295
O  O257  1  0.89650000  0.96370000  0.59360000  1.0 -0.6430622184
O  O258  1  0.96050000  0.89400000  0.59250000  1.0 -0.5088251856
O  O259  1  0.64850000  0.85560000  0.45110000  1.0 -0.6596511472
O  O260  1  0.87962000  0.03577000  0.57433000  1.0 -0.5702218263
O  O261  1  0.84130000  0.96060000  0.54010000  1.0 -0.4209013375
O  O262  1  0.81360000  0.96170000  0.57270000  1.0 -0.5702218263
O  O263  1  0.85080000  0.03760000  0.60680000  1.0 -0.4209013375
O  O264  1  0.96100000  0.86520000  0.62420000  1.0 -0.5604703357
O  O265  1  0.86630000  0.96300000  0.62490000  1.0 -0.486136478
O  O266  1  0.68420000  0.88000000  0.51280000  1.0 -0.541624295
O  O267  1  0.78890000  0.14080000  0.59310000  1.0 -0.4986312198
O  O268  1  0.79930000  0.11470000  0.62680000  1.0 -0.5088251856
O  O269  1  0.72920000  0.07170000  0.60410000  1.0 -0.3896884229
O  O270  1  0.65990000  0.93050000  0.53600000  1.0 -0.541624295
O  O271  1  0.62000000  0.90340000  0.47320000  1.0 -0.5480026919
O  O272  1  0.72160000  0.09420000  0.56940000  1.0 -0.541624295
O  O273  1  0.62990000  0.03630000  0.93280000  1.0 -0.6430622184
O  O274  1  0.69850000  0.10600000  0.06650000  1.0 -0.5088251856
O  O275  1  0.59550000  0.14440000  0.79290000  1.0 -0.6596511472
O  O276  1  0.53856000  0.96423000  0.84385000  1.0 -0.5702218263
O  O277  1  0.57950000  0.03940000  0.88070000  1.0 -0.4209013375
O  O278  1  0.61100000  0.03830000  0.85190000  1.0 -0.5702218263
O  O279  1  0.56920000  0.96240000  0.81320000  1.0 -0.4279209279
O  O280  1  0.75900000  0.13480000  0.09580000  1.0 -0.5604703357
O  O281  1  0.66190000  0.03700000  0.90330000  1.0 -0.486136478
O  O282  1  0.63280000  0.12000000  0.80420000  1.0 -0.541624295
O  O283  1  0.45230000  0.85920000  0.64810000  1.0 -0.4986312198
O  O284  1  0.51210000  0.88530000  0.68460000  1.0 -0.5088251856
O  O285  1  0.53240000  0.92830000  0.65750000  1.0 -0.3896884229
O  O286  1  0.60550000  0.06950000  0.72940000  1.0 -0.541624295
O  O287  1  0.56980000  0.09660000  0.71660000  1.0 -0.5480026919
O  O288  1  0.47520000  0.90580000  0.62740000  1.0 -0.541624295
O  O289  1  0.37010000  0.30290000  0.40640000  1.0 -0.6430622184
O  O290  1  0.30150000  0.36800000  0.40750000  1.0 -0.5088251856
O  O291  1  0.40450000  0.19740000  0.54890000  1.0 -0.6596511472
O  O292  1  0.46144000  0.30529000  0.42567000  1.0 -0.5702218263
O  O293  1  0.42050000  0.30120000  0.45990000  1.0 -0.4209013375
O  O294  1  0.38900000  0.24090000  0.42730000  1.0 -0.5702218263
O  O295  1  0.43080000  0.24400000  0.39320000  1.0 -0.4279209279
O  O296  1  0.24100000  0.33680000  0.37580000  1.0 -0.5604703357
O  O297  1  0.33810000  0.24140000  0.37510000  1.0 -0.486136478
O  O298  1  0.36720000  0.17140000  0.48720000  1.0 -0.541624295
O  O299  1  0.54770000  0.19580000  0.40690000  1.0 -0.4986312198
O  O300  1  0.48790000  0.17250000  0.37320000  1.0 -0.5088251856
O  O301  1  0.46760000  0.12510000  0.39590000  1.0 -0.3844373741
O  O302  1  0.39450000  0.12390000  0.46400000  1.0 -0.541624295
O  O303  1  0.43020000  0.14680000  0.52680000  1.0 -0.5480026919
O  O304  1  0.52480000  0.15220000  0.43060000  1.0 -0.541624295
O  O305  1  0.10350000  0.69710000  0.06720000  1.0 -0.6430622184
O  O306  1  0.03950000  0.63200000  0.93350000  1.0 -0.5088251856
O  O307  1  0.35150000  0.80260000  0.20710000  1.0 -0.6596511472
O  O308  1  0.12038000  0.69471000  0.15615000  1.0 -0.5702218263
O  O309  1  0.15870000  0.69880000  0.11930000  1.0 -0.4209013375
O  O310  1  0.18640000  0.75910000  0.14810000  1.0 -0.5604703357
O  O311  1  0.14920000  0.75600000  0.18680000  1.0 -0.4279209279
O  O312  1  0.03900000  0.66320000  0.90420000  1.0 -0.5604703357
O  O313  1  0.13370000  0.75860000  0.09670000  1.0 -0.486136478
O  O314  1  0.31580000  0.82860000  0.19580000  1.0 -0.541624295
O  O315  1  0.21110000  0.80420000  0.35190000  1.0 -0.4986312198
O  O316  1  0.20070000  0.82750000  0.31540000  1.0 -0.5088251856
O  O317  1  0.27080000  0.87490000  0.34250000  1.0 -0.3844373741
O  O318  1  0.34010000  0.87610000  0.27060000  1.0 -0.541624295
O  O319  1  0.38000000  0.85320000  0.28340000  1.0 -0.5480026919
O  O320  1  0.27840000  0.84780000  0.37260000  1.0 -0.541624295
O  O321  1  0.03630000  0.93280000  0.62990000  1.0 -0.6430622184
O  O322  1  0.10600000  0.06650000  0.69850000  1.0 -0.5088251856
O  O323  1  0.14440000  0.79290000  0.59550000  1.0 -0.6596511472
O  O324  1  0.96423000  0.84385000  0.53856000  1.0 -0.5702218263
O  O325  1  0.03940000  0.88070000  0.57950000  1.0 -0.4209013375
O  O326  1  0.03830000  0.85190000  0.61100000  1.0 -0.5702218263
O  O327  1  0.96240000  0.81320000  0.56920000  1.0 -0.4279209279
O  O328  1  0.13480000  0.09580000  0.75900000  1.0 -0.5604703357
O  O329  1  0.03700000  0.90330000  0.66190000  1.0 -0.4846886514
O  O330  1  0.12000000  0.80420000  0.63280000  1.0 -0.541624295
O  O331  1  0.85920000  0.64810000  0.45230000  1.0 -0.4986312198
O  O332  1  0.88530000  0.68460000  0.51210000  1.0 -0.5088251856
O  O333  1  0.92830000  0.65750000  0.53240000  1.0 -0.3896884229
O  O334  1  0.06950000  0.72940000  0.60550000  1.0 -0.541624295
O  O335  1  0.09660000  0.71660000  0.56980000  1.0 -0.5480026919
O  O336  1  0.90580000  0.62740000  0.47520000  1.0 -0.541624295
O  O337  1  0.96370000  0.59360000  0.89650000  1.0 -0.6430622184
O  O338  1  0.89400000  0.59250000  0.96050000  1.0 -0.5088251856
O  O339  1  0.85560000  0.45110000  0.64850000  1.0 -0.6596511472
O  O340  1  0.03577000  0.57433000  0.87962000  1.0 -0.5702218263
O  O341  1  0.96060000  0.54010000  0.84130000  1.0 -0.4209013375
O  O342  1  0.96170000  0.57270000  0.81360000  1.0 -0.5604703357
O  O343  1  0.03760000  0.60680000  0.85080000  1.0 -0.4279209279
O  O344  1  0.86520000  0.62420000  0.96100000  1.0 -0.5604703357
O  O345  1  0.96300000  0.62490000  0.86630000  1.0 -0.4846886514
O  O346  1  0.88000000  0.51280000  0.68420000  1.0 -0.541624295
O  O347  1  0.14080000  0.59310000  0.78890000  1.0 -0.4986312198
O  O348  1  0.11470000  0.62680000  0.79930000  1.0 -0.5088251856
O  O349  1  0.07170000  0.60410000  0.72920000  1.0 -0.3896884229
O  O350  1  0.93050000  0.53600000  0.65990000  1.0 -0.541624295
O  O351  1  0.90340000  0.47320000  0.62000000  1.0 -0.5480026919
O  O352  1  0.09420000  0.56940000  0.72160000  1.0 -0.541624295
O  O353  1  0.69710000  0.06720000  0.10350000  1.0 -0.6430622184
O  O354  1  0.63200000  0.93350000  0.03950000  1.0 -0.5088251856
O  O355  1  0.80260000  0.20710000  0.35150000  1.0 -0.6596511472
O  O356  1  0.69471000  0.15615000  0.12038000  1.0 -0.5702218263
O  O357  1  0.69880000  0.11930000  0.15870000  1.0 -0.4209013375
O  O358  1  0.75910000  0.14810000  0.18640000  1.0 -0.5604703357
O  O359  1  0.75600000  0.18680000  0.14920000  1.0 -0.4279209279
O  O360  1  0.66320000  0.90420000  0.03900000  1.0 -0.5604703357
O  O361  1  0.75860000  0.09670000  0.13370000  1.0 -0.486136478
O  O362  1  0.82860000  0.19580000  0.31580000  1.0 -0.541624295
O  O363  1  0.80420000  0.35190000  0.21110000  1.0 -0.4986312198
O  O364  1  0.82750000  0.31540000  0.20070000  1.0 -0.5088251856
O  O365  1  0.87490000  0.34250000  0.27080000  1.0 -0.3896884229
O  O366  1  0.87610000  0.27060000  0.34010000  1.0 -0.541624295
O  O367  1  0.85320000  0.28340000  0.38000000  1.0 -0.5480026919
O  O368  1  0.84780000  0.37260000  0.27840000  1.0 -0.541624295
O  O369  1  0.30290000  0.40640000  0.37010000  1.0 -0.6430622184
O  O370  1  0.36800000  0.40750000  0.30150000  1.0 -0.5088251856
O  O371  1  0.19740000  0.54890000  0.40450000  1.0 -0.6596511472
O  O372  1  0.30529000  0.42567000  0.46144000  1.0 -0.5702218263
O  O373  1  0.30120000  0.45990000  0.42050000  1.0 -0.4209013375
O  O374  1  0.24090000  0.42730000  0.38900000  1.0 -0.5702218263
O  O375  1  0.24400000  0.39320000  0.43080000  1.0 -0.4279209279
O  O376  1  0.33680000  0.37580000  0.24100000  1.0 -0.5604703357
O  O377  1  0.24140000  0.37510000  0.33810000  1.0 -0.486136478
O  O378  1  0.17140000  0.48720000  0.36720000  1.0 -0.541624295
O  O379  1  0.19580000  0.40690000  0.54770000  1.0 -0.4986312198
O  O380  1  0.17250000  0.37320000  0.48790000  1.0 -0.5088251856
O  O381  1  0.12510000  0.39590000  0.46760000  1.0 -0.3896884229
O  O382  1  0.12390000  0.46400000  0.39450000  1.0 -0.5480026919
O  O383  1  0.14680000  0.52680000  0.43020000  1.0 -0.5480026919
O  O384  1  0.15220000  0.43060000  0.52480000  1.0 -0.541624295
F  F1  1  0.30619000  0.53642000  0.63499000  1.0 0.0033744084
F  F2  1  0.35480000  0.58585000  0.67919000  1.0 -0.0137260842
F  F3  1  0.33333333  0.54018000  0.68642000  1.0 -0.0594045132
F  F4  1  0.31422000  0.65013000  0.78921000  1.0 -0.1280884867
F  F5  1  0.26827000  0.60139000  0.77412000  1.0 -0.0407305662
F  F6  1  0.32024000  0.60476000  0.78890000  1.0 0.1708097757
F  F7  1  0.34647000  0.64810000  0.78983000  1.0 -0.1400545277
F  F8  1  0.33231000  0.59330000  0.77733000  1.0 -0.0773466312
F  F9  1  0.29114000  0.60848000  0.76814000  1.0 0.1105480904
F  F10  1  0.26824000  0.61649000  0.62337000  1.0 0.089401739
F  F11  1  0.26417000  0.64511000  0.66924000  1.0 -0.0594045132
F  F12  1  0.22487000  0.58876000  0.63099000  1.0 0.1397298889
F  F13  1  0.39272000  0.50474000  0.61204000  1.0 -0.0221237334
F  F14  1  0.41130000  0.51748000  0.66752000  1.0 0.0405704229
F  F15  1  0.44759000  0.51956000  0.64623000  1.0 -0.1066595837
F  F16  1  0.30521000  0.37408000  0.61191000  1.0 -0.16987075
F  F17  1  0.29110000  0.37816000  0.56354000  1.0 -0.2068937128
F  F18  1  0.30546000  0.33798000  0.56674000  1.0 -0.16987075
F  F19  1  0.84527000  0.78392000  0.01715000  1.0 -0.0594045132
F  F20  1  0.87879000  0.76294000  0.00567000  1.0 0.069381688
F  F21  1  0.89260000  0.81758000  0.01810000  1.0 -0.0407305662
F  F22  1  0.78277000  0.81639000  0.91620000  1.0 0.0405704229
F  F23  1  0.74068000  0.76313000  0.89715000  1.0 -0.0504267388
F  F24  1  0.75957000  0.77360000  0.86191000  1.0 -0.1400545277
F  F25  1  0.90143000  0.67120000  0.36501000  1.0 0.0033744084
F  F26  1  0.90666000  0.67561000  0.32081000  1.0 -0.0137260842
F  F27  1  0.85376000  0.64692000  0.31358000  1.0 -0.0594045132
F  F28  1  0.86092000  0.52501000  0.21079000  1.0 -0.1280884867
F  F29  1  0.82727000  0.49415000  0.22588000  1.0 -0.0407305662
F  F30  1  0.81586000  0.53134000  0.21110000  1.0 0.1708097757
F  F31  1  0.85827000  0.55664000  0.21017000  1.0 -0.1400545277
F  F32  1  0.81597000  0.55498000  0.22267000  1.0 -0.0773466312
F  F33  1  0.84034000  0.52300000  0.23186000  1.0 0.1105480904
F  F34  1  0.99312000  0.64487000  0.37663000  1.0 0.089401739
F  F35  1  0.97587000  0.59493000  0.33076000  1.0 -0.0594045132
F  F36  1  0.95777000  0.59388000  0.36901000  1.0 0.1397298889
F  F37  1  0.89270000  0.78068000  0.38796000  1.0 -0.0221237334
F  F38  1  0.84996000  0.74378000  0.33248000  1.0 0.0405704229
F  F39  1  0.87333000  0.80136000  0.35377000  1.0 -0.1066595837
F  F40  1  0.76217000  0.69330000  0.38809000  1.0 -0.16987075
F  F41  1  0.81462000  0.72756000  0.43646000  1.0 -0.2068937128
F  F42  1  0.77124000  0.73872000  0.43326000  1.0 -0.16987075
F  F43  1  0.76677000  0.82812000  0.98285000  1.0 -0.0594045132
F  F44  1  0.75727000  0.87312000  0.99433000  1.0 0.069381688
F  F45  1  0.79948000  0.87450000  0.98190000  1.0 -0.0407305662
F  F46  1  0.90019000  0.86657000  0.08380000  1.0 0.0405704229
F  F47  1  0.86598000  0.84353000  0.10285000  1.0 -0.0504267388
F  F48  1  0.91169000  0.89766000  0.13809000  1.0 -0.1400545277
F  F49  1  0.09857000  0.46358000  0.76977000  1.0 0.0033744084
F  F50  1  0.09334000  0.41415000  0.76895000  1.0 -0.0137260842
F  F51  1  0.14624000  0.45982000  0.79316000  1.0 -0.0594045132
F  F52  1  0.13908000  0.34987000  0.66409000  1.0 -0.1280884867
F  F53  1  0.17273000  0.39861000  0.66688000  1.0 -0.0407305662
F  F54  1  0.18414000  0.39524000  0.71548000  1.0 0.1708097757
F  F55  1  0.14173000  0.35190000  0.69837000  1.0 -0.1400545277
F  F56  1  0.18403000  0.40670000  0.73901000  1.0 -0.0773466312
F  F57  1  0.15966000  0.39152000  0.68266000  1.0 0.1105480904
F  F58  1  0.00688000  0.38351000  0.65175000  1.0 0.089401739
F  F59  1  0.02413000  0.35489000  0.61906000  1.0 -0.0594045132
F  F60  1  0.04223000  0.41124000  0.63611000  1.0 0.1397298889
F  F61  1  0.10730000  0.49526000  0.88798000  1.0 -0.0221237334
F  F62  1  0.15004000  0.48252000  0.89382000  1.0 0.0405704229
F  F63  1  0.12667000  0.48044000  0.92803000  1.0 -0.1066595837
F  F64  1  0.23783000  0.62592000  0.93113000  1.0 -0.16987075
F  F65  1  0.18538000  0.62184000  0.91294000  1.0 -0.2068937128
F  F66  1  0.22876000  0.66202000  0.96748000  1.0 -0.16987075
F  F67  1  0.23323000  0.21608000  0.06135000  1.0 -0.0594045132
F  F68  1  0.24273000  0.23706000  0.11585000  1.0 0.069381688
F  F69  1  0.20052000  0.18242000  0.07502000  1.0 -0.0407305662
F  F70  1  0.09981000  0.18361000  0.96638000  1.0 0.0405704229
F  F71  1  0.13402000  0.23687000  0.97755000  1.0 -0.0504267388
F  F72  1  0.08831000  0.22640000  0.98597000  1.0 -0.1400545277
F  F73  1  0.69381000  0.32880000  0.23023000  1.0 0.0033744084
F  F74  1  0.64520000  0.32439000  0.23105000  1.0 -0.0137260842
F  F75  1  0.66666667  0.35308000  0.20684000  1.0 -0.0594045132
F  F76  1  0.68578000  0.47499000  0.33591000  1.0 -0.1280884867
F  F77  1  0.73173000  0.50585000  0.33312000  1.0 -0.0407305662
F  F78  1  0.67976000  0.46866000  0.28452000  1.0 0.1708097757
F  F79  1  0.65353000  0.44336000  0.30163000  1.0 -0.1400545277
F  F80  1  0.66769000  0.44502000  0.26099000  1.0 -0.0773466312
F  F81  1  0.70886000  0.47700000  0.31734000  1.0 0.1105480904
F  F82  1  0.73176000  0.35513000  0.34825000  1.0 0.089401739
F  F83  1  0.73583000  0.40507000  0.38094000  1.0 -0.0594045132
F  F84  1  0.77513000  0.40612000  0.36389000  1.0 0.1397298889
F  F85  1  0.60728000  0.21932000  0.11202000  1.0 -0.0221237334
F  F86  1  0.58870000  0.25622000  0.10618000  1.0 0.0405704229
F  F87  1  0.55241000  0.19864000  0.07197000  1.0 -0.1066595837
F  F88  1  0.69479000  0.30670000  0.06887000  1.0 -0.16987075
F  F89  1  0.70890000  0.27244000  0.08706000  1.0 -0.20476557
F  F90  1  0.69454000  0.26128000  0.03252000  1.0 -0.16987075
F  F91  1  0.15473000  0.17188000  0.93865000  1.0 -0.0710923863
F  F92  1  0.12121000  0.12688000  0.88415000  1.0 0.069381688
F  F93  1  0.10740000  0.12550000  0.92498000  1.0 -0.0407305662
F  F94  1  0.21723000  0.13343000  0.03362000  1.0 0.0500818461
F  F95  1  0.25932000  0.15647000  0.02245000  1.0 -0.0407305662
F  F96  1  0.24043000  0.10234000  0.01403000  1.0 -0.1400545277
F  F97  1  0.63499000  0.30619000  0.53642000  1.0 0.0033744084
F  F98  1  0.67919000  0.35480000  0.58585000  1.0 -0.0137260842
F  F99  1  0.68642000  0.33333333  0.54018000  1.0 -0.0594045132
F  F100  1  0.78921000  0.31422000  0.65013000  1.0 -0.1280884867
F  F101  1  0.77412000  0.26827000  0.60139000  1.0 -0.0407305662
F  F102  1  0.78890000  0.32024000  0.60476000  1.0 0.1708097757
F  F103  1  0.78983000  0.34647000  0.64810000  1.0 -0.1400545277
F  F104  1  0.77733000  0.33231000  0.59330000  1.0 -0.0773466312
F  F105  1  0.76814000  0.29114000  0.60848000  1.0 0.1105480904
F  F106  1  0.62337000  0.26824000  0.61649000  1.0 0.089401739
F  F107  1  0.66924000  0.26417000  0.64511000  1.0 -0.0594045132
F  F108  1  0.63099000  0.22487000  0.58876000  1.0 0.1397298889
F  F109  1  0.61204000  0.39272000  0.50474000  1.0 -0.0221237334
F  F110  1  0.66752000  0.41130000  0.51748000  1.0 0.0405704229
F  F111  1  0.64623000  0.44759000  0.51956000  1.0 -0.1066595837
F  F112  1  0.61191000  0.30521000  0.37408000  1.0 -0.16987075
F  F113  1  0.56354000  0.29110000  0.37816000  1.0 -0.2068937128
F  F114  1  0.56674000  0.30546000  0.33798000  1.0 -0.16987075
F  F115  1  0.01715000  0.84527000  0.78392000  1.0 -0.0594045132
F  F116  1  0.00567000  0.87879000  0.76294000  1.0 0.069381688
F  F117  1  0.01810000  0.89260000  0.81758000  1.0 -0.0407305662
F  F118  1  0.91620000  0.78277000  0.81639000  1.0 0.0405704229
F  F119  1  0.89715000  0.74068000  0.76313000  1.0 -0.0504267388
F  F120  1  0.86191000  0.75957000  0.77360000  1.0 -0.1400545277
F  F121  1  0.36501000  0.90143000  0.67120000  1.0 0.0033744084
F  F122  1  0.32081000  0.90666000  0.67561000  1.0 -0.0137260842
F  F123  1  0.31358000  0.85376000  0.64692000  1.0 -0.0594045132
F  F124  1  0.21079000  0.86092000  0.52501000  1.0 -0.1280884867
F  F125  1  0.22588000  0.82727000  0.49415000  1.0 -0.0407305662
F  F126  1  0.21110000  0.81586000  0.53134000  1.0 0.1708097757
F  F127  1  0.21017000  0.85827000  0.55664000  1.0 -0.1400545277
F  F128  1  0.22267000  0.81597000  0.55498000  1.0 -0.0773466312
F  F129  1  0.23186000  0.84034000  0.52300000  1.0 0.1105480904
F  F130  1  0.37663000  0.99312000  0.64487000  1.0 0.089401739
F  F131  1  0.33076000  0.97587000  0.59493000  1.0 -0.0504267388
F  F132  1  0.36901000  0.95777000  0.59388000  1.0 0.1397298889
F  F133  1  0.38796000  0.89270000  0.78068000  1.0 -0.0221237334
F  F134  1  0.33248000  0.84996000  0.74378000  1.0 0.0405704229
F  F135  1  0.35377000  0.87333000  0.80136000  1.0 -0.1066595837
F  F136  1  0.38809000  0.76217000  0.69330000  1.0 -0.16987075
F  F137  1  0.43646000  0.81462000  0.72756000  1.0 -0.2068937128
F  F138  1  0.43326000  0.77124000  0.73872000  1.0 -0.16987075
F  F139  1  0.98285000  0.76677000  0.82812000  1.0 -0.0594045132
F  F140  1  0.99433000  0.75727000  0.87312000  1.0 0.069381688
F  F141  1  0.98190000  0.79948000  0.87450000  1.0 -0.0407305662
F  F142  1  0.08380000  0.90019000  0.86657000  1.0 0.0405704229
F  F143  1  0.10285000  0.86598000  0.84353000  1.0 -0.0504267388
F  F144  1  0.13809000  0.91169000  0.89766000  1.0 -0.1400545277
F  F145  1  0.76977000  0.09857000  0.46358000  1.0 0.0033744084
F  F146  1  0.76895000  0.09334000  0.41415000  1.0 -0.0137260842
F  F147  1  0.79316000  0.14624000  0.45982000  1.0 -0.0594045132
F  F148  1  0.66409000  0.13908000  0.34987000  1.0 -0.1280884867
F  F149  1  0.66688000  0.17273000  0.39861000  1.0 -0.0407305662
F  F150  1  0.71548000  0.18414000  0.39524000  1.0 0.1708097757
F  F151  1  0.69837000  0.14173000  0.35190000  1.0 -0.1400545277
F  F152  1  0.73901000  0.18403000  0.40670000  1.0 -0.0773466312
F  F153  1  0.68266000  0.15966000  0.39152000  1.0 0.1105480904
F  F154  1  0.65175000  0.00688000  0.38351000  1.0 0.089401739
F  F155  1  0.61906000  0.02413000  0.35489000  1.0 -0.0594045132
F  F156  1  0.63611000  0.04223000  0.41124000  1.0 0.1397298889
F  F157  1  0.88798000  0.10730000  0.49526000  1.0 -0.0221237334
F  F158  1  0.89382000  0.15004000  0.48252000  1.0 0.0405704229
F  F159  1  0.92803000  0.12667000  0.48044000  1.0 -0.1066595837
F  F160  1  0.93113000  0.23783000  0.62592000  1.0 -0.16987075
F  F161  1  0.91294000  0.18538000  0.62184000  1.0 -0.2068937128
F  F162  1  0.96748000  0.22876000  0.66202000  1.0 -0.16987075
F  F163  1  0.06135000  0.23323000  0.21608000  1.0 -0.0594045132
F  F164  1  0.11585000  0.24273000  0.23706000  1.0 0.069381688
F  F165  1  0.07502000  0.20052000  0.18242000  1.0 -0.0407305662
F  F166  1  0.96638000  0.09981000  0.18361000  1.0 0.0500818461
F  F167  1  0.97755000  0.13402000  0.23687000  1.0 -0.0504267388
F  F168  1  0.98597000  0.08831000  0.22640000  1.0 -0.1400545277
F  F169  1  0.23023000  0.69381000  0.32880000  1.0 0.0033744084
F  F170  1  0.23105000  0.64520000  0.32439000  1.0 -0.0137260842
F  F171  1  0.20684000  0.66666667  0.35308000  1.0 -0.0594045132
F  F172  1  0.33591000  0.68578000  0.47499000  1.0 -0.1280884867
F  F173  1  0.33312000  0.73173000  0.50585000  1.0 -0.0407305662
F  F174  1  0.28452000  0.67976000  0.46866000  1.0 0.1789682263
F  F175  1  0.30163000  0.65353000  0.44336000  1.0 -0.1400545277
F  F176  1  0.26099000  0.66769000  0.44502000  1.0 -0.0773466312
F  F177  1  0.31734000  0.70886000  0.47700000  1.0 0.1105480904
F  F178  1  0.34825000  0.73176000  0.35513000  1.0 0.089401739
F  F179  1  0.38094000  0.73583000  0.40507000  1.0 -0.0594045132
F  F180  1  0.36389000  0.77513000  0.40612000  1.0 0.1397298889
F  F181  1  0.11202000  0.60728000  0.21932000  1.0 -0.0221237334
F  F182  1  0.10618000  0.58870000  0.25622000  1.0 0.0405704229
F  F183  1  0.07197000  0.55241000  0.19864000  1.0 -0.1066595837
F  F184  1  0.06887000  0.69479000  0.30670000  1.0 -0.16987075
F  F185  1  0.08706000  0.70890000  0.27244000  1.0 -0.2068937128
F  F186  1  0.03252000  0.69454000  0.26128000  1.0 -0.16987075
F  F187  1  0.93865000  0.15473000  0.17188000  1.0 -0.0594045132
F  F188  1  0.88415000  0.12121000  0.12688000  1.0 0.069381688
F  F189  1  0.92498000  0.10740000  0.12550000  1.0 -0.0407305662
F  F190  1  0.03362000  0.21723000  0.13343000  1.0 0.0405704229
F  F191  1  0.02245000  0.25932000  0.15647000  1.0 -0.0504267388
F  F192  1  0.01403000  0.24043000  0.10234000  1.0 -0.1400545277
F  F193  1  0.53642000  0.63499000  0.30619000  1.0 0.0033744084
F  F194  1  0.58585000  0.67919000  0.35480000  1.0 -0.0137260842
F  F195  1  0.54018000  0.68642000  0.33333333  1.0 -0.0594045132
F  F196  1  0.65013000  0.78921000  0.31422000  1.0 -0.1280884867
F  F197  1  0.60139000  0.77412000  0.26827000  1.0 -0.0407305662
F  F198  1  0.60476000  0.78890000  0.32024000  1.0 0.1708097757
F  F199  1  0.64810000  0.78983000  0.34647000  1.0 -0.1400545277
F  F200  1  0.59330000  0.77733000  0.33231000  1.0 -0.0773466312
F  F201  1  0.60848000  0.76814000  0.29114000  1.0 0.1105480904
F  F202  1  0.61649000  0.62337000  0.26824000  1.0 0.089401739
F  F203  1  0.64511000  0.66924000  0.26417000  1.0 -0.0594045132
F  F204  1  0.58876000  0.63099000  0.22487000  1.0 0.1397298889
F  F205  1  0.50474000  0.61204000  0.39272000  1.0 -0.0221237334
F  F206  1  0.51748000  0.66752000  0.41130000  1.0 0.0405704229
F  F207  1  0.51956000  0.64623000  0.44759000  1.0 -0.1066595837
F  F208  1  0.37408000  0.61191000  0.30521000  1.0 -0.16987075
F  F209  1  0.37816000  0.56354000  0.29110000  1.0 -0.20476557
F  F210  1  0.33798000  0.56674000  0.30546000  1.0 -0.16987075
F  F211  1  0.78392000  0.01715000  0.84527000  1.0 -0.0710923863
F  F212  1  0.76294000  0.00567000  0.87879000  1.0 0.069381688
F  F213  1  0.81758000  0.01810000  0.89260000  1.0 -0.0407305662
F  F214  1  0.81639000  0.91620000  0.78277000  1.0 0.0405704229
F  F215  1  0.76313000  0.89715000  0.74068000  1.0 -0.0504267388
F  F216  1  0.77360000  0.86191000  0.75957000  1.0 -0.1400545277
F  F217  1  0.67120000  0.36501000  0.90143000  1.0 0.0033744084
F  F218  1  0.67561000  0.32081000  0.90666000  1.0 -0.0137260842
F  F219  1  0.64692000  0.31358000  0.85376000  1.0 -0.0594045132
F  F220  1  0.52501000  0.21079000  0.86092000  1.0 -0.1280884867
F  F221  1  0.49415000  0.22588000  0.82727000  1.0 -0.0407305662
F  F222  1  0.53134000  0.21110000  0.81586000  1.0 0.1708097757
F  F223  1  0.55664000  0.21017000  0.85827000  1.0 -0.1400545277
F  F224  1  0.55498000  0.22267000  0.81597000  1.0 -0.0773466312
F  F225  1  0.52300000  0.23186000  0.84034000  1.0 0.1105480904
F  F226  1  0.64487000  0.37663000  0.99312000  1.0 0.089401739
F  F227  1  0.59493000  0.33076000  0.97587000  1.0 -0.0504267388
F  F228  1  0.59388000  0.36901000  0.95777000  1.0 0.1397298889
F  F229  1  0.78068000  0.38796000  0.89270000  1.0 -0.0286045992
F  F230  1  0.74378000  0.33248000  0.84996000  1.0 0.0405704229
F  F231  1  0.80136000  0.35377000  0.87333000  1.0 -0.1066595837
F  F232  1  0.69330000  0.38809000  0.76217000  1.0 -0.16987075
F  F233  1  0.72756000  0.43646000  0.81462000  1.0 -0.2068937128
F  F234  1  0.73872000  0.43326000  0.77124000  1.0 -0.16987075
F  F235  1  0.82812000  0.98285000  0.76677000  1.0 -0.0594045132
F  F236  1  0.87312000  0.99433000  0.75727000  1.0 0.069381688
F  F237  1  0.87450000  0.98190000  0.79948000  1.0 -0.0407305662
F  F238  1  0.86657000  0.08380000  0.90019000  1.0 0.0405704229
F  F239  1  0.84353000  0.10285000  0.86598000  1.0 -0.0504267388
F  F240  1  0.89766000  0.13809000  0.91169000  1.0 -0.1400545277
F  F241  1  0.46358000  0.76977000  0.09857000  1.0 0.0033744084
F  F242  1  0.41415000  0.76895000  0.09334000  1.0 -0.0137260842
F  F243  1  0.45982000  0.79316000  0.14624000  1.0 -0.0594045132
F  F244  1  0.34987000  0.66409000  0.13908000  1.0 -0.1280884867
F  F245  1  0.39861000  0.66688000  0.17273000  1.0 -0.0407305662
F  F246  1  0.39524000  0.71548000  0.18414000  1.0 0.1708097757
F  F247  1  0.35190000  0.69837000  0.14173000  1.0 -0.1400545277
F  F248  1  0.40670000  0.73901000  0.18403000  1.0 -0.0773466312
F  F249  1  0.39152000  0.68266000  0.15966000  1.0 0.1105480904
F  F250  1  0.38351000  0.65175000  0.00688000  1.0 0.089401739
F  F251  1  0.35489000  0.61906000  0.02413000  1.0 -0.0594045132
F  F252  1  0.41124000  0.63611000  0.04223000  1.0 0.1397298889
F  F253  1  0.49526000  0.88798000  0.10730000  1.0 -0.0221237334
F  F254  1  0.48252000  0.89382000  0.15004000  1.0 0.0405704229
F  F255  1  0.48044000  0.92803000  0.12667000  1.0 -0.1066595837
F  F256  1  0.62592000  0.93113000  0.23783000  1.0 -0.16987075
F  F257  1  0.62184000  0.91294000  0.18538000  1.0 -0.20476557
F  F258  1  0.66202000  0.96748000  0.22876000  1.0 -0.16987075
F  F259  1  0.21608000  0.06135000  0.23323000  1.0 -0.0594045132
F  F260  1  0.23706000  0.11585000  0.24273000  1.0 0.069381688
F  F261  1  0.18242000  0.07502000  0.20052000  1.0 -0.0407305662
F  F262  1  0.18361000  0.96638000  0.09981000  1.0 0.0500818461
F  F263  1  0.23687000  0.97755000  0.13402000  1.0 -0.0407305662
F  F264  1  0.22640000  0.98597000  0.08831000  1.0 -0.1400545277
F  F265  1  0.32880000  0.23023000  0.69381000  1.0 0.0033744084
F  F266  1  0.32439000  0.23105000  0.64520000  1.0 -0.0137260842
F  F267  1  0.35308000  0.20684000  0.66666667  1.0 -0.0594045132
F  F268  1  0.47499000  0.33591000  0.68578000  1.0 -0.1280884867
F  F269  1  0.50585000  0.33312000  0.73173000  1.0 -0.0407305662
F  F270  1  0.46866000  0.28452000  0.67976000  1.0 0.1708097757
F  F271  1  0.44336000  0.30163000  0.65353000  1.0 -0.1400545277
F  F272  1  0.44502000  0.26099000  0.66769000  1.0 -0.0773466312
F  F273  1  0.47700000  0.31734000  0.70886000  1.0 0.1105480904
F  F274  1  0.35513000  0.34825000  0.73176000  1.0 0.089401739
F  F275  1  0.40507000  0.38094000  0.73583000  1.0 -0.0594045132
F  F276  1  0.40612000  0.36389000  0.77513000  1.0 0.1397298889
F  F277  1  0.21932000  0.11202000  0.60728000  1.0 -0.0286045992
F  F278  1  0.25622000  0.10618000  0.58870000  1.0 0.0405704229
F  F279  1  0.19864000  0.07197000  0.55241000  1.0 -0.1066595837
F  F280  1  0.30670000  0.06887000  0.69479000  1.0 -0.16987075
F  F281  1  0.27244000  0.08706000  0.70890000  1.0 -0.2068937128
F  F282  1  0.26128000  0.03252000  0.69454000  1.0 -0.16987075
F  F283  1  0.17188000  0.93865000  0.15473000  1.0 -0.0594045132
F  F284  1  0.12688000  0.88415000  0.12121000  1.0 0.069381688
F  F285  1  0.12550000  0.92498000  0.10740000  1.0 -0.0407305662
F  F286  1  0.13343000  0.03362000  0.21723000  1.0 0.0405704229
F  F287  1  0.15647000  0.02245000  0.25932000  1.0 -0.0407305662
F  F288  1  0.10234000  0.01403000  0.24043000  1.0 -0.1400545277
F  F289  1  0.32880000  0.09857000  0.63499000  1.0 0.0033744084
F  F290  1  0.32439000  0.09334000  0.67919000  1.0 -0.0137260842
F  F291  1  0.35308000  0.14624000  0.68642000  1.0 -0.0594045132
F  F292  1  0.47499000  0.13908000  0.78921000  1.0 -0.1280884867
F  F293  1  0.50585000  0.17273000  0.77412000  1.0 -0.0407305662
F  F294  1  0.46866000  0.18414000  0.78890000  1.0 0.1708097757
F  F295  1  0.44336000  0.14173000  0.78983000  1.0 -0.1400545277
F  F296  1  0.44502000  0.18403000  0.77733000  1.0 -0.0773466312
F  F297  1  0.47700000  0.15966000  0.76814000  1.0 0.1105480904
F  F298  1  0.35513000  0.00688000  0.62337000  1.0 0.089401739
F  F299  1  0.40507000  0.02413000  0.66924000  1.0 -0.0594045132
F  F300  1  0.40612000  0.04223000  0.63099000  1.0 0.1397298889
F  F301  1  0.21932000  0.10730000  0.61204000  1.0 -0.0286045992
F  F302  1  0.25622000  0.15004000  0.66752000  1.0 0.0405704229
F  F303  1  0.19864000  0.12667000  0.64623000  1.0 -0.1066595837
F  F304  1  0.30670000  0.23783000  0.61191000  1.0 -0.16987075
F  F305  1  0.27244000  0.18538000  0.56354000  1.0 -0.2068937128
F  F306  1  0.26128000  0.22876000  0.56674000  1.0 -0.16987075
F  F307  1  0.17188000  0.23323000  0.01715000  1.0 -0.0594045132
F  F308  1  0.12688000  0.24273000  0.00567000  1.0 0.069381688
F  F309  1  0.12550000  0.20052000  0.01810000  1.0 -0.0407305662
F  F310  1  0.13343000  0.09981000  0.91620000  1.0 0.0405704229
F  F311  1  0.15647000  0.13402000  0.89715000  1.0 -0.0504267388
F  F312  1  0.10234000  0.08831000  0.86191000  1.0 -0.1400545277
F  F313  1  0.46358000  0.69381000  0.36501000  1.0 0.0033744084
F  F314  1  0.41415000  0.64520000  0.32081000  1.0 -0.0137260842
F  F315  1  0.45982000  0.66666667  0.31358000  1.0 -0.0594045132
F  F316  1  0.34987000  0.68578000  0.21079000  1.0 -0.1280884867
F  F317  1  0.39861000  0.73173000  0.22588000  1.0 -0.0407305662
F  F318  1  0.39524000  0.67976000  0.21110000  1.0 0.1708097757
F  F319  1  0.35190000  0.65353000  0.21017000  1.0 -0.1400545277
F  F320  1  0.40670000  0.66769000  0.22267000  1.0 -0.0773466312
F  F321  1  0.39152000  0.70886000  0.23186000  1.0 0.1105480904
F  F322  1  0.38351000  0.73176000  0.37663000  1.0 0.089401739
F  F323  1  0.35489000  0.73583000  0.33076000  1.0 -0.0594045132
F  F324  1  0.41124000  0.77513000  0.36901000  1.0 0.1397298889
F  F325  1  0.49526000  0.60728000  0.38796000  1.0 -0.0221237334
F  F326  1  0.48252000  0.58870000  0.33248000  1.0 0.0405704229
F  F327  1  0.48044000  0.55241000  0.35377000  1.0 -0.097147461
F  F328  1  0.62592000  0.69479000  0.38809000  1.0 -0.16987075
F  F329  1  0.62184000  0.70890000  0.43646000  1.0 -0.2068937128
F  F330  1  0.66202000  0.69454000  0.43326000  1.0 -0.16987075
F  F331  1  0.21608000  0.15473000  0.98285000  1.0 -0.0594045132
F  F332  1  0.23706000  0.12121000  0.99433000  1.0 0.069381688
F  F333  1  0.18242000  0.10740000  0.98190000  1.0 -0.0407305662
F  F334  1  0.18361000  0.21723000  0.08380000  1.0 0.0500818461
F  F335  1  0.23687000  0.25932000  0.10285000  1.0 -0.0504267388
F  F336  1  0.22640000  0.24043000  0.13809000  1.0 -0.1400545277
F  F337  1  0.67120000  0.30619000  0.76977000  1.0 0.0033744084
F  F338  1  0.67561000  0.35480000  0.76895000  1.0 -0.0137260842
F  F339  1  0.64692000  0.33333333  0.79316000  1.0 -0.0594045132
F  F340  1  0.52501000  0.31422000  0.66409000  1.0 -0.1280884867
F  F341  1  0.49415000  0.26827000  0.66688000  1.0 -0.0407305662
F  F342  1  0.53134000  0.32024000  0.71548000  1.0 0.1708097757
F  F343  1  0.55664000  0.34647000  0.69837000  1.0 -0.1400545277
F  F344  1  0.55498000  0.33231000  0.73901000  1.0 -0.0773466312
F  F345  1  0.52300000  0.29114000  0.68266000  1.0 0.1105480904
F  F346  1  0.64487000  0.26824000  0.65175000  1.0 0.089401739
F  F347  1  0.59493000  0.26417000  0.61906000  1.0 -0.0594045132
F  F348  1  0.59388000  0.22487000  0.63611000  1.0 0.1397298889
F  F349  1  0.78068000  0.39272000  0.88798000  1.0 -0.0286045992
F  F350  1  0.74378000  0.41130000  0.89382000  1.0 0.0405704229
F  F351  1  0.80136000  0.44759000  0.92803000  1.0 -0.1066595837
F  F352  1  0.69330000  0.30521000  0.93113000  1.0 -0.16987075
F  F353  1  0.72756000  0.29110000  0.91294000  1.0 -0.2068937128
F  F354  1  0.73872000  0.30546000  0.96748000  1.0 -0.16987075
F  F355  1  0.82812000  0.84527000  0.06135000  1.0 -0.0594045132
F  F356  1  0.87312000  0.87879000  0.11585000  1.0 0.069381688
F  F357  1  0.87450000  0.89260000  0.07502000  1.0 -0.0407305662
F  F358  1  0.86657000  0.78277000  0.96638000  1.0 0.0405704229
F  F359  1  0.84353000  0.74068000  0.97755000  1.0 -0.0504267388
F  F360  1  0.89766000  0.75957000  0.98597000  1.0 -0.1400545277
F  F361  1  0.53642000  0.90143000  0.23023000  1.0 0.0033744084
F  F362  1  0.58585000  0.90666000  0.23105000  1.0 -0.0137260842
F  F363  1  0.54018000  0.85376000  0.20684000  1.0 -0.0594045132
F  F364  1  0.65013000  0.86092000  0.33591000  1.0 -0.1280884867
F  F365  1  0.60139000  0.82727000  0.33312000  1.0 -0.0407305662
F  F366  1  0.60476000  0.81586000  0.28452000  1.0 0.1708097757
F  F367  1  0.64810000  0.85827000  0.30163000  1.0 -0.1400545277
F  F368  1  0.59330000  0.81597000  0.26099000  1.0 -0.0773466312
F  F369  1  0.60848000  0.84034000  0.31734000  1.0 0.1105480904
F  F370  1  0.61649000  0.99312000  0.34825000  1.0 0.089401739
F  F371  1  0.64511000  0.97587000  0.38094000  1.0 -0.0594045132
F  F372  1  0.58876000  0.95777000  0.36389000  1.0 0.1397298889
F  F373  1  0.50474000  0.89270000  0.11202000  1.0 -0.0221237334
F  F374  1  0.51748000  0.84996000  0.10618000  1.0 0.0405704229
F  F375  1  0.51956000  0.87333000  0.07197000  1.0 -0.1066595837
F  F376  1  0.37408000  0.76217000  0.06887000  1.0 -0.16987075
F  F377  1  0.37816000  0.81462000  0.08706000  1.0 -0.2068937128
F  F378  1  0.33798000  0.77124000  0.03252000  1.0 -0.16987075
F  F379  1  0.78392000  0.76677000  0.93865000  1.0 -0.0594045132
F  F380  1  0.76294000  0.75727000  0.88415000  1.0 0.069381688
F  F381  1  0.81758000  0.79948000  0.92498000  1.0 -0.0407305662
F  F382  1  0.81639000  0.90019000  0.03362000  1.0 0.0405704229
F  F383  1  0.76313000  0.86598000  0.02245000  1.0 -0.0504267388
F  F384  1  0.77360000  0.91169000  0.01403000  1.0 -0.1400545277
F  F385  1  0.90143000  0.23023000  0.53642000  1.0 0.0033744084
F  F386  1  0.90666000  0.23105000  0.58585000  1.0 -0.0137260842
F  F387  1  0.85376000  0.20684000  0.54018000  1.0 -0.0594045132
F  F388  1  0.86092000  0.33591000  0.65013000  1.0 -0.1280884867
F  F389  1  0.82727000  0.33312000  0.60139000  1.0 -0.0407305662
F  F390  1  0.81586000  0.28452000  0.60476000  1.0 0.1708097757
F  F391  1  0.85827000  0.30163000  0.64810000  1.0 -0.1400545277
F  F392  1  0.81597000  0.26099000  0.59330000  1.0 -0.0773466312
F  F393  1  0.84034000  0.31734000  0.60848000  1.0 0.1105480904
F  F394  1  0.99312000  0.34825000  0.61649000  1.0 0.089401739
F  F395  1  0.97587000  0.38094000  0.64511000  1.0 -0.0594045132
F  F396  1  0.95777000  0.36389000  0.58876000  1.0 0.1397298889
F  F397  1  0.89270000  0.11202000  0.50474000  1.0 -0.0286045992
F  F398  1  0.84996000  0.10618000  0.51748000  1.0 0.0405704229
F  F399  1  0.87333000  0.07197000  0.51956000  1.0 -0.1066595837
F  F400  1  0.76217000  0.06887000  0.37408000  1.0 -0.16987075
F  F401  1  0.81462000  0.08706000  0.37816000  1.0 -0.2068937128
F  F402  1  0.77124000  0.03252000  0.33798000  1.0 -0.16987075
F  F403  1  0.76677000  0.93865000  0.78392000  1.0 -0.0710923863
F  F404  1  0.75727000  0.88415000  0.76294000  1.0 0.069381688
F  F405  1  0.79948000  0.92498000  0.81758000  1.0 -0.0407305662
F  F406  1  0.90019000  0.03362000  0.81639000  1.0 0.0405704229
F  F407  1  0.86598000  0.02245000  0.76313000  1.0 -0.0504267388
F  F408  1  0.91169000  0.01403000  0.77360000  1.0 -0.1400545277
F  F409  1  0.30619000  0.76977000  0.67120000  1.0 0.0033744084
F  F410  1  0.35480000  0.76895000  0.67561000  1.0 -0.0137260842
F  F411  1  0.33333333  0.79316000  0.64692000  1.0 -0.0594045132
F  F412  1  0.31422000  0.66409000  0.52501000  1.0 -0.1280884867
F  F413  1  0.26827000  0.66688000  0.49415000  1.0 -0.0407305662
F  F414  1  0.32024000  0.71548000  0.53134000  1.0 0.1708097757
F  F415  1  0.34647000  0.69837000  0.55664000  1.0 -0.1400545277
F  F416  1  0.33231000  0.73901000  0.55498000  1.0 -0.0773466312
F  F417  1  0.29114000  0.68266000  0.52300000  1.0 0.1105480904
F  F418  1  0.26824000  0.65175000  0.64487000  1.0 0.089401739
F  F419  1  0.26417000  0.61906000  0.59493000  1.0 -0.0594045132
F  F420  1  0.22487000  0.63611000  0.59388000  1.0 0.1397298889
F  F421  1  0.39272000  0.88798000  0.78068000  1.0 -0.0221237334
F  F422  1  0.41130000  0.89382000  0.74378000  1.0 0.0405704229
F  F423  1  0.44759000  0.92803000  0.80136000  1.0 -0.1066595837
F  F424  1  0.30521000  0.93113000  0.69330000  1.0 -0.16987075
F  F425  1  0.29110000  0.91294000  0.72756000  1.0 -0.2068937128
F  F426  1  0.30546000  0.96748000  0.73872000  1.0 -0.16987075
F  F427  1  0.84527000  0.06135000  0.82812000  1.0 -0.0710923863
F  F428  1  0.87879000  0.11585000  0.87312000  1.0 0.069381688
F  F429  1  0.89260000  0.07502000  0.87450000  1.0 -0.0407305662
F  F430  1  0.78277000  0.96638000  0.86657000  1.0 0.0405704229
F  F431  1  0.74068000  0.97755000  0.84353000  1.0 -0.0504267388
F  F432  1  0.75957000  0.98597000  0.89766000  1.0 -0.1400545277
F  F433  1  0.69381000  0.36501000  0.46358000  1.0 0.0033744084
F  F434  1  0.64520000  0.32081000  0.41415000  1.0 -0.0137260842
F  F435  1  0.66666667  0.31358000  0.45982000  1.0 -0.0594045132
F  F436  1  0.68578000  0.21079000  0.34987000  1.0 -0.1280884867
F  F437  1  0.73173000  0.22588000  0.39861000  1.0 -0.0407305662
F  F438  1  0.67976000  0.21110000  0.39524000  1.0 0.1708097757
F  F439  1  0.65353000  0.21017000  0.35190000  1.0 -0.1400545277
F  F440  1  0.66769000  0.22267000  0.40670000  1.0 -0.0773466312
F  F441  1  0.70886000  0.23186000  0.39152000  1.0 0.1105480904
F  F442  1  0.73176000  0.37663000  0.38351000  1.0 0.089401739
F  F443  1  0.73583000  0.33076000  0.35489000  1.0 -0.0504267388
F  F444  1  0.77513000  0.36901000  0.41124000  1.0 0.1397298889
F  F445  1  0.60728000  0.38796000  0.49526000  1.0 -0.0221237334
F  F446  1  0.58870000  0.33248000  0.48252000  1.0 0.0405704229
F  F447  1  0.55241000  0.35377000  0.48044000  1.0 -0.1066595837
F  F448  1  0.69479000  0.38809000  0.62592000  1.0 -0.16987075
F  F449  1  0.70890000  0.43646000  0.62184000  1.0 -0.2068937128
F  F450  1  0.69454000  0.43326000  0.66202000  1.0 -0.16987075
F  F451  1  0.15473000  0.98285000  0.21608000  1.0 -0.0594045132
F  F452  1  0.12121000  0.99433000  0.23706000  1.0 0.069381688
F  F453  1  0.10740000  0.98190000  0.18242000  1.0 -0.0407305662
F  F454  1  0.21723000  0.08380000  0.18361000  1.0 0.0500818461
F  F455  1  0.25932000  0.10285000  0.23687000  1.0 -0.0407305662
F  F456  1  0.24043000  0.13809000  0.22640000  1.0 -0.1400545277
F  F457  1  0.09857000  0.63499000  0.32880000  1.0 0.0033744084
F  F458  1  0.09334000  0.67919000  0.32439000  1.0 -0.0137260842
F  F459  1  0.14624000  0.68642000  0.35308000  1.0 -0.0594045132
F  F460  1  0.13908000  0.78921000  0.47499000  1.0 -0.1280884867
F  F461  1  0.17273000  0.77412000  0.50585000  1.0 -0.0407305662
F  F462  1  0.18414000  0.78890000  0.46866000  1.0 0.1708097757
F  F463  1  0.14173000  0.78983000  0.44336000  1.0 -0.1400545277
F  F464  1  0.18403000  0.77733000  0.44502000  1.0 -0.0773466312
F  F465  1  0.15966000  0.76814000  0.47700000  1.0 0.1105480904
F  F466  1  0.00688000  0.62337000  0.35513000  1.0 0.089401739
F  F467  1  0.02413000  0.66924000  0.40507000  1.0 -0.0504267388
F  F468  1  0.04223000  0.63099000  0.40612000  1.0 0.1397298889
F  F469  1  0.10730000  0.61204000  0.21932000  1.0 -0.0221237334
F  F470  1  0.15004000  0.66752000  0.25622000  1.0 0.0405704229
F  F471  1  0.12667000  0.64623000  0.19864000  1.0 -0.1066595837
F  F472  1  0.23783000  0.61191000  0.30670000  1.0 -0.16987075
F  F473  1  0.18538000  0.56354000  0.27244000  1.0 -0.2068937128
F  F474  1  0.22876000  0.56674000  0.26128000  1.0 -0.16987075
F  F475  1  0.23323000  0.01715000  0.17188000  1.0 -0.0594045132
F  F476  1  0.24273000  0.00567000  0.12688000  1.0 0.069381688
F  F477  1  0.20052000  0.01810000  0.12550000  1.0 -0.0407305662
F  F478  1  0.09981000  0.91620000  0.13343000  1.0 0.0405704229
F  F479  1  0.13402000  0.89715000  0.15647000  1.0 -0.0504267388
F  F480  1  0.08831000  0.86191000  0.10234000  1.0 -0.1400545277
F  F481  1  0.76977000  0.67120000  0.30619000  1.0 0.0033744084
F  F482  1  0.76895000  0.67561000  0.35480000  1.0 -0.0137260842
F  F483  1  0.79316000  0.64692000  0.33333333  1.0 -0.0594045132
F  F484  1  0.66409000  0.52501000  0.31422000  1.0 -0.1280884867
F  F485  1  0.66688000  0.49415000  0.26827000  1.0 -0.0407305662
F  F486  1  0.71548000  0.53134000  0.32024000  1.0 0.1708097757
F  F487  1  0.69837000  0.55664000  0.34647000  1.0 -0.1400545277
F  F488  1  0.73901000  0.55498000  0.33231000  1.0 -0.0773466312
F  F489  1  0.68266000  0.52300000  0.29114000  1.0 0.1105480904
F  F490  1  0.65175000  0.64487000  0.26824000  1.0 0.089401739
F  F491  1  0.61906000  0.59493000  0.26417000  1.0 -0.0594045132
F  F492  1  0.63611000  0.59388000  0.22487000  1.0 0.1397298889
F  F493  1  0.88798000  0.78068000  0.39272000  1.0 -0.0221237334
F  F494  1  0.89382000  0.74378000  0.41130000  1.0 0.0405704229
F  F495  1  0.92803000  0.80136000  0.44759000  1.0 -0.1066595837
F  F496  1  0.93113000  0.69330000  0.30521000  1.0 -0.16987075
F  F497  1  0.91294000  0.72756000  0.29110000  1.0 -0.2068937128
F  F498  1  0.96748000  0.73872000  0.30546000  1.0 -0.16987075
F  F499  1  0.06135000  0.82812000  0.84527000  1.0 -0.0594045132
F  F500  1  0.11585000  0.87312000  0.87879000  1.0 0.069381688
F  F501  1  0.07502000  0.87450000  0.89260000  1.0 -0.0407305662
F  F502  1  0.96638000  0.86657000  0.78277000  1.0 0.0405704229
F  F503  1  0.97755000  0.84353000  0.74068000  1.0 -0.0504267388
F  F504  1  0.98597000  0.89766000  0.75957000  1.0 -0.1400545277
F  F505  1  0.23023000  0.53642000  0.90143000  1.0 0.0033744084
F  F506  1  0.23105000  0.58585000  0.90666000  1.0 -0.0137260842
F  F507  1  0.20684000  0.54018000  0.85376000  1.0 -0.0594045132
F  F508  1  0.33591000  0.65013000  0.86092000  1.0 -0.1280884867
F  F509  1  0.33312000  0.60139000  0.82727000  1.0 -0.0407305662
F  F510  1  0.28452000  0.60476000  0.81586000  1.0 0.1708097757
F  F511  1  0.30163000  0.64810000  0.85827000  1.0 -0.1400545277
F  F512  1  0.26099000  0.59330000  0.81597000  1.0 -0.0773466312
F  F513  1  0.31734000  0.60848000  0.84034000  1.0 0.1105480904
F  F514  1  0.34825000  0.61649000  0.99312000  1.0 0.089401739
F  F515  1  0.38094000  0.64511000  0.97587000  1.0 -0.0504267388
F  F516  1  0.36389000  0.58876000  0.95777000  1.0 0.1397298889
F  F517  1  0.11202000  0.50474000  0.89270000  1.0 -0.0221237334
F  F518  1  0.10618000  0.51748000  0.84996000  1.0 0.0405704229
F  F519  1  0.07197000  0.51956000  0.87333000  1.0 -0.1066595837
F  F520  1  0.06887000  0.37408000  0.76217000  1.0 -0.16987075
F  F521  1  0.08706000  0.37816000  0.81462000  1.0 -0.2068937128
F  F522  1  0.03252000  0.33798000  0.77124000  1.0 -0.16987075
F  F523  1  0.93865000  0.78392000  0.76677000  1.0 -0.0594045132
F  F524  1  0.88415000  0.76294000  0.75727000  1.0 0.069381688
F  F525  1  0.92498000  0.81758000  0.79948000  1.0 -0.0407305662
F  F526  1  0.03362000  0.81639000  0.90019000  1.0 0.0405704229
F  F527  1  0.02245000  0.76313000  0.86598000  1.0 -0.0407305662
F  F528  1  0.01403000  0.77360000  0.91169000  1.0 -0.1400545277
F  F529  1  0.63499000  0.32880000  0.09857000  1.0 0.0033744084
F  F530  1  0.67919000  0.32439000  0.09334000  1.0 -0.0137260842
F  F531  1  0.68642000  0.35308000  0.14624000  1.0 -0.0594045132
F  F532  1  0.78921000  0.47499000  0.13908000  1.0 -0.1280884867
F  F533  1  0.77412000  0.50585000  0.17273000  1.0 -0.0407305662
F  F534  1  0.78890000  0.46866000  0.18414000  1.0 0.1708097757
F  F535  1  0.78983000  0.44336000  0.14173000  1.0 -0.1400545277
F  F536  1  0.77733000  0.44502000  0.18403000  1.0 -0.0773466312
F  F537  1  0.76814000  0.47700000  0.15966000  1.0 0.1105480904
F  F538  1  0.62337000  0.35513000  0.00688000  1.0 0.089401739
F  F539  1  0.66924000  0.40507000  0.02413000  1.0 -0.0504267388
F  F540  1  0.63099000  0.40612000  0.04223000  1.0 0.1397298889
F  F541  1  0.61204000  0.21932000  0.10730000  1.0 -0.0221237334
F  F542  1  0.66752000  0.25622000  0.15004000  1.0 0.0405704229
F  F543  1  0.64623000  0.19864000  0.12667000  1.0 -0.1066595837
F  F544  1  0.61191000  0.30670000  0.23783000  1.0 -0.16987075
F  F545  1  0.56354000  0.27244000  0.18538000  1.0 -0.2068937128
F  F546  1  0.56674000  0.26128000  0.22876000  1.0 -0.16987075
F  F547  1  0.01715000  0.17188000  0.23323000  1.0 -0.0594045132
F  F548  1  0.00567000  0.12688000  0.24273000  1.0 0.069381688
F  F549  1  0.01810000  0.12550000  0.20052000  1.0 -0.0407305662
F  F550  1  0.91620000  0.13343000  0.09981000  1.0 0.0405704229
F  F551  1  0.89715000  0.15647000  0.13402000  1.0 -0.0504267388
F  F552  1  0.86191000  0.10234000  0.08831000  1.0 -0.1400545277
F  F553  1  0.36501000  0.46358000  0.69381000  1.0 0.0033744084
F  F554  1  0.32081000  0.41415000  0.64520000  1.0 -0.0137260842
F  F555  1  0.31358000  0.45982000  0.66666667  1.0 -0.0594045132
F  F556  1  0.21079000  0.34987000  0.68578000  1.0 -0.1280884867
F  F557  1  0.22588000  0.39861000  0.73173000  1.0 -0.0407305662
F  F558  1  0.21110000  0.39524000  0.67976000  1.0 0.1708097757
F  F559  1  0.21017000  0.35190000  0.65353000  1.0 -0.1400545277
F  F560  1  0.22267000  0.40670000  0.66769000  1.0 -0.0773466312
F  F561  1  0.23186000  0.39152000  0.70886000  1.0 0.1105480904
F  F562  1  0.37663000  0.38351000  0.73176000  1.0 0.089401739
F  F563  1  0.33076000  0.35489000  0.73583000  1.0 -0.0594045132
F  F564  1  0.36901000  0.41124000  0.77513000  1.0 0.1397298889
F  F565  1  0.38796000  0.49526000  0.60728000  1.0 -0.0221237334
F  F566  1  0.33248000  0.48252000  0.58870000  1.0 0.0405704229
F  F567  1  0.35377000  0.48044000  0.55241000  1.0 -0.097147461
F  F568  1  0.38809000  0.62592000  0.69479000  1.0 -0.16987075
F  F569  1  0.43646000  0.62184000  0.70890000  1.0 -0.2068937128
F  F570  1  0.43326000  0.66202000  0.69454000  1.0 -0.16987075
F  F571  1  0.98285000  0.21608000  0.15473000  1.0 -0.0594045132
F  F572  1  0.99433000  0.23706000  0.12121000  1.0 0.069381688
F  F573  1  0.98190000  0.18242000  0.10740000  1.0 -0.0407305662
F  F574  1  0.08380000  0.18361000  0.21723000  1.0 0.0405704229
F  F575  1  0.10285000  0.23687000  0.25932000  1.0 -0.0504267388
F  F576  1  0.13809000  0.22640000  0.24043000  1.0 -0.1400545277
