# DDEC6 charges by PACMAN v1.1 (https://github.com/mtap-research/PACMAN-charge/)
data_CANRIU_ASR_pacman
_symmetry_space_group_name_H-M   'P 1'
_cell_length_a   12.72790000
_cell_length_b   14.53310000
_cell_length_c   23.28120000
_cell_angle_alpha   99.81500000
_cell_angle_beta   92.60100000
_cell_angle_gamma   97.07100000
_symmetry_Int_Tables_number   1
_chemical_formula_structural   Mg3Si2H36(C7O2)9
_chemical_formula_sum   'Mg6 Si4 H72 C126 O36'
_cell_volume   4201.44406248
_cell_formula_units_Z   2
loop_
 _symmetry_equiv_pos_site_id
 _symmetry_equiv_pos_as_xyz
  1  'x, y, z'
loop_
 _atom_site_type_symbol
 _atom_site_label
 _atom_site_symmetry_multiplicity
 _atom_site_fract_x
 _atom_site_fract_y
 _atom_site_fract_z
 _atom_site_occupancy
 _atom_site_charge
Mg  Mg1  1  0.50451000  0.30192000  0.39138000  1.0 1.3582733697
Mg  Mg2  1  0.49549000  0.69808000  0.60862000  1.0 1.3582733697
Mg  Mg3  1  0.50000000  0.50000000  0.50000000  1.0 1.4107177979
Mg  Mg4  1  0.00000000  0.50000000  0.00000000  1.0 1.4107177979
Mg  Mg5  1  0.05866000  0.68792000  0.92552000  1.0 1.3582733697
Mg  Mg6  1  0.94134000  0.31208000  0.07448000  1.0 1.3582733697
Si  Si1  1  0.02696000  0.22392000  0.63331000  1.0 0.6215146607
Si  Si2  1  0.97304000  0.77608000  0.36669000  1.0 0.6215146607
Si  Si3  1  0.39893000  0.24520000  0.81253000  1.0 0.6533716446
Si  Si4  1  0.60107000  0.75480000  0.18747000  1.0 0.6550859934
H  H1  1  0.13330000  0.37800000  0.58800000  1.0 0.1091695279
H  H2  1  0.86670000  0.62200000  0.41200000  1.0 0.1091695279
H  H3  1  0.27070000  0.40640000  0.52610000  1.0 0.1301598311
H  H4  1  0.72930000  0.59360000  0.47390000  1.0 0.1301598311
H  H5  1  0.33370000  0.13790000  0.52400000  1.0 0.1195549177
H  H6  1  0.66630000  0.86210000  0.47600000  1.0 0.1195549177
H  H7  1  0.19700000  0.11380000  0.58470000  1.0 0.1091695279
H  H8  1  0.80300000  0.88620000  0.41530000  1.0 0.1091695279
H  H9  1  0.16480000  0.39170000  0.69380000  1.0 0.1091695279
H  H10  1  0.83520000  0.60830000  0.30620000  1.0 0.1091695279
H  H11  1  0.16940000  0.49570000  0.77960000  1.0 0.1195549177
H  H12  1  0.83060000  0.50430000  0.22040000  1.0 0.1195549177
H  H13  1  0.93980000  0.32140000  0.83540000  1.0 0.1195549177
H  H14  1  0.06020000  0.67860000  0.16460000  1.0 0.1195549177
H  H15  1  0.92950000  0.21990000  0.74550000  1.0 0.1091695279
H  H16  1  0.07050000  0.78010000  0.25450000  1.0 0.1091695279
H  H17  1  0.83860000  0.32100000  0.65980000  1.0 0.1091695279
H  H18  1  0.16140000  0.67900000  0.34020000  1.0 0.1091695279
H  H19  1  0.71240000  0.37980000  0.60710000  1.0 0.1195549177
H  H20  1  0.28760000  0.62020000  0.39290000  1.0 0.1195549177
H  H21  1  0.83370000  0.26920000  0.45750000  1.0 0.1195549177
H  H22  1  0.16630000  0.73080000  0.54250000  1.0 0.1195549177
H  H23  1  0.96800000  0.22280000  0.51060000  1.0 0.0920820455
H  H24  1  0.03200000  0.77720000  0.48940000  1.0 0.0920820455
H  H25  1  0.06500000  0.09910000  0.71750000  1.0 0.1301598311
H  H26  1  0.93500000  0.90090000  0.28250000  1.0 0.1301598311
H  H27  1  0.02670000  0.93760000  0.71800000  1.0 0.1091695279
H  H28  1  0.97330000  0.06240000  0.28200000  1.0 0.1091695279
H  H29  1  0.87830000  0.89980000  0.55640000  1.0 0.0801530866
H  H30  1  0.12170000  0.10020000  0.44360000  1.0 0.0801530866
H  H31  1  0.91670000  0.06130000  0.55590000  1.0 0.1195549177
H  H32  1  0.08330000  0.93870000  0.44410000  1.0 0.1195549177
H  H33  1  0.46480000  0.23280000  0.69300000  1.0 0.1195549177
H  H34  1  0.53520000  0.76720000  0.30700000  1.0 0.1195549177
H  H35  1  0.48150000  0.32860000  0.62440000  1.0 0.1301598311
H  H36  1  0.51850000  0.67140000  0.37560000  1.0 0.1301598311
H  H37  1  0.38950000  0.53770000  0.73780000  1.0 0.1301598311
H  H38  1  0.61050000  0.46230000  0.26220000  1.0 0.1301598311
H  H39  1  0.36940000  0.44190000  0.80630000  1.0 0.1091695279
H  H40  1  0.63060000  0.55810000  0.19370000  1.0 0.1091695279
H  H41  1  0.33770000  0.39510000  0.89540000  1.0 0.1091695279
H  H42  1  0.66230000  0.60490000  0.10460000  1.0 0.1091695279
H  H43  1  0.20810000  0.41470000  0.96300000  1.0 0.1301598311
H  H44  1  0.79190000  0.58530000  0.03700000  1.0 0.1301598311
H  H45  1  0.07780000  0.14480000  0.90760000  1.0 0.1195549177
H  H46  1  0.92220000  0.85520000  0.09240000  1.0 0.1195549177
H  H47  1  0.20450000  0.12790000  0.83660000  1.0 0.1025407774
H  H48  1  0.79550000  0.87210000  0.16340000  1.0 0.1025407774
H  H49  1  0.60830000  0.35900000  0.81690000  1.0 0.1195549177
H  H50  1  0.39170000  0.64100000  0.18310000  1.0 0.1195549177
H  H51  1  0.74950000  0.40680000  0.88640000  1.0 0.1301598311
H  H52  1  0.25050000  0.59320000  0.11360000  1.0 0.1301598311
H  H53  1  0.62140000  0.23620000  0.98680000  1.0 0.1301598311
H  H54  1  0.37860000  0.76380000  0.01320000  1.0 0.1301598311
H  H55  1  0.47150000  0.19620000  0.92260000  1.0 0.1195549177
H  H56  1  0.52850000  0.80380000  0.07740000  1.0 0.1195549177
H  H57  1  0.26160000  0.13470000  0.71560000  1.0 0.1025407774
H  H58  1  0.73840000  0.86530000  0.28440000  1.0 0.1025407774
H  H59  1  0.25150000  0.99180000  0.65640000  1.0 0.1091695279
H  H60  1  0.74850000  0.00820000  0.34360000  1.0 0.1091695279
H  H61  1  0.49680000  0.92900000  0.75090000  1.0 0.1195549177
H  H62  1  0.50320000  0.07100000  0.24910000  1.0 0.1195549177
H  H63  1  0.50740000  0.07260000  0.81210000  1.0 0.1091695279
H  H64  1  0.49260000  0.92740000  0.18790000  1.0 0.1091695279
H  H65  1  0.94130000  0.05230000  0.55140000  1.0 0.1195549177
H  H66  1  0.05870000  0.94770000  0.44860000  1.0 0.1195549177
H  H67  1  0.91990000  0.89110000  0.55480000  1.0 0.0920820455
H  H68  1  0.08010000  0.10890000  0.44520000  1.0 0.0920820455
H  H69  1  0.05580000  0.94770000  0.72000000  1.0 0.1091695279
H  H70  1  0.94420000  0.05230000  0.28000000  1.0 0.1091695279
H  H71  1  0.07720000  0.10890000  0.71650000  1.0 0.1301598311
H  H72  1  0.92280000  0.89110000  0.28350000  1.0 0.1301598311
C  C1  1  0.14760000  0.24360000  0.59070000  1.0 -0.2182222424
C  C2  1  0.85240000  0.75640000  0.40930000  1.0 -0.2182222424
C  C3  1  0.17300000  0.32850000  0.57410000  1.0 -0.0809494271
C  C4  1  0.82700000  0.67150000  0.42590000  1.0 -0.0809494271
C  C5  1  0.25480000  0.34670000  0.53750000  1.0 -0.0809494271
C  C6  1  0.74520000  0.65330000  0.46250000  1.0 -0.0809494271
C  C7  1  0.31280000  0.27030000  0.51820000  1.0 0.0039267502
C  C8  1  0.68720000  0.72970000  0.48180000  1.0 0.0039267502
C  C9  1  0.29220000  0.18690000  0.53610000  1.0 -0.1092266058
C  C10  1  0.70780000  0.81310000  0.46390000  1.0 -0.1092266058
C  C11  1  0.21070000  0.17280000  0.57220000  1.0 -0.156761589
C  C12  1  0.78930000  0.82720000  0.42780000  1.0 -0.156761589
C  C13  1  0.39500000  0.28590000  0.47430000  1.0 0.5801806575
C  C14  1  0.60500000  0.71410000  0.52570000  1.0 0.5801806575
C  C15  1  0.04390000  0.29650000  0.70800000  1.0 -0.2182222424
C  C16  1  0.95610000  0.70350000  0.29200000  1.0 -0.2182222424
C  C17  1  0.11570000  0.37810000  0.72180000  1.0 -0.0888405111
C  C18  1  0.88430000  0.62190000  0.27820000  1.0 -0.0888405111
C  C19  1  0.11990000  0.43980000  0.77320000  1.0 -0.0809494271
C  C20  1  0.88010000  0.56020000  0.22680000  1.0 -0.0809494271
C  C21  1  0.05340000  0.42190000  0.81590000  1.0 -0.0281628096
C  C22  1  0.94660000  0.57810000  0.18410000  1.0 -0.0281628096
C  C23  1  0.98370000  0.33720000  0.80570000  1.0 -0.0888405111
C  C24  1  0.01630000  0.66280000  0.19430000  1.0 -0.0888405111
C  C25  1  0.97840000  0.27620000  0.75210000  1.0 -0.1092266058
C  C26  1  0.02160000  0.72380000  0.24790000  1.0 -0.1092266058
C  C27  1  0.05070000  0.49010000  0.87050000  1.0 0.6307635731
C  C28  1  0.94930000  0.50990000  0.12950000  1.0 0.6307635731
C  C29  1  0.91790000  0.26450000  0.59180000  1.0 -0.2182222424
C  C30  1  0.08210000  0.73550000  0.40820000  1.0 -0.2182222424
C  C31  1  0.83970000  0.31190000  0.61850000  1.0 -0.0809494271
C  C32  1  0.16030000  0.68810000  0.38150000  1.0 -0.0809494271
C  C33  1  0.76330000  0.34630000  0.58700000  1.0 -0.0888405111
C  C34  1  0.23670000  0.65370000  0.41300000  1.0 -0.0888405111
C  C35  1  0.76000000  0.33250000  0.52550000  1.0 -0.0229475438
C  C36  1  0.24000000  0.66750000  0.47450000  1.0 -0.0229475438
C  C37  1  0.83590000  0.28290000  0.49890000  1.0 -0.0888405111
C  C38  1  0.16410000  0.71710000  0.50110000  1.0 -0.0888405111
C  C39  1  0.91450000  0.25270000  0.53070000  1.0 -0.119448017
C  C40  1  0.08550000  0.74730000  0.46930000  1.0 -0.119448017
C  C41  1  0.67560000  0.36510000  0.49210000  1.0 0.6108611351
C  C42  1  0.32440000  0.63490000  0.50790000  1.0 0.6108611351
C  C43  1  0.99450000  0.09540000  0.63670000  1.0 -0.1262817109
C  C44  1  0.00550000  0.90460000  0.36330000  1.0 -0.1262817109
C  C45  1  0.02710000  0.05860000  0.68480000  1.0 -0.1092266058
C  C46  1  0.97290000  0.94140000  0.31520000  1.0 -0.1092266058
C  C47  1  0.00430000  0.96270000  0.68510000  1.0 -0.0888405111
C  C48  1  0.99570000  0.03730000  0.31490000  1.0 -0.0888405111
C  C49  1  0.94890000  0.90350000  0.63730000  1.0 0.0368248647
C  C50  1  0.05110000  0.09650000  0.36270000  1.0 0.0368248647
C  C51  1  0.91620000  0.94030000  0.58910000  1.0 -0.0556799551
C  C52  1  0.08380000  0.05970000  0.41090000  1.0 -0.0556799551
C  C53  1  0.93900000  0.03620000  0.58880000  1.0 -0.0809494271
C  C54  1  0.06100000  0.96380000  0.41120000  1.0 -0.0809494271
C  C55  1  0.92280000  0.80220000  0.63960000  1.0 0.2177013284
C  C56  1  0.07720000  0.19780000  0.36040000  1.0 0.2177013284
C  C57  1  0.41050000  0.32390000  0.75780000  1.0 -0.2008220304
C  C58  1  0.58950000  0.67610000  0.24220000  1.0 -0.2008220304
C  C59  1  0.44710000  0.29490000  0.70240000  1.0 -0.0888405111
C  C60  1  0.55290000  0.70510000  0.29760000  1.0 -0.0888405111
C  C61  1  0.45820000  0.35180000  0.66170000  1.0 -0.0888405111
C  C62  1  0.54180000  0.64820000  0.33830000  1.0 -0.0888405111
C  C63  1  0.43590000  0.44280000  0.67450000  1.0 -0.0281628096
C  C64  1  0.56410000  0.55720000  0.32550000  1.0 -0.0281628096
C  C65  1  0.40380000  0.47450000  0.72830000  1.0 -0.0888405111
C  C66  1  0.59620000  0.52550000  0.27170000  1.0 -0.0888405111
C  C67  1  0.39160000  0.41710000  0.76900000  1.0 -0.0888405111
C  C68  1  0.60840000  0.58290000  0.23100000  1.0 -0.0888405111
C  C69  1  0.45350000  0.50710000  0.63170000  1.0 0.6307635731
C  C70  1  0.54650000  0.49290000  0.36830000  1.0 0.6307635731
C  C71  1  0.28540000  0.25850000  0.85960000  1.0 -0.2008220304
C  C72  1  0.71460000  0.74150000  0.14040000  1.0 -0.2008220304
C  C73  1  0.28480000  0.34370000  0.89750000  1.0 -0.0888405111
C  C74  1  0.71520000  0.65630000  0.10250000  1.0 -0.0888405111
C  C75  1  0.20860000  0.35550000  0.93830000  1.0 -0.0888405111
C  C76  1  0.79140000  0.64450000  0.06170000  1.0 -0.0888405111
C  C77  1  0.13270000  0.27910000  0.94240000  1.0 0.006164012
C  C78  1  0.86730000  0.72090000  0.05760000  1.0 0.006164012
C  C79  1  0.13060000  0.19610000  0.90530000  1.0 -0.0888405111
C  C80  1  0.86940000  0.80390000  0.09470000  1.0 -0.0888405111
C  C81  1  0.20730000  0.18590000  0.86300000  1.0 -0.0888405111
C  C82  1  0.79270000  0.81410000  0.13700000  1.0 -0.0888405111
C  C83  1  0.05730000  0.29330000  0.99140000  1.0 0.6011992222
C  C84  1  0.94270000  0.70670000  0.00860000  1.0 0.6011992222
C  C85  1  0.52250000  0.27410000  0.86360000  1.0 -0.2008220304
C  C86  1  0.47750000  0.72590000  0.13640000  1.0 -0.2008220304
C  C87  1  0.60790000  0.33540000  0.85250000  1.0 -0.0888405111
C  C88  1  0.39210000  0.66460000  0.14750000  1.0 -0.0888405111
C  C89  1  0.69290000  0.36220000  0.89370000  1.0 -0.1020970577
C  C90  1  0.30710000  0.63780000  0.10630000  1.0 -0.1020970577
C  C91  1  0.69850000  0.32710000  0.94420000  1.0 -0.007403808
C  C92  1  0.30150000  0.67290000  0.05580000  1.0 -0.007403808
C  C93  1  0.61790000  0.26430000  0.95290000  1.0 -0.0888405111
C  C94  1  0.38210000  0.73570000  0.04710000  1.0 -0.0888405111
C  C95  1  0.52880000  0.23890000  0.91390000  1.0 -0.0888405111
C  C96  1  0.47120000  0.76110000  0.08610000  1.0 -0.0888405111
C  C97  1  0.79400000  0.35880000  0.98720000  1.0 0.6380393928
C  C98  1  0.20600000  0.64120000  0.01280000  1.0 0.6380393928
C  C99  1  0.38560000  0.12140000  0.77120000  1.0 -0.2182222424
C  C100  1  0.61440000  0.87860000  0.22880000  1.0 -0.2182222424
C  C101  1  0.31040000  0.09290000  0.72310000  1.0 -0.119448017
C  C102  1  0.68960000  0.90710000  0.27690000  1.0 -0.119448017
C  C103  1  0.30500000  0.00950000  0.68750000  1.0 -0.1092266058
C  C104  1  0.69500000  0.99050000  0.31250000  1.0 -0.1092266058
C  C105  1  0.37600000  0.95090000  0.69630000  1.0 -0.007403808
C  C106  1  0.62400000  0.04910000  0.30370000  1.0 -0.007403808
C  C107  1  0.45020000  0.97270000  0.74380000  1.0 -0.0888405111
C  C108  1  0.54980000  0.02730000  0.25620000  1.0 -0.0888405111
C  C109  1  0.45550000  0.05700000  0.78010000  1.0 -0.0809494271
C  C110  1  0.54450000  0.94300000  0.21990000  1.0 -0.0809494271
C  C111  1  0.37820000  0.86060000  0.65390000  1.0 0.6215146607
C  C112  1  0.62180000  0.13940000  0.34610000  1.0 0.6215146607
C  C113  1  0.01130000  0.09570000  0.63360000  1.0 -0.1262817109
C  C114  1  0.98870000  0.90430000  0.36640000  1.0 -0.119448017
C  C115  1  0.96500000  0.03110000  0.58560000  1.0 -0.0809494271
C  C116  1  0.03500000  0.96890000  0.41440000  1.0 -0.0809494271
C  C117  1  0.95200000  0.93530000  0.58760000  1.0 -0.0687289336
C  C118  1  0.04800000  0.06470000  0.41240000  1.0 -0.0687289336
C  C119  1  0.98600000  0.90430000  0.63770000  1.0 0.0346264815
C  C120  1  0.01400000  0.09570000  0.36230000  1.0 0.0346264815
C  C121  1  0.03300000  0.96900000  0.68570000  1.0 -0.0888405111
C  C122  1  0.96700000  0.03100000  0.31430000  1.0 -0.0809494271
C  C123  1  0.04500000  0.06470000  0.68370000  1.0 -0.1092266058
C  C124  1  0.95500000  0.93530000  0.31630000  1.0 -0.1092266058
C  C125  1  0.97900000  0.80200000  0.63790000  1.0 0.2261087945
C  C126  1  0.02100000  0.19800000  0.36210000  1.0 0.2261087945
O  O1  1  0.42290000  0.36620000  0.46251000  1.0 -0.6796241178
O  O2  1  0.57710000  0.63380000  0.53749000  1.0 -0.6796241178
O  O3  1  0.43000000  0.21550000  0.44718000  1.0 -0.5724104518
O  O4  1  0.57000000  0.78450000  0.55282000  1.0 -0.5724104518
O  O5  1  0.08850000  0.57420000  0.87121000  1.0 -0.6796241178
O  O6  1  0.91150000  0.42580000  0.12879000  1.0 -0.6796241178
O  O7  1  0.00870000  0.45950000  0.91298000  1.0 -0.6437857026
O  O8  1  0.99130000  0.54050000  0.08702000  1.0 -0.6437857026
O  O9  1  0.64300000  0.43970000  0.51172000  1.0 -0.6018232578
O  O10  1  0.35700000  0.56030000  0.48828000  1.0 -0.6018232578
O  O11  1  0.64280000  0.31330000  0.44397000  1.0 -0.5893510057
O  O12  1  0.35720000  0.68670000  0.55603000  1.0 -0.5893510057
O  O13  1  0.94530000  0.77050000  0.68310000  1.0 -0.0687289336
O  O14  1  0.05470000  0.22950000  0.31690000  1.0 -0.0687289336
O  O15  1  0.86850000  0.74900000  0.59260000  1.0 -0.119448017
O  O16  1  0.13150000  0.25100000  0.40740000  1.0 -0.119448017
O  O17  1  0.47320000  0.47230000  0.57988000  1.0 -0.6674843902
O  O18  1  0.52680000  0.52770000  0.42012000  1.0 -0.6674843902
O  O19  1  0.44560000  0.59340000  0.64788000  1.0 -0.6537081474
O  O20  1  0.55440000  0.40660000  0.35212000  1.0 -0.6537081474
O  O21  1  0.04300000  0.37390000  0.01641000  1.0 -0.6796241178
O  O22  1  0.95700000  0.62610000  0.98359000  1.0 -0.6796241178
O  O23  1  0.01300000  0.21820000  0.00700000  1.0 -0.6143960231
O  O24  1  0.98700000  0.78180000  0.99300000  1.0 -0.6143960231
O  O25  1  0.84570000  0.43750000  0.98544000  1.0 -0.6290433282
O  O26  1  0.15430000  0.56250000  0.01456000  1.0 -0.6290433282
O  O27  1  0.81150000  0.30230000  0.02037000  1.0 -0.6437857026
O  O28  1  0.18850000  0.69770000  0.97963000  1.0 -0.6437857026
O  O29  1  0.31130000  0.84410000  0.60771000  1.0 -0.5893510057
O  O30  1  0.68870000  0.15590000  0.39229000  1.0 -0.584160077
O  O31  1  0.44040000  0.80540000  0.66234000  1.0 -0.6018232578
O  O32  1  0.55960000  0.19460000  0.33766000  1.0 -0.6018232578
O  O33  1  0.94700000  0.74700000  0.59290000  1.0 -0.1020970577
O  O34  1  0.05300000  0.25300000  0.40710000  1.0 -0.1020970577
O  O35  1  0.01800000  0.78000000  0.68630000  1.0 -0.1020970577
O  O36  1  0.98200000  0.22000000  0.31370000  1.0 -0.1092266058
