# DDEC6 charges by PACMAN v1.1 (https://github.com/mtap-research/PACMAN-charge/)
data_CANZOH_FSR_pacman
_symmetry_space_group_name_H-M   'P 1'
_cell_length_a   13.87200000
_cell_length_b   13.87200000
_cell_length_c   9.43500000
_cell_angle_alpha   90.00000000
_cell_angle_beta   90.00000000
_cell_angle_gamma   120.00000000
_symmetry_Int_Tables_number   1
_chemical_formula_structural   Sc4P7O31
_chemical_formula_sum   'Sc8 P14 O62'
_cell_volume   1572.35532737
_cell_formula_units_Z   2
loop_
 _symmetry_equiv_pos_site_id
 _symmetry_equiv_pos_as_xyz
  1  'x, y, z'
loop_
 _atom_site_type_symbol
 _atom_site_label
 _atom_site_symmetry_multiplicity
 _atom_site_fract_x
 _atom_site_fract_y
 _atom_site_fract_z
 _atom_site_occupancy
 _atom_site_charge
Sc  Sc1  1  0.56150000  0.85530000  0.40794000  1.0 1.9902826259
Sc  Sc2  1  0.14470000  0.70620000  0.40794000  1.0 1.9902826259
Sc  Sc3  1  0.29380000  0.43850000  0.40794000  1.0 1.9902826259
Sc  Sc4  1  0.43850000  0.14470000  0.59206000  1.0 1.9902826259
Sc  Sc5  1  0.85530000  0.29380000  0.59206000  1.0 1.9902826259
Sc  Sc6  1  0.70620000  0.56150000  0.59206000  1.0 1.9902826259
Sc  Sc7  1  0.00000000  0.00000000  0.00000000  1.0 1.9401089856
Sc  Sc8  1  0.00000000  0.00000000  0.50000000  1.0 2.0580557296
P  P1  1  0.81621000  0.98484000  0.24528000  1.0 1.5916941473
P  P2  1  0.01516000  0.83137000  0.24528000  1.0 1.5916941473
P  P3  1  0.16863000  0.18379000  0.24528000  1.0 1.5916941473
P  P4  1  0.18379000  0.01516000  0.75472000  1.0 1.5916941473
P  P5  1  0.98484000  0.16863000  0.75472000  1.0 1.5916941473
P  P6  1  0.83137000  0.81621000  0.75472000  1.0 1.5916941473
P  P7  1  0.63175000  0.12651000  0.39669000  1.0 1.5613468149
P  P8  1  0.87349000  0.50524000  0.39669000  1.0 1.5613468149
P  P9  1  0.49476000  0.36825000  0.39669000  1.0 1.5613468149
P  P10  1  0.36825000  0.87349000  0.60331000  1.0 1.5613468149
P  P11  1  0.12651000  0.49476000  0.60331000  1.0 1.5613468149
P  P12  1  0.50524000  0.63175000  0.60331000  1.0 1.5613468149
P  P13  1  0.33333333  0.66666667  0.21570000  1.0 1.5613468149
P  P14  1  0.66666667  0.33333333  0.78430000  1.0 1.5613468149
O  O1  1  0.70020000  0.89090000  0.28620000  1.0 -0.7519875756
O  O2  1  0.10910000  0.80930000  0.28620000  1.0 -0.7519875756
O  O3  1  0.19070000  0.29980000  0.28620000  1.0 -0.7519875756
O  O4  1  0.29980000  0.10910000  0.71380000  1.0 -0.7519875756
O  O5  1  0.89090000  0.19070000  0.71380000  1.0 -0.7519875756
O  O6  1  0.80930000  0.70020000  0.71380000  1.0 -0.7519875756
O  O7  1  0.86110000  0.94340000  0.12840000  1.0 -0.7788122138
O  O8  1  0.05660000  0.91770000  0.12840000  1.0 -0.7788122138
O  O9  1  0.08230000  0.13890000  0.12840000  1.0 -0.7788122138
O  O10  1  0.13890000  0.05660000  0.87160000  1.0 -0.7788122138
O  O11  1  0.94340000  0.08230000  0.87160000  1.0 -0.7788122138
O  O12  1  0.91770000  0.86110000  0.87160000  1.0 -0.7788122138
O  O13  1  0.89280000  0.03060000  0.37570000  1.0 -0.7788122138
O  O14  1  0.96940000  0.86220000  0.37570000  1.0 -0.7852454475
O  O15  1  0.13780000  0.10720000  0.37570000  1.0 -0.7852454475
O  O16  1  0.10720000  0.96940000  0.62430000  1.0 -0.7852454475
O  O17  1  0.03060000  0.13780000  0.62430000  1.0 -0.7788122138
O  O18  1  0.86220000  0.89280000  0.62430000  1.0 -0.7852454475
O  O19  1  0.80580000  0.08380000  0.17700000  1.0 -0.5279541305
O  O20  1  0.91620000  0.72200000  0.17700000  1.0 -0.5279541305
O  O21  1  0.27800000  0.19420000  0.17700000  1.0 -0.5279541305
O  O22  1  0.19420000  0.91620000  0.82300000  1.0 -0.5279541305
O  O23  1  0.08380000  0.27800000  0.82300000  1.0 -0.5279541305
O  O24  1  0.72200000  0.80580000  0.82300000  1.0 -0.5279541305
O  O25  1  0.57630000  0.00650000  0.35530000  1.0 -0.8017593912
O  O26  1  0.99350000  0.56980000  0.35530000  1.0 -0.8017593912
O  O27  1  0.43020000  0.42370000  0.35530000  1.0 -0.8017593912
O  O28  1  0.42370000  0.99350000  0.64470000  1.0 -0.8017593912
O  O29  1  0.00650000  0.43020000  0.64470000  1.0 -0.8017593912
O  O30  1  0.56980000  0.57630000  0.64470000  1.0 -0.8017593912
O  O31  1  0.69880000  0.19530000  0.26250000  1.0 -0.4843832742
O  O32  1  0.80470000  0.50350000  0.26250000  1.0 -0.4843832742
O  O33  1  0.49650000  0.30120000  0.26250000  1.0 -0.4843832742
O  O34  1  0.30120000  0.80470000  0.73750000  1.0 -0.4843832742
O  O35  1  0.19530000  0.49650000  0.73750000  1.0 -0.4843832742
O  O36  1  0.50350000  0.69880000  0.73750000  1.0 -0.4843832742
O  O37  1  0.45060000  0.83530000  0.56820000  1.0 -0.7593791079
O  O38  1  0.16470000  0.61530000  0.56820000  1.0 -0.7593791079
O  O39  1  0.38470000  0.54940000  0.56820000  1.0 -0.7593791079
O  O40  1  0.54940000  0.16470000  0.43180000  1.0 -0.7593791079
O  O41  1  0.83530000  0.38470000  0.43180000  1.0 -0.7593791079
O  O42  1  0.61530000  0.45060000  0.43180000  1.0 -0.7593791079
O  O43  1  0.56450000  0.71630000  0.48400000  1.0 -0.7519875756
O  O44  1  0.28370000  0.84820000  0.48400000  1.0 -0.7519875756
O  O45  1  0.15180000  0.43550000  0.48400000  1.0 -0.7519875756
O  O46  1  0.43550000  0.28370000  0.51600000  1.0 -0.7519875756
O  O47  1  0.71630000  0.15180000  0.51600000  1.0 -0.7519875756
O  O48  1  0.84820000  0.56450000  0.51600000  1.0 -0.7519875756
O  O49  1  0.44480000  0.76550000  0.26050000  1.0 -0.7593791079
O  O50  1  0.23450000  0.67930000  0.26050000  1.0 -0.7593791079
O  O51  1  0.32070000  0.55520000  0.26050000  1.0 -0.7593791079
O  O52  1  0.55520000  0.23450000  0.73950000  1.0 -0.7593791079
O  O53  1  0.76550000  0.32070000  0.73950000  1.0 -0.7593791079
O  O54  1  0.67930000  0.44480000  0.73950000  1.0 -0.7593791079
O  O55  1  0.33333333  0.66666667  0.04690000  1.0 -0.4527883223
O  O56  1  0.66666667  0.33333333  0.95310000  1.0 -0.4527883223
O  O57  1  0.68990000  0.94870000  0.57650000  1.0 0.2195395414
O  O58  1  0.05130000  0.74120000  0.57650000  1.0 0.2195395414
O  O59  1  0.25880000  0.31010000  0.57650000  1.0 0.2195395414
O  O60  1  0.31010000  0.05130000  0.42350000  1.0 0.2195395414
O  O61  1  0.94870000  0.25880000  0.42350000  1.0 0.2195395414
O  O62  1  0.74120000  0.68990000  0.42350000  1.0 0.2195395414
