# DDEC6 charges by PACMAN v1.1 (https://github.com/mtap-research/PACMAN-charge/)
data_CARFUZ_FSR_pacman
_symmetry_space_group_name_H-M   'P 1'
_cell_length_a   19.14900000
_cell_length_b   4.86400000
_cell_length_c   31.16180000
_cell_angle_alpha   90.00000000
_cell_angle_beta   126.04600000
_cell_angle_gamma   90.00000000
_symmetry_Int_Tables_number   1
_chemical_formula_structural   Zn2H25(C4O)9
_chemical_formula_sum   'Zn8 H100 C144 O36'
_cell_volume   2346.74718452
_cell_formula_units_Z   4
loop_
 _symmetry_equiv_pos_site_id
 _symmetry_equiv_pos_as_xyz
  1  'x, y, z'
loop_
 _atom_site_type_symbol
 _atom_site_label
 _atom_site_symmetry_multiplicity
 _atom_site_fract_x
 _atom_site_fract_y
 _atom_site_fract_z
 _atom_site_occupancy
 _atom_site_charge
Zn  Zn1  1  0.42698000  0.70824000  0.79187000  1.0 0.8984182248
Zn  Zn2  1  0.44059000  0.63242000  0.69323000  1.0 1.0003941575
Zn  Zn3  1  0.57302000  0.20824000  0.70813000  1.0 0.8984182248
Zn  Zn4  1  0.55941000  0.13242000  0.80677000  1.0 1.0003941575
Zn  Zn5  1  0.57302000  0.29176000  0.20813000  1.0 0.8984182248
Zn  Zn6  1  0.55941000  0.36758000  0.30677000  1.0 1.0003941575
Zn  Zn7  1  0.42698000  0.79176000  0.29187000  1.0 0.8984182248
Zn  Zn8  1  0.44059000  0.86758000  0.19323000  1.0 1.0003941575
H  H1  1  0.77710000  0.09430000  0.45360000  1.0 0.1318832705
H  H2  1  0.84330000  0.65890000  0.58190000  1.0 0.1586318681
H  H3  1  0.62260000  0.52600000  0.44360000  1.0 0.1318832705
H  H4  1  0.58540000  0.40890000  0.50050000  1.0 0.0991165673
H  H5  1  0.61800000  0.13560000  0.49120000  1.0 0.0991165673
H  H6  1  0.49650000  0.25640000  0.52400000  1.0 0.0814958511
H  H7  1  0.47460000  0.03100000  0.58160000  1.0 0.0671711037
H  H8  1  0.71540000  0.70800000  0.65810000  1.0 0.0887180889
H  H9  1  0.73470000  0.93470000  0.60030000  1.0 0.0814958511
H  H10  1  0.92600000  0.11610000  0.50320000  1.0 0.0814958511
H  H11  1  0.89060000  0.36390000  0.51760000  1.0 0.0814958511
H  H12  1  0.07620000  0.91100000  0.56950000  1.0 0.0814958511
H  H13  1  0.22160000  0.03300000  0.63430000  1.0 0.1125537594
H  H14  1  0.14410000  0.76800000  0.65630000  1.0 0.0991165673
H  H15  1  0.00060000  0.64260000  0.59200000  1.0 0.1125537594
H  H16  1  0.80520000  0.21650000  0.59500000  1.0 0.0991165673
H  H17  1  0.77570000  0.47820000  0.60980000  1.0 0.0887180889
H  H18  1  0.58970000  0.30000000  0.55400000  1.0 0.0887180889
H  H19  1  0.52680000  0.06170000  0.58870000  1.0 0.0887180889
H  H20  1  0.75180000  0.68400000  0.69560000  1.0 0.0991165673
H  H21  1  0.81630000  0.91570000  0.66230000  1.0 0.0887180889
H  H22  1  0.05930000  0.28950000  0.52610000  1.0 0.0991165673
H  H23  1  0.19990000  0.38500000  0.59190000  1.0 0.1197192217
H  H24  1  0.15590000  0.42240000  0.70040000  1.0 0.1197192217
H  H25  1  0.01140000  0.32640000  0.63540000  1.0 0.1125537594
H  H26  1  0.22290000  0.59430000  0.04640000  1.0 0.1318832705
H  H27  1  0.15670000  0.15890000  0.91810000  1.0 0.1586318681
H  H28  1  0.37740000  0.02600000  0.05640000  1.0 0.1318832705
H  H29  1  0.41460000  0.90890000  0.99950000  1.0 0.0991165673
H  H30  1  0.38200000  0.63560000  0.00880000  1.0 0.0991165673
H  H31  1  0.50350000  0.75640000  0.97600000  1.0 0.0814958511
H  H32  1  0.52540000  0.53100000  0.91840000  1.0 0.0671711037
H  H33  1  0.28460000  0.20800000  0.84190000  1.0 0.0887180889
H  H34  1  0.26530000  0.43470000  0.89970000  1.0 0.0814958511
H  H35  1  0.07400000  0.61610000  0.99680000  1.0 0.0814958511
H  H36  1  0.10940000  0.86390000  0.98240000  1.0 0.0814958511
H  H37  1  0.92380000  0.41100000  0.93050000  1.0 0.0814958511
H  H38  1  0.77840000  0.53300000  0.86570000  1.0 0.1125537594
H  H39  1  0.85590000  0.26800000  0.84370000  1.0 0.0991165673
H  H40  1  0.99940000  0.14260000  0.90800000  1.0 0.1125537594
H  H41  1  0.19480000  0.71650000  0.90500000  1.0 0.0991165673
H  H42  1  0.22430000  0.97820000  0.89020000  1.0 0.0887180889
H  H43  1  0.41030000  0.80000000  0.94600000  1.0 0.0887180889
H  H44  1  0.47320000  0.56170000  0.91130000  1.0 0.0887180889
H  H45  1  0.24820000  0.18400000  0.80440000  1.0 0.0991165673
H  H46  1  0.18370000  0.41570000  0.83770000  1.0 0.0887180889
H  H47  1  0.94070000  0.78950000  0.97390000  1.0 0.0991165673
H  H48  1  0.80010000  0.88500000  0.90810000  1.0 0.1197192217
H  H49  1  0.84410000  0.92240000  0.79960000  1.0 0.1197192217
H  H50  1  0.98860000  0.82640000  0.86460000  1.0 0.1125537594
H  H51  1  0.22290000  0.90570000  0.54640000  1.0 0.1318832705
H  H52  1  0.15670000  0.34110000  0.41810000  1.0 0.1586318681
H  H53  1  0.37740000  0.47400000  0.55640000  1.0 0.1318832705
H  H54  1  0.41460000  0.59110000  0.49950000  1.0 0.0991165673
H  H55  1  0.38200000  0.86440000  0.50880000  1.0 0.0991165673
H  H56  1  0.50350000  0.74360000  0.47600000  1.0 0.0814958511
H  H57  1  0.52540000  0.96900000  0.41840000  1.0 0.0671711037
H  H58  1  0.28460000  0.29200000  0.34190000  1.0 0.0887180889
H  H59  1  0.26530000  0.06530000  0.39970000  1.0 0.0814958511
H  H60  1  0.07400000  0.88390000  0.49680000  1.0 0.0814958511
H  H61  1  0.10940000  0.63610000  0.48240000  1.0 0.0814958511
H  H62  1  0.92380000  0.08900000  0.43050000  1.0 0.0814958511
H  H63  1  0.77840000  0.96700000  0.36570000  1.0 0.1125537594
H  H64  1  0.85590000  0.23200000  0.34370000  1.0 0.0991165673
H  H65  1  0.99940000  0.35740000  0.40800000  1.0 0.1125537594
H  H66  1  0.19480000  0.78350000  0.40500000  1.0 0.0991165673
H  H67  1  0.22430000  0.52180000  0.39020000  1.0 0.0887180889
H  H68  1  0.41030000  0.70000000  0.44600000  1.0 0.0887180889
H  H69  1  0.47320000  0.93830000  0.41130000  1.0 0.0887180889
H  H70  1  0.24820000  0.31600000  0.30440000  1.0 0.0991165673
H  H71  1  0.18370000  0.08430000  0.33770000  1.0 0.0887180889
H  H72  1  0.94070000  0.71050000  0.47390000  1.0 0.0991165673
H  H73  1  0.80010000  0.61500000  0.40810000  1.0 0.1197192217
H  H74  1  0.84410000  0.57760000  0.29960000  1.0 0.1197192217
H  H75  1  0.98860000  0.67360000  0.36460000  1.0 0.1125537594
H  H76  1  0.77710000  0.40570000  0.95360000  1.0 0.1318832705
H  H77  1  0.84330000  0.84110000  0.08190000  1.0 0.1586318681
H  H78  1  0.62260000  0.97400000  0.94360000  1.0 0.1318832705
H  H79  1  0.58540000  0.09110000  0.00050000  1.0 0.0991165673
H  H80  1  0.61800000  0.36440000  0.99120000  1.0 0.0991165673
H  H81  1  0.49650000  0.24360000  0.02400000  1.0 0.0814958511
H  H82  1  0.47460000  0.46900000  0.08160000  1.0 0.0671711037
H  H83  1  0.71540000  0.79200000  0.15810000  1.0 0.0887180889
H  H84  1  0.73470000  0.56530000  0.10030000  1.0 0.0814958511
H  H85  1  0.92600000  0.38390000  0.00320000  1.0 0.0814958511
H  H86  1  0.89060000  0.13610000  0.01760000  1.0 0.0814958511
H  H87  1  0.07620000  0.58900000  0.06950000  1.0 0.0814958511
H  H88  1  0.22160000  0.46700000  0.13430000  1.0 0.1125537594
H  H89  1  0.14410000  0.73200000  0.15630000  1.0 0.0991165673
H  H90  1  0.00060000  0.85740000  0.09200000  1.0 0.1125537594
H  H91  1  0.80520000  0.28350000  0.09500000  1.0 0.0991165673
H  H92  1  0.77570000  0.02180000  0.10980000  1.0 0.0887180889
H  H93  1  0.58970000  0.20000000  0.05400000  1.0 0.0887180889
H  H94  1  0.52680000  0.43830000  0.08870000  1.0 0.0887180889
H  H95  1  0.75180000  0.81600000  0.19560000  1.0 0.0991165673
H  H96  1  0.81630000  0.58430000  0.16230000  1.0 0.0887180889
H  H97  1  0.05930000  0.21050000  0.02610000  1.0 0.0991165673
H  H98  1  0.19990000  0.11500000  0.09190000  1.0 0.1197192217
H  H99  1  0.15590000  0.07760000  0.20040000  1.0 0.1197192217
H  H100  1  0.01140000  0.17360000  0.13540000  1.0 0.1125537594
C  C1  1  0.62280000  0.88930000  0.38230000  1.0 0.595374755
C  C2  1  0.68790000  0.81050000  0.43960000  1.0 -0.0247099044
C  C3  1  0.76510000  0.95750000  0.46920000  1.0 -0.2516560932
C  C4  1  0.82260000  0.89420000  0.52200000  1.0 0.2285548965
C  C5  1  0.80400000  0.69770000  0.54600000  1.0 -0.3693539207
C  C6  1  0.72570000  0.55880000  0.51570000  1.0 0.1125537594
C  C7  1  0.66880000  0.61420000  0.46230000  1.0 -0.2399795732
C  C8  1  0.62860000  0.26500000  0.51810000  1.0 -0.209724017
C  C9  1  0.61750000  0.11810000  0.55640000  1.0 0.0295607256
C  C10  1  0.54040000  0.14700000  0.55090000  1.0 -0.131175526
C  C11  1  0.52870000  0.01100000  0.58550000  1.0 -0.0411642618
C  C12  1  0.59440000  0.84640000  0.62570000  1.0 0.0194136988
C  C13  1  0.67150000  0.81800000  0.63120000  1.0 0.0026274877
C  C14  1  0.68310000  0.95400000  0.59660000  1.0 -0.0603334528
C  C15  1  0.58930000  0.69730000  0.66590000  1.0 0.4209144333
C  C16  1  0.92880000  0.20600000  0.53200000  1.0 -0.051192006
C  C17  1  0.19410000  0.41400000  0.65220000  1.0 -0.0090813769
C  C18  1  0.02450000  0.26900000  0.57480000  1.0 0.0295607256
C  C19  1  0.09020000  0.08800000  0.58740000  1.0 -0.077582602
C  C20  1  0.17590000  0.15900000  0.62550000  1.0 -0.0603334528
C  C21  1  0.13020000  0.59300000  0.63850000  1.0 -0.051192006
C  C22  1  0.04450000  0.52100000  0.60040000  1.0 -0.0294799587
C  C23  1  0.28690000  0.48520000  0.69240000  1.0 0.4524448732
C  C24  1  0.75530000  0.31200000  0.58840000  1.0 -0.0992482869
C  C25  1  0.71010000  0.12800000  0.60550000  1.0 0.009080199
C  C26  1  0.62340000  0.17100000  0.58340000  1.0 -0.0603334528
C  C27  1  0.58480000  0.03200000  0.60340000  1.0 0.0194136988
C  C28  1  0.63280000  0.85000000  0.64540000  1.0 0.0295607256
C  C29  1  0.71960000  0.80600000  0.66750000  1.0 -0.1181431046
C  C30  1  0.75820000  0.94500000  0.64750000  1.0 -0.1139806813
C  C31  1  0.02100000  0.29800000  0.57430000  1.0 0.0367171088
C  C32  1  0.07860000  0.31600000  0.56100000  1.0 -0.0603334528
C  C33  1  0.16520000  0.37400000  0.60000000  1.0 -0.0294799587
C  C34  1  0.13650000  0.39600000  0.66550000  1.0 -0.051192006
C  C35  1  0.04990000  0.33800000  0.62650000  1.0 -0.0411642618
C  C36  1  0.19590000  0.41200000  0.65110000  1.0 -0.0090813769
C  C37  1  0.37720000  0.38930000  0.11770000  1.0 0.595374755
C  C38  1  0.31210000  0.31050000  0.06040000  1.0 -0.0247099044
C  C39  1  0.23490000  0.45750000  0.03080000  1.0 -0.2516560932
C  C40  1  0.17740000  0.39420000  0.97800000  1.0 0.2285548965
C  C41  1  0.19600000  0.19770000  0.95400000  1.0 -0.3693539207
C  C42  1  0.27430000  0.05880000  0.98430000  1.0 0.1125537594
C  C43  1  0.33120000  0.11420000  0.03770000  1.0 -0.2399795732
C  C44  1  0.37140000  0.76500000  0.98190000  1.0 -0.209724017
C  C45  1  0.38250000  0.61810000  0.94360000  1.0 0.0295607256
C  C46  1  0.45960000  0.64700000  0.94910000  1.0 -0.131175526
C  C47  1  0.47130000  0.51100000  0.91450000  1.0 -0.0411642618
C  C48  1  0.40560000  0.34640000  0.87430000  1.0 0.0194136988
C  C49  1  0.32850000  0.31800000  0.86880000  1.0 0.0026274877
C  C50  1  0.31690000  0.45400000  0.90340000  1.0 -0.0603334528
C  C51  1  0.41070000  0.19730000  0.83410000  1.0 0.4209144333
C  C52  1  0.07120000  0.70600000  0.96800000  1.0 -0.051192006
C  C53  1  0.80590000  0.91400000  0.84780000  1.0 -0.0090813769
C  C54  1  0.97550000  0.76900000  0.92520000  1.0 0.0295607256
C  C55  1  0.90980000  0.58800000  0.91260000  1.0 -0.077582602
C  C56  1  0.82410000  0.65900000  0.87450000  1.0 -0.0603334528
C  C57  1  0.86980000  0.09300000  0.86150000  1.0 -0.051192006
C  C58  1  0.95550000  0.02100000  0.89960000  1.0 -0.0294799587
C  C59  1  0.71310000  0.98520000  0.80760000  1.0 0.4524448732
C  C60  1  0.24470000  0.81200000  0.91160000  1.0 -0.0992482869
C  C61  1  0.28990000  0.62800000  0.89450000  1.0 0.009080199
C  C62  1  0.37660000  0.67100000  0.91660000  1.0 -0.0603334528
C  C63  1  0.41520000  0.53200000  0.89660000  1.0 0.0194136988
C  C64  1  0.36720000  0.35000000  0.85460000  1.0 0.0295607256
C  C65  1  0.28040000  0.30600000  0.83250000  1.0 -0.1181431046
C  C66  1  0.24180000  0.44500000  0.85250000  1.0 -0.1139806813
C  C67  1  0.97900000  0.79800000  0.92570000  1.0 0.0367171088
C  C68  1  0.92140000  0.81600000  0.93900000  1.0 -0.0603334528
C  C69  1  0.83480000  0.87400000  0.90000000  1.0 -0.0294799587
C  C70  1  0.86350000  0.89600000  0.83450000  1.0 -0.051192006
C  C71  1  0.95010000  0.83800000  0.87350000  1.0 -0.0411642618
C  C72  1  0.80410000  0.91200000  0.84890000  1.0 -0.0090813769
C  C73  1  0.37720000  0.11070000  0.61770000  1.0 0.595374755
C  C74  1  0.31210000  0.18950000  0.56040000  1.0 -0.0247099044
C  C75  1  0.23490000  0.04250000  0.53080000  1.0 -0.2516560932
C  C76  1  0.17740000  0.10580000  0.47800000  1.0 0.2285548965
C  C77  1  0.19600000  0.30230000  0.45400000  1.0 -0.3693539207
C  C78  1  0.27430000  0.44120000  0.48430000  1.0 0.1125537594
C  C79  1  0.33120000  0.38580000  0.53770000  1.0 -0.2399795732
C  C80  1  0.37140000  0.73500000  0.48190000  1.0 -0.209724017
C  C81  1  0.38250000  0.88190000  0.44360000  1.0 0.0295607256
C  C82  1  0.45960000  0.85300000  0.44910000  1.0 -0.131175526
C  C83  1  0.47130000  0.98900000  0.41450000  1.0 -0.0411642618
C  C84  1  0.40560000  0.15360000  0.37430000  1.0 0.0194136988
C  C85  1  0.32850000  0.18200000  0.36880000  1.0 0.0026274877
C  C86  1  0.31690000  0.04600000  0.40340000  1.0 -0.0603334528
C  C87  1  0.41070000  0.30270000  0.33410000  1.0 0.4209144333
C  C88  1  0.07120000  0.79400000  0.46800000  1.0 -0.051192006
C  C89  1  0.80590000  0.58600000  0.34780000  1.0 -0.0090813769
C  C90  1  0.97550000  0.73100000  0.42520000  1.0 0.0295607256
C  C91  1  0.90980000  0.91200000  0.41260000  1.0 -0.077582602
C  C92  1  0.82410000  0.84100000  0.37450000  1.0 -0.0603334528
C  C93  1  0.86980000  0.40700000  0.36150000  1.0 -0.051192006
C  C94  1  0.95550000  0.47900000  0.39960000  1.0 -0.0294799587
C  C95  1  0.71310000  0.51480000  0.30760000  1.0 0.4524448732
C  C96  1  0.24470000  0.68800000  0.41160000  1.0 -0.0992482869
C  C97  1  0.28990000  0.87200000  0.39450000  1.0 0.009080199
C  C98  1  0.37660000  0.82900000  0.41660000  1.0 -0.0603334528
C  C99  1  0.41520000  0.96800000  0.39660000  1.0 0.0194136988
C  C100  1  0.36720000  0.15000000  0.35460000  1.0 0.0295607256
C  C101  1  0.28040000  0.19400000  0.33250000  1.0 -0.1181431046
C  C102  1  0.24180000  0.05500000  0.35250000  1.0 -0.1139806813
C  C103  1  0.97900000  0.70200000  0.42570000  1.0 0.0367171088
C  C104  1  0.92140000  0.68400000  0.43900000  1.0 -0.0603334528
C  C105  1  0.83480000  0.62600000  0.40000000  1.0 -0.0294799587
C  C106  1  0.86350000  0.60400000  0.33450000  1.0 -0.051192006
C  C107  1  0.95010000  0.66200000  0.37350000  1.0 -0.0411642618
C  C108  1  0.80410000  0.58800000  0.34890000  1.0 -0.0090813769
C  C109  1  0.62280000  0.61070000  0.88230000  1.0 0.595374755
C  C110  1  0.68790000  0.68950000  0.93960000  1.0 -0.0247099044
C  C111  1  0.76510000  0.54250000  0.96920000  1.0 -0.2516560932
C  C112  1  0.82260000  0.60580000  0.02200000  1.0 0.2285548965
C  C113  1  0.80400000  0.80230000  0.04600000  1.0 -0.3693539207
C  C114  1  0.72570000  0.94120000  0.01570000  1.0 0.1125537594
C  C115  1  0.66880000  0.88580000  0.96230000  1.0 -0.2399795732
C  C116  1  0.62860000  0.23500000  0.01810000  1.0 -0.209724017
C  C117  1  0.61750000  0.38190000  0.05640000  1.0 0.0295607256
C  C118  1  0.54040000  0.35300000  0.05090000  1.0 -0.131175526
C  C119  1  0.52870000  0.48900000  0.08550000  1.0 -0.0411642618
C  C120  1  0.59440000  0.65360000  0.12570000  1.0 0.0194136988
C  C121  1  0.67150000  0.68200000  0.13120000  1.0 0.0026274877
C  C122  1  0.68310000  0.54600000  0.09660000  1.0 -0.0603334528
C  C123  1  0.58930000  0.80270000  0.16590000  1.0 0.4209144333
C  C124  1  0.92880000  0.29400000  0.03200000  1.0 -0.051192006
C  C125  1  0.19410000  0.08600000  0.15220000  1.0 -0.0090813769
C  C126  1  0.02450000  0.23100000  0.07480000  1.0 0.0295607256
C  C127  1  0.09020000  0.41200000  0.08740000  1.0 -0.077582602
C  C128  1  0.17590000  0.34100000  0.12550000  1.0 -0.0603334528
C  C129  1  0.13020000  0.90700000  0.13850000  1.0 -0.051192006
C  C130  1  0.04450000  0.97900000  0.10040000  1.0 -0.0294799587
C  C131  1  0.28690000  0.01480000  0.19240000  1.0 0.4524448732
C  C132  1  0.75530000  0.18800000  0.08840000  1.0 -0.0992482869
C  C133  1  0.71010000  0.37200000  0.10550000  1.0 0.009080199
C  C134  1  0.62340000  0.32900000  0.08340000  1.0 -0.0603334528
C  C135  1  0.58480000  0.46800000  0.10340000  1.0 0.0194136988
C  C136  1  0.63280000  0.65000000  0.14540000  1.0 0.0295607256
C  C137  1  0.71960000  0.69400000  0.16750000  1.0 -0.1181431046
C  C138  1  0.75820000  0.55500000  0.14750000  1.0 -0.1139806813
C  C139  1  0.02100000  0.20200000  0.07430000  1.0 0.0367171088
C  C140  1  0.07860000  0.18400000  0.06100000  1.0 -0.0603334528
C  C141  1  0.16520000  0.12600000  0.10000000  1.0 -0.0294799587
C  C142  1  0.13650000  0.10400000  0.16550000  1.0 -0.051192006
C  C143  1  0.04990000  0.16200000  0.12650000  1.0 -0.0411642618
C  C144  1  0.19590000  0.08800000  0.15110000  1.0 -0.0090813769
O  O1  1  0.63263000  0.11770000  0.36823000  1.0 -0.5259562215
O  O2  1  0.56152000  0.72100000  0.35232000  1.0 -0.5616333564
O  O3  1  0.70640000  0.37700000  0.54060000  1.0 -0.0992482869
O  O4  1  0.61080000  0.45190000  0.67520000  1.0 -0.482901164
O  O5  1  0.54773000  0.81820000  0.68013000  1.0 -0.5092222175
O  O6  1  0.90196000  0.01970000  0.55496000  1.0 -0.3296756377
O  O7  1  0.34350000  0.41030000  0.68680000  1.0 -0.4567801138
O  O8  1  0.30400000  0.62590000  0.73210000  1.0 -0.5248485883
O  O9  1  0.45427000  0.92050000  0.74697000  1.0 -0.7168474873
O  O10  1  0.36737000  0.61770000  0.13177000  1.0 -0.5259562215
O  O11  1  0.43848000  0.22100000  0.14768000  1.0 -0.5616333564
O  O12  1  0.29360000  0.87700000  0.95940000  1.0 -0.0992482869
O  O13  1  0.38920000  0.95190000  0.82480000  1.0 -0.482901164
O  O14  1  0.45227000  0.31820000  0.81987000  1.0 -0.5092222175
O  O15  1  0.09804000  0.51970000  0.94504000  1.0 -0.3296756377
O  O16  1  0.65650000  0.91030000  0.81320000  1.0 -0.4567801138
O  O17  1  0.69600000  0.12590000  0.76790000  1.0 -0.5248485883
O  O18  1  0.54573000  0.42050000  0.75303000  1.0 -0.7168474873
O  O19  1  0.36737000  0.88230000  0.63177000  1.0 -0.5259562215
O  O20  1  0.43848000  0.27900000  0.64768000  1.0 -0.5616333564
O  O21  1  0.29360000  0.62300000  0.45940000  1.0 -0.0992482869
O  O22  1  0.38920000  0.54810000  0.32480000  1.0 -0.482901164
O  O23  1  0.45227000  0.18180000  0.31987000  1.0 -0.5092222175
O  O24  1  0.09804000  0.98030000  0.44504000  1.0 -0.3296756377
O  O25  1  0.65650000  0.58970000  0.31320000  1.0 -0.4567801138
O  O26  1  0.69600000  0.37410000  0.26790000  1.0 -0.5248485883
O  O27  1  0.54573000  0.07950000  0.25303000  1.0 -0.7168474873
O  O28  1  0.63263000  0.38230000  0.86823000  1.0 -0.5259562215
O  O29  1  0.56152000  0.77900000  0.85232000  1.0 -0.5616333564
O  O30  1  0.70640000  0.12300000  0.04060000  1.0 -0.0992482869
O  O31  1  0.61080000  0.04810000  0.17520000  1.0 -0.482901164
O  O32  1  0.54773000  0.68180000  0.18013000  1.0 -0.5092222175
O  O33  1  0.90196000  0.48030000  0.05496000  1.0 -0.3296756377
O  O34  1  0.34350000  0.08970000  0.18680000  1.0 -0.4567801138
O  O35  1  0.30400000  0.87410000  0.23210000  1.0 -0.5248485883
O  O36  1  0.45427000  0.57950000  0.24697000  1.0 -0.7168474873
