# DDEC6 charges by PACMAN v1.1 (https://github.com/mtap-research/PACMAN-charge/)
data_CARKOY_FSR_pacman
_symmetry_space_group_name_H-M   'P 1'
_cell_length_a   18.94350000
_cell_length_b   18.94350000
_cell_length_c   30.31710000
_cell_angle_alpha   79.49950000
_cell_angle_beta   100.50100000
_cell_angle_gamma   133.35400000
_symmetry_Int_Tables_number   1
_chemical_formula_structural   Zn8H104C100I19N24O
_chemical_formula_sum   'Zn16 H208 C200 I38 N48 O2'
_cell_volume   7753.39111736
_cell_formula_units_Z   2
loop_
 _symmetry_equiv_pos_site_id
 _symmetry_equiv_pos_as_xyz
  1  'x, y, z'
loop_
 _atom_site_type_symbol
 _atom_site_label
 _atom_site_symmetry_multiplicity
 _atom_site_fract_x
 _atom_site_fract_y
 _atom_site_fract_z
 _atom_site_occupancy
 _atom_site_charge
Zn  Zn1  1  0.34069000  0.18219000  0.84306000  1.0 0.4524370472
Zn  Zn2  1  0.66602000  0.92884000  0.19991000  1.0 0.3420450131
Zn  Zn3  1  0.19620000  0.85900000  0.01680000  1.0 0.2162365134
Zn  Zn4  1  0.59116000  0.43094000  0.34168000  1.0 0.3130128721
Zn  Zn5  1  0.91850000  0.58050000  0.51820000  1.0 0.1395748524
Zn  Zn6  1  0.85031000  0.10919000  0.69684000  1.0 0.4719740789
Zn  Zn7  1  0.20260000  0.84900000  0.02800000  1.0 0.2523880194
Zn  Zn8  1  0.92540000  0.56460000  0.53370000  1.0 0.1867099116
Zn  Zn9  1  0.18219000  0.34069000  0.15694000  1.0 0.4524370472
Zn  Zn10  1  0.92884000  0.66602000  0.80009000  1.0 0.3420450131
Zn  Zn11  1  0.85900000  0.19620000  0.98320000  1.0 0.2162365134
Zn  Zn12  1  0.43094000  0.59116000  0.65832000  1.0 0.3130128721
Zn  Zn13  1  0.58050000  0.91850000  0.48180000  1.0 0.150934432
Zn  Zn14  1  0.10919000  0.85031000  0.30316000  1.0 0.4719740789
Zn  Zn15  1  0.84900000  0.20260000  0.97200000  1.0 0.2523880194
Zn  Zn16  1  0.56460000  0.92540000  0.46630000  1.0 0.1842527876
H  H1  1  0.54370000  0.35470000  0.87350000  1.0 0.090035517
H  H2  1  0.66620000  0.39780000  0.93030000  1.0 0.122666737
H  H3  1  0.49230000  0.11490000  0.97510000  1.0 0.122666737
H  H4  1  0.38620000  0.07940000  0.91330000  1.0 0.090035517
H  H5  1  0.13250000  0.66230000  0.06860000  1.0 0.0810249217
H  H6  1  0.99070000  0.49890000  0.07530000  1.0 0.1290566402
H  H7  1  0.84970000  0.55910000  0.98500000  1.0 0.1395748524
H  H8  1  0.99530000  0.72150000  0.98270000  1.0 0.0700400682
H  H9  1  0.57440000  0.93940000  0.10870000  1.0 0.0700400682
H  H10  1  0.58750000  0.06010000  0.05970000  1.0 0.1092101054
H  H11  1  0.84010000  0.26330000  0.12840000  1.0 0.1290566402
H  H12  1  0.80970000  0.13890000  0.18000000  1.0 0.1005079499
H  H13  1  0.83890000  0.99130000  0.26420000  1.0 0.090035517
H  H14  1  0.99020000  0.03700000  0.26150000  1.0 0.122666737
H  H15  1  0.91370000  0.96330000  0.13460000  1.0 0.1566255877
H  H16  1  0.77480000  0.93220000  0.13640000  1.0 0.090035517
H  H17  1  0.05730000  0.85590000  0.04290000  1.0 0.090035517
H  H18  1  0.03560000  0.92300000  0.09300000  1.0 0.1867099116
H  H19  1  0.28710000  0.01390000  0.16280000  1.0 0.1290566402
H  H20  1  0.30510000  0.96030000  0.10630000  1.0 0.0700400682
H  H21  1  0.53310000  0.32270000  0.26250000  1.0 0.1005079499
H  H22  1  0.40730000  0.21610000  0.21670000  1.0 0.1395748524
H  H23  1  0.24580000  0.23040000  0.27890000  1.0 0.1395748524
H  H24  1  0.38260000  0.34620000  0.32000000  1.0 0.090035517
H  H25  1  0.42700000  0.22200000  0.36780000  1.0 0.1005079499
H  H26  1  0.38160000  0.10440000  0.42360000  1.0 0.1290566402
H  H27  1  0.65800000  0.27040000  0.46990000  1.0 0.122666737
H  H28  1  0.69280000  0.39080000  0.41560000  1.0 0.0810249217
H  H29  1  0.83210000  0.20610000  0.60730000  1.0 0.1005079499
H  H30  1  0.72000000  0.18440000  0.55750000  1.0 0.1092101054
H  H31  1  0.51400000  0.93760000  0.62780000  1.0 0.1290566402
H  H32  1  0.63430000  0.96630000  0.67870000  1.0 0.090035517
H  H33  1  0.11200000  0.65060000  0.57500000  1.0 0.0810249217
H  H34  1  0.27720000  0.78620000  0.57890000  1.0 0.1395748524
H  H35  1  0.21170000  0.91510000  0.48410000  1.0 0.1395748524
H  H36  1  0.05240000  0.77920000  0.48690000  1.0 0.0810249217
H  H37  1  0.90790000  0.71990000  0.54420000  1.0 0.1005079499
H  H38  1  0.85280000  0.73580000  0.59650000  1.0 0.1395748524
H  H39  1  0.74840000  0.48580000  0.65790000  1.0 0.1395748524
H  H40  1  0.82550000  0.47710000  0.60630000  1.0 0.0596170027
H  H41  1  0.43580000  0.23240000  0.76230000  1.0 0.1005079499
H  H42  1  0.55960000  0.37000000  0.71810000  1.0 0.1395748524
H  H43  1  0.54730000  0.53130000  0.77880000  1.0 0.1290566402
H  H44  1  0.42350000  0.38990000  0.81950000  1.0 0.1092101054
H  H45  1  0.77580000  0.92900000  0.76140000  1.0 0.1005079499
H  H46  1  0.74000000  0.78760000  0.76290000  1.0 0.1395748524
H  H47  1  0.80640000  0.86060000  0.63540000  1.0 0.1290566402
H  H48  1  0.84410000  0.00170000  0.63910000  1.0 0.1005079499
H  H49  1  0.35470000  0.54370000  0.12650000  1.0 0.090035517
H  H50  1  0.39780000  0.66620000  0.06970000  1.0 0.122666737
H  H51  1  0.11490000  0.49230000  0.02490000  1.0 0.122666737
H  H52  1  0.07940000  0.38620000  0.08670000  1.0 0.090035517
H  H53  1  0.66230000  0.13250000  0.93140000  1.0 0.0810249217
H  H54  1  0.49890000  0.99070000  0.92470000  1.0 0.1290566402
H  H55  1  0.55910000  0.84970000  0.01500000  1.0 0.1395748524
H  H56  1  0.72150000  0.99530000  0.01730000  1.0 0.0700400682
H  H57  1  0.93940000  0.57440000  0.89130000  1.0 0.0700400682
H  H58  1  0.06010000  0.58750000  0.94030000  1.0 0.1092101054
H  H59  1  0.26330000  0.84010000  0.87160000  1.0 0.1290566402
H  H60  1  0.13890000  0.80970000  0.82000000  1.0 0.1005079499
H  H61  1  0.99130000  0.83890000  0.73580000  1.0 0.090035517
H  H62  1  0.03700000  0.99020000  0.73850000  1.0 0.122666737
H  H63  1  0.96330000  0.91370000  0.86540000  1.0 0.1566255877
H  H64  1  0.93220000  0.77480000  0.86360000  1.0 0.090035517
H  H65  1  0.85590000  0.05730000  0.95710000  1.0 0.090035517
H  H66  1  0.92300000  0.03560000  0.90700000  1.0 0.1867099116
H  H67  1  0.01390000  0.28710000  0.83720000  1.0 0.1290566402
H  H68  1  0.96030000  0.30510000  0.89370000  1.0 0.0700400682
H  H69  1  0.32270000  0.53310000  0.73750000  1.0 0.090035517
H  H70  1  0.21610000  0.40730000  0.78330000  1.0 0.1395748524
H  H71  1  0.23040000  0.24580000  0.72110000  1.0 0.1395748524
H  H72  1  0.34620000  0.38260000  0.68000000  1.0 0.090035517
H  H73  1  0.22200000  0.42700000  0.63220000  1.0 0.1005079499
H  H74  1  0.10440000  0.38160000  0.57640000  1.0 0.1290566402
H  H75  1  0.27040000  0.65800000  0.53010000  1.0 0.122666737
H  H76  1  0.39080000  0.69280000  0.58440000  1.0 0.0810249217
H  H77  1  0.20610000  0.83210000  0.39270000  1.0 0.1005079499
H  H78  1  0.18440000  0.72000000  0.44250000  1.0 0.1092101054
H  H79  1  0.93760000  0.51400000  0.37220000  1.0 0.1290566402
H  H80  1  0.96630000  0.63430000  0.32130000  1.0 0.090035517
H  H81  1  0.65060000  0.11200000  0.42500000  1.0 0.0810249217
H  H82  1  0.78620000  0.27720000  0.42110000  1.0 0.1395748524
H  H83  1  0.91510000  0.21170000  0.51590000  1.0 0.1395748524
H  H84  1  0.77920000  0.05240000  0.51310000  1.0 0.0810249217
H  H85  1  0.71990000  0.90790000  0.45580000  1.0 0.1005079499
H  H86  1  0.73580000  0.85280000  0.40350000  1.0 0.1395748524
H  H87  1  0.48580000  0.74840000  0.34210000  1.0 0.1395748524
H  H88  1  0.47710000  0.82550000  0.39370000  1.0 0.0596170027
H  H89  1  0.23240000  0.43580000  0.23770000  1.0 0.1005079499
H  H90  1  0.37000000  0.55960000  0.28190000  1.0 0.1395748524
H  H91  1  0.53130000  0.54730000  0.22120000  1.0 0.1290566402
H  H92  1  0.38990000  0.42350000  0.18050000  1.0 0.1092101054
H  H93  1  0.92900000  0.77580000  0.23860000  1.0 0.1005079499
H  H94  1  0.78760000  0.74000000  0.23710000  1.0 0.1395748524
H  H95  1  0.86060000  0.80640000  0.36460000  1.0 0.1290566402
H  H96  1  0.00170000  0.84410000  0.36090000  1.0 0.1005079499
H  H97  1  0.66850000  0.76410000  0.83100000  1.0 0.0700400682
H  H98  1  0.61790000  0.83090000  0.80830000  1.0 0.0494240432
H  H99  1  0.52980000  0.75980000  0.83780000  1.0 -0.0020972153
H  H100  1  0.72240000  0.91560000  0.86590000  1.0 0.0700400682
H  H101  1  0.58980000  0.78840000  0.92920000  1.0 0.1092101054
H  H102  1  0.70270000  0.86970000  0.93720000  1.0 0.1005079499
H  H103  1  0.72540000  0.77980000  0.91760000  1.0 0.1005079499
H  H104  1  0.64250000  0.71270000  0.95060000  1.0 0.1092101054
H  H105  1  0.52410000  0.63150000  0.89190000  1.0 0.0700400682
H  H106  1  0.55380000  0.67640000  0.78080000  1.0 0.1290566402
H  H107  1  0.68660000  0.98880000  0.85970000  1.0 0.1092101054
H  H108  1  0.57490000  0.89690000  0.85380000  1.0 0.0810249217
H  H109  1  0.62760000  0.92680000  0.90210000  1.0 0.1092101054
H  H110  1  0.54200000  0.54940000  0.86550000  1.0 0.0810249217
H  H111  1  0.63360000  0.51880000  0.91340000  1.0 0.0305239738
H  H112  1  0.63710000  0.57070000  0.94970000  1.0 0.0094110857
H  H113  1  0.53670000  0.47610000  0.93060000  1.0 0.122666737
H  H114  1  0.68500000  0.58460000  0.86610000  1.0 0.0700400682
H  H115  1  0.69360000  0.66820000  0.83830000  1.0 0.0810249217
H  H116  1  0.74400000  0.68320000  0.88720000  1.0 0.0094110857
H  H117  1  0.73900000  0.58080000  0.93070000  1.0 0.0810249217
H  H118  1  0.67040000  0.59800000  0.90680000  1.0 -0.0090536512
H  H119  1  0.82490000  0.72490000  0.87970000  1.0 0.0700400682
H  H120  1  0.80550000  0.77030000  0.90850000  1.0 0.1092101054
H  H121  1  0.96370000  0.83250000  0.93050000  1.0 0.0596170027
H  H122  1  0.92430000  0.72650000  0.93970000  1.0 0.090035517
H  H123  1  0.94370000  0.82430000  0.00080000  1.0 0.0810249217
H  H124  1  0.89060000  0.71380000  0.00780000  1.0 0.090035517
H  H125  1  0.78560000  0.73420000  0.02060000  1.0 0.0305239738
H  H126  1  0.79380000  0.78020000  0.97090000  1.0 0.0034372038
H  H127  1  0.64880000  0.61540000  0.97110000  1.0 0.090035517
H  H128  1  0.70390000  0.58250000  0.99530000  1.0 0.1005079499
H  H129  1  0.12610000  0.12150000  0.97590000  1.0 0.0403564875
H  H130  1  0.13640000  0.06340000  0.01600000  1.0 0.090035517
H  H131  1  0.01320000  0.99360000  0.93840000  1.0 0.0494240432
H  H132  1  0.07850000  0.97250000  0.96070000  1.0 0.0700400682
H  H133  1  0.96320000  0.84020000  0.99800000  1.0 0.0700400682
H  H134  1  0.89950000  0.84030000  0.95720000  1.0 0.0305239738
H  H135  1  0.88290000  0.83150000  0.04300000  1.0 0.0596170027
H  H136  1  0.82040000  0.83340000  0.00220000  1.0 -0.0193841944
H  H137  1  0.88480000  0.97380000  0.01110000  1.0 0.0403564875
H  H138  1  0.91670000  0.95470000  0.05920000  1.0 0.0494240432
H  H139  1  0.02610000  0.10810000  0.00810000  1.0 0.0403564875
H  H140  1  0.06220000  0.07960000  0.05200000  1.0 0.0494240432
H  H141  1  0.52720000  0.70900000  0.88340000  1.0 0.0403564875
H  H142  1  0.44800000  0.67720000  0.84310000  1.0 0.0700400682
H  H143  1  0.51210000  0.61250000  0.83290000  1.0 0.1867099116
H  H144  1  0.55360000  0.69920000  0.79570000  1.0 0.1005079499
H  H145  1  0.69410000  0.73550000  0.82490000  1.0 0.0494240432
H  H146  1  0.65940000  0.69500000  0.87400000  1.0 0.0700400682
H  H147  1  0.69500000  0.83240000  0.88680000  1.0 0.0403564875
H  H148  1  0.77960000  0.87840000  0.85680000  1.0 0.1005079499
H  H149  1  0.71460000  0.94140000  0.81860000  1.0 0.0596170027
H  H150  1  0.66030000  0.84990000  0.79170000  1.0 0.0596170027
H  H151  1  0.53380000  0.83000000  0.81210000  1.0 0.0700400682
H  H152  1  0.58220000  0.85740000  0.86150000  1.0 0.0403564875
H  H153  1  0.76410000  0.66850000  0.16900000  1.0 0.0700400682
H  H154  1  0.83090000  0.61790000  0.19170000  1.0 0.0494240432
H  H155  1  0.75980000  0.52980000  0.16220000  1.0 -0.0020972153
H  H156  1  0.91560000  0.72240000  0.13410000  1.0 0.0700400682
H  H157  1  0.78840000  0.58980000  0.07080000  1.0 0.1092101054
H  H158  1  0.86970000  0.70270000  0.06280000  1.0 0.1005079499
H  H159  1  0.77980000  0.72540000  0.08240000  1.0 0.1005079499
H  H160  1  0.71270000  0.64250000  0.04940000  1.0 0.1092101054
H  H161  1  0.63150000  0.52410000  0.10810000  1.0 0.0700400682
H  H162  1  0.67640000  0.55380000  0.21920000  1.0 0.1290566402
H  H163  1  0.98880000  0.68660000  0.14030000  1.0 0.1092101054
H  H164  1  0.89690000  0.57490000  0.14620000  1.0 0.0810249217
H  H165  1  0.92680000  0.62760000  0.09790000  1.0 0.1092101054
H  H166  1  0.54940000  0.54200000  0.13450000  1.0 0.0810249217
H  H167  1  0.51880000  0.63360000  0.08660000  1.0 0.0305239738
H  H168  1  0.57070000  0.63710000  0.05030000  1.0 0.0094110857
H  H169  1  0.47610000  0.53670000  0.06940000  1.0 0.122666737
H  H170  1  0.58460000  0.68500000  0.13390000  1.0 0.0700400682
H  H171  1  0.66820000  0.69360000  0.16170000  1.0 0.0810249217
H  H172  1  0.68320000  0.74400000  0.11280000  1.0 0.0094110857
H  H173  1  0.58080000  0.73900000  0.06930000  1.0 0.0810249217
H  H174  1  0.59800000  0.67040000  0.09320000  1.0 -0.0090536512
H  H175  1  0.72490000  0.82490000  0.12030000  1.0 0.0700400682
H  H176  1  0.77030000  0.80550000  0.09150000  1.0 0.1092101054
H  H177  1  0.83250000  0.96370000  0.06950000  1.0 0.0596170027
H  H178  1  0.72650000  0.92430000  0.06030000  1.0 0.090035517
H  H179  1  0.82430000  0.94370000  0.99920000  1.0 0.0810249217
H  H180  1  0.71380000  0.89060000  0.99220000  1.0 0.1005079499
H  H181  1  0.73420000  0.78560000  0.97940000  1.0 0.0305239738
H  H182  1  0.78020000  0.79380000  0.02910000  1.0 0.0034372038
H  H183  1  0.61540000  0.64880000  0.02890000  1.0 0.090035517
H  H184  1  0.58250000  0.70390000  0.00470000  1.0 0.1005079499
H  H185  1  0.12150000  0.12610000  0.02410000  1.0 0.0403564875
H  H186  1  0.06340000  0.13640000  0.98400000  1.0 0.090035517
H  H187  1  0.99360000  0.01320000  0.06160000  1.0 0.0494240432
H  H188  1  0.97250000  0.07850000  0.03930000  1.0 0.0700400682
H  H189  1  0.84020000  0.96320000  0.00200000  1.0 0.0700400682
H  H190  1  0.84030000  0.89950000  0.04280000  1.0 0.0305239738
H  H191  1  0.83150000  0.88290000  0.95700000  1.0 0.0596170027
H  H192  1  0.83340000  0.82040000  0.99780000  1.0 -0.0193841944
H  H193  1  0.97380000  0.88480000  0.98890000  1.0 0.0403564875
H  H194  1  0.95470000  0.91670000  0.94080000  1.0 0.0494240432
H  H195  1  0.10810000  0.02610000  0.99190000  1.0 0.0403564875
H  H196  1  0.07960000  0.06220000  0.94800000  1.0 0.0494240432
H  H197  1  0.70900000  0.52720000  0.11660000  1.0 0.0403564875
H  H198  1  0.67720000  0.44800000  0.15690000  1.0 0.0700400682
H  H199  1  0.61250000  0.51210000  0.16710000  1.0 0.1867099116
H  H200  1  0.69920000  0.55360000  0.20430000  1.0 0.1005079499
H  H201  1  0.73550000  0.69410000  0.17510000  1.0 0.0494240432
H  H202  1  0.69500000  0.65940000  0.12600000  1.0 0.0700400682
H  H203  1  0.83240000  0.69500000  0.11320000  1.0 0.0403564875
H  H204  1  0.87840000  0.77960000  0.14320000  1.0 0.1005079499
H  H205  1  0.94140000  0.71460000  0.18140000  1.0 0.0596170027
H  H206  1  0.84990000  0.66030000  0.20830000  1.0 0.0596170027
H  H207  1  0.83000000  0.53380000  0.18790000  1.0 0.0700400682
H  H208  1  0.85740000  0.58220000  0.13850000  1.0 0.0403564875
C  C1  1  0.53510000  0.30590000  0.89310000  1.0 0.0810249217
C  C2  1  0.60900000  0.33300000  0.92770000  1.0 -0.1883048733
C  C3  1  0.59330000  0.25970000  0.95750000  1.0 0.0700400682
C  C4  1  0.50640000  0.16420000  0.95370000  1.0 -0.1488461107
C  C5  1  0.44170000  0.14410000  0.91750000  1.0 0.0596170027
C  C6  1  0.07500000  0.64140000  0.05260000  1.0 0.0700400682
C  C7  1  0.99010000  0.54270000  0.05600000  1.0 -0.16977353
C  C8  1  0.90400000  0.50960000  0.03040000  1.0 0.0596170027
C  C9  1  0.90520000  0.57780000  0.00240000  1.0 -0.2198313305
C  C10  1  0.99370000  0.67590000  0.00170000  1.0 0.0094110857
C  C11  1  0.62490000  0.00490000  0.11380000  1.0 0.0596170027
C  C12  1  0.63500000  0.07800000  0.08310000  1.0 -0.1396096625
C  C13  1  0.71450000  0.17390000  0.08830000  1.0 0.0403564875
C  C14  1  0.78360000  0.19860000  0.12460000  1.0 -0.16977353
C  C15  1  0.76550000  0.12330000  0.15520000  1.0 0.090035517
C  C16  1  0.67000000  0.28920000  0.99570000  1.0 0.3692791204
C  C17  1  0.81450000  0.40610000  0.03110000  1.0 0.3187561969
C  C18  1  0.72990000  0.25170000  0.05730000  1.0 0.3492979
C  C19  1  0.85540000  0.98800000  0.23800000  1.0 0.1005079499
C  C20  1  0.94520000  0.01320000  0.23650000  1.0 -0.130731896
C  C21  1  0.96620000  0.00260000  0.19790000  1.0 0.0596170027
C  C22  1  0.90090000  0.97110000  0.16060000  1.0 -0.2198313305
C  C23  1  0.81790000  0.95150000  0.16200000  1.0 -0.0090536512
C  C24  1  0.10540000  0.89200000  0.06570000  1.0 -0.087881046
C  C25  1  0.09070000  0.93130000  0.09660000  1.0 -0.2727682948
C  C26  1  0.16150000  0.98090000  0.13110000  1.0 0.0700400682
C  C27  1  0.24250000  0.98750000  0.13770000  1.0 -0.1128325
C  C28  1  0.25050000  0.95230000  0.10470000  1.0 0.0403564875
C  C29  1  0.47390000  0.30370000  0.26510000  1.0 0.0237386211
C  C30  1  0.40000000  0.23920000  0.23830000  1.0 -0.1488461107
C  C31  1  0.30850000  0.20630000  0.24360000  1.0 0.0810249217
C  C32  1  0.30440000  0.24900000  0.27510000  1.0 -0.1595955023
C  C33  1  0.38630000  0.31750000  0.29980000  1.0 0.0596170027
C  C34  1  0.05980000  0.03220000  0.19520000  1.0 0.3492979
C  C35  1  0.15280000  0.02480000  0.16440000  1.0 0.3420450131
C  C36  1  0.22040000  0.12480000  0.21740000  1.0 0.3598971258
C  C37  1  0.47390000  0.23450000  0.39040000  1.0 0.0700400682
C  C38  1  0.44620000  0.16320000  0.42360000  1.0 -0.1488461107
C  C39  1  0.51320000  0.17780000  0.45700000  1.0 0.0494240432
C  C40  1  0.60780000  0.26100000  0.45130000  1.0 -0.16977353
C  C41  1  0.62860000  0.33200000  0.41740000  1.0 0.0700400682
C  C42  1  0.76720000  0.15120000  0.61180000  1.0 0.0494240432
C  C43  1  0.70140000  0.13980000  0.58240000  1.0 -0.1488461107
C  C44  1  0.60210000  0.05970000  0.58830000  1.0 0.0494240432
C  C45  1  0.57880000  0.99360000  0.62390000  1.0 -0.1488461107
C  C46  1  0.65160000  0.01060000  0.65370000  1.0 0.0700400682
C  C47  1  0.13380000  0.70540000  0.55590000  1.0 0.0700400682
C  C48  1  0.23350000  0.78690000  0.55950000  1.0 -0.1595955023
C  C49  1  0.26280000  0.86780000  0.53250000  1.0 0.0494240432
C  C50  1  0.19280000  0.86180000  0.50370000  1.0 -0.1488461107
C  C51  1  0.09870000  0.77990000  0.50420000  1.0 0.0237386211
C  C52  1  0.48680000  0.10420000  0.49410000  1.0 0.3492979
C  C53  1  0.52750000  0.04830000  0.55430000  1.0 0.3598971258
C  C54  1  0.36700000  0.95880000  0.53000000  1.0 0.3598971258
C  C55  1  0.87840000  0.67260000  0.56820000  1.0 -0.0090536512
C  C56  1  0.84260000  0.67980000  0.59870000  1.0 -0.130731896
C  C57  1  0.79240000  0.61240000  0.63260000  1.0 0.0403564875
C  C58  1  0.78340000  0.53580000  0.63550000  1.0 -0.1396096625
C  C59  1  0.82950000  0.52950000  0.60280000  1.0 0.1395748524
C  C60  1  0.45960000  0.29340000  0.76600000  1.0 0.090035517
C  C61  1  0.53430000  0.37610000  0.73910000  1.0 -0.16977353
C  C62  1  0.56780000  0.46620000  0.74520000  1.0 0.0596170027
C  C63  1  0.52690000  0.47190000  0.77490000  1.0 -0.2101193204
C  C64  1  0.45300000  0.38640000  0.79960000  1.0 0.0596170027
C  C65  1  0.78400000  0.91520000  0.73580000  1.0 0.0034372038
C  C66  1  0.76070000  0.82970000  0.73690000  1.0 -0.2198313305
C  C67  1  0.76860000  0.80640000  0.69910000  1.0 0.0700400682
C  C68  1  0.80050000  0.87350000  0.66200000  1.0 -0.1595955023
C  C69  1  0.82340000  0.95840000  0.66460000  1.0 0.090035517
C  C70  1  0.75150000  0.62170000  0.66390000  1.0 0.3492979
C  C71  1  0.64700000  0.55460000  0.71800000  1.0 0.3187561969
C  C72  1  0.74140000  0.71120000  0.69770000  1.0 0.3598971258
C  C73  1  0.30590000  0.53510000  0.10690000  1.0 0.0810249217
C  C74  1  0.33300000  0.60900000  0.07230000  1.0 -0.1883048733
C  C75  1  0.25970000  0.59330000  0.04250000  1.0 0.0700400682
C  C76  1  0.16420000  0.50640000  0.04630000  1.0 -0.1488461107
C  C77  1  0.14410000  0.44170000  0.08250000  1.0 0.0596170027
C  C78  1  0.64140000  0.07500000  0.94740000  1.0 0.0700400682
C  C79  1  0.54270000  0.99010000  0.94400000  1.0 -0.16977353
C  C80  1  0.50960000  0.90400000  0.96960000  1.0 0.0596170027
C  C81  1  0.57780000  0.90520000  0.99760000  1.0 -0.2268835266
C  C82  1  0.67590000  0.99370000  0.99830000  1.0 0.0034372038
C  C83  1  0.00490000  0.62490000  0.88620000  1.0 0.0596170027
C  C84  1  0.07800000  0.63500000  0.91690000  1.0 -0.1396096625
C  C85  1  0.17390000  0.71450000  0.91170000  1.0 0.0403564875
C  C86  1  0.19860000  0.78360000  0.87540000  1.0 -0.16977353
C  C87  1  0.12330000  0.76550000  0.84480000  1.0 0.090035517
C  C88  1  0.28920000  0.67000000  0.00430000  1.0 0.3692791204
C  C89  1  0.40610000  0.81450000  0.96890000  1.0 0.3187561969
C  C90  1  0.25170000  0.72990000  0.94270000  1.0 0.3492979
C  C91  1  0.98800000  0.85540000  0.76200000  1.0 0.1005079499
C  C92  1  0.01320000  0.94520000  0.76350000  1.0 -0.130731896
C  C93  1  0.00260000  0.96620000  0.80210000  1.0 0.0596170027
C  C94  1  0.97110000  0.90090000  0.83940000  1.0 -0.2198313305
C  C95  1  0.95150000  0.81790000  0.83800000  1.0 -0.0090536512
C  C96  1  0.89200000  0.10540000  0.93430000  1.0 -0.0806182682
C  C97  1  0.93130000  0.09070000  0.90340000  1.0 -0.2750300725
C  C98  1  0.98090000  0.16150000  0.86890000  1.0 0.0700400682
C  C99  1  0.98750000  0.24250000  0.86230000  1.0 -0.1128325
C  C100  1  0.95230000  0.25050000  0.89530000  1.0 0.0403564875
C  C101  1  0.30370000  0.47390000  0.73490000  1.0 0.0237386211
C  C102  1  0.23920000  0.40000000  0.76170000  1.0 -0.1488461107
C  C103  1  0.20630000  0.30850000  0.75640000  1.0 0.0810249217
C  C104  1  0.24900000  0.30440000  0.72490000  1.0 -0.1595955023
C  C105  1  0.31750000  0.38630000  0.70020000  1.0 0.0596170027
C  C106  1  0.03220000  0.05980000  0.80480000  1.0 0.3492979
C  C107  1  0.02480000  0.15280000  0.83560000  1.0 0.3420450131
C  C108  1  0.12480000  0.22040000  0.78260000  1.0 0.3598971258
C  C109  1  0.23450000  0.47390000  0.60960000  1.0 0.0700400682
C  C110  1  0.16320000  0.44620000  0.57640000  1.0 -0.1488461107
C  C111  1  0.17780000  0.51320000  0.54300000  1.0 0.0494240432
C  C112  1  0.26100000  0.60780000  0.54870000  1.0 -0.16977353
C  C113  1  0.33200000  0.62860000  0.58260000  1.0 0.0700400682
C  C114  1  0.15120000  0.76720000  0.38820000  1.0 0.0494240432
C  C115  1  0.13980000  0.70140000  0.41760000  1.0 -0.1488461107
C  C116  1  0.05970000  0.60210000  0.41170000  1.0 0.0494240432
C  C117  1  0.99360000  0.57880000  0.37610000  1.0 -0.1488461107
C  C118  1  0.01060000  0.65160000  0.34630000  1.0 0.0700400682
C  C119  1  0.70540000  0.13380000  0.44410000  1.0 0.0700400682
C  C120  1  0.78690000  0.23350000  0.44050000  1.0 -0.1595955023
C  C121  1  0.86780000  0.26280000  0.46750000  1.0 0.0494240432
C  C122  1  0.86180000  0.19280000  0.49630000  1.0 -0.1488461107
C  C123  1  0.77990000  0.09870000  0.49580000  1.0 0.0237386211
C  C124  1  0.10420000  0.48680000  0.50590000  1.0 0.3492979
C  C125  1  0.04830000  0.52750000  0.44570000  1.0 0.3598971258
C  C126  1  0.95880000  0.36700000  0.47000000  1.0 0.3598971258
C  C127  1  0.67260000  0.87840000  0.43180000  1.0 -0.0090536512
C  C128  1  0.67980000  0.84260000  0.40130000  1.0 -0.130731896
C  C129  1  0.61240000  0.79240000  0.36740000  1.0 0.0403564875
C  C130  1  0.53580000  0.78340000  0.36450000  1.0 -0.1396096625
C  C131  1  0.52950000  0.82950000  0.39720000  1.0 0.1395748524
C  C132  1  0.29340000  0.45960000  0.23400000  1.0 0.090035517
C  C133  1  0.37610000  0.53430000  0.26090000  1.0 -0.16977353
C  C134  1  0.46620000  0.56780000  0.25480000  1.0 0.0596170027
C  C135  1  0.47190000  0.52690000  0.22510000  1.0 -0.2198313305
C  C136  1  0.38640000  0.45300000  0.20040000  1.0 0.0596170027
C  C137  1  0.91520000  0.78400000  0.26420000  1.0 0.0034372038
C  C138  1  0.82970000  0.76070000  0.26310000  1.0 -0.2198313305
C  C139  1  0.80640000  0.76860000  0.30090000  1.0 0.0700400682
C  C140  1  0.87350000  0.80050000  0.33800000  1.0 -0.1595955023
C  C141  1  0.95840000  0.82340000  0.33540000  1.0 0.090035517
C  C142  1  0.62170000  0.75150000  0.33610000  1.0 0.3492979
C  C143  1  0.55460000  0.64700000  0.28200000  1.0 0.3187561969
C  C144  1  0.71120000  0.74140000  0.30230000  1.0 0.3598971258
C  C145  1  0.60220000  0.72780000  0.83820000  1.0 0.0494240432
C  C146  1  0.59790000  0.79410000  0.83740000  1.0 -0.0304238943
C  C147  1  0.65410000  0.86990000  0.87270000  1.0 0.0494240432
C  C148  1  0.65030000  0.81970000  0.91730000  1.0 -0.2554256727
C  C149  1  0.65800000  0.74600000  0.92070000  1.0 -0.2727682948
C  C150  1  0.59040000  0.66760000  0.88480000  1.0 -0.0527244003
C  C151  1  0.63400000  0.92400000  0.87200000  1.0 -0.3114433249
C  C152  1  0.59570000  0.59630000  0.88690000  1.0 -0.1396096625
C  C153  1  0.60110000  0.53490000  0.92340000  1.0 -0.2101193204
C  C154  1  0.68870000  0.63730000  0.86780000  1.0 -0.3114433249
C  C155  1  0.72800000  0.62400000  0.92800000  1.0 0.0034372038
C  C156  1  0.81700000  0.72700000  0.91000000  1.0 -0.16977353
C  C157  1  0.90860000  0.76540000  0.94100000  1.0 -0.2402122689
C  C158  1  0.89090000  0.76110000  0.98900000  1.0 -0.130731896
C  C159  1  0.79400000  0.73400000  0.99000000  1.0 -0.2005459626
C  C160  1  0.71000000  0.63000000  0.97400000  1.0 -0.1595955023
C  C161  1  0.09000000  0.06200000  0.99500000  1.0 -0.087881046
C  C162  1  0.03320000  0.97680000  0.96700000  1.0 -0.1128325
C  C163  1  0.94330000  0.87470000  0.98300000  1.0 -0.087881046
C  C164  1  0.88680000  0.86920000  0.01550000  1.0 -0.087881046
C  C165  1  0.92740000  0.96460000  0.02770000  1.0 -0.0527244003
C  C166  1  0.02860000  0.05940000  0.02230000  1.0 -0.0806182682
C  C167  1  0.51700000  0.71700000  0.85100000  1.0 -0.1396096625
C  C168  1  0.55500000  0.68300000  0.82800000  1.0 0.0700400682
C  C169  1  0.66000000  0.73200000  0.84700000  1.0 -0.1202241863
C  C170  1  0.70900000  0.83500000  0.85700000  1.0 -0.100908946
C  C171  1  0.66900000  0.87100000  0.82100000  1.0 -0.1128325
C  C172  1  0.57100000  0.82500000  0.83600000  1.0 -0.0740392988
C  C173  1  0.72780000  0.60220000  0.16180000  1.0 0.0494240432
C  C174  1  0.79410000  0.59790000  0.16260000  1.0 -0.0304238943
C  C175  1  0.86990000  0.65410000  0.12730000  1.0 0.0494240432
C  C176  1  0.81970000  0.65030000  0.08270000  1.0 -0.2524573664
C  C177  1  0.74600000  0.65800000  0.07930000  1.0 -0.2727682948
C  C178  1  0.66760000  0.59040000  0.11520000  1.0 -0.0527244003
C  C179  1  0.92400000  0.63400000  0.12800000  1.0 -0.3114433249
C  C180  1  0.59630000  0.59570000  0.11310000  1.0 -0.1396096625
C  C181  1  0.53490000  0.60110000  0.07660000  1.0 -0.2101193204
C  C182  1  0.63730000  0.68870000  0.13220000  1.0 -0.3114433249
C  C183  1  0.62400000  0.72800000  0.07200000  1.0 0.0034372038
C  C184  1  0.72700000  0.81700000  0.09000000  1.0 -0.16977353
C  C185  1  0.76540000  0.90860000  0.05900000  1.0 -0.2402122689
C  C186  1  0.76110000  0.89090000  0.01100000  1.0 -0.1202241863
C  C187  1  0.73400000  0.79400000  0.01000000  1.0 -0.2005459626
C  C188  1  0.63000000  0.71000000  0.02600000  1.0 -0.1595955023
C  C189  1  0.06200000  0.09000000  0.00500000  1.0 -0.087881046
C  C190  1  0.97680000  0.03320000  0.03300000  1.0 -0.1128325
C  C191  1  0.87470000  0.94330000  0.01700000  1.0 -0.087881046
C  C192  1  0.86920000  0.88680000  0.98450000  1.0 -0.087881046
C  C193  1  0.96460000  0.92740000  0.97230000  1.0 -0.0527244003
C  C194  1  0.05940000  0.02860000  0.97770000  1.0 -0.0806182682
C  C195  1  0.71700000  0.51700000  0.14900000  1.0 -0.1396096625
C  C196  1  0.68300000  0.55500000  0.17200000  1.0 0.0700400682
C  C197  1  0.73200000  0.66000000  0.15300000  1.0 -0.1202241863
C  C198  1  0.83500000  0.70900000  0.14300000  1.0 -0.100908946
C  C199  1  0.87100000  0.66900000  0.17900000  1.0 -0.1128325
C  C200  1  0.82500000  0.57100000  0.16400000  1.0 -0.0740392988
I  I1  1  0.26196000  0.03166000  0.80509000  1.0 -0.4503019562
I  I2  1  0.25756000  0.20868000  0.88548000  1.0 -0.482478108
I  I3  1  0.66869000  0.97731000  0.27293000  1.0 -0.4090848153
I  I4  1  0.54054000  0.76074000  0.16030000  1.0 0.0305239738
I  I5  1  0.16320000  0.91860000  0.94131000  1.0 0.0305239738
I  I6  1  0.35230000  0.89570000  0.04048000  1.0 -0.0434531269
I  I7  1  0.74625000  0.51655000  0.30620000  1.0 -0.2402122689
I  I8  1  0.56750000  0.52310000  0.38590000  1.0 0.0094110857
I  I9  1  0.85547000  0.60593000  0.44175000  1.0 0.0494240432
I  I10  1  0.88259000  0.42321000  0.54111000  1.0 -0.0193841944
I  I11  1  0.80888000  0.11348000  0.76996000  1.0 -0.4503019562
I  I12  1  0.01249000  0.23863000  0.66403000  1.0 -0.4503019562
I  I13  1  0.51765000  0.77235000  0.18410000  1.0 0.0094110857
I  I14  1  0.19130000  0.92050000  0.94980000  1.0 -0.0090536512
I  I15  1  0.35120000  0.87180000  0.05710000  1.0 0.0494240432
I  I16  1  0.73850000  0.49790000  0.30270000  1.0 -0.2524573664
I  I17  1  0.56540000  0.50860000  0.37990000  1.0 -0.0193841944
I  I18  1  0.85380000  0.57780000  0.45600000  1.0 -0.0193841944
I  I19  1  0.91190000  0.42350000  0.56620000  1.0 0.0305239738
I  I20  1  0.03166000  0.26196000  0.19491000  1.0 -0.4503019562
I  I21  1  0.20868000  0.25756000  0.11452000  1.0 -0.482478108
I  I22  1  0.97731000  0.66869000  0.72707000  1.0 -0.4090848153
I  I23  1  0.76074000  0.54054000  0.83970000  1.0 0.0305239738
I  I24  1  0.91860000  0.16320000  0.05869000  1.0 0.0305239738
I  I25  1  0.89570000  0.35230000  0.95952000  1.0 -0.0434531269
I  I26  1  0.51655000  0.74625000  0.69380000  1.0 -0.2402122689
I  I27  1  0.52310000  0.56750000  0.61410000  1.0 0.0094110857
I  I28  1  0.60593000  0.85547000  0.55825000  1.0 0.0494240432
I  I29  1  0.42321000  0.88259000  0.45889000  1.0 -0.0193841944
I  I30  1  0.11348000  0.80888000  0.23004000  1.0 -0.4503019562
I  I31  1  0.23863000  0.01249000  0.33597000  1.0 -0.4503019562
I  I32  1  0.77235000  0.51765000  0.81590000  1.0 0.0094110857
I  I33  1  0.92050000  0.19130000  0.05020000  1.0 -0.0090536512
I  I34  1  0.87180000  0.35120000  0.94290000  1.0 0.0494240432
I  I35  1  0.49790000  0.73850000  0.69730000  1.0 -0.2524573664
I  I36  1  0.50860000  0.56540000  0.62010000  1.0 -0.0193841944
I  I37  1  0.57780000  0.85380000  0.54400000  1.0 -0.0193841944
I  I38  1  0.42350000  0.91190000  0.43380000  1.0 0.0305239738
N  N1  1  0.45430000  0.21410000  0.88750000  1.0 -0.1775538807
N  N2  1  0.07450000  0.70730000  0.02620000  1.0 -0.2101193204
N  N3  1  0.68800000  0.03140000  0.14960000  1.0 -0.1883048733
N  N4  1  0.74530000  0.38370000  0.99830000  1.0 -0.419329304
N  N5  1  0.80950000  0.34190000  0.06180000  1.0 -0.4090848153
N  N6  1  0.65870000  0.21790000  0.02190000  1.0 -0.43721671
N  N7  1  0.79600000  0.95960000  0.20060000  1.0 -0.1883048733
N  N8  1  0.17880000  0.90480000  0.06880000  1.0 -0.1883048733
N  N9  1  0.47260000  0.34620000  0.29680000  1.0 -0.2198313305
N  N10  1  0.06460000  0.99340000  0.16420000  1.0 -0.419329304
N  N11  1  0.23150000  0.09010000  0.18890000  1.0 -0.3826438447
N  N12  1  0.13410000  0.09690000  0.22330000  1.0 -0.4090848153
N  N13  1  0.56270000  0.31990000  0.38820000  1.0 -0.16977353
N  N14  1  0.74820000  0.08840000  0.64910000  1.0 -0.2101193204
N  N15  1  0.06950000  0.69870000  0.52900000  1.0 -0.16977353
N  N16  1  0.55680000  0.11680000  0.52240000  1.0 -0.3864598681
N  N17  1  0.43230000  0.96610000  0.56040000  1.0 -0.4292388965
N  N18  1  0.39070000  0.02770000  0.49780000  1.0 -0.4090848153
N  N19  1  0.87170000  0.59130000  0.57220000  1.0 -0.1775538807
N  N20  1  0.42390000  0.30150000  0.79570000  1.0 -0.2005459626
N  N21  1  0.81820000  0.98220000  0.70000000  1.0 -0.1883048733
N  N22  1  0.68270000  0.54010000  0.68880000  1.0 -0.419329304
N  N23  1  0.67580000  0.63800000  0.72500000  1.0 -0.4292388965
N  N24  1  0.78200000  0.70920000  0.66710000  1.0 -0.419329304
N  N25  1  0.21410000  0.45430000  0.11250000  1.0 -0.1775538807
N  N26  1  0.70730000  0.07450000  0.97380000  1.0 -0.2101193204
N  N27  1  0.03140000  0.68800000  0.85040000  1.0 -0.1883048733
N  N28  1  0.38370000  0.74530000  0.00170000  1.0 -0.419329304
N  N29  1  0.34190000  0.80950000  0.93820000  1.0 -0.4090848153
N  N30  1  0.21790000  0.65870000  0.97810000  1.0 -0.43721671
N  N31  1  0.95960000  0.79600000  0.79940000  1.0 -0.1883048733
N  N32  1  0.90480000  0.17880000  0.93120000  1.0 -0.1883048733
N  N33  1  0.34620000  0.47260000  0.70320000  1.0 -0.2198313305
N  N34  1  0.99340000  0.06460000  0.83580000  1.0 -0.419329304
N  N35  1  0.09010000  0.23150000  0.81110000  1.0 -0.3826438447
N  N36  1  0.09690000  0.13410000  0.77670000  1.0 -0.4090848153
N  N37  1  0.31990000  0.56270000  0.61180000  1.0 -0.16977353
N  N38  1  0.08840000  0.74820000  0.35090000  1.0 -0.2005459626
N  N39  1  0.69870000  0.06950000  0.47100000  1.0 -0.16977353
N  N40  1  0.11680000  0.55680000  0.47760000  1.0 -0.3864598681
N  N41  1  0.96610000  0.43230000  0.43960000  1.0 -0.4292388965
N  N42  1  0.02770000  0.39070000  0.50220000  1.0 -0.4090848153
N  N43  1  0.59130000  0.87170000  0.42780000  1.0 -0.1775538807
N  N44  1  0.30150000  0.42390000  0.20430000  1.0 -0.2005459626
N  N45  1  0.98220000  0.81820000  0.30000000  1.0 -0.1883048733
N  N46  1  0.54010000  0.68270000  0.31120000  1.0 -0.419329304
N  N47  1  0.63800000  0.67580000  0.27500000  1.0 -0.4292388965
N  N48  1  0.70920000  0.78200000  0.33290000  1.0 -0.419329304
O  O1  1  0.53880000  0.65120000  0.80650000  1.0 -0.3036505093
O  O2  1  0.65120000  0.53880000  0.19350000  1.0 -0.3036505093
