# DDEC6 charges by PACMAN v1.1 (https://github.com/mtap-research/PACMAN-charge/)
data_CARKAK_FSR_pacman
_symmetry_space_group_name_H-M   'P 1'
_cell_length_a   18.97850000
_cell_length_b   18.97850000
_cell_length_c   30.95440000
_cell_angle_alpha   79.23750000
_cell_angle_beta   100.76200000
_cell_angle_gamma   133.89800000
_symmetry_Int_Tables_number   1
_chemical_formula_structural   Zn8H221C162I22N25O2
_chemical_formula_sum   'Zn16 H442 C324 I44 N50 O4'
_cell_volume   7866.71254877
_cell_formula_units_Z   2
loop_
 _symmetry_equiv_pos_site_id
 _symmetry_equiv_pos_as_xyz
  1  'x, y, z'
loop_
 _atom_site_type_symbol
 _atom_site_label
 _atom_site_symmetry_multiplicity
 _atom_site_fract_x
 _atom_site_fract_y
 _atom_site_fract_z
 _atom_site_occupancy
 _atom_site_charge
Zn  Zn1  1  0.45530000  0.29582000  0.84481000  1.0 0.4542679713
Zn  Zn2  1  0.03040000  0.68600000  0.52490000  1.0 0.369169367
Zn  Zn3  1  0.96924000  0.22218000  0.69007000  1.0 0.2677255349
Zn  Zn4  1  0.77578000  0.02812000  0.18949000  1.0 0.3816262708
Zn  Zn5  1  0.70564000  0.54434000  0.34366000  1.0 0.3816262708
Zn  Zn6  1  0.31370000  0.97050000  0.02070000  1.0 0.3321724341
Zn  Zn7  1  0.02830000  0.68610000  0.51600000  1.0 0.3321724341
Zn  Zn8  1  0.31890000  0.96590000  0.02600000  1.0 0.3321724341
Zn  Zn9  1  0.29582000  0.45530000  0.15519000  1.0 0.4542679713
Zn  Zn10  1  0.68600000  0.03040000  0.47510000  1.0 0.369169367
Zn  Zn11  1  0.22218000  0.96924000  0.30993000  1.0 0.2677255349
Zn  Zn12  1  0.02812000  0.77578000  0.81051000  1.0 0.3816262708
Zn  Zn13  1  0.54434000  0.70564000  0.65634000  1.0 0.3816262708
Zn  Zn14  1  0.97050000  0.31370000  0.97930000  1.0 0.3321724341
Zn  Zn15  1  0.68610000  0.02830000  0.48400000  1.0 0.3387519286
Zn  Zn16  1  0.96590000  0.31890000  0.97400000  1.0 0.3321724341
H  H1  1  0.61220000  0.94320000  0.89950000  1.0 0.0503107081
H  H2  1  0.60280000  0.85440000  0.89410000  1.0 0.0895222992
H  H3  1  0.72290000  0.00650000  0.84640000  1.0 0.010572636
H  H4  1  0.79170000  0.05530000  0.89100000  1.0 0.099919818
H  H5  1  0.76300000  0.91860000  0.84830000  1.0 0.0293091151
H  H6  1  0.84250000  0.97850000  0.88870000  1.0 0.0694993337
H  H7  1  0.72610000  0.80450000  0.91100000  1.0 0.0503107081
H  H8  1  0.63830000  0.80170000  0.89950000  1.0 0.0503107081
H  H9  1  0.68890000  0.81370000  0.97820000  1.0 0.0399994297
H  H10  1  0.79570000  0.91810000  0.96710000  1.0 0.0603223051
H  H11  1  0.63190000  0.88690000  0.97260000  1.0 0.0801248309
H  H12  1  0.73880000  0.99140000  0.96160000  1.0 0.099919818
H  H13  1  0.70360000  0.84940000  0.83740000  1.0 0.0399994297
H  H14  1  0.71250000  0.81750000  0.79620000  1.0 0.0895222992
H  H15  1  0.83640000  0.84660000  0.83350000  1.0 0.0603223051
H  H16  1  0.80830000  0.84970000  0.87830000  1.0 0.0293091151
H  H17  1  0.80970000  0.72450000  0.88930000  1.0 0.0603223051
H  H18  1  0.73710000  0.67510000  0.84590000  1.0 0.0895222992
H  H19  1  0.68090000  0.68650000  0.92310000  1.0 0.0503107081
H  H20  1  0.64830000  0.58810000  0.91110000  1.0 0.0694993337
H  H21  1  0.54290000  0.56430000  0.85580000  1.0 0.099919818
H  H22  1  0.53320000  0.61240000  0.88840000  1.0 0.0895222992
H  H23  1  0.55410000  0.71230000  0.83510000  1.0 0.0895222992
H  H24  1  0.57350000  0.67050000  0.80370000  1.0 0.0603223051
H  H25  1  0.22820000  0.55660000  0.93920000  1.0 0.0603223051
H  H26  1  0.33340000  0.65560000  0.95410000  1.0 0.0694993337
H  H27  1  0.38240000  0.58400000  0.98460000  1.0 0.0191178055
H  H28  1  0.26800000  0.48680000  0.98310000  1.0 0.0503107081
H  H29  1  0.27540000  0.43700000  0.92320000  1.0 0.0694993337
H  H30  1  0.37220000  0.47540000  0.95420000  1.0 0.0694993337
H  H31  1  0.41110000  0.54010000  0.88040000  1.0 0.0895222992
H  H32  1  0.46890000  0.62590000  0.91210000  1.0 0.0801248309
H  H33  1  0.31820000  0.56880000  0.84540000  1.0 0.099919818
H  H34  1  0.42230000  0.67650000  0.85300000  1.0 0.119454933
H  H35  1  0.36120000  0.70920000  0.88770000  1.0 0.119454933
H  H36  1  0.25530000  0.60910000  0.87260000  1.0 0.099919818
H  H37  1  0.09800000  0.98500000  0.93900000  1.0 0.1093561605
H  H38  1  0.18390000  0.13330000  0.96880000  1.0 0.099919818
H  H39  1  0.11300000  0.14060000  0.01990000  1.0 0.0895222992
H  H40  1  0.95640000  0.99980000  0.04130000  1.0 0.1381954149
H  H41  1  0.87060000  0.85140000  0.01160000  1.0 0.0503107081
H  H42  1  0.76520000  0.97320000  0.85770000  1.0 0.0503107081
H  H43  1  0.78360000  0.98180000  0.80760000  1.0 0.0603223051
H  H44  1  0.64090000  0.82710000  0.80040000  1.0 0.0694993337
H  H45  1  0.62150000  0.81930000  0.85020000  1.0 0.010572636
H  H46  1  0.62880000  0.69980000  0.84090000  1.0 0.0603223051
H  H47  1  0.74040000  0.78860000  0.82880000  1.0 0.0603223051
H  H48  1  0.67800000  0.76640000  0.91330000  1.0 0.0503107081
H  H49  1  0.72890000  0.72790000  0.90740000  1.0 0.0293091151
H  H50  1  0.87850000  0.88110000  0.91040000  1.0 0.0503107081
H  H51  1  0.82850000  0.91750000  0.92080000  1.0 0.0694993337
H  H52  1  0.84350000  0.90070000  0.83240000  1.0 0.0603223051
H  H53  1  0.91160000  0.00340000  0.85360000  1.0 0.0801248309
H  H54  1  0.68770000  0.54230000  0.01440000  1.0 0.1300976437
H  H55  1  0.72600000  0.64660000  0.02070000  1.0 0.0694993337
H  H56  1  0.85880000  0.65100000  0.01610000  1.0 0.0503107081
H  H57  1  0.82230000  0.63330000  0.96480000  1.0 0.1093561605
H  H58  1  0.95040000  0.80740000  0.97030000  1.0 0.2007693277
H  H59  1  0.89380000  0.80140000  0.00570000  1.0 0.0694993337
H  H60  1  0.86640000  0.82880000  0.91810000  1.0 0.0694993337
H  H61  1  0.79450000  0.79870000  0.95260000  1.0 0.0801248309
H  H62  1  0.71010000  0.68430000  0.89480000  1.0 0.0191178055
H  H63  1  0.77030000  0.65350000  0.91560000  1.0 0.0895222992
H  H64  1  0.62730000  0.62130000  0.95980000  1.0 0.0895222992
H  H65  1  0.61700000  0.53660000  0.94630000  1.0 0.0399994297
H  H66  1  0.35890000  0.43670000  0.95690000  1.0 0.0801248309
H  H67  1  0.32700000  0.38820000  0.00630000  1.0 0.099919818
H  H68  1  0.22460000  0.41800000  0.98190000  1.0 0.0603223051
H  H69  1  0.31480000  0.51420000  0.00750000  1.0 0.0503107081
H  H70  1  0.28230000  0.56010000  0.93170000  1.0 0.0293091151
H  H71  1  0.30840000  0.50700000  0.91340000  1.0 0.0603223051
H  H72  1  0.46810000  0.63890000  0.92340000  1.0 0.0694993337
H  H73  1  0.44190000  0.69370000  0.93930000  1.0 0.0694993337
H  H74  1  0.43840000  0.62920000  0.01320000  1.0 0.0603223051
H  H75  1  0.54270000  0.68810000  0.99590000  1.0 0.1300976437
H  H76  1  0.50960000  0.54820000  0.99300000  1.0 0.0801248309
H  H77  1  0.46410000  0.52730000  0.03750000  1.0 0.0895222992
H  H78  1  0.63770000  0.07830000  0.75790000  1.0 0.0895222992
H  H79  1  0.55880000  0.97560000  0.73650000  1.0 0.0801248309
H  H80  1  0.44400000  0.91520000  0.78670000  1.0 0.099919818
H  H81  1  0.48360000  0.01980000  0.76430000  1.0 0.099919818
H  H82  1  0.61080000  0.09840000  0.82580000  1.0 0.0895222992
H  H83  1  0.50300000  0.02520000  0.84300000  1.0 0.099919818
H  H84  1  0.50970000  0.89470000  0.85140000  1.0 0.1093561605
H  H85  1  0.57520000  0.97260000  0.88830000  1.0 0.0503107081
H  H86  1  0.67920000  0.96640000  0.85990000  1.0 0.0503107081
H  H87  1  0.71450000  0.07150000  0.84260000  1.0 0.0801248309
H  H88  1  0.58480000  0.89960000  0.79370000  1.0 0.099919818
H  H89  1  0.69090000  0.00010000  0.78030000  1.0 0.0801248309
H  H90  1  0.94320000  0.61220000  0.10050000  1.0 0.0603223051
H  H91  1  0.85440000  0.60280000  0.10590000  1.0 0.0895222992
H  H92  1  0.00650000  0.72290000  0.15360000  1.0 0.010572636
H  H93  1  0.05530000  0.79170000  0.10900000  1.0 0.099919818
H  H94  1  0.91860000  0.76300000  0.15170000  1.0 0.0399994297
H  H95  1  0.97850000  0.84250000  0.11130000  1.0 0.0694993337
H  H96  1  0.80450000  0.72610000  0.08900000  1.0 0.0503107081
H  H97  1  0.80170000  0.63830000  0.10050000  1.0 0.0503107081
H  H98  1  0.81370000  0.68890000  0.02180000  1.0 0.0399994297
H  H99  1  0.91810000  0.79570000  0.03290000  1.0 0.0603223051
H  H100  1  0.88690000  0.63190000  0.02740000  1.0 0.0801248309
H  H101  1  0.99140000  0.73880000  0.03840000  1.0 0.099919818
H  H102  1  0.84940000  0.70360000  0.16260000  1.0 0.0293091151
H  H103  1  0.81750000  0.71250000  0.20380000  1.0 0.0895222992
H  H104  1  0.84660000  0.83640000  0.16650000  1.0 0.0603223051
H  H105  1  0.84970000  0.80830000  0.12170000  1.0 0.0293091151
H  H106  1  0.72450000  0.80970000  0.11070000  1.0 0.0603223051
H  H107  1  0.67510000  0.73710000  0.15410000  1.0 0.0895222992
H  H108  1  0.68650000  0.68090000  0.07690000  1.0 0.0503107081
H  H109  1  0.58810000  0.64830000  0.08890000  1.0 0.0694993337
H  H110  1  0.56430000  0.54290000  0.14420000  1.0 0.099919818
H  H111  1  0.61240000  0.53320000  0.11160000  1.0 0.0895222992
H  H112  1  0.71230000  0.55410000  0.16490000  1.0 0.0895222992
H  H113  1  0.67050000  0.57350000  0.19630000  1.0 0.0603223051
H  H114  1  0.55660000  0.22820000  0.06080000  1.0 0.0603223051
H  H115  1  0.65560000  0.33340000  0.04590000  1.0 0.0694993337
H  H116  1  0.58400000  0.38240000  0.01540000  1.0 0.0191178055
H  H117  1  0.48680000  0.26800000  0.01690000  1.0 0.0503107081
H  H118  1  0.43700000  0.27540000  0.07680000  1.0 0.0694993337
H  H119  1  0.47540000  0.37220000  0.04580000  1.0 0.0694993337
H  H120  1  0.54010000  0.41110000  0.11960000  1.0 0.0895222992
H  H121  1  0.62590000  0.46890000  0.08790000  1.0 0.0801248309
H  H122  1  0.56880000  0.31820000  0.15460000  1.0 0.099919818
H  H123  1  0.67650000  0.42230000  0.14700000  1.0 0.119454933
H  H124  1  0.70920000  0.36120000  0.11230000  1.0 0.119454933
H  H125  1  0.60910000  0.25530000  0.12740000  1.0 0.099919818
H  H126  1  0.98500000  0.09800000  0.06100000  1.0 0.1093561605
H  H127  1  0.13330000  0.18390000  0.03120000  1.0 0.099919818
H  H128  1  0.14060000  0.11300000  0.98010000  1.0 0.0895222992
H  H129  1  0.99980000  0.95640000  0.95870000  1.0 0.1381954149
H  H130  1  0.85140000  0.87060000  0.98840000  1.0 0.0503107081
H  H131  1  0.97320000  0.76520000  0.14230000  1.0 0.0503107081
H  H132  1  0.98180000  0.78360000  0.19240000  1.0 0.0603223051
H  H133  1  0.82710000  0.64090000  0.19960000  1.0 0.0694993337
H  H134  1  0.81930000  0.62150000  0.14980000  1.0 0.010572636
H  H135  1  0.69980000  0.62880000  0.15910000  1.0 0.0603223051
H  H136  1  0.78860000  0.74040000  0.17120000  1.0 0.0603223051
H  H137  1  0.76640000  0.67800000  0.08670000  1.0 0.0503107081
H  H138  1  0.72790000  0.72890000  0.09260000  1.0 0.0293091151
H  H139  1  0.88110000  0.87850000  0.08960000  1.0 0.0503107081
H  H140  1  0.91750000  0.82850000  0.07920000  1.0 0.0694993337
H  H141  1  0.90070000  0.84350000  0.16760000  1.0 0.0603223051
H  H142  1  0.00340000  0.91160000  0.14640000  1.0 0.0801248309
H  H143  1  0.54230000  0.68770000  0.98560000  1.0 0.1300976437
H  H144  1  0.64660000  0.72600000  0.97930000  1.0 0.0694993337
H  H145  1  0.65100000  0.85880000  0.98390000  1.0 0.0503107081
H  H146  1  0.63330000  0.82230000  0.03520000  1.0 0.1093561605
H  H147  1  0.80740000  0.95040000  0.02970000  1.0 0.2007693277
H  H148  1  0.80140000  0.89380000  0.99430000  1.0 0.0694993337
H  H149  1  0.82880000  0.86640000  0.08190000  1.0 0.0694993337
H  H150  1  0.79870000  0.79450000  0.04740000  1.0 0.0801248309
H  H151  1  0.68430000  0.71010000  0.10520000  1.0 0.0191178055
H  H152  1  0.65350000  0.77030000  0.08440000  1.0 0.0895222992
H  H153  1  0.62130000  0.62730000  0.04020000  1.0 0.0895222992
H  H154  1  0.53660000  0.61700000  0.05370000  1.0 0.0399994297
H  H155  1  0.43670000  0.35890000  0.04310000  1.0 0.0801248309
H  H156  1  0.38820000  0.32700000  0.99370000  1.0 0.099919818
H  H157  1  0.41800000  0.22460000  0.01810000  1.0 0.0603223051
H  H158  1  0.51420000  0.31480000  0.99250000  1.0 0.0503107081
H  H159  1  0.56010000  0.28230000  0.06830000  1.0 0.0293091151
H  H160  1  0.50700000  0.30840000  0.08660000  1.0 0.0603223051
H  H161  1  0.63890000  0.46810000  0.07660000  1.0 0.0694993337
H  H162  1  0.69370000  0.44190000  0.06070000  1.0 0.0694993337
H  H163  1  0.62920000  0.43840000  0.98680000  1.0 0.0603223051
H  H164  1  0.68810000  0.54270000  0.00410000  1.0 0.1300976437
H  H165  1  0.54820000  0.50960000  0.00700000  1.0 0.0801248309
H  H166  1  0.52730000  0.46410000  0.96250000  1.0 0.0895222992
H  H167  1  0.07830000  0.63770000  0.24210000  1.0 0.0895222992
H  H168  1  0.97560000  0.55880000  0.26350000  1.0 0.0801248309
H  H169  1  0.91520000  0.44400000  0.21330000  1.0 0.099919818
H  H170  1  0.01980000  0.48360000  0.23570000  1.0 0.099919818
H  H171  1  0.09840000  0.61080000  0.17420000  1.0 0.0895222992
H  H172  1  0.02520000  0.50300000  0.15700000  1.0 0.099919818
H  H173  1  0.89470000  0.50970000  0.14860000  1.0 0.1093561605
H  H174  1  0.97260000  0.57520000  0.11170000  1.0 0.0503107081
H  H175  1  0.96640000  0.67920000  0.14010000  1.0 0.0603223051
H  H176  1  0.07150000  0.71450000  0.15740000  1.0 0.0801248309
H  H177  1  0.89960000  0.58480000  0.20630000  1.0 0.099919818
H  H178  1  0.00010000  0.69090000  0.21970000  1.0 0.0801248309
H  H179  1  0.71180000  0.38540000  0.54800000  1.0 0.0694993337
H  H180  1  0.77250000  0.46990000  0.58120000  1.0 0.0895222992
H  H181  1  0.69810000  0.47070000  0.49360000  1.0 0.099919818
H  H182  1  0.80670000  0.55270000  0.51480000  1.0 0.0801248309
H  H183  1  0.77910000  0.63830000  0.52210000  1.0 0.0801248309
H  H184  1  0.67490000  0.56210000  0.49570000  1.0 0.099919818
H  H185  1  0.70960000  0.60760000  0.57650000  1.0 0.1093561605
H  H186  1  0.60590000  0.53210000  0.55010000  1.0 0.0801248309
H  H187  1  0.69160000  0.49460000  0.62040000  1.0 0.0801248309
H  H188  1  0.57820000  0.43700000  0.60800000  1.0 0.0694993337
H  H189  1  0.56760000  0.35320000  0.55470000  1.0 0.0191178055
H  H190  1  0.60860000  0.33540000  0.60160000  1.0 0.0293091151
H  H191  1  0.24190000  0.07290000  0.58470000  1.0 0.0895222992
H  H192  1  0.14200000  0.95920000  0.59090000  1.0 0.0895222992
H  H193  1  0.13140000  0.97260000  0.66170000  1.0 0.0801248309
H  H194  1  0.18380000  0.08200000  0.64090000  1.0 0.0503107081
H  H195  1  0.28990000  0.11070000  0.70210000  1.0 0.1093561605
H  H196  1  0.27750000  0.02110000  0.69480000  1.0 0.0801248309
H  H197  1  0.43550000  0.18490000  0.67350000  1.0 0.099919818
H  H198  1  0.37450000  0.19310000  0.63300000  1.0 0.0603223051
H  H199  1  0.39830000  0.11910000  0.59670000  1.0 0.0801248309
H  H200  1  0.41830000  0.07510000  0.64170000  1.0 0.099919818
H  H201  1  0.24650000  0.94790000  0.65150000  1.0 0.099919818
H  H202  1  0.25700000  0.94640000  0.60140000  1.0 0.099919818
H  H203  1  0.38920000  0.37780000  0.54620000  1.0 0.0895222992
H  H204  1  0.46440000  0.46540000  0.57800000  1.0 0.099919818
H  H205  1  0.38790000  0.28730000  0.60330000  1.0 0.0694993337
H  H206  1  0.42820000  0.36400000  0.63770000  1.0 0.0399994297
H  H207  1  0.27400000  0.29520000  0.64760000  1.0 0.0503107081
H  H208  1  0.25820000  0.20120000  0.64530000  1.0 0.0694993337
H  H209  1  0.13310000  0.18470000  0.59940000  1.0 0.010572636
H  H210  1  0.19830000  0.19110000  0.56980000  1.0 0.0694993337
H  H211  1  0.21240000  0.30760000  0.52850000  1.0 0.0801248309
H  H212  1  0.17110000  0.31850000  0.56490000  1.0 0.0293091151
H  H213  1  0.32670000  0.42970000  0.60130000  1.0 0.0801248309
H  H214  1  0.34190000  0.46650000  0.54990000  1.0 0.0694993337
H  H215  1  0.81320000  0.75120000  0.50200000  1.0 0.0694993337
H  H216  1  0.77680000  0.79020000  0.46300000  1.0 0.0694993337
H  H217  1  0.92240000  0.88660000  0.44020000  1.0 0.0895222992
H  H218  1  0.96440000  0.86640000  0.48530000  1.0 0.0694993337
H  H219  1  0.05540000  0.01460000  0.49430000  1.0 0.0399994297
H  H220  1  0.99850000  0.02810000  0.45470000  1.0 0.0694993337
H  H221  1  0.96390000  0.07150000  0.49810000  1.0 0.0191178055
H  H222  1  0.02100000  0.05760000  0.53800000  1.0 0.0399994297
H  H223  1  0.83460000  0.96320000  0.53190000  1.0 0.0694993337
H  H224  1  0.88900000  0.94040000  0.56870000  1.0 0.0801248309
H  H225  1  0.74390000  0.82430000  0.51080000  1.0 0.0603223051
H  H226  1  0.79400000  0.79980000  0.54880000  1.0 0.0694993337
H  H227  1  0.49280000  0.22120000  0.50980000  1.0 0.0895222992
H  H228  1  0.42900000  0.13320000  0.54700000  1.0 0.0895222992
H  H229  1  0.54200000  0.22380000  0.60010000  1.0 0.0801248309
H  H230  1  0.61300000  0.30240000  0.56220000  1.0 0.0503107081
H  H231  1  0.60950000  0.38690000  0.60650000  1.0 0.0293091151
H  H232  1  0.49210000  0.30550000  0.60420000  1.0 0.0694993337
H  H233  1  0.54860000  0.44800000  0.55630000  1.0 0.0694993337
H  H234  1  0.60260000  0.43420000  0.52950000  1.0 0.0603223051
H  H235  1  0.46450000  0.34050000  0.48680000  1.0 0.0603223051
H  H236  1  0.40630000  0.33910000  0.51880000  1.0 0.0801248309
H  H237  1  0.37030000  0.20410000  0.56260000  1.0 0.1093561605
H  H238  1  0.33960000  0.17660000  0.51240000  1.0 0.0801248309
H  H239  1  0.24380000  0.23900000  0.58580000  1.0 0.0801248309
H  H240  1  0.23750000  0.30410000  0.60830000  1.0 0.0603223051
H  H241  1  0.37840000  0.37400000  0.64890000  1.0 0.0603223051
H  H242  1  0.39730000  0.33310000  0.61630000  1.0 0.0694993337
H  H243  1  0.41880000  0.27760000  0.68340000  1.0 0.0895222992
H  H244  1  0.33060000  0.25360000  0.70180000  1.0 0.0801248309
H  H245  1  0.31500000  0.13520000  0.64900000  1.0 0.010572636
H  H246  1  0.28140000  0.10600000  0.69790000  1.0 0.119454933
H  H247  1  0.16720000  0.06860000  0.62120000  1.0 0.0694993337
H  H248  1  0.13250000  0.03630000  0.67030000  1.0 0.0503107081
H  H249  1  0.10750000  0.13990000  0.63260000  1.0 0.0603223051
H  H250  1  0.18580000  0.19120000  0.67420000  1.0 0.0694993337
H  H251  1  0.01490000  0.20350000  0.48730000  1.0 0.119454933
H  H252  1  0.99170000  0.11010000  0.47560000  1.0 0.0801248309
H  H253  1  0.93020000  0.09760000  0.54570000  1.0 0.0801248309
H  H254  1  0.96920000  0.04440000  0.54680000  1.0 0.0293091151
H  H255  1  0.04470000  0.16370000  0.60500000  1.0 0.0801248309
H  H256  1  0.11610000  0.16470000  0.58340000  1.0 0.0503107081
H  H257  1  0.17200000  0.32900000  0.58390000  1.0 0.0603223051
H  H258  1  0.08650000  0.29450000  0.54530000  1.0 0.0694993337
H  H259  1  0.21930000  0.36890000  0.50610000  1.0 0.0191178055
H  H260  1  0.25600000  0.32400000  0.54090000  1.0 0.099919818
H  H261  1  0.15170000  0.17970000  0.51000000  1.0 0.0694993337
H  H262  1  0.15740000  0.24480000  0.46700000  1.0 0.0801248309
H  H263  1  0.38540000  0.71180000  0.45200000  1.0 0.0694993337
H  H264  1  0.46990000  0.77250000  0.41880000  1.0 0.0895222992
H  H265  1  0.47070000  0.69810000  0.50640000  1.0 0.099919818
H  H266  1  0.55270000  0.80670000  0.48520000  1.0 0.0801248309
H  H267  1  0.63830000  0.77910000  0.47790000  1.0 0.0801248309
H  H268  1  0.56210000  0.67490000  0.50430000  1.0 0.099919818
H  H269  1  0.60760000  0.70960000  0.42350000  1.0 0.1093561605
H  H270  1  0.53210000  0.60590000  0.44990000  1.0 0.0801248309
H  H271  1  0.49460000  0.69160000  0.37960000  1.0 0.0801248309
H  H272  1  0.43700000  0.57820000  0.39200000  1.0 0.0694993337
H  H273  1  0.35320000  0.56760000  0.44530000  1.0 0.0191178055
H  H274  1  0.33540000  0.60860000  0.39840000  1.0 0.0293091151
H  H275  1  0.07290000  0.24190000  0.41530000  1.0 0.0895222992
H  H276  1  0.95920000  0.14200000  0.40910000  1.0 0.0895222992
H  H277  1  0.97260000  0.13140000  0.33830000  1.0 0.0801248309
H  H278  1  0.08200000  0.18380000  0.35910000  1.0 0.0503107081
H  H279  1  0.11070000  0.28990000  0.29790000  1.0 0.1093561605
H  H280  1  0.02110000  0.27750000  0.30520000  1.0 0.0801248309
H  H281  1  0.18490000  0.43550000  0.32650000  1.0 0.099919818
H  H282  1  0.19310000  0.37450000  0.36700000  1.0 0.0603223051
H  H283  1  0.11910000  0.39830000  0.40330000  1.0 0.0801248309
H  H284  1  0.07510000  0.41830000  0.35830000  1.0 0.099919818
H  H285  1  0.94790000  0.24650000  0.34850000  1.0 0.099919818
H  H286  1  0.94640000  0.25700000  0.39860000  1.0 0.099919818
H  H287  1  0.37780000  0.38920000  0.45380000  1.0 0.0895222992
H  H288  1  0.46540000  0.46440000  0.42200000  1.0 0.099919818
H  H289  1  0.28730000  0.38790000  0.39670000  1.0 0.0694993337
H  H290  1  0.36400000  0.42820000  0.36230000  1.0 0.0399994297
H  H291  1  0.29520000  0.27400000  0.35240000  1.0 0.0503107081
H  H292  1  0.20120000  0.25820000  0.35470000  1.0 0.0694993337
H  H293  1  0.18470000  0.13310000  0.40060000  1.0 0.010572636
H  H294  1  0.19110000  0.19830000  0.43020000  1.0 0.0694993337
H  H295  1  0.30760000  0.21240000  0.47150000  1.0 0.0801248309
H  H296  1  0.31850000  0.17110000  0.43510000  1.0 0.0293091151
H  H297  1  0.42970000  0.32670000  0.39870000  1.0 0.0801248309
H  H298  1  0.46650000  0.34190000  0.45010000  1.0 0.0694993337
H  H299  1  0.75120000  0.81320000  0.49800000  1.0 0.0694993337
H  H300  1  0.79020000  0.77680000  0.53700000  1.0 0.0694993337
H  H301  1  0.88660000  0.92240000  0.55980000  1.0 0.0895222992
H  H302  1  0.86640000  0.96440000  0.51470000  1.0 0.0694993337
H  H303  1  0.01460000  0.05540000  0.50570000  1.0 0.0399994297
H  H304  1  0.02810000  0.99850000  0.54530000  1.0 0.0694993337
H  H305  1  0.07150000  0.96390000  0.50190000  1.0 0.010572636
H  H306  1  0.05760000  0.02100000  0.46200000  1.0 0.0399994297
H  H307  1  0.96320000  0.83460000  0.46810000  1.0 0.0694993337
H  H308  1  0.94040000  0.88900000  0.43130000  1.0 0.0801248309
H  H309  1  0.82430000  0.74390000  0.48920000  1.0 0.0603223051
H  H310  1  0.79980000  0.79400000  0.45120000  1.0 0.0694993337
H  H311  1  0.22120000  0.49280000  0.49020000  1.0 0.0895222992
H  H312  1  0.13320000  0.42900000  0.45300000  1.0 0.0895222992
H  H313  1  0.22380000  0.54200000  0.39990000  1.0 0.0801248309
H  H314  1  0.30240000  0.61300000  0.43780000  1.0 0.0503107081
H  H315  1  0.38690000  0.60950000  0.39350000  1.0 0.0293091151
H  H316  1  0.30550000  0.49210000  0.39580000  1.0 0.0694993337
H  H317  1  0.44800000  0.54860000  0.44370000  1.0 0.0694993337
H  H318  1  0.43420000  0.60260000  0.47050000  1.0 0.0603223051
H  H319  1  0.34050000  0.46450000  0.51320000  1.0 0.0603223051
H  H320  1  0.33910000  0.40630000  0.48120000  1.0 0.0801248309
H  H321  1  0.20410000  0.37030000  0.43740000  1.0 0.1093561605
H  H322  1  0.17660000  0.33960000  0.48760000  1.0 0.0801248309
H  H323  1  0.23900000  0.24380000  0.41420000  1.0 0.0801248309
H  H324  1  0.30410000  0.23750000  0.39170000  1.0 0.0603223051
H  H325  1  0.37400000  0.37840000  0.35110000  1.0 0.0603223051
H  H326  1  0.33310000  0.39730000  0.38370000  1.0 0.0694993337
H  H327  1  0.27760000  0.41880000  0.31660000  1.0 0.0895222992
H  H328  1  0.25360000  0.33060000  0.29820000  1.0 0.0801248309
H  H329  1  0.13520000  0.31500000  0.35100000  1.0 0.010572636
H  H330  1  0.10600000  0.28140000  0.30210000  1.0 0.1093561605
H  H331  1  0.06860000  0.16720000  0.37880000  1.0 0.0694993337
H  H332  1  0.03630000  0.13250000  0.32970000  1.0 0.0503107081
H  H333  1  0.13990000  0.10750000  0.36740000  1.0 0.0603223051
H  H334  1  0.19120000  0.18580000  0.32580000  1.0 0.0694993337
H  H335  1  0.20350000  0.01490000  0.51270000  1.0 0.119454933
H  H336  1  0.11010000  0.99170000  0.52440000  1.0 0.0801248309
H  H337  1  0.09760000  0.93020000  0.45430000  1.0 0.0801248309
H  H338  1  0.04440000  0.96920000  0.45320000  1.0 0.0293091151
H  H339  1  0.16370000  0.04470000  0.39500000  1.0 0.0801248309
H  H340  1  0.16470000  0.11610000  0.41660000  1.0 0.0503107081
H  H341  1  0.32900000  0.17200000  0.41610000  1.0 0.0603223051
H  H342  1  0.29450000  0.08650000  0.45470000  1.0 0.0694993337
H  H343  1  0.36890000  0.21930000  0.49390000  1.0 0.0191178055
H  H344  1  0.32400000  0.25600000  0.45910000  1.0 0.099919818
H  H345  1  0.17970000  0.15170000  0.49000000  1.0 0.0694993337
H  H346  1  0.24480000  0.15740000  0.53300000  1.0 0.0801248309
H  H347  1  0.57580000  0.34820000  0.77500000  1.0 0.1093561605
H  H348  1  0.69370000  0.48030000  0.72870000  1.0 0.1490531383
H  H349  1  0.65420000  0.64000000  0.77200000  1.0 0.1490531383
H  H350  1  0.53890000  0.50350000  0.81610000  1.0 0.099919818
H  H351  1  0.90070000  0.04690000  0.75540000  1.0 0.0895222992
H  H352  1  0.85690000  0.89750000  0.75740000  1.0 0.1490531383
H  H353  1  0.91760000  0.96460000  0.63050000  1.0 0.1490531383
H  H354  1  0.94510000  0.10010000  0.62910000  1.0 0.0895222992
H  H355  1  0.01620000  0.82420000  0.54090000  1.0 0.099919818
H  H356  1  0.94510000  0.83650000  0.59070000  1.0 0.1568766461
H  H357  1  0.86900000  0.59060000  0.65830000  1.0 0.1490531383
H  H358  1  0.92920000  0.58000000  0.60570000  1.0 0.0801248309
H  H359  1  0.16370000  0.89090000  0.48530000  1.0 0.0895222992
H  H360  1  0.32430000  0.04010000  0.49160000  1.0 0.1300976437
H  H361  1  0.38970000  0.89690000  0.57490000  1.0 0.1381954149
H  H362  1  0.21970000  0.75070000  0.56510000  1.0 0.0895222992
H  H363  1  0.75060000  0.08100000  0.67760000  1.0 0.0895222992
H  H364  1  0.83160000  0.28900000  0.55110000  1.0 0.1093561605
H  H365  1  0.62770000  0.05530000  0.62840000  1.0 0.1381954149
H  H366  1  0.95340000  0.31520000  0.60220000  1.0 0.0801248309
H  H367  1  0.81310000  0.49990000  0.41230000  1.0 0.0694993337
H  H368  1  0.77690000  0.38750000  0.47110000  1.0 0.119454933
H  H369  1  0.48850000  0.22930000  0.43650000  1.0 0.1300976437
H  H370  1  0.53230000  0.34750000  0.37920000  1.0 0.0801248309
H  H371  1  0.49840000  0.46280000  0.31560000  1.0 0.099919818
H  H372  1  0.35990000  0.34310000  0.27120000  1.0 0.1490531383
H  H373  1  0.51960000  0.30900000  0.22710000  1.0 0.1490531383
H  H374  1  0.65430000  0.42970000  0.27140000  1.0 0.0801248309
H  H375  1  0.88650000  0.03970000  0.13260000  1.0 0.1093561605
H  H376  1  0.04310000  0.09150000  0.12780000  1.0 0.1300976437
H  H377  1  0.10240000  0.14420000  0.25660000  1.0 0.1490531383
H  H378  1  0.95320000  0.10140000  0.25560000  1.0 0.099919818
H  H379  1  0.41840000  0.06440000  0.10840000  1.0 0.0801248309
H  H380  1  0.40580000  0.13260000  0.15960000  1.0 0.1300976437
H  H381  1  0.15650000  0.04030000  0.09090000  1.0 0.1490531383
H  H382  1  0.18290000  0.98770000  0.03960000  1.0 0.099919818
H  H383  1  0.24330000  0.77390000  0.07170000  1.0 0.0895222992
H  H384  1  0.10400000  0.61140000  0.07560000  1.0 0.1381954149
H  H385  1  0.96210000  0.67170000  0.98850000  1.0 0.119454933
H  H386  1  0.10390000  0.83930000  0.99010000  1.0 0.0895222992
H  H387  1  0.64480000  0.46780000  0.88390000  1.0 0.1093561605
H  H388  1  0.76710000  0.51190000  0.93950000  1.0 0.1381954149
H  H389  1  0.61460000  0.22500000  0.97170000  1.0 0.119454933
H  H390  1  0.49780000  0.18840000  0.91310000  1.0 0.0801248309
H  H391  1  0.68840000  0.04680000  0.10050000  1.0 0.0895222992
H  H392  1  0.70160000  0.16520000  0.05410000  1.0 0.1093561605
H  H393  1  0.94810000  0.37230000  0.12980000  1.0 0.1300976437
H  H394  1  0.91390000  0.24250000  0.17740000  1.0 0.099919818
H  H395  1  0.34820000  0.57580000  0.22500000  1.0 0.1093561605
H  H396  1  0.48030000  0.69370000  0.27130000  1.0 0.1490531383
H  H397  1  0.64000000  0.65420000  0.22800000  1.0 0.1490531383
H  H398  1  0.50350000  0.53890000  0.18390000  1.0 0.099919818
H  H399  1  0.04690000  0.90070000  0.24460000  1.0 0.0895222992
H  H400  1  0.89750000  0.85690000  0.24260000  1.0 0.1490531383
H  H401  1  0.96460000  0.91760000  0.36950000  1.0 0.1490531383
H  H402  1  0.10010000  0.94510000  0.37090000  1.0 0.0895222992
H  H403  1  0.82420000  0.01620000  0.45910000  1.0 0.099919818
H  H404  1  0.83650000  0.94510000  0.40930000  1.0 0.1568766461
H  H405  1  0.59060000  0.86900000  0.34170000  1.0 0.1490531383
H  H406  1  0.58000000  0.92920000  0.39430000  1.0 0.0801248309
H  H407  1  0.89090000  0.16370000  0.51470000  1.0 0.0895222992
H  H408  1  0.04010000  0.32430000  0.50840000  1.0 0.1300976437
H  H409  1  0.89690000  0.38970000  0.42510000  1.0 0.1381954149
H  H410  1  0.75070000  0.21970000  0.43490000  1.0 0.0895222992
H  H411  1  0.08100000  0.75060000  0.32240000  1.0 0.0801248309
H  H412  1  0.28900000  0.83160000  0.44890000  1.0 0.1093561605
H  H413  1  0.05530000  0.62770000  0.37160000  1.0 0.1381954149
H  H414  1  0.31520000  0.95340000  0.39780000  1.0 0.0801248309
H  H415  1  0.49990000  0.81310000  0.58770000  1.0 0.0694993337
H  H416  1  0.38750000  0.77690000  0.52890000  1.0 0.119454933
H  H417  1  0.22930000  0.48850000  0.56350000  1.0 0.1300976437
H  H418  1  0.34750000  0.53230000  0.62080000  1.0 0.0801248309
H  H419  1  0.46280000  0.49840000  0.68440000  1.0 0.099919818
H  H420  1  0.34310000  0.35990000  0.72880000  1.0 0.1490531383
H  H421  1  0.30900000  0.51960000  0.77290000  1.0 0.1490531383
H  H422  1  0.42970000  0.65430000  0.72860000  1.0 0.0801248309
H  H423  1  0.03970000  0.88650000  0.86740000  1.0 0.1093561605
H  H424  1  0.09150000  0.04310000  0.87220000  1.0 0.1300976437
H  H425  1  0.14420000  0.10240000  0.74340000  1.0 0.1490531383
H  H426  1  0.10140000  0.95320000  0.74440000  1.0 0.099919818
H  H427  1  0.06440000  0.41840000  0.89160000  1.0 0.0801248309
H  H428  1  0.13260000  0.40580000  0.84040000  1.0 0.1300976437
H  H429  1  0.04030000  0.15650000  0.90910000  1.0 0.1490531383
H  H430  1  0.98770000  0.18290000  0.96040000  1.0 0.099919818
H  H431  1  0.77390000  0.24330000  0.92830000  1.0 0.0895222992
H  H432  1  0.61140000  0.10400000  0.92440000  1.0 0.1381954149
H  H433  1  0.67170000  0.96210000  0.01150000  1.0 0.119454933
H  H434  1  0.83930000  0.10390000  0.00990000  1.0 0.0895222992
H  H435  1  0.46780000  0.64480000  0.11610000  1.0 0.1093561605
H  H436  1  0.51190000  0.76710000  0.06050000  1.0 0.1381954149
H  H437  1  0.22500000  0.61460000  0.02830000  1.0 0.119454933
H  H438  1  0.18840000  0.49780000  0.08690000  1.0 0.0801248309
H  H439  1  0.04680000  0.68840000  0.89950000  1.0 0.0895222992
H  H440  1  0.16520000  0.70160000  0.94590000  1.0 0.1093561605
H  H441  1  0.37230000  0.94810000  0.87020000  1.0 0.1300976437
H  H442  1  0.24250000  0.91390000  0.82260000  1.0 0.099919818
C  C1  1  0.64800000  0.92200000  0.90400000  1.0 -0.1502307584
C  C2  1  0.73900000  0.99300000  0.87700000  1.0 -0.1302496169
C  C3  1  0.77200000  0.93600000  0.87800000  1.0 -0.0272803045
C  C4  1  0.70900000  0.84300000  0.91000000  1.0 -0.1502307584
C  C5  1  0.72500000  0.87300000  0.95700000  1.0 -0.1502307584
C  C6  1  0.68500000  0.92300000  0.95300000  1.0 -0.199449083
C  C7  1  0.70000000  0.80000000  0.82800000  1.0 -0.070501653
C  C8  1  0.78200000  0.81000000  0.85300000  1.0 -0.0579190593
C  C9  1  0.75410000  0.71190000  0.87100000  1.0 -0.1908355396
C  C10  1  0.66460000  0.64940000  0.89800000  1.0 -0.0579190593
C  C11  1  0.57800000  0.62600000  0.86900000  1.0 -0.2196009804
C  C12  1  0.59670000  0.70130000  0.83200000  1.0 -0.079892159
C  C13  1  0.30000000  0.59800000  0.93800000  1.0 -0.1396011784
C  C14  1  0.32200000  0.54000000  0.96500000  1.0 -0.0398494451
C  C15  1  0.34000000  0.49600000  0.93600000  1.0 -0.04901789
C  C16  1  0.40300000  0.57100000  0.89900000  1.0 -0.1502307584
C  C17  1  0.36700000  0.61500000  0.86800000  1.0 -0.2196009804
C  C18  1  0.31860000  0.63740000  0.89000000  1.0 -0.199449083
C  C19  1  0.97600000  0.90400000  0.97250000  1.0 -0.0992093835
C  C20  1  0.06970000  0.98830000  0.95980000  1.0 -0.199449083
C  C21  1  0.12010000  0.07590000  0.97740000  1.0 -0.070501653
C  C22  1  0.07790000  0.08010000  0.00780000  1.0 -0.017752793
C  C23  1  0.98520000  0.99680000  0.02060000  1.0 0.0191178055
C  C24  1  0.93380000  0.90820000  0.00290000  1.0 -0.0992093835
C  C25  1  0.76800000  0.94200000  0.83600000  1.0 -0.1502307584
C  C26  1  0.66900000  0.83500000  0.83100000  1.0 -0.0992093835
C  C27  1  0.68900000  0.76900000  0.84600000  1.0 -0.010079769
C  C28  1  0.72500000  0.77700000  0.89600000  1.0 -0.079892159
C  C29  1  0.82700000  0.88300000  0.90000000  1.0 -0.1908355396
C  C30  1  0.84600000  0.93600000  0.85300000  1.0 -0.1302496169
C  C31  1  0.72200000  0.61000000  0.00000000  1.0 -0.2105722742
C  C32  1  0.82700000  0.66100000  0.99000000  1.0 -0.1091600718
C  C33  1  0.88500000  0.77300000  0.98000000  1.0 0.0895222992
C  C34  1  0.82300000  0.77900000  0.94200000  1.0 -0.0901130301
C  C35  1  0.74200000  0.67800000  0.92300000  1.0 -0.04901789
C  C36  1  0.66400000  0.60400000  0.95600000  1.0 -0.1396011784
C  C37  1  0.35590000  0.44810000  0.98600000  1.0 -0.1502307584
C  C38  1  0.29540000  0.47660000  0.98240000  1.0 -0.070501653
C  C39  1  0.32200000  0.54200000  0.93800000  1.0 -0.0027914785
C  C40  1  0.43200000  0.63400000  0.94500000  1.0 -0.0901130301
C  C41  1  0.47200000  0.62800000  0.99200000  1.0 -0.2105722742
C  C42  1  0.45800000  0.53800000  0.00500000  1.0 -0.2105722742
C  C43  1  0.58500000  0.00700000  0.76470000  1.0 -0.1502307584
C  C44  1  0.50200000  0.98600000  0.78400000  1.0 -0.1695907722
C  C45  1  0.54900000  0.02900000  0.82900000  1.0 -0.160521471
C  C46  1  0.56700000  0.96500000  0.85600000  1.0 -0.160521471
C  C47  1  0.66000000  0.00000000  0.84100000  1.0 -0.079892159
C  C48  1  0.63200000  0.97200000  0.79300000  1.0 -0.1908355396
C  C49  1  0.92200000  0.64800000  0.09600000  1.0 -0.1502307584
C  C50  1  0.99300000  0.73900000  0.12300000  1.0 -0.1302496169
C  C51  1  0.93600000  0.77200000  0.12200000  1.0 -0.0272803045
C  C52  1  0.84300000  0.70900000  0.09000000  1.0 -0.1502307584
C  C53  1  0.87300000  0.72500000  0.04300000  1.0 -0.1396011784
C  C54  1  0.92300000  0.68500000  0.04700000  1.0 -0.199449083
C  C55  1  0.80000000  0.70000000  0.17200000  1.0 -0.070501653
C  C56  1  0.81000000  0.78200000  0.14700000  1.0 -0.0579190593
C  C57  1  0.71190000  0.75410000  0.12900000  1.0 -0.1908355396
C  C58  1  0.64940000  0.66460000  0.10200000  1.0 -0.0579190593
C  C59  1  0.62600000  0.57800000  0.13100000  1.0 -0.2196009804
C  C60  1  0.70130000  0.59670000  0.16800000  1.0 -0.079892159
C  C61  1  0.59800000  0.30000000  0.06200000  1.0 -0.1396011784
C  C62  1  0.54000000  0.32200000  0.03500000  1.0 -0.0398494451
C  C63  1  0.49600000  0.34000000  0.06400000  1.0 -0.04901789
C  C64  1  0.57100000  0.40300000  0.10100000  1.0 -0.1502307584
C  C65  1  0.61500000  0.36700000  0.13200000  1.0 -0.2196009804
C  C66  1  0.63740000  0.31860000  0.11000000  1.0 -0.199449083
C  C67  1  0.90400000  0.97600000  0.02750000  1.0 -0.0992093835
C  C68  1  0.98830000  0.06970000  0.04020000  1.0 -0.199449083
C  C69  1  0.07590000  0.12010000  0.02260000  1.0 -0.070501653
C  C70  1  0.08010000  0.07790000  0.99220000  1.0 -0.017752793
C  C71  1  0.99680000  0.98520000  0.97940000  1.0 0.0191178055
C  C72  1  0.90820000  0.93380000  0.99710000  1.0 -0.0992093835
C  C73  1  0.94200000  0.76800000  0.16400000  1.0 -0.1502307584
C  C74  1  0.83500000  0.66900000  0.16900000  1.0 -0.0992093835
C  C75  1  0.76900000  0.68900000  0.15400000  1.0 -0.010079769
C  C76  1  0.77700000  0.72500000  0.10400000  1.0 -0.079892159
C  C77  1  0.88300000  0.82700000  0.10000000  1.0 -0.1908355396
C  C78  1  0.93600000  0.84600000  0.14700000  1.0 -0.1302496169
C  C79  1  0.61000000  0.72200000  0.00000000  1.0 -0.2105722742
C  C80  1  0.66100000  0.82700000  0.01000000  1.0 -0.1091600718
C  C81  1  0.77300000  0.88500000  0.02000000  1.0 0.0895222992
C  C82  1  0.77900000  0.82300000  0.05800000  1.0 -0.0901130301
C  C83  1  0.67800000  0.74200000  0.07700000  1.0 -0.04901789
C  C84  1  0.60400000  0.66400000  0.04400000  1.0 -0.1396011784
C  C85  1  0.44810000  0.35590000  0.01400000  1.0 -0.1502307584
C  C86  1  0.47660000  0.29540000  0.01760000  1.0 -0.070501653
C  C87  1  0.54200000  0.32200000  0.06200000  1.0 -0.0027914785
C  C88  1  0.63400000  0.43200000  0.05500000  1.0 -0.0901130301
C  C89  1  0.62800000  0.47200000  0.00800000  1.0 -0.2105722742
C  C90  1  0.53800000  0.45800000  0.99500000  1.0 -0.2105722742
C  C91  1  0.00700000  0.58500000  0.23530000  1.0 -0.1502307584
C  C92  1  0.98600000  0.50200000  0.21600000  1.0 -0.1695907722
C  C93  1  0.02900000  0.54900000  0.17100000  1.0 -0.160521471
C  C94  1  0.96500000  0.56700000  0.14400000  1.0 -0.160521471
C  C95  1  0.00000000  0.66000000  0.15900000  1.0 -0.079892159
C  C96  1  0.97200000  0.63200000  0.20700000  1.0 -0.1908355396
C  C97  1  0.71680000  0.43520000  0.55830000  1.0 -0.2105722742
C  C98  1  0.73640000  0.50760000  0.52010000  1.0 -0.160521471
C  C99  1  0.71670000  0.56930000  0.52250000  1.0 -0.1908355396
C  C100  1  0.66720000  0.54680000  0.56140000  1.0 -0.18010106
C  C101  1  0.63930000  0.46670000  0.59590000  1.0 -0.079892159
C  C102  1  0.62280000  0.38520000  0.57800000  1.0 -0.0027914785
C  C103  1  0.20600000  0.01400000  0.60600000  1.0 -0.1908355396
C  C104  1  0.19000000  0.03400000  0.64800000  1.0 -0.0579190593
C  C105  1  0.28400000  0.07600000  0.67950000  1.0 -0.1695907722
C  C106  1  0.37500000  0.14700000  0.65300000  1.0 -0.1302496169
C  C107  1  0.37500000  0.08500000  0.62600000  1.0 -0.1396011784
C  C108  1  0.26600000  0.98600000  0.62200000  1.0 -0.1302496169
C  C109  1  0.39700000  0.40100000  0.57400000  1.0 -0.2359924837
C  C110  1  0.37900000  0.32700000  0.61300000  1.0 -0.010079769
C  C111  1  0.27600000  0.26000000  0.62800000  1.0 -0.010079769
C  C112  1  0.19900000  0.22900000  0.58800000  1.0 -0.1196602425
C  C113  1  0.22000000  0.31600000  0.56000000  1.0 -0.070501653
C  C114  1  0.32400000  0.41200000  0.57200000  1.0 -0.2704891338
C  C115  1  0.82550000  0.81050000  0.48880000  1.0 -0.0901130301
C  C116  1  0.92880000  0.88720000  0.47260000  1.0 -0.04901789
C  C117  1  0.99000000  0.99000000  0.48300000  1.0 -0.070501653
C  C118  1  0.96660000  0.02340000  0.51500000  1.0 -0.0579190593
C  C119  1  0.87200000  0.94400000  0.53700000  1.0 -0.1302496169
C  C120  1  0.80710000  0.84290000  0.52160000  1.0 -0.1091600718
C  C121  1  0.46100000  0.19900000  0.53800000  1.0 -0.199449083
C  C122  1  0.55100000  0.26900000  0.57400000  1.0 -0.079892159
C  C123  1  0.54900000  0.34100000  0.58700000  1.0 -0.0992093835
C  C124  1  0.54500000  0.39900000  0.54700000  1.0 -0.0992093835
C  C125  1  0.45100000  0.32900000  0.51800000  1.0 -0.1302496169
C  C126  1  0.39600000  0.22000000  0.53400000  1.0 -0.1695907722
C  C127  1  0.25000000  0.26000000  0.61430000  1.0 -0.04901789
C  C128  1  0.35300000  0.31300000  0.63800000  1.0 -0.0901130301
C  C129  1  0.35100000  0.24900000  0.67590000  1.0 -0.2958329393
C  C130  1  0.28480000  0.14120000  0.66900000  1.0 -0.0579190593
C  C131  1  0.18100000  0.09300000  0.65000000  1.0 -0.1196602425
C  C132  1  0.17400000  0.17000000  0.64500000  1.0 -0.1396011784
C  C133  1  0.02800000  0.16000000  0.49710000  1.0 -0.1908355396
C  C134  1  0.98800000  0.10800000  0.54300000  1.0 -0.1196602425
C  C135  1  0.07300000  0.17700000  0.57710000  1.0 -0.18010106
C  C136  1  0.13100000  0.28500000  0.55900000  1.0 -0.1196602425
C  C137  1  0.19800000  0.31000000  0.52500000  1.0 -0.0579190593
C  C138  1  0.13700000  0.22100000  0.49800000  1.0 -0.2105722742
C  C139  1  0.43520000  0.71680000  0.44170000  1.0 -0.2105722742
C  C140  1  0.50760000  0.73640000  0.47990000  1.0 -0.160521471
C  C141  1  0.56930000  0.71670000  0.47750000  1.0 -0.1908355396
C  C142  1  0.54680000  0.66720000  0.43860000  1.0 -0.18010106
C  C143  1  0.46670000  0.63930000  0.40410000  1.0 -0.079892159
C  C144  1  0.38520000  0.62280000  0.42200000  1.0 -0.0027914785
C  C145  1  0.01400000  0.20600000  0.39400000  1.0 -0.1908355396
C  C146  1  0.03400000  0.19000000  0.35200000  1.0 -0.0579190593
C  C147  1  0.07600000  0.28400000  0.32050000  1.0 -0.1695907722
C  C148  1  0.14700000  0.37500000  0.34700000  1.0 -0.1302496169
C  C149  1  0.08500000  0.37500000  0.37400000  1.0 -0.1396011784
C  C150  1  0.98600000  0.26600000  0.37800000  1.0 -0.1302496169
C  C151  1  0.40100000  0.39700000  0.42600000  1.0 -0.2359924837
C  C152  1  0.32700000  0.37900000  0.38700000  1.0 -0.010079769
C  C153  1  0.26000000  0.27600000  0.37200000  1.0 -0.010079769
C  C154  1  0.22900000  0.19900000  0.41200000  1.0 -0.1196602425
C  C155  1  0.31600000  0.22000000  0.44000000  1.0 -0.070501653
C  C156  1  0.41200000  0.32400000  0.42800000  1.0 -0.2704891338
C  C157  1  0.81050000  0.82550000  0.51120000  1.0 -0.0901130301
C  C158  1  0.88720000  0.92880000  0.52740000  1.0 -0.04901789
C  C159  1  0.99000000  0.99000000  0.51700000  1.0 -0.070501653
C  C160  1  0.02340000  0.96660000  0.48500000  1.0 -0.0579190593
C  C161  1  0.94400000  0.87200000  0.46300000  1.0 -0.1302496169
C  C162  1  0.84290000  0.80710000  0.47840000  1.0 -0.1091600718
C  C163  1  0.19900000  0.46100000  0.46200000  1.0 -0.1908355396
C  C164  1  0.26900000  0.55100000  0.42600000  1.0 -0.079892159
C  C165  1  0.34100000  0.54900000  0.41300000  1.0 -0.0992093835
C  C166  1  0.39900000  0.54500000  0.45300000  1.0 -0.0992093835
C  C167  1  0.32900000  0.45100000  0.48200000  1.0 -0.1302496169
C  C168  1  0.22000000  0.39600000  0.46600000  1.0 -0.1695907722
C  C169  1  0.26000000  0.25000000  0.38570000  1.0 -0.04901789
C  C170  1  0.31300000  0.35300000  0.36200000  1.0 -0.0901130301
C  C171  1  0.24900000  0.35100000  0.32410000  1.0 -0.2958329393
C  C172  1  0.14120000  0.28480000  0.33100000  1.0 -0.0579190593
C  C173  1  0.09300000  0.18100000  0.35000000  1.0 -0.1196602425
C  C174  1  0.17000000  0.17400000  0.35500000  1.0 -0.1396011784
C  C175  1  0.16000000  0.02800000  0.50290000  1.0 -0.1908355396
C  C176  1  0.10800000  0.98800000  0.45700000  1.0 -0.1196602425
C  C177  1  0.17700000  0.07300000  0.42290000  1.0 -0.18010106
C  C178  1  0.28500000  0.13100000  0.44100000  1.0 -0.1196602425
C  C179  1  0.31000000  0.19800000  0.47500000  1.0 -0.0579190593
C  C180  1  0.22100000  0.13700000  0.50200000  1.0 -0.2105722742
C  C181  1  0.59240000  0.40860000  0.77400000  1.0 0.0694993337
C  C182  1  0.66310000  0.48690000  0.74640000  1.0 -0.160521471
C  C183  1  0.68780000  0.57600000  0.74550000  1.0 0.0694993337
C  C184  1  0.63960000  0.58100000  0.77200000  1.0 -0.18010106
C  C185  1  0.57090000  0.49930000  0.79800000  1.0 0.0603223051
C  C186  1  0.90270000  0.02850000  0.72940000  1.0 0.0399994297
C  C187  1  0.87740000  0.94000000  0.73110000  1.0 -0.1695907722
C  C188  1  0.88260000  0.91520000  0.69370000  1.0 0.0603223051
C  C189  1  0.91140000  0.97940000  0.65650000  1.0 -0.1908355396
C  C190  1  0.93040000  0.06020000  0.65600000  1.0 0.010572636
C  C191  1  0.98400000  0.77540000  0.56470000  1.0 -0.1196602425
C  C192  1  0.94350000  0.78450000  0.59500000  1.0 -0.2704891338
C  C193  1  0.90230000  0.71690000  0.63060000  1.0 0.0801248309
C  C194  1  0.89780000  0.63920000  0.63420000  1.0 -0.1091600718
C  C195  1  0.93460000  0.63420000  0.60300000  1.0 0.0603223051
C  C196  1  0.76410000  0.66110000  0.71710000  1.0 0.3608638422
C  C197  1  0.85390000  0.82050000  0.69340000  1.0 0.3816262708
C  C198  1  0.86100000  0.72600000  0.66250000  1.0 0.3608638422
C  C199  1  0.21030000  0.89310000  0.50470000  1.0 -0.0027914785
C  C200  1  0.30620000  0.98180000  0.50700000  1.0 -0.18010106
C  C201  1  0.37560000  0.98280000  0.53260000  1.0 0.0694993337
C  C202  1  0.34510000  0.89830000  0.55600000  1.0 -0.1502307584
C  C203  1  0.24170000  0.81110000  0.55070000  1.0 0.0801248309
C  C204  1  0.76770000  0.12450000  0.65180000  1.0 0.0603223051
C  C205  1  0.81400000  0.24700000  0.57750000  1.0 -0.1502307584
C  C206  1  0.71700000  0.17240000  0.58580000  1.0 0.0603223051
C  C207  1  0.69440000  0.10960000  0.62280000  1.0 -0.1502307584
C  C208  1  0.88640000  0.26120000  0.60750000  1.0 0.0603223051
C  C209  1  0.74630000  0.44510000  0.41780000  1.0 0.0603223051
C  C210  1  0.72510000  0.37770000  0.45260000  1.0 -0.160521471
C  C211  1  0.62860000  0.29560000  0.46080000  1.0 0.0694993337
C  C212  1  0.55580000  0.28500000  0.43240000  1.0 -0.2105722742
C  C213  1  0.58280000  0.35620000  0.39850000  1.0 0.0694993337
C  C214  1  0.48050000  0.07370000  0.53170000  1.0 0.3387519286
C  C215  1  0.63970000  0.16050000  0.55570000  1.0 0.3469498183
C  C216  1  0.60100000  0.22040000  0.49710000  1.0 0.3148587422
C  C217  1  0.50270000  0.43030000  0.29780000  1.0 0.0399994297
C  C218  1  0.41970000  0.35910000  0.27120000  1.0 -0.1908355396
C  C219  1  0.42600000  0.31300000  0.24520000  1.0 0.0603223051
C  C220  1  0.51330000  0.33930000  0.24530000  1.0 -0.1502307584
C  C221  1  0.59320000  0.41080000  0.27220000  1.0 0.0603223051
C  C222  1  0.93230000  0.06290000  0.15780000  1.0 0.0895222992
C  C223  1  0.02500000  0.09100000  0.15450000  1.0 -0.1695907722
C  C224  1  0.08520000  0.11720000  0.19400000  1.0 0.0694993337
C  C225  1  0.05940000  0.12280000  0.23050000  1.0 -0.1502307584
C  C226  1  0.97050000  0.09750000  0.22980000  1.0 0.0694993337
C  C227  1  0.36610000  0.06230000  0.10420000  1.0 0.010572636
C  C228  1  0.35850000  0.10250000  0.13520000  1.0 -0.1502307584
C  C229  1  0.28280000  0.09760000  0.12940000  1.0 0.0603223051
C  C230  1  0.21340000  0.04980000  0.09440000  1.0 -0.234085597
C  C231  1  0.22830000  0.01630000  0.06480000  1.0 -0.04901789
C  C232  1  0.33710000  0.23510000  0.21740000  1.0 0.369169367
C  C233  1  0.17930000  0.14430000  0.19280000  1.0 0.369169367
C  C234  1  0.27190000  0.13730000  0.16230000  1.0 0.3469498183
C  C235  1  0.18560000  0.75300000  0.05440000  1.0 0.0603223051
C  C236  1  0.10320000  0.65680000  0.05710000  1.0 -0.1695907722
C  C237  1  0.01730000  0.62410000  0.03310000  1.0 0.0801248309
C  C238  1  0.01920000  0.69240000  0.00640000  1.0 -0.2196009804
C  C239  1  0.10460000  0.79180000  0.00590000  1.0 -0.017752793
C  C240  1  0.64030000  0.41810000  0.90130000  1.0 0.0503107081
C  C241  1  0.71220000  0.44480000  0.93470000  1.0 -0.199449083
C  C242  1  0.70300000  0.37300000  0.96070000  1.0 0.0603223051
C  C243  1  0.62280000  0.27600000  0.95340000  1.0 -0.1908355396
C  C244  1  0.55390000  0.25490000  0.91840000  1.0 0.0895222992
C  C245  1  0.73900000  0.11340000  0.10700000  1.0 0.0694993337
C  C246  1  0.74820000  0.18340000  0.07860000  1.0 -0.1695907722
C  C247  1  0.82820000  0.28280000  0.08650000  1.0 0.0603223051
C  C248  1  0.89260000  0.30620000  0.12360000  1.0 -0.160521471
C  C249  1  0.87200000  0.22780000  0.15130000  1.0 0.099919818
C  C250  1  0.92550000  0.51730000  0.03260000  1.0 0.3193810658
C  C251  1  0.78040000  0.40180000  0.99690000  1.0 0.3469498183
C  C252  1  0.84070000  0.35910000  0.05450000  1.0 0.3387519286
C  C253  1  0.40860000  0.59240000  0.22600000  1.0 0.0694993337
C  C254  1  0.48690000  0.66310000  0.25360000  1.0 -0.160521471
C  C255  1  0.57600000  0.68780000  0.25450000  1.0 0.0694993337
C  C256  1  0.58100000  0.63960000  0.22800000  1.0 -0.18010106
C  C257  1  0.49930000  0.57090000  0.20200000  1.0 0.0603223051
C  C258  1  0.02850000  0.90270000  0.27060000  1.0 0.0399994297
C  C259  1  0.94000000  0.87740000  0.26890000  1.0 -0.1695907722
C  C260  1  0.91520000  0.88260000  0.30630000  1.0 0.0603223051
C  C261  1  0.97940000  0.91140000  0.34350000  1.0 -0.1908355396
C  C262  1  0.06020000  0.93040000  0.34400000  1.0 0.0028156567
C  C263  1  0.77540000  0.98400000  0.43530000  1.0 -0.1196602425
C  C264  1  0.78450000  0.94350000  0.40500000  1.0 -0.2704891338
C  C265  1  0.71690000  0.90230000  0.36940000  1.0 0.0801248309
C  C266  1  0.63920000  0.89780000  0.36580000  1.0 -0.1091600718
C  C267  1  0.63420000  0.93460000  0.39700000  1.0 0.0603223051
C  C268  1  0.66110000  0.76410000  0.28290000  1.0 0.3608638422
C  C269  1  0.82050000  0.85390000  0.30660000  1.0 0.3816262708
C  C270  1  0.72600000  0.86100000  0.33750000  1.0 0.3608638422
C  C271  1  0.89310000  0.21030000  0.49530000  1.0 -0.0027914785
C  C272  1  0.98180000  0.30620000  0.49300000  1.0 -0.18010106
C  C273  1  0.98280000  0.37560000  0.46740000  1.0 0.0694993337
C  C274  1  0.89830000  0.34510000  0.44400000  1.0 -0.1502307584
C  C275  1  0.81110000  0.24170000  0.44930000  1.0 0.0801248309
C  C276  1  0.12450000  0.76770000  0.34820000  1.0 0.0603223051
C  C277  1  0.24700000  0.81400000  0.42250000  1.0 -0.1502307584
C  C278  1  0.17240000  0.71700000  0.41420000  1.0 0.0603223051
C  C279  1  0.10960000  0.69440000  0.37720000  1.0 -0.1502307584
C  C280  1  0.26120000  0.88640000  0.39250000  1.0 0.0603223051
C  C281  1  0.44510000  0.74630000  0.58220000  1.0 0.0603223051
C  C282  1  0.37770000  0.72510000  0.54740000  1.0 -0.160521471
C  C283  1  0.29560000  0.62860000  0.53920000  1.0 0.0694993337
C  C284  1  0.28500000  0.55580000  0.56760000  1.0 -0.2105722742
C  C285  1  0.35620000  0.58280000  0.60150000  1.0 0.0694993337
C  C286  1  0.07370000  0.48050000  0.46830000  1.0 0.3387519286
C  C287  1  0.16050000  0.63970000  0.44430000  1.0 0.3469498183
C  C288  1  0.22040000  0.60100000  0.50290000  1.0 0.3148587422
C  C289  1  0.43030000  0.50270000  0.70220000  1.0 0.0399994297
C  C290  1  0.35910000  0.41970000  0.72880000  1.0 -0.1908355396
C  C291  1  0.31300000  0.42600000  0.75480000  1.0 0.0603223051
C  C292  1  0.33930000  0.51330000  0.75470000  1.0 -0.1502307584
C  C293  1  0.41080000  0.59320000  0.72780000  1.0 0.0603223051
C  C294  1  0.06290000  0.93230000  0.84220000  1.0 0.0895222992
C  C295  1  0.09100000  0.02500000  0.84550000  1.0 -0.1695907722
C  C296  1  0.11720000  0.08520000  0.80600000  1.0 0.0694993337
C  C297  1  0.12280000  0.05940000  0.76950000  1.0 -0.1502307584
C  C298  1  0.09750000  0.97050000  0.77020000  1.0 0.0694993337
C  C299  1  0.06230000  0.36610000  0.89580000  1.0 0.010572636
C  C300  1  0.10250000  0.35850000  0.86480000  1.0 -0.1502307584
C  C301  1  0.09760000  0.28280000  0.87060000  1.0 0.0603223051
C  C302  1  0.04980000  0.21340000  0.90560000  1.0 -0.234085597
C  C303  1  0.01630000  0.22830000  0.93520000  1.0 -0.04901789
C  C304  1  0.23510000  0.33710000  0.78260000  1.0 0.369169367
C  C305  1  0.14430000  0.17930000  0.80720000  1.0 0.369169367
C  C306  1  0.13730000  0.27190000  0.83770000  1.0 0.3469498183
C  C307  1  0.75300000  0.18560000  0.94560000  1.0 0.0603223051
C  C308  1  0.65680000  0.10320000  0.94290000  1.0 -0.1695907722
C  C309  1  0.62410000  0.01730000  0.96690000  1.0 0.0801248309
C  C310  1  0.69240000  0.01920000  0.99360000  1.0 -0.2196009804
C  C311  1  0.79180000  0.10460000  0.99410000  1.0 -0.017752793
C  C312  1  0.41810000  0.64030000  0.09870000  1.0 0.0503107081
C  C313  1  0.44480000  0.71220000  0.06530000  1.0 -0.199449083
C  C314  1  0.37300000  0.70300000  0.03930000  1.0 0.0694993337
C  C315  1  0.27600000  0.62280000  0.04660000  1.0 -0.1908355396
C  C316  1  0.25490000  0.55390000  0.08160000  1.0 0.0895222992
C  C317  1  0.11340000  0.73900000  0.89300000  1.0 0.0694993337
C  C318  1  0.18340000  0.74820000  0.92140000  1.0 -0.1695907722
C  C319  1  0.28280000  0.82820000  0.91350000  1.0 0.0603223051
C  C320  1  0.30620000  0.89260000  0.87640000  1.0 -0.160521471
C  C321  1  0.22780000  0.87200000  0.84870000  1.0 0.099919818
C  C322  1  0.51730000  0.92550000  0.96740000  1.0 0.3193810658
C  C323  1  0.40180000  0.78040000  0.00310000  1.0 0.3469498183
C  C324  1  0.35910000  0.84070000  0.94550000  1.0 0.3387519286
I  I1  1  0.37395000  0.33021000  0.88163000  1.0 -0.5114518478
I  I2  1  0.36600000  0.13780000  0.80830000  1.0 -0.4553133919
I  I3  1  0.99601000  0.53079000  0.53991000  1.0 -0.0027914785
I  I4  1  0.96530000  0.71790000  0.44470000  1.0 -0.2105722742
I  I5  1  0.94470000  0.22630000  0.76190000  1.0 -0.010079769
I  I6  1  0.13590000  0.36110000  0.64910000  1.0 -0.0992093835
I  I7  1  0.75883000  0.05517000  0.26202000  1.0 -0.3844834044
I  I8  1  0.64753000  0.86307000  0.15220000  1.0 -0.4288703202
I  I9  1  0.67361000  0.62709000  0.38092000  1.0 -0.497393675
I  I10  1  0.85944000  0.62776000  0.30879000  1.0 -0.0579190593
I  I11  1  0.28668000  0.03072000  0.94458000  1.0 -0.0992093835
I  I12  1  0.46867000  0.00233000  0.04412000  1.0 0.010572636
I  I13  1  0.38300000  0.14860000  0.80920000  1.0 -0.4288703202
I  I14  1  0.01020000  0.53680000  0.55140000  1.0 0.0191178055
I  I15  1  0.97030000  0.70630000  0.44700000  1.0 -0.160521471
I  I16  1  0.93750000  0.23810000  0.76360000  1.0 -0.017752793
I  I17  1  0.12977000  0.34463000  0.65685000  1.0 -0.0901130301
I  I18  1  0.76840000  0.06480000  0.26340000  1.0 -0.403768666
I  I19  1  0.65360000  0.87580000  0.15750000  1.0 -0.3478359654
I  I20  1  0.85370000  0.61170000  0.30100000  1.0 -0.0992093835
I  I21  1  0.30320000  0.04200000  0.95300000  1.0 -0.0579190593
I  I22  1  0.46380000  0.98160000  0.05450000  1.0 0.0603223051
I  I23  1  0.33021000  0.37395000  0.11837000  1.0 -0.5114518478
I  I24  1  0.13780000  0.36600000  0.19170000  1.0 -0.4553133919
I  I25  1  0.53079000  0.99601000  0.46009000  1.0 -0.0027914785
I  I26  1  0.71790000  0.96530000  0.55530000  1.0 -0.199449083
I  I27  1  0.22630000  0.94470000  0.23810000  1.0 -0.010079769
I  I28  1  0.36110000  0.13590000  0.35090000  1.0 -0.0901130301
I  I29  1  0.05517000  0.75883000  0.73798000  1.0 -0.3844834044
I  I30  1  0.86307000  0.64753000  0.84780000  1.0 -0.4288703202
I  I31  1  0.62709000  0.67361000  0.61908000  1.0 -0.497393675
I  I32  1  0.62776000  0.85944000  0.69121000  1.0 -0.0579190593
I  I33  1  0.03072000  0.28668000  0.05542000  1.0 -0.0992093835
I  I34  1  0.00233000  0.46867000  0.95588000  1.0 0.0028156567
I  I35  1  0.14860000  0.38300000  0.19080000  1.0 -0.4288703202
I  I36  1  0.53680000  0.01020000  0.44860000  1.0 0.0191178055
I  I37  1  0.70630000  0.97030000  0.55300000  1.0 -0.160521471
I  I38  1  0.23810000  0.93750000  0.23640000  1.0 -0.010079769
I  I39  1  0.34463000  0.12977000  0.34315000  1.0 -0.0901130301
I  I40  1  0.06480000  0.76840000  0.73660000  1.0 -0.403768666
I  I41  1  0.87580000  0.65360000  0.84250000  1.0 -0.3478359654
I  I42  1  0.61170000  0.85370000  0.69900000  1.0 -0.0992093835
I  I43  1  0.04200000  0.30320000  0.04700000  1.0 -0.0579190593
I  I44  1  0.98160000  0.46380000  0.94550000  1.0 0.0603223051
N  N1  1  0.93580000  0.81820000  0.95200000  1.0 0.1771486477
N  N2  1  0.81820000  0.93580000  0.04800000  1.0 0.1771486477
N  N3  1  0.54670000  0.41410000  0.79910000  1.0 -0.18010106
N  N4  1  0.92970000  0.08870000  0.69310000  1.0 -0.199449083
N  N5  1  0.97840000  0.70020000  0.56870000  1.0 -0.199449083
N  N6  1  0.79330000  0.74770000  0.72240000  1.0 -0.4288703202
N  N7  1  0.89210000  0.81450000  0.66230000  1.0 -0.4457803442
N  N8  1  0.79640000  0.64720000  0.68850000  1.0 -0.3844834044
N  N9  1  0.17860000  0.81100000  0.52770000  1.0 -0.18010106
N  N10  1  0.86360000  0.20000000  0.64430000  1.0 -0.18010106
N  N11  1  0.67610000  0.43670000  0.39120000  1.0 -0.18010106
N  N12  1  0.54550000  0.07870000  0.56180000  1.0 -0.420898456
N  N13  1  0.67150000  0.23130000  0.52270000  1.0 -0.420898456
N  N14  1  0.50320000  0.14340000  0.50030000  1.0 -0.4114413086
N  N15  1  0.58760000  0.45360000  0.29890000  1.0 -0.199449083
N  N16  1  0.90870000  0.06750000  0.19280000  1.0 -0.1908355396
N  N17  1  0.30160000  0.02180000  0.06950000  1.0 -0.1908355396
N  N18  1  0.25240000  0.20640000  0.22190000  1.0 -0.3920295759
N  N19  1  0.18440000  0.10900000  0.16260000  1.0 -0.3920295759
N  N20  1  0.35110000  0.20150000  0.18880000  1.0 -0.4114413086
N  N21  1  0.18950000  0.82110000  0.02800000  1.0 -0.199449083
N  N22  1  0.56420000  0.32420000  0.89260000  1.0 -0.18010106
N  N23  1  0.79880000  0.13560000  0.14370000  1.0 -0.18010106
N  N24  1  0.85530000  0.49590000  0.00150000  1.0 -0.420898456
N  N25  1  0.76940000  0.32960000  0.02270000  1.0 -0.4114413086
N  N26  1  0.92090000  0.45310000  0.06090000  1.0 -0.420898456
N  N27  1  0.41410000  0.54670000  0.20090000  1.0 -0.18010106
N  N28  1  0.08870000  0.92970000  0.30690000  1.0 -0.199449083
N  N29  1  0.70020000  0.97840000  0.43130000  1.0 -0.199449083
N  N30  1  0.74770000  0.79330000  0.27760000  1.0 -0.4288703202
N  N31  1  0.81450000  0.89210000  0.33770000  1.0 -0.4457803442
N  N32  1  0.64720000  0.79640000  0.31150000  1.0 -0.3844834044
N  N33  1  0.81100000  0.17860000  0.47230000  1.0 -0.18010106
N  N34  1  0.20000000  0.86360000  0.35570000  1.0 -0.18010106
N  N35  1  0.43670000  0.67610000  0.60880000  1.0 -0.18010106
N  N36  1  0.07870000  0.54550000  0.43820000  1.0 -0.420898456
N  N37  1  0.23130000  0.67150000  0.47730000  1.0 -0.420898456
N  N38  1  0.14340000  0.50320000  0.49970000  1.0 -0.4114413086
N  N39  1  0.45360000  0.58760000  0.70110000  1.0 -0.199449083
N  N40  1  0.06750000  0.90870000  0.80720000  1.0 -0.1908355396
N  N41  1  0.02180000  0.30160000  0.93050000  1.0 -0.1908355396
N  N42  1  0.20640000  0.25240000  0.77810000  1.0 -0.3920295759
N  N43  1  0.10900000  0.18440000  0.83740000  1.0 -0.3920295759
N  N44  1  0.20150000  0.35110000  0.81120000  1.0 -0.4114413086
N  N45  1  0.82110000  0.18950000  0.97200000  1.0 -0.199449083
N  N46  1  0.32420000  0.56420000  0.10740000  1.0 -0.18010106
N  N47  1  0.13560000  0.79880000  0.85630000  1.0 -0.18010106
N  N48  1  0.49590000  0.85530000  0.99850000  1.0 -0.420898456
N  N49  1  0.32960000  0.76940000  0.97730000  1.0 -0.4114413086
N  N50  1  0.45310000  0.92090000  0.93910000  1.0 -0.420898456
O  O1  1  0.85090000  0.74110000  0.95100000  1.0 -0.079892159
O  O2  1  0.98900000  0.83700000  0.92500000  1.0 -0.4288703202
O  O3  1  0.74110000  0.85090000  0.04900000  1.0 -0.079892159
O  O4  1  0.83700000  0.98900000  0.07500000  1.0 -0.4288703202
