# DDEC6 charges by PACMAN v1.1 (https://github.com/mtap-research/PACMAN-charge/)
data_CARKEO_ASR_pacman
_symmetry_space_group_name_H-M   'P 1'
_cell_length_a   19.04780000
_cell_length_b   19.04780000
_cell_length_c   31.22580000
_cell_angle_alpha   79.25310000
_cell_angle_beta   100.74700000
_cell_angle_gamma   134.24100000
_symmetry_Int_Tables_number   1
_chemical_formula_structural   Zn6H104C104I17N24
_chemical_formula_sum   'Zn12 H208 C208 I34 N48'
_cell_volume   7948.46530935
_cell_formula_units_Z   2
loop_
 _symmetry_equiv_pos_site_id
 _symmetry_equiv_pos_as_xyz
  1  'x, y, z'
loop_
 _atom_site_type_symbol
 _atom_site_label
 _atom_site_symmetry_multiplicity
 _atom_site_fract_x
 _atom_site_fract_y
 _atom_site_fract_z
 _atom_site_occupancy
 _atom_site_charge
Zn  Zn1  1  0.00966000  0.25760000  0.68590000  1.0 0.3500394081
Zn  Zn2  1  0.54751000  0.20335000  0.52126000  1.0 0.2659793154
Zn  Zn3  1  0.68969000  0.52641000  0.34510000  1.0 0.2521361366
Zn  Zn4  1  0.20495000  0.45417000  0.18600000  1.0 0.4674113944
Zn  Zn5  1  0.26085000  0.91635000  0.02162000  1.0 0.4329998151
Zn  Zn6  1  0.93552000  0.77344000  0.84541000  1.0 0.4621464864
Zn  Zn7  1  0.25760000  0.00966000  0.31410000  1.0 0.3500394081
Zn  Zn8  1  0.20335000  0.54751000  0.47874000  1.0 0.2635738209
Zn  Zn9  1  0.52641000  0.68969000  0.65490000  1.0 0.2521361366
Zn  Zn10  1  0.45417000  0.20495000  0.81400000  1.0 0.4674113944
Zn  Zn11  1  0.91635000  0.26085000  0.97838000  1.0 0.4329998151
Zn  Zn12  1  0.77344000  0.93552000  0.15459000  1.0 0.4621464864
H  H1  1  0.88140000  0.64460000  0.78230000  1.0 0.0993364113
H  H2  1  0.74590000  0.52390000  0.73350000  1.0 0.1318310943
H  H3  1  0.59410000  0.57710000  0.76610000  1.0 0.1318310943
H  H4  1  0.72790000  0.69370000  0.81490000  1.0 0.0993364113
H  H5  1  0.18540000  0.33340000  0.75070000  1.0 0.0993364113
H  H6  1  0.33390000  0.37390000  0.75540000  1.0 0.1377769813
H  H7  1  0.26520000  0.30520000  0.63080000  1.0 0.1318310943
H  H8  1  0.13640000  0.29920000  0.62660000  1.0 0.0796184434
H  H9  1  0.40890000  0.21550000  0.54290000  1.0 0.0993364113
H  H10  1  0.40500000  0.29520000  0.58620000  1.0 0.1318310943
H  H11  1  0.63330000  0.35330000  0.66130000  1.0 0.1318310943
H  H12  1  0.65450000  0.29910000  0.60750000  1.0 0.0796184434
H  H13  1  0.47740000  0.01060000  0.56710000  1.0 0.0993364113
H  H14  1  0.33690000  0.84210000  0.57480000  1.0 0.1377769813
H  H15  1  0.19490000  0.90850000  0.49450000  1.0 0.1377769813
H  H16  1  0.33600000  0.06880000  0.48980000  1.0 0.0796184434
H  H17  1  0.92270000  0.27650000  0.60010000  1.0 0.0710855635
H  H18  1  0.93440000  0.39060000  0.55190000  1.0 0.1075637337
H  H19  1  0.17450000  0.60490000  0.62920000  1.0 0.1318310943
H  H20  1  0.14400000  0.47420000  0.67670000  1.0 0.0710855635
H  H21  1  0.88910000  0.69710000  0.38030000  1.0 0.0796184434
H  H22  1  0.98450000  0.74050000  0.44550000  1.0 0.119239675
H  H23  1  0.84760000  0.45620000  0.47160000  1.0 0.119239675
H  H24  1  0.73000000  0.41740000  0.41430000  1.0 0.0710855635
H  H25  1  0.82410000  0.58710000  0.28030000  1.0 0.0993364113
H  H26  1  0.93780000  0.71500000  0.23530000  1.0 0.1494507428
H  H27  1  0.88470000  0.86810000  0.27150000  1.0 0.1377769813
H  H28  1  0.76900000  0.72720000  0.31380000  1.0 0.0796184434
H  H29  1  0.21830000  0.03090000  0.03320000  1.0 0.0993364113
H  H30  1  0.17590000  0.06390000  0.08780000  1.0 0.1377769813
H  H31  1  0.09290000  0.81890000  0.15660000  1.0 0.1377769813
H  H32  1  0.17740000  0.82240000  0.10970000  1.0 0.1075637337
H  H33  1  0.13280000  0.27860000  0.25280000  1.0 0.0993364113
H  H34  1  0.08990000  0.13030000  0.25450000  1.0 0.1318310943
H  H35  1  0.12310000  0.17530000  0.12470000  1.0 0.1318310943
H  H36  1  0.19370000  0.33630000  0.12960000  1.0 0.0993364113
H  H37  1  0.18540000  0.54580000  0.09790000  1.0 0.1075637337
H  H38  1  0.06090000  0.52150000  0.05160000  1.0 0.119239675
H  H39  1  0.86370000  0.28750000  0.12920000  1.0 0.1377769813
H  H40  1  0.98580000  0.31040000  0.17370000  1.0 0.1075637337
H  H41  1  0.45390000  0.98170000  0.06980000  1.0 0.0993364113
H  H42  1  0.61810000  0.12690000  0.07600000  1.0 0.1318310943
H  H43  1  0.56010000  0.27230000  0.98950000  1.0 0.1318310943
H  H44  1  0.39340000  0.12380000  0.99160000  1.0 0.0993364113
H  H45  1  0.76580000  0.59380000  0.89040000  1.0 0.1075637337
H  H46  1  0.72360000  0.45280000  0.93280000  1.0 0.1318310943
H  H47  1  0.00980000  0.62160000  0.97260000  1.0 0.1318310943
H  H48  1  0.04370000  0.72990000  0.91200000  1.0 0.1075637337
H  H49  1  0.64460000  0.88140000  0.21770000  1.0 0.0993364113
H  H50  1  0.52390000  0.74590000  0.26650000  1.0 0.1318310943
H  H51  1  0.57710000  0.59410000  0.23390000  1.0 0.1318310943
H  H52  1  0.69370000  0.72790000  0.18510000  1.0 0.0993364113
H  H53  1  0.33340000  0.18540000  0.24930000  1.0 0.0993364113
H  H54  1  0.37390000  0.33390000  0.24460000  1.0 0.1377769813
H  H55  1  0.30520000  0.26520000  0.36920000  1.0 0.1318310943
H  H56  1  0.29920000  0.13640000  0.37340000  1.0 0.0796184434
H  H57  1  0.21550000  0.40890000  0.45710000  1.0 0.0993364113
H  H58  1  0.29520000  0.40500000  0.41380000  1.0 0.1318310943
H  H59  1  0.35330000  0.63330000  0.33870000  1.0 0.1318310943
H  H60  1  0.29910000  0.65450000  0.39250000  1.0 0.0796184434
H  H61  1  0.01060000  0.47740000  0.43290000  1.0 0.0993364113
H  H62  1  0.84210000  0.33690000  0.42520000  1.0 0.1377769813
H  H63  1  0.90850000  0.19490000  0.50550000  1.0 0.1318310943
H  H64  1  0.06880000  0.33600000  0.51020000  1.0 0.0796184434
H  H65  1  0.27650000  0.92270000  0.39990000  1.0 0.0710855635
H  H66  1  0.39060000  0.93440000  0.44810000  1.0 0.1075637337
H  H67  1  0.60490000  0.17450000  0.37080000  1.0 0.1318310943
H  H68  1  0.47420000  0.14400000  0.32330000  1.0 0.0796184434
H  H69  1  0.69710000  0.88910000  0.61970000  1.0 0.0796184434
H  H70  1  0.74050000  0.98450000  0.55450000  1.0 0.119239675
H  H71  1  0.45620000  0.84760000  0.52840000  1.0 0.119239675
H  H72  1  0.41740000  0.73000000  0.58570000  1.0 0.0710855635
H  H73  1  0.58710000  0.82410000  0.71970000  1.0 0.0993364113
H  H74  1  0.71500000  0.93780000  0.76470000  1.0 0.1494507428
H  H75  1  0.86810000  0.88470000  0.72850000  1.0 0.1377769813
H  H76  1  0.72720000  0.76900000  0.68620000  1.0 0.0796184434
H  H77  1  0.03090000  0.21830000  0.96680000  1.0 0.0993364113
H  H78  1  0.06390000  0.17590000  0.91220000  1.0 0.1377769813
H  H79  1  0.81890000  0.09290000  0.84340000  1.0 0.1377769813
H  H80  1  0.82240000  0.17740000  0.89030000  1.0 0.1075637337
H  H81  1  0.27860000  0.13280000  0.74720000  1.0 0.0993364113
H  H82  1  0.13030000  0.08990000  0.74550000  1.0 0.1318310943
H  H83  1  0.17530000  0.12310000  0.87530000  1.0 0.1318310943
H  H84  1  0.33630000  0.19370000  0.87040000  1.0 0.0993364113
H  H85  1  0.54580000  0.18540000  0.90210000  1.0 0.1075637337
H  H86  1  0.52150000  0.06090000  0.94840000  1.0 0.119239675
H  H87  1  0.28750000  0.86370000  0.87080000  1.0 0.1377769813
H  H88  1  0.31040000  0.98580000  0.82630000  1.0 0.1075637337
H  H89  1  0.98170000  0.45390000  0.93020000  1.0 0.0993364113
H  H90  1  0.12690000  0.61810000  0.92400000  1.0 0.1318310943
H  H91  1  0.27230000  0.56010000  0.01050000  1.0 0.1318310943
H  H92  1  0.12380000  0.39340000  0.00840000  1.0 0.0993364113
H  H93  1  0.59380000  0.76580000  0.10960000  1.0 0.1075637337
H  H94  1  0.45280000  0.72360000  0.06720000  1.0 0.1318310943
H  H95  1  0.62160000  0.00980000  0.02740000  1.0 0.1318310943
H  H96  1  0.72990000  0.04370000  0.08800000  1.0 0.1075637337
H  H97  1  0.86860000  0.52600000  0.21020000  1.0 0.0993364113
H  H98  1  0.87880000  0.44740000  0.21450000  1.0 0.119239675
H  H99  1  0.87350000  0.45550000  0.28640000  1.0 0.0993364113
H  H100  1  0.10300000  0.73380000  0.29950000  1.0 0.0896788922
H  H101  1  0.15070000  0.68790000  0.30600000  1.0 0.1075637337
H  H102  1  0.15050000  0.70990000  0.23430000  1.0 0.0896788922
H  H103  1  0.07640000  0.72300000  0.22920000  1.0 0.1075637337
H  H104  1  0.03480000  0.55800000  0.22480000  1.0 0.1494507428
H  H105  1  0.07260000  0.65660000  0.36020000  1.0 0.0710855635
H  H106  1  0.97630000  0.54370000  0.37110000  1.0 0.050174261
H  H107  1  0.96630000  0.62010000  0.35040000  1.0 0.0896788922
H  H108  1  0.17890000  0.66490000  0.20430000  1.0 0.1075637337
H  H109  1  0.19390000  0.73770000  0.16340000  1.0 0.0896788922
H  H110  1  0.17440000  0.64420000  0.15610000  1.0 0.1318310943
H  H111  1  0.93680000  0.57900000  0.13090000  1.0 0.0710855635
H  H112  1  0.02010000  0.60650000  0.10340000  1.0 0.1075637337
H  H113  1  0.86220000  0.24920000  0.27840000  1.0 0.119239675
H  H114  1  0.79770000  0.17170000  0.31860000  1.0 0.0993364113
H  H115  1  0.77920000  0.27200000  0.32850000  1.0 0.0993364113
H  H116  1  0.03950000  0.49830000  0.29820000  1.0 0.119239675
H  H117  1  0.04980000  0.52760000  0.34610000  1.0 0.0796184434
H  H118  1  0.98930000  0.37570000  0.37980000  1.0 0.0796184434
H  H119  1  0.07620000  0.41800000  0.35320000  1.0 0.1075637337
H  H120  1  0.91390000  0.25130000  0.36550000  1.0 0.0796184434
H  H121  1  0.97060000  0.55320000  0.33000000  1.0 0.0300911094
H  H122  1  0.89910000  0.47790000  0.36790000  1.0 0.0710855635
H  H123  1  0.85420000  0.48300000  0.32000000  1.0 0.0406619628
H  H124  1  0.01480000  0.28060000  0.41250000  1.0 0.0993364113
H  H125  1  0.10000000  0.29000000  0.40140000  1.0 0.119239675
H  H126  1  0.99600000  0.18420000  0.41380000  1.0 0.1318310943
H  H127  1  0.97950000  0.19610000  0.29560000  1.0 0.1494507428
H  H128  1  0.03050000  0.17350000  0.33700000  1.0 0.1494507428
H  H129  1  0.92610000  0.76570000  0.09030000  1.0 0.0896788922
H  H130  1  0.84170000  0.72970000  0.05130000  1.0 0.0993364113
H  H131  1  0.82750000  0.55590000  0.15520000  1.0 0.0896788922
H  H132  1  0.91220000  0.67360000  0.14880000  1.0 0.0896788922
H  H133  1  0.76910000  0.55830000  0.07770000  1.0 0.0896788922
H  H134  1  0.75560000  0.60740000  0.10800000  1.0 0.0896788922
H  H135  1  0.89830000  0.53510000  0.11580000  1.0 0.0993364113
H  H136  1  0.99550000  0.63850000  0.13400000  1.0 0.0896788922
H  H137  1  0.02840000  0.69800000  0.06860000  1.0 0.0896788922
H  H138  1  0.92840000  0.59820000  0.05080000  1.0 0.0896788922
H  H139  1  0.88580000  0.67180000  0.01560000  1.0 0.0993364113
H  H140  1  0.98960000  0.77380000  0.03190000  1.0 0.0993364113
H  H141  1  0.48990000  0.93930000  0.14180000  1.0 0.0896788922
H  H142  1  0.51340000  0.87120000  0.15600000  1.0 0.0896788922
H  H143  1  0.57380000  0.94220000  0.21940000  1.0 0.0896788922
H  H144  1  0.51320000  0.97380000  0.21050000  1.0 0.0896788922
H  H145  1  0.46280000  0.85720000  0.27370000  1.0 0.0896788922
H  H146  1  0.42720000  0.77760000  0.24290000  1.0 0.0796184434
H  H147  1  0.28040000  0.72860000  0.24290000  1.0 0.0896788922
H  H148  1  0.32870000  0.83510000  0.25320000  1.0 0.0993364113
H  H149  1  0.25410000  0.78930000  0.17470000  1.0 0.050174261
H  H150  1  0.36270000  0.89770000  0.17920000  1.0 0.0796184434
H  H151  1  0.33420000  0.77340000  0.13500000  1.0 0.0993364113
H  H152  1  0.35450000  0.73910000  0.18310000  1.0 0.0896788922
H  H153  1  0.52600000  0.86860000  0.78980000  1.0 0.0993364113
H  H154  1  0.44740000  0.87880000  0.78550000  1.0 0.119239675
H  H155  1  0.45550000  0.87350000  0.71360000  1.0 0.0993364113
H  H156  1  0.73380000  0.10300000  0.70050000  1.0 0.0896788922
H  H157  1  0.68790000  0.15070000  0.69400000  1.0 0.1075637337
H  H158  1  0.70990000  0.15050000  0.76570000  1.0 0.0896788922
H  H159  1  0.72300000  0.07640000  0.77080000  1.0 0.1075637337
H  H160  1  0.55800000  0.03480000  0.77520000  1.0 0.1494507428
H  H161  1  0.65660000  0.07260000  0.63980000  1.0 0.0710855635
H  H162  1  0.54370000  0.97630000  0.62890000  1.0 0.050174261
H  H163  1  0.62010000  0.96630000  0.64960000  1.0 0.0896788922
H  H164  1  0.66490000  0.17890000  0.79570000  1.0 0.1075637337
H  H165  1  0.73770000  0.19390000  0.83660000  1.0 0.0896788922
H  H166  1  0.64420000  0.17440000  0.84390000  1.0 0.1318310943
H  H167  1  0.57900000  0.93680000  0.86910000  1.0 0.0710855635
H  H168  1  0.60650000  0.02010000  0.89660000  1.0 0.1075637337
H  H169  1  0.24920000  0.86220000  0.72160000  1.0 0.119239675
H  H170  1  0.17170000  0.79770000  0.68140000  1.0 0.0993364113
H  H171  1  0.27200000  0.77920000  0.67150000  1.0 0.0993364113
H  H172  1  0.49830000  0.03950000  0.70180000  1.0 0.119239675
H  H173  1  0.52760000  0.04980000  0.65390000  1.0 0.0796184434
H  H174  1  0.37570000  0.98930000  0.62020000  1.0 0.0796184434
H  H175  1  0.41800000  0.07620000  0.64680000  1.0 0.1075637337
H  H176  1  0.25130000  0.91390000  0.63450000  1.0 0.0796184434
H  H177  1  0.55320000  0.97060000  0.67000000  1.0 0.0300911094
H  H178  1  0.47790000  0.89910000  0.63210000  1.0 0.0710855635
H  H179  1  0.48300000  0.85420000  0.68000000  1.0 0.0406619628
H  H180  1  0.28060000  0.01480000  0.58750000  1.0 0.0993364113
H  H181  1  0.29000000  0.10000000  0.59860000  1.0 0.119239675
H  H182  1  0.18420000  0.99600000  0.58620000  1.0 0.1318310943
H  H183  1  0.19610000  0.97950000  0.70440000  1.0 0.1494507428
H  H184  1  0.17350000  0.03050000  0.66300000  1.0 0.1494507428
H  H185  1  0.76570000  0.92610000  0.90970000  1.0 0.0896788922
H  H186  1  0.72970000  0.84170000  0.94870000  1.0 0.0896788922
H  H187  1  0.55590000  0.82750000  0.84480000  1.0 0.0896788922
H  H188  1  0.67360000  0.91220000  0.85120000  1.0 0.0896788922
H  H189  1  0.55830000  0.76910000  0.92230000  1.0 0.0896788922
H  H190  1  0.60740000  0.75560000  0.89200000  1.0 0.0896788922
H  H191  1  0.53510000  0.89830000  0.88420000  1.0 0.0993364113
H  H192  1  0.63850000  0.99550000  0.86600000  1.0 0.0896788922
H  H193  1  0.69800000  0.02840000  0.93140000  1.0 0.0896788922
H  H194  1  0.59820000  0.92840000  0.94920000  1.0 0.0896788922
H  H195  1  0.67180000  0.88580000  0.98440000  1.0 0.0993364113
H  H196  1  0.77380000  0.98960000  0.96810000  1.0 0.0993364113
H  H197  1  0.93930000  0.48990000  0.85820000  1.0 0.0896788922
H  H198  1  0.87120000  0.51340000  0.84400000  1.0 0.0896788922
H  H199  1  0.94220000  0.57380000  0.78060000  1.0 0.0896788922
H  H200  1  0.97380000  0.51320000  0.78950000  1.0 0.0896788922
H  H201  1  0.85720000  0.46280000  0.72630000  1.0 0.0896788922
H  H202  1  0.77760000  0.42720000  0.75710000  1.0 0.0796184434
H  H203  1  0.72860000  0.28040000  0.75710000  1.0 0.0896788922
H  H204  1  0.83510000  0.32870000  0.74680000  1.0 0.0993364113
H  H205  1  0.78930000  0.25410000  0.82530000  1.0 0.050174261
H  H206  1  0.89770000  0.36270000  0.82080000  1.0 0.0796184434
H  H207  1  0.77340000  0.33420000  0.86500000  1.0 0.0993364113
H  H208  1  0.73910000  0.35450000  0.81690000  1.0 0.0896788922
C  C1  1  0.82230000  0.63070000  0.77920000  1.0 0.0896788922
C  C2  1  0.74160000  0.55780000  0.75000000  1.0 -0.1687478002
C  C3  1  0.65590000  0.54070000  0.74770000  1.0 0.050174261
C  C4  1  0.65220000  0.58900000  0.76940000  1.0 -0.1304801449
C  C5  1  0.73260000  0.66020000  0.79840000  1.0 0.050174261
C  C6  1  0.20400000  0.33020000  0.72550000  1.0 0.0796184434
C  C7  1  0.29310000  0.35450000  0.72880000  1.0 -0.1599530369
C  C8  1  0.31980000  0.34960000  0.69210000  1.0 0.0406619628
C  C9  1  0.25440000  0.31840000  0.65540000  1.0 -0.1687478002
C  C10  1  0.17200000  0.30580000  0.65380000  1.0 0.0710855635
C  C11  1  0.46010000  0.25090000  0.56530000  1.0 0.0406619628
C  C12  1  0.45350000  0.29210000  0.59250000  1.0 -0.1505702302
C  C13  1  0.51770000  0.33050000  0.63020000  1.0 0.050174261
C  C14  1  0.58970000  0.32990000  0.63560000  1.0 -0.1377439111
C  C15  1  0.60140000  0.29540000  0.60380000  1.0 0.050174261
C  C16  1  0.57370000  0.46750000  0.71720000  1.0 0.369902363
C  C17  1  0.40980000  0.37440000  0.69220000  1.0 0.3500394081
C  C18  1  0.50860000  0.37220000  0.66100000  1.0 0.3615799427
C  C19  1  0.41760000  0.98820000  0.55170000  1.0 0.0607771408
C  C20  1  0.33450000  0.88650000  0.55670000  1.0 -0.1986864222
C  C21  1  0.24830000  0.85550000  0.53320000  1.0 0.0607771408
C  C22  1  0.25340000  0.92740000  0.50970000  1.0 -0.1505702302
C  C23  1  0.33630000  0.02230000  0.50710000  1.0 0.0137590433
C  C24  1  0.97340000  0.34380000  0.60580000  1.0 0.0710855635
C  C25  1  0.98030000  0.41050000  0.57670000  1.0 -0.1902033556
C  C26  1  0.05950000  0.51250000  0.58470000  1.0 0.0896788922
C  C27  1  0.12220000  0.53840000  0.62240000  1.0 -0.1902033556
C  C28  1  0.10360000  0.45960000  0.65020000  1.0 0.0710855635
C  C29  1  0.87560000  0.64660000  0.40140000  1.0 0.0607771408
C  C30  1  0.93990000  0.67530000  0.43700000  1.0 -0.1687478002
C  C31  1  0.93760000  0.60180000  0.46160000  1.0 0.0607771408
C  C32  1  0.85680000  0.50780000  0.45360000  1.0 -0.1599530369
C  C33  1  0.78580000  0.48440000  0.41930000  1.0 0.0406619628
C  C34  1  0.15720000  0.74940000  0.53390000  1.0 0.3393817127
C  C35  1  0.07210000  0.59150000  0.55380000  1.0 0.3305299238
C  C36  1  0.01020000  0.62880000  0.49840000  1.0 0.3393817127
C  C37  1  0.83630000  0.64530000  0.27770000  1.0 -0.003436764
C  C38  1  0.90420000  0.72100000  0.25090000  1.0 -0.1687478002
C  C39  1  0.92490000  0.80550000  0.24600000  1.0 0.0710855635
C  C40  1  0.87270000  0.81050000  0.27200000  1.0 -0.1788344196
C  C41  1  0.80490000  0.72570000  0.29710000  1.0 0.0710855635
C  C42  1  0.20160000  0.99380000  0.06080000  1.0 0.0710855635
C  C43  1  0.17030000  0.00950000  0.09200000  1.0 -0.1687478002
C  C44  1  0.13120000  0.94540000  0.12870000  1.0 0.0710855635
C  C45  1  0.12630000  0.86950000  0.13370000  1.0 -0.1599530369
C  C46  1  0.17200000  0.86920000  0.10420000  1.0 0.050174261
C  C47  1  0.13570000  0.26030000  0.22730000  1.0 0.0607771408
C  C48  1  0.11000000  0.17240000  0.22830000  1.0 -0.1599530369
C  C49  1  0.11320000  0.14480000  0.19140000  1.0 0.0710855635
C  C50  1  0.13240000  0.19840000  0.15150000  1.0 -0.1377439111
C  C51  1  0.16680000  0.29080000  0.15470000  1.0 0.0796184434
C  C52  1  0.00290000  0.89630000  0.21830000  1.0 0.3500394081
C  C53  1  0.09400000  0.95700000  0.16220000  1.0 0.369902363
C  C54  1  0.08500000  0.04760000  0.19250000  1.0 0.3615799427
C  C55  1  0.11910000  0.49270000  0.10480000  1.0 0.050174261
C  C56  1  0.04460000  0.47800000  0.07710000  1.0 -0.1505702302
C  C57  1  0.94980000  0.40380000  0.08560000  1.0 0.0300911094
C  C58  1  0.93000000  0.34140000  0.12240000  1.0 -0.1599530369
C  C59  1  0.00280000  0.35580000  0.14900000  1.0 0.0710855635
C  C60  1  0.47520000  0.04100000  0.05420000  1.0 0.0406619628
C  C61  1  0.57330000  0.12770000  0.05710000  1.0 -0.1505702302
C  C62  1  0.60910000  0.21410000  0.03440000  1.0 0.0607771408
C  C63  1  0.54050000  0.21530000  0.00680000  1.0 -0.1788344196
C  C64  1  0.44130000  0.12450000  0.00770000  1.0 0.0896788922
C  C65  1  0.81460000  0.59320000  0.90360000  1.0 0.0607771408
C  C66  1  0.78910000  0.51530000  0.93320000  1.0 -0.1377439111
C  C67  1  0.85910000  0.53050000  0.96210000  1.0 0.0607771408
C  C68  1  0.95830000  0.61170000  0.95420000  1.0 -0.1788344196
C  C69  1  0.97730000  0.67630000  0.91880000  1.0 0.0796184434
C  C70  1  0.87500000  0.39160000  0.05660000  1.0 0.3615799427
C  C71  1  0.71490000  0.30590000  0.03210000  1.0 0.3615799427
C  C72  1  0.83010000  0.45050000  0.99780000  1.0 0.369902363
C  C73  1  0.63070000  0.82230000  0.22080000  1.0 0.0896788922
C  C74  1  0.55780000  0.74160000  0.25000000  1.0 -0.1687478002
C  C75  1  0.54070000  0.65590000  0.25230000  1.0 0.050174261
C  C76  1  0.58900000  0.65220000  0.23060000  1.0 -0.1304801449
C  C77  1  0.66020000  0.73260000  0.20160000  1.0 0.050174261
C  C78  1  0.33020000  0.20400000  0.27450000  1.0 0.0710855635
C  C79  1  0.35450000  0.29310000  0.27120000  1.0 -0.1599530369
C  C80  1  0.34960000  0.31980000  0.30790000  1.0 0.0406619628
C  C81  1  0.31840000  0.25440000  0.34460000  1.0 -0.1687478002
C  C82  1  0.30580000  0.17200000  0.34620000  1.0 0.0710855635
C  C83  1  0.25090000  0.46010000  0.43470000  1.0 0.0406619628
C  C84  1  0.29210000  0.45350000  0.40750000  1.0 -0.1505702302
C  C85  1  0.33050000  0.51770000  0.36980000  1.0 0.050174261
C  C86  1  0.32990000  0.58970000  0.36440000  1.0 -0.1377439111
C  C87  1  0.29540000  0.60140000  0.39620000  1.0 0.050174261
C  C88  1  0.46750000  0.57370000  0.28280000  1.0 0.369902363
C  C89  1  0.37440000  0.40980000  0.30780000  1.0 0.3500394081
C  C90  1  0.37220000  0.50860000  0.33900000  1.0 0.3615799427
C  C91  1  0.98820000  0.41760000  0.44830000  1.0 0.0607771408
C  C92  1  0.88650000  0.33450000  0.44330000  1.0 -0.1986864222
C  C93  1  0.85550000  0.24830000  0.46680000  1.0 0.0607771408
C  C94  1  0.92740000  0.25340000  0.49030000  1.0 -0.1505702302
C  C95  1  0.02230000  0.33630000  0.49290000  1.0 0.0137590433
C  C96  1  0.34380000  0.97340000  0.39420000  1.0 0.0710855635
C  C97  1  0.41050000  0.98030000  0.42330000  1.0 -0.1902033556
C  C98  1  0.51250000  0.05950000  0.41530000  1.0 0.0896788922
C  C99  1  0.53840000  0.12220000  0.37760000  1.0 -0.1902033556
C  C100  1  0.45960000  0.10360000  0.34980000  1.0 0.0710855635
C  C101  1  0.64660000  0.87560000  0.59860000  1.0 0.0607771408
C  C102  1  0.67530000  0.93990000  0.56300000  1.0 -0.1687478002
C  C103  1  0.60180000  0.93760000  0.53840000  1.0 0.0607771408
C  C104  1  0.50780000  0.85680000  0.54640000  1.0 -0.1599530369
C  C105  1  0.48440000  0.78580000  0.58070000  1.0 0.0406619628
C  C106  1  0.74940000  0.15720000  0.46610000  1.0 0.3393817127
C  C107  1  0.59150000  0.07210000  0.44620000  1.0 0.3305299238
C  C108  1  0.62880000  0.01020000  0.50160000  1.0 0.3393817127
C  C109  1  0.64530000  0.83630000  0.72230000  1.0 -0.003436764
C  C110  1  0.72100000  0.90420000  0.74910000  1.0 -0.1687478002
C  C111  1  0.80550000  0.92490000  0.75400000  1.0 0.0710855635
C  C112  1  0.81050000  0.87270000  0.72800000  1.0 -0.1788344196
C  C113  1  0.72570000  0.80490000  0.70290000  1.0 0.0710855635
C  C114  1  0.99380000  0.20160000  0.93920000  1.0 0.0710855635
C  C115  1  0.00950000  0.17030000  0.90800000  1.0 -0.1687478002
C  C116  1  0.94540000  0.13120000  0.87130000  1.0 0.0710855635
C  C117  1  0.86950000  0.12630000  0.86630000  1.0 -0.1599530369
C  C118  1  0.86920000  0.17200000  0.89580000  1.0 0.050174261
C  C119  1  0.26030000  0.13570000  0.77270000  1.0 0.0607771408
C  C120  1  0.17240000  0.11000000  0.77170000  1.0 -0.1599530369
C  C121  1  0.14480000  0.11320000  0.80860000  1.0 0.0710855635
C  C122  1  0.19840000  0.13240000  0.84850000  1.0 -0.1377439111
C  C123  1  0.29080000  0.16680000  0.84530000  1.0 0.0796184434
C  C124  1  0.89630000  0.00290000  0.78170000  1.0 0.3500394081
C  C125  1  0.95700000  0.09400000  0.83780000  1.0 0.369902363
C  C126  1  0.04760000  0.08500000  0.80750000  1.0 0.3615799427
C  C127  1  0.49270000  0.11910000  0.89520000  1.0 0.050174261
C  C128  1  0.47800000  0.04460000  0.92290000  1.0 -0.1505702302
C  C129  1  0.40380000  0.94980000  0.91440000  1.0 0.0300911094
C  C130  1  0.34140000  0.93000000  0.87760000  1.0 -0.1599530369
C  C131  1  0.35580000  0.00280000  0.85100000  1.0 0.0710855635
C  C132  1  0.04100000  0.47520000  0.94580000  1.0 0.0406619628
C  C133  1  0.12770000  0.57330000  0.94290000  1.0 -0.1505702302
C  C134  1  0.21410000  0.60910000  0.96560000  1.0 0.0607771408
C  C135  1  0.21530000  0.54050000  0.99320000  1.0 -0.1902033556
C  C136  1  0.12450000  0.44130000  0.99230000  1.0 0.0896788922
C  C137  1  0.59320000  0.81460000  0.09640000  1.0 0.0607771408
C  C138  1  0.51530000  0.78910000  0.06680000  1.0 -0.1377439111
C  C139  1  0.53050000  0.85910000  0.03790000  1.0 0.0607771408
C  C140  1  0.61170000  0.95830000  0.04580000  1.0 -0.1788344196
C  C141  1  0.67630000  0.97730000  0.08120000  1.0 0.0796184434
C  C142  1  0.39160000  0.87500000  0.94340000  1.0 0.3615799427
C  C143  1  0.30590000  0.71490000  0.96790000  1.0 0.3615799427
C  C144  1  0.45050000  0.83010000  0.00220000  1.0 0.369902363
C  C145  1  0.91000000  0.51200000  0.22300000  1.0 -0.2676404163
C  C146  1  0.92800000  0.51600000  0.27290000  1.0 -0.1986864222
C  C147  1  0.99700000  0.57900000  0.30460000  1.0 0.0710855635
C  C148  1  0.09440000  0.67960000  0.29190000  1.0 -0.1902033556
C  C149  1  0.08400000  0.67600000  0.24110000  1.0 -0.1986864222
C  C150  1  0.01560000  0.59440000  0.20970000  1.0 -0.0203279441
C  C151  1  0.00380000  0.60220000  0.35080000  1.0 -0.2766367539
C  C152  1  0.05110000  0.60890000  0.16810000  1.0 0.0796184434
C  C153  1  0.15880000  0.66920000  0.17340000  1.0 -0.4421629007
C  C154  1  0.99730000  0.59670000  0.13050000  1.0 -0.262405698
C  C155  1  0.85400000  0.24200000  0.31000000  1.0 -0.2335717722
C  C156  1  0.84400000  0.31000000  0.32100000  1.0 -0.1058854692
C  C157  1  0.89890000  0.40910000  0.32400000  1.0 0.0137590433
C  C158  1  0.01300000  0.47300000  0.32700000  1.0 -0.2355903432
C  C159  1  0.00630000  0.38570000  0.35000000  1.0 -0.1986864222
C  C160  1  0.94910000  0.28090000  0.33800000  1.0 -0.0099457615
C  C161  1  0.90630000  0.48770000  0.33660000  1.0 -0.1224261194
C  C162  1  0.99230000  0.23970000  0.35200000  1.0 0.1826969936
C  C163  1  0.02900000  0.24900000  0.39900000  1.0 -0.4550840303
C  C164  1  0.00100000  0.19900000  0.32600000  1.0 -0.4504658454
C  C165  1  0.87700000  0.71300000  0.07000000  1.0 -0.1599530369
C  C166  1  0.87000000  0.61200000  0.13360000  1.0 -0.1599530369
C  C167  1  0.80500000  0.61300000  0.09600000  1.0 -0.1599530369
C  C168  1  0.93310000  0.60490000  0.11500000  1.0 -0.0971766233
C  C169  1  0.95610000  0.65190000  0.06900000  1.0 -0.1986864222
C  C170  1  0.92900000  0.70700000  0.04180000  1.0 -0.1505702302
C  C171  1  0.47700000  0.88700000  0.16300000  1.0 -0.1687478002
C  C172  1  0.50800000  0.91800000  0.21000000  1.0 -0.1599530369
C  C173  1  0.43500000  0.83500000  0.24400000  1.0 -0.1599530369
C  C174  1  0.33300000  0.80100000  0.23600000  1.0 -0.1687478002
C  C175  1  0.32350000  0.82650000  0.18600000  1.0 -0.1377439111
C  C176  1  0.36600000  0.79400000  0.16500000  1.0 -0.1788344196
C  C177  1  0.51200000  0.91000000  0.77700000  1.0 -0.2676404163
C  C178  1  0.51600000  0.92800000  0.72710000  1.0 -0.1986864222
C  C179  1  0.57900000  0.99700000  0.69540000  1.0 0.0710855635
C  C180  1  0.67960000  0.09440000  0.70810000  1.0 -0.1902033556
C  C181  1  0.67600000  0.08400000  0.75890000  1.0 -0.1986864222
C  C182  1  0.59440000  0.01560000  0.79030000  1.0 -0.0203279441
C  C183  1  0.60220000  0.00380000  0.64920000  1.0 -0.2766367539
C  C184  1  0.60890000  0.05110000  0.83190000  1.0 0.0710855635
C  C185  1  0.66920000  0.15880000  0.82660000  1.0 -0.4421629007
C  C186  1  0.59670000  0.99730000  0.86950000  1.0 -0.262405698
C  C187  1  0.24200000  0.85400000  0.69000000  1.0 -0.2335717722
C  C188  1  0.31000000  0.84400000  0.67900000  1.0 -0.1058854692
C  C189  1  0.40910000  0.89890000  0.67600000  1.0 0.0137590433
C  C190  1  0.47300000  0.01300000  0.67300000  1.0 -0.2355903432
C  C191  1  0.38570000  0.00630000  0.65000000  1.0 -0.1986864222
C  C192  1  0.28090000  0.94910000  0.66200000  1.0 -0.0099457615
C  C193  1  0.48770000  0.90630000  0.66340000  1.0 -0.1224261194
C  C194  1  0.23970000  0.99230000  0.64800000  1.0 0.1826969936
C  C195  1  0.24900000  0.02900000  0.60100000  1.0 -0.4504658454
C  C196  1  0.19900000  0.00100000  0.67400000  1.0 -0.4504658454
C  C197  1  0.71300000  0.87700000  0.93000000  1.0 -0.1599530369
C  C198  1  0.61200000  0.87000000  0.86640000  1.0 -0.1599530369
C  C199  1  0.61300000  0.80500000  0.90400000  1.0 -0.1599530369
C  C200  1  0.60490000  0.93310000  0.88500000  1.0 -0.0971766233
C  C201  1  0.65190000  0.95610000  0.93100000  1.0 -0.2052913502
C  C202  1  0.70700000  0.92900000  0.95820000  1.0 -0.1505702302
C  C203  1  0.88700000  0.47700000  0.83700000  1.0 -0.1687478002
C  C204  1  0.91800000  0.50800000  0.79000000  1.0 -0.1599530369
C  C205  1  0.83500000  0.43500000  0.75600000  1.0 -0.1599530369
C  C206  1  0.80100000  0.33300000  0.76400000  1.0 -0.1687478002
C  C207  1  0.82650000  0.32350000  0.81400000  1.0 -0.1377439111
C  C208  1  0.79400000  0.36600000  0.83500000  1.0 -0.1788344196
I  I1  1  0.99066000  0.28122000  0.75857000  1.0 -0.4289886783
I  I2  1  0.89170000  0.09750000  0.64697000  1.0 0.0607771408
I  I3  1  0.70042000  0.23578000  0.54158000  1.0 0.0406619628
I  I4  1  0.51615000  0.26565000  0.44509000  1.0 -0.1377439111
I  I5  1  0.60560000  0.56560000  0.38030000  1.0 0.050174261
I  I6  1  0.60413000  0.37367000  0.31146000  1.0 0.0137590433
I  I7  1  0.18171000  0.47321000  0.25880000  1.0 -0.4715590521
I  I8  1  0.36486000  0.57602000  0.14898000  1.0 -0.4504658454
I  I9  1  0.23314000  0.76386000  0.04489000  1.0 -0.4421629007
I  I10  1  0.19892000  0.94308000  0.94656000  1.0 -0.4244840488
I  I11  1  0.90030000  0.85626000  0.87937000  1.0 -0.4504658454
I  I12  1  0.08811000  0.85479000  0.81030000  1.0 -0.4421629007
I  I13  1  0.87370000  0.10210000  0.65590000  1.0 0.0406619628
I  I14  1  0.69560000  0.21520000  0.55250000  1.0 0.0607771408
I  I15  1  0.52660000  0.25860000  0.44950000  1.0 -0.0873910531
I  I16  1  0.60620000  0.54920000  0.37490000  1.0 0.0300911094
I  I17  1  0.62210000  0.37230000  0.30480000  1.0 0.0300911094
I  I18  1  0.28122000  0.99066000  0.24143000  1.0 -0.4289886783
I  I19  1  0.09750000  0.89170000  0.35303000  1.0 0.0607771408
I  I20  1  0.23578000  0.70042000  0.45842000  1.0 0.0406619628
I  I21  1  0.26565000  0.51615000  0.55491000  1.0 -0.1377439111
I  I22  1  0.56560000  0.60560000  0.61970000  1.0 0.050174261
I  I23  1  0.37367000  0.60413000  0.68854000  1.0 0.0137590433
I  I24  1  0.47321000  0.18171000  0.74120000  1.0 -0.4715590521
I  I25  1  0.57602000  0.36486000  0.85102000  1.0 -0.4504658454
I  I26  1  0.76386000  0.23314000  0.95511000  1.0 -0.4421629007
I  I27  1  0.94308000  0.19892000  0.05344000  1.0 -0.4289886783
I  I28  1  0.85626000  0.90030000  0.12063000  1.0 -0.4504658454
I  I29  1  0.85479000  0.08811000  0.18970000  1.0 -0.4421629007
I  I30  1  0.10210000  0.87370000  0.34410000  1.0 0.0406619628
I  I31  1  0.21520000  0.69560000  0.44750000  1.0 0.0607771408
I  I32  1  0.25860000  0.52660000  0.55050000  1.0 -0.0873910531
I  I33  1  0.54920000  0.60620000  0.62510000  1.0 0.0300911094
I  I34  1  0.37230000  0.62210000  0.69520000  1.0 0.0300911094
N  N1  1  0.81680000  0.67820000  0.80160000  1.0 -0.1986864222
N  N2  1  0.14460000  0.30300000  0.68960000  1.0 -0.1788344196
N  N3  1  0.53620000  0.25680000  0.56790000  1.0 -0.1902033556
N  N4  1  0.48530000  0.43510000  0.72080000  1.0 -0.4105147019
N  N5  1  0.42190000  0.34290000  0.66100000  1.0 -0.4105147019
N  N6  1  0.58460000  0.43300000  0.68830000  1.0 -0.4005677149
N  N7  1  0.42150000  0.05290000  0.52920000  1.0 -0.1902033556
N  N8  1  0.03160000  0.36620000  0.64080000  1.0 -0.1902033556
N  N9  1  0.79570000  0.55510000  0.39320000  1.0 -0.1986864222
N  N10  1  0.15330000  0.68570000  0.56110000  1.0 -0.4105147019
N  N11  1  0.99980000  0.55920000  0.52240000  1.0 -0.4005677149
N  N12  1  0.08820000  0.72580000  0.50140000  1.0 -0.4289886783
N  N13  1  0.78470000  0.64630000  0.30080000  1.0 -0.1986864222
N  N14  1  0.20780000  0.92960000  0.06940000  1.0 -0.1687478002
N  N15  1  0.16510000  0.32090000  0.19010000  1.0 -0.1986864222
N  N16  1  0.02930000  0.87570000  0.18950000  1.0 -0.4289886783
N  N17  1  0.12330000  0.04530000  0.16190000  1.0 -0.3907124445
N  N18  1  0.02730000  0.97790000  0.22320000  1.0 -0.4105147019
N  N19  1  0.09850000  0.43150000  0.14220000  1.0 -0.1902033556
N  N20  1  0.40940000  0.04200000  0.02840000  1.0 -0.1986864222
N  N21  1  0.90850000  0.66750000  0.89380000  1.0 -0.1902033556
N  N22  1  0.77960000  0.31020000  0.06160000  1.0 -0.4005677149
N  N23  1  0.73530000  0.37590000  0.00200000  1.0 -0.3907124445
N  N24  1  0.90270000  0.46150000  0.02380000  1.0 -0.4105147019
N  N25  1  0.67820000  0.81680000  0.19840000  1.0 -0.1986864222
N  N26  1  0.30300000  0.14460000  0.31040000  1.0 -0.1788344196
N  N27  1  0.25680000  0.53620000  0.43210000  1.0 -0.1902033556
N  N28  1  0.43510000  0.48530000  0.27920000  1.0 -0.4105147019
N  N29  1  0.34290000  0.42190000  0.33900000  1.0 -0.4105147019
N  N30  1  0.43300000  0.58460000  0.31170000  1.0 -0.4005677149
N  N31  1  0.05290000  0.42150000  0.47080000  1.0 -0.1902033556
N  N32  1  0.36620000  0.03160000  0.35920000  1.0 -0.1902033556
N  N33  1  0.55510000  0.79570000  0.60680000  1.0 -0.1986864222
N  N34  1  0.68570000  0.15330000  0.43890000  1.0 -0.4105147019
N  N35  1  0.55920000  0.99980000  0.47760000  1.0 -0.4005677149
N  N36  1  0.72580000  0.08820000  0.49860000  1.0 -0.4289886783
N  N37  1  0.64630000  0.78470000  0.69920000  1.0 -0.1986864222
N  N38  1  0.92960000  0.20780000  0.93060000  1.0 -0.1687478002
N  N39  1  0.32090000  0.16510000  0.80990000  1.0 -0.1986864222
N  N40  1  0.87570000  0.02930000  0.81050000  1.0 -0.4289886783
N  N41  1  0.04530000  0.12330000  0.83810000  1.0 -0.3907124445
N  N42  1  0.97790000  0.02730000  0.77680000  1.0 -0.4105147019
N  N43  1  0.43150000  0.09850000  0.85780000  1.0 -0.1902033556
N  N44  1  0.04200000  0.40940000  0.97160000  1.0 -0.1986864222
N  N45  1  0.66750000  0.90850000  0.10620000  1.0 -0.1902033556
N  N46  1  0.31020000  0.77960000  0.93840000  1.0 -0.4005677149
N  N47  1  0.37590000  0.73530000  0.99800000  1.0 -0.3907124445
N  N48  1  0.46150000  0.90270000  0.97620000  1.0 -0.4105147019
