# DDEC6 charges by PACMAN v1.1 (https://github.com/mtap-research/PACMAN-charge/)
data_CARLIT_FSR_pacman
_symmetry_space_group_name_H-M   'P 1'
_cell_length_a   18.88600000
_cell_length_b   18.88600000
_cell_length_c   31.27310000
_cell_angle_alpha   79.91170000
_cell_angle_beta   100.08800000
_cell_angle_gamma   133.95000000
_symmetry_Int_Tables_number   1
_chemical_formula_structural   Zn8H48C72(I7N8)3
_chemical_formula_sum   'Zn16 H96 C144 I42 N48'
_cell_volume   7883.85742895
_cell_formula_units_Z   2
loop_
 _symmetry_equiv_pos_site_id
 _symmetry_equiv_pos_as_xyz
  1  'x, y, z'
loop_
 _atom_site_type_symbol
 _atom_site_label
 _atom_site_symmetry_multiplicity
 _atom_site_fract_x
 _atom_site_fract_y
 _atom_site_fract_z
 _atom_site_occupancy
 _atom_site_charge
Zn  Zn1  1  0.19055000  0.53247000  0.47886000  1.0 0.3583886911
Zn  Zn2  1  0.73252000  0.47964000  0.31289000  1.0 0.3767964879
Zn  Zn3  1  0.80254000  0.96116000  0.15156000  1.0 0.3404830584
Zn  Zn4  1  0.05170000  0.21070000  0.65110000  1.0 0.4213795949
Zn  Zn5  1  0.48177000  0.82383000  0.98010000  1.0 0.3404830584
Zn  Zn6  1  0.53162000  0.28000000  0.81337000  1.0 0.4780789901
Zn  Zn7  1  0.05060000  0.21840000  0.65570000  1.0 0.4123089303
Zn  Zn8  1  0.47190000  0.82350000  0.97220000  1.0 0.3767964879
Zn  Zn9  1  0.53247000  0.19055000  0.52114000  1.0 0.3583886911
Zn  Zn10  1  0.47964000  0.73252000  0.68711000  1.0 0.3767964879
Zn  Zn11  1  0.96116000  0.80254000  0.84844000  1.0 0.3404830584
Zn  Zn12  1  0.21070000  0.05170000  0.34890000  1.0 0.4213795949
Zn  Zn13  1  0.82383000  0.48177000  0.01990000  1.0 0.3404830584
Zn  Zn14  1  0.28000000  0.53162000  0.18663000  1.0 0.4780789901
Zn  Zn15  1  0.21840000  0.05060000  0.34430000  1.0 0.4123089303
Zn  Zn16  1  0.82350000  0.47190000  0.02780000  1.0 0.3767964879
H  H1  1  0.31370000  0.50090000  0.46100000  1.0 0.1008733266
H  H2  1  0.32950000  0.43650000  0.41200000  1.0 0.1394379216
H  H3  1  0.09450000  0.37370000  0.34030000  1.0 0.1299661281
H  H4  1  0.07970000  0.42950000  0.39460000  1.0 0.0805217908
H  H5  1  0.55840000  0.40760000  0.24720000  1.0 0.1008733266
H  H6  1  0.41140000  0.36460000  0.24400000  1.0 0.1394379216
H  H7  1  0.46170000  0.40930000  0.36930000  1.0 0.1394379216
H  H8  1  0.59690000  0.44010000  0.37060000  1.0 0.1008733266
H  H9  1  0.86110000  0.09330000  0.21440000  1.0 0.1008733266
H  H10  1  0.98660000  0.20940000  0.26140000  1.0 0.1394379216
H  H11  1  0.14090000  0.15490000  0.22910000  1.0 0.1394379216
H  H12  1  0.00810000  0.04230000  0.18380000  1.0 0.089052019
H  H13  1  0.59430000  0.26490000  0.32450000  1.0 0.089052019
H  H14  1  0.56600000  0.13380000  0.36960000  1.0 0.1299661281
H  H15  1  0.79660000  0.34060000  0.44900000  1.0 0.1188007043
H  H16  1  0.81370000  0.45790000  0.40150000  1.0 0.0805217908
H  H17  1  0.86210000  0.04290000  0.61600000  1.0 0.089052019
H  H18  1  0.73940000  0.99600000  0.55970000  1.0 0.1188007043
H  H19  1  0.89680000  0.28460000  0.52670000  1.0 0.1299661281
H  H20  1  0.00900000  0.32080000  0.58510000  1.0 0.089052019
H  H21  1  0.26120000  0.73220000  0.43060000  1.0 0.1008733266
H  H22  1  0.39830000  0.89370000  0.43190000  1.0 0.1299661281
H  H23  1  0.54900000  0.83260000  0.50370000  1.0 0.1299661281
H  H24  1  0.40400000  0.66720000  0.50760000  1.0 0.089052019
H  H25  1  0.92390000  0.16050000  0.72020000  1.0 0.089052019
H  H26  1  0.80840000  0.02560000  0.76630000  1.0 0.1394379216
H  H27  1  0.85420000  0.86940000  0.72750000  1.0 0.1394379216
H  H28  1  0.97300000  0.00680000  0.68230000  1.0 0.1008733266
H  H29  1  0.51600000  0.70120000  0.96060000  1.0 0.089052019
H  H30  1  0.58330000  0.69070000  0.91200000  1.0 0.1394379216
H  H31  1  0.62880000  0.90880000  0.83860000  1.0 0.1394379216
H  H32  1  0.55620000  0.91420000  0.88780000  1.0 0.0805217908
H  H33  1  0.54900000  0.40000000  0.86800000  1.0 0.1008733266
H  H34  1  0.60760000  0.55720000  0.87180000  1.0 0.1299661281
H  H35  1  0.64440000  0.60340000  0.74210000  1.0 0.1394379216
H  H36  1  0.60340000  0.45680000  0.74610000  1.0 0.1085824416
H  H37  1  0.34790000  0.61730000  0.00610000  1.0 0.0805217908
H  H38  1  0.18520000  0.46920000  0.00500000  1.0 0.1478070383
H  H39  1  0.11980000  0.61000000  0.92200000  1.0 0.1478070383
H  H40  1  0.28860000  0.75620000  0.93450000  1.0 0.0805217908
H  H41  1  0.55210000  0.19270000  0.90030000  1.0 0.089052019
H  H42  1  0.67300000  0.21720000  0.94870000  1.0 0.1008733266
H  H43  1  0.87280000  0.44560000  0.86950000  1.0 0.1394379216
H  H44  1  0.75170000  0.41730000  0.82390000  1.0 0.1085824416
H  H45  1  0.97450000  0.14730000  0.10760000  1.0 0.1008733266
H  H46  1  0.01830000  0.26490000  0.05340000  1.0 0.1299661281
H  H47  1  0.73070000  0.11850000  0.02720000  1.0 0.1085824416
H  H48  1  0.69670000  0.00710000  0.08450000  1.0 0.089052019
H  H49  1  0.50090000  0.31370000  0.53900000  1.0 0.1008733266
H  H50  1  0.43650000  0.32950000  0.58800000  1.0 0.1394379216
H  H51  1  0.37370000  0.09450000  0.65970000  1.0 0.1299661281
H  H52  1  0.42950000  0.07970000  0.60540000  1.0 0.0805217908
H  H53  1  0.40760000  0.55840000  0.75280000  1.0 0.1008733266
H  H54  1  0.36460000  0.41140000  0.75600000  1.0 0.1394379216
H  H55  1  0.40930000  0.46170000  0.63070000  1.0 0.1394379216
H  H56  1  0.44010000  0.59690000  0.62940000  1.0 0.1008733266
H  H57  1  0.09330000  0.86110000  0.78560000  1.0 0.1008733266
H  H58  1  0.20940000  0.98660000  0.73860000  1.0 0.1394379216
H  H59  1  0.15490000  0.14090000  0.77090000  1.0 0.1394379216
H  H60  1  0.04230000  0.00810000  0.81620000  1.0 0.089052019
H  H61  1  0.26490000  0.59430000  0.67550000  1.0 0.089052019
H  H62  1  0.13380000  0.56600000  0.63040000  1.0 0.1299661281
H  H63  1  0.34060000  0.79660000  0.55100000  1.0 0.1188007043
H  H64  1  0.45790000  0.81370000  0.59850000  1.0 0.0805217908
H  H65  1  0.04290000  0.86210000  0.38400000  1.0 0.089052019
H  H66  1  0.99600000  0.73940000  0.44030000  1.0 0.1188007043
H  H67  1  0.28460000  0.89680000  0.47330000  1.0 0.1299661281
H  H68  1  0.32080000  0.00900000  0.41490000  1.0 0.089052019
H  H69  1  0.73220000  0.26120000  0.56940000  1.0 0.1008733266
H  H70  1  0.89370000  0.39830000  0.56810000  1.0 0.1299661281
H  H71  1  0.83260000  0.54900000  0.49630000  1.0 0.1299661281
H  H72  1  0.66720000  0.40400000  0.49240000  1.0 0.089052019
H  H73  1  0.16050000  0.92390000  0.27980000  1.0 0.089052019
H  H74  1  0.02560000  0.80840000  0.23370000  1.0 0.1394379216
H  H75  1  0.86940000  0.85420000  0.27250000  1.0 0.1394379216
H  H76  1  0.00680000  0.97300000  0.31770000  1.0 0.1008733266
H  H77  1  0.70120000  0.51600000  0.03940000  1.0 0.089052019
H  H78  1  0.69070000  0.58330000  0.08800000  1.0 0.1394379216
H  H79  1  0.90880000  0.62880000  0.16140000  1.0 0.1394379216
H  H80  1  0.91420000  0.55620000  0.11220000  1.0 0.0805217908
H  H81  1  0.40000000  0.54900000  0.13200000  1.0 0.1008733266
H  H82  1  0.55720000  0.60760000  0.12820000  1.0 0.1299661281
H  H83  1  0.60340000  0.64440000  0.25790000  1.0 0.1394379216
H  H84  1  0.45680000  0.60340000  0.25390000  1.0 0.1085824416
H  H85  1  0.61730000  0.34790000  0.99390000  1.0 0.0805217908
H  H86  1  0.46920000  0.18520000  0.99500000  1.0 0.1478070383
H  H87  1  0.61000000  0.11980000  0.07800000  1.0 0.1478070383
H  H88  1  0.75620000  0.28860000  0.06550000  1.0 0.0805217908
H  H89  1  0.19270000  0.55210000  0.09970000  1.0 0.089052019
H  H90  1  0.21720000  0.67300000  0.05130000  1.0 0.1008733266
H  H91  1  0.44560000  0.87280000  0.13050000  1.0 0.1394379216
H  H92  1  0.41730000  0.75170000  0.17610000  1.0 0.1085824416
H  H93  1  0.14730000  0.97450000  0.89240000  1.0 0.1008733266
H  H94  1  0.26490000  0.01830000  0.94660000  1.0 0.1299661281
H  H95  1  0.11850000  0.73070000  0.97280000  1.0 0.1085824416
H  H96  1  0.00710000  0.69670000  0.91550000  1.0 0.089052019
C  C1  1  0.26970000  0.47570000  0.43630000  1.0 0.0805217908
C  C2  1  0.28120000  0.43880000  0.40650000  1.0 -0.1492120858
C  C3  1  0.22040000  0.40560000  0.36840000  1.0 0.089052019
C  C4  1  0.14050000  0.40010000  0.36430000  1.0 -0.1410638738
C  C5  1  0.13330000  0.43530000  0.39690000  1.0 0.0681252972
C  C6  1  0.53850000  0.40910000  0.27190000  1.0 0.0805217908
C  C7  1  0.45080000  0.38400000  0.27010000  1.0 -0.1813470583
C  C8  1  0.41850000  0.38650000  0.30570000  1.0 0.0599508146
C  C9  1  0.47970000  0.40890000  0.34350000  1.0 -0.1492120858
C  C10  1  0.56080000  0.42920000  0.34400000  1.0 0.0501011904
C  C11  1  0.91910000  0.10610000  0.21800000  1.0 0.089052019
C  C12  1  0.99390000  0.17690000  0.24620000  1.0 -0.1410638738
C  C13  1  0.08170000  0.19690000  0.25060000  1.0 0.0599508146
C  C14  1  0.08450000  0.14430000  0.22690000  1.0 -0.1410638738
C  C15  1  0.00430000  0.07610000  0.20010000  1.0 0.0501011904
C  C16  1  0.22770000  0.36290000  0.33470000  1.0 0.368337198
C  C17  1  0.32390000  0.35850000  0.30410000  1.0 0.3485441272
C  C18  1  0.16520000  0.27000000  0.27970000  1.0 0.3404830584
C  C19  1  0.63580000  0.27900000  0.34950000  1.0 0.089052019
C  C20  1  0.61690000  0.19890000  0.37660000  1.0 -0.1492120858
C  C21  1  0.68130000  0.22550000  0.41510000  1.0 0.0501011904
C  C22  1  0.75440000  0.32220000  0.42390000  1.0 -0.1492120858
C  C23  1  0.76460000  0.39240000  0.39470000  1.0 0.0805217908
C  C24  1  0.86830000  0.09090000  0.59750000  1.0 0.0805217908
C  C25  1  0.79430000  0.06230000  0.56380000  1.0 -0.1492120858
C  C26  1  0.80630000  0.13630000  0.53700000  1.0 0.0805217908
C  C27  1  0.88790000  0.23430000  0.54440000  1.0 -0.1492120858
C  C28  1  0.95570000  0.25550000  0.57880000  1.0 0.0805217908
C  C29  1  0.31800000  0.75160000  0.44660000  1.0 0.0399150875
C  C30  1  0.40110000  0.84770000  0.44570000  1.0 -0.1614997845
C  C31  1  0.48840000  0.88020000  0.46410000  1.0 0.0501011904
C  C32  1  0.49070000  0.81210000  0.48910000  1.0 -0.1492120858
C  C33  1  0.40280000  0.71260000  0.49150000  1.0 0.0681252972
C  C34  1  0.66610000  0.14650000  0.44360000  1.0 0.3583886911
C  C35  1  0.72970000  0.10830000  0.50010000  1.0 0.3583886911
C  C36  1  0.58340000  0.98900000  0.46610000  1.0 0.3583886911
C  C37  1  0.91020000  0.10240000  0.72150000  1.0 0.0185600108
C  C38  1  0.84090000  0.02150000  0.74910000  1.0 -0.1241920676
C  C39  1  0.82100000  0.93600000  0.75100000  1.0 0.0599508146
C  C40  1  0.86840000  0.92780000  0.72620000  1.0 -0.1410638738
C  C41  1  0.93910000  0.01030000  0.69870000  1.0 0.0501011904
C  C42  1  0.53970000  0.74450000  0.93580000  1.0 0.0399150875
C  C43  1  0.57860000  0.73740000  0.90660000  1.0 -0.1492120858
C  C44  1  0.61150000  0.79870000  0.86880000  1.0 0.0599508146
C  C45  1  0.60500000  0.86480000  0.86330000  1.0 -0.1313580881
C  C46  1  0.56360000  0.86960000  0.89350000  1.0 0.0681252972
C  C47  1  0.57270000  0.44350000  0.84320000  1.0 0.1085824416
C  C48  1  0.60350000  0.53650000  0.84590000  1.0 -0.1690990518
C  C49  1  0.62710000  0.59350000  0.80600000  1.0 0.0599508146
C  C50  1  0.62750000  0.56450000  0.76820000  1.0 -0.1492120858
C  C51  1  0.60220000  0.47640000  0.77100000  1.0 0.0599508146
C  C52  1  0.74290000  0.84710000  0.78060000  1.0 0.3767964879
C  C53  1  0.64400000  0.78200000  0.83690000  1.0 0.3485441272
C  C54  1  0.65410000  0.68910000  0.80680000  1.0 0.3583886911
C  C55  1  0.30010000  0.61550000  0.99050000  1.0 0.0805217908
C  C56  1  0.20240000  0.52560000  0.98970000  1.0 -0.1492120858
C  C57  1  0.13070000  0.52210000  0.96540000  1.0 0.0599508146
C  C58  1  0.16270000  0.60890000  0.94110000  1.0 -0.1614997845
C  C59  1  0.26600000  0.69620000  0.94780000  1.0 0.089052019
C  C60  1  0.61800000  0.24420000  0.89450000  1.0 0.0501011904
C  C61  1  0.68940000  0.25740000  0.92300000  1.0 -0.1690990518
C  C62  1  0.78870000  0.33390000  0.91270000  1.0 0.0599508146
C  C63  1  0.80770000  0.39270000  0.87620000  1.0 -0.1614997845
C  C64  1  0.73520000  0.37660000  0.84940000  1.0 0.1008733266
C  C65  1  0.92520000  0.14320000  0.09230000  1.0 0.0599508146
C  C66  1  0.95240000  0.21380000  0.05930000  1.0 -0.1313580881
C  C67  1  0.88100000  0.20840000  0.03500000  1.0 0.0399150875
C  C68  1  0.78170000  0.12710000  0.04400000  1.0 -0.1690990518
C  C69  1  0.76220000  0.06040000  0.07870000  1.0 0.0681252972
C  C70  1  0.02620000  0.43300000  0.96520000  1.0 0.3304484476
C  C71  1  0.86570000  0.34410000  0.94470000  1.0 0.368337198
C  C72  1  0.90850000  0.28470000  0.00010000  1.0 0.3583886911
C  C73  1  0.47570000  0.26970000  0.56370000  1.0 0.0805217908
C  C74  1  0.43880000  0.28120000  0.59350000  1.0 -0.1492120858
C  C75  1  0.40560000  0.22040000  0.63160000  1.0 0.089052019
C  C76  1  0.40010000  0.14050000  0.63570000  1.0 -0.1410638738
C  C77  1  0.43530000  0.13330000  0.60310000  1.0 0.0681252972
C  C78  1  0.40910000  0.53850000  0.72810000  1.0 0.0805217908
C  C79  1  0.38400000  0.45080000  0.72990000  1.0 -0.1813470583
C  C80  1  0.38650000  0.41850000  0.69430000  1.0 0.0599508146
C  C81  1  0.40890000  0.47970000  0.65650000  1.0 -0.1492120858
C  C82  1  0.42920000  0.56080000  0.65600000  1.0 0.0501011904
C  C83  1  0.10610000  0.91910000  0.78200000  1.0 0.089052019
C  C84  1  0.17690000  0.99390000  0.75380000  1.0 -0.1410638738
C  C85  1  0.19690000  0.08170000  0.74940000  1.0 0.0599508146
C  C86  1  0.14430000  0.08450000  0.77310000  1.0 -0.1410638738
C  C87  1  0.07610000  0.00430000  0.79990000  1.0 0.0501011904
C  C88  1  0.36290000  0.22770000  0.66530000  1.0 0.368337198
C  C89  1  0.35850000  0.32390000  0.69590000  1.0 0.3485441272
C  C90  1  0.27000000  0.16520000  0.72030000  1.0 0.3404830584
C  C91  1  0.27900000  0.63580000  0.65050000  1.0 0.089052019
C  C92  1  0.19890000  0.61690000  0.62340000  1.0 -0.1492120858
C  C93  1  0.22550000  0.68130000  0.58490000  1.0 0.0501011904
C  C94  1  0.32220000  0.75440000  0.57610000  1.0 -0.1492120858
C  C95  1  0.39240000  0.76460000  0.60530000  1.0 0.0805217908
C  C96  1  0.09090000  0.86830000  0.40250000  1.0 0.0805217908
C  C97  1  0.06230000  0.79430000  0.43620000  1.0 -0.1492120858
C  C98  1  0.13630000  0.80630000  0.46300000  1.0 0.0805217908
C  C99  1  0.23430000  0.88790000  0.45560000  1.0 -0.1492120858
C  C100  1  0.25550000  0.95570000  0.42120000  1.0 0.0805217908
C  C101  1  0.75160000  0.31800000  0.55340000  1.0 0.0399150875
C  C102  1  0.84770000  0.40110000  0.55430000  1.0 -0.1614997845
C  C103  1  0.88020000  0.48840000  0.53590000  1.0 0.0501011904
C  C104  1  0.81210000  0.49070000  0.51090000  1.0 -0.1492120858
C  C105  1  0.71260000  0.40280000  0.50850000  1.0 0.0681252972
C  C106  1  0.14650000  0.66610000  0.55640000  1.0 0.3583886911
C  C107  1  0.10830000  0.72970000  0.49990000  1.0 0.3583886911
C  C108  1  0.98900000  0.58340000  0.53390000  1.0 0.3583886911
C  C109  1  0.10240000  0.91020000  0.27850000  1.0 0.0185600108
C  C110  1  0.02150000  0.84090000  0.25090000  1.0 -0.1241920676
C  C111  1  0.93600000  0.82100000  0.24900000  1.0 0.0599508146
C  C112  1  0.92780000  0.86840000  0.27380000  1.0 -0.1410638738
C  C113  1  0.01030000  0.93910000  0.30130000  1.0 0.0501011904
C  C114  1  0.74450000  0.53970000  0.06420000  1.0 0.0399150875
C  C115  1  0.73740000  0.57860000  0.09340000  1.0 -0.1492120858
C  C116  1  0.79870000  0.61150000  0.13120000  1.0 0.0599508146
C  C117  1  0.86480000  0.60500000  0.13670000  1.0 -0.1313580881
C  C118  1  0.86960000  0.56360000  0.10650000  1.0 0.0681252972
C  C119  1  0.44350000  0.57270000  0.15680000  1.0 0.1085824416
C  C120  1  0.53650000  0.60350000  0.15410000  1.0 -0.1690990518
C  C121  1  0.59350000  0.62710000  0.19400000  1.0 0.0599508146
C  C122  1  0.56450000  0.62750000  0.23180000  1.0 -0.1492120858
C  C123  1  0.47640000  0.60220000  0.22900000  1.0 0.0599508146
C  C124  1  0.84710000  0.74290000  0.21940000  1.0 0.3767964879
C  C125  1  0.78200000  0.64400000  0.16310000  1.0 0.3485441272
C  C126  1  0.68910000  0.65410000  0.19320000  1.0 0.3583886911
C  C127  1  0.61550000  0.30010000  0.00950000  1.0 0.0805217908
C  C128  1  0.52560000  0.20240000  0.01030000  1.0 -0.1492120858
C  C129  1  0.52210000  0.13070000  0.03460000  1.0 0.0599508146
C  C130  1  0.60890000  0.16270000  0.05890000  1.0 -0.1614997845
C  C131  1  0.69620000  0.26600000  0.05220000  1.0 0.089052019
C  C132  1  0.24420000  0.61800000  0.10550000  1.0 0.0501011904
C  C133  1  0.25740000  0.68940000  0.07700000  1.0 -0.1690990518
C  C134  1  0.33390000  0.78870000  0.08730000  1.0 0.0599508146
C  C135  1  0.39270000  0.80770000  0.12380000  1.0 -0.1614997845
C  C136  1  0.37660000  0.73520000  0.15060000  1.0 0.1008733266
C  C137  1  0.14320000  0.92520000  0.90770000  1.0 0.0599508146
C  C138  1  0.21380000  0.95240000  0.94070000  1.0 -0.1313580881
C  C139  1  0.20840000  0.88100000  0.96500000  1.0 0.0399150875
C  C140  1  0.12710000  0.78170000  0.95600000  1.0 -0.1690990518
C  C141  1  0.06040000  0.76220000  0.92130000  1.0 0.0681252972
C  C142  1  0.43300000  0.02620000  0.03480000  1.0 0.3304484476
C  C143  1  0.34410000  0.86570000  0.05530000  1.0 0.368337198
C  C144  1  0.28470000  0.90850000  0.99990000  1.0 0.3583886911
I  I1  1  0.22929000  0.48051000  0.55560000  1.0 -0.3597383957
I  I2  1  0.03670000  0.49970000  0.46050000  1.0 -0.0220888624
I  I3  1  0.75321000  0.45469000  0.24065000  1.0 -0.4192680727
I  I4  1  0.84830000  0.63970000  0.35290000  1.0 0.0143945579
I  I5  1  0.84055000  0.87785000  0.11744000  1.0 -0.0220888624
I  I6  1  0.64875000  0.88045000  0.18686000  1.0 -0.3275592338
I  I7  1  0.13850000  0.17630000  0.61816000  1.0 -0.3888839395
I  I8  1  0.13341000  0.36659000  0.68593000  1.0 -0.1614997845
I  I9  1  0.53629000  0.78991000  0.05400000  1.0 -0.2585923682
I  I10  1  0.50617000  0.97583000  0.95838000  1.0 -0.0568047996
I  I11  1  0.37215000  0.15917000  0.85113000  1.0 -0.4648940872
I  I12  1  0.55486000  0.25698000  0.74136000  1.0 -0.4342139672
I  I13  1  0.21465000  0.46795000  0.54960000  1.0 -0.3101556014
I  I14  1  0.04060000  0.51700000  0.45310000  1.0 -0.0454771958
I  I15  1  0.86298000  0.64022000  0.34570000  1.0 0.0143945579
I  I16  1  0.81960000  0.86900000  0.12060000  1.0 -0.0061923357
I  I17  1  0.64920000  0.89500000  0.18630000  1.0 -0.3597383957
I  I18  1  0.13580000  0.18560000  0.61980000  1.0 -0.30312124
I  I19  1  0.12350000  0.36690000  0.69200000  1.0 -0.2195996467
I  I20  1  0.54340000  0.80200000  0.04600000  1.0 -0.2195996467
I  I21  1  0.49430000  0.97170000  0.94660000  1.0 -0.0318877
I  I22  1  0.48051000  0.22929000  0.44440000  1.0 -0.3597383957
I  I23  1  0.49970000  0.03670000  0.53950000  1.0 -0.0220888624
I  I24  1  0.45469000  0.75321000  0.75935000  1.0 -0.4095405232
I  I25  1  0.63970000  0.84830000  0.64710000  1.0 0.0185600108
I  I26  1  0.87785000  0.84055000  0.88256000  1.0 -0.0220888624
I  I27  1  0.88045000  0.64875000  0.81314000  1.0 -0.3275592338
I  I28  1  0.17630000  0.13850000  0.38184000  1.0 -0.3888839395
I  I29  1  0.36659000  0.13341000  0.31407000  1.0 -0.1614997845
I  I30  1  0.78991000  0.53629000  0.94600000  1.0 -0.2585923682
I  I31  1  0.97583000  0.50617000  0.04162000  1.0 -0.0568047996
I  I32  1  0.15917000  0.37215000  0.14887000  1.0 -0.4648940872
I  I33  1  0.25698000  0.55486000  0.25864000  1.0 -0.4342139672
I  I34  1  0.46795000  0.21465000  0.45040000  1.0 -0.3101556014
I  I35  1  0.51700000  0.04060000  0.54690000  1.0 -0.0454771958
I  I36  1  0.64022000  0.86298000  0.65430000  1.0 0.0185600108
I  I37  1  0.86900000  0.81960000  0.87940000  1.0 -0.0061923357
I  I38  1  0.89500000  0.64920000  0.81370000  1.0 -0.3597383957
I  I39  1  0.18560000  0.13580000  0.38020000  1.0 -0.30312124
I  I40  1  0.36690000  0.12350000  0.30800000  1.0 -0.2195996467
I  I41  1  0.80200000  0.54340000  0.95400000  1.0 -0.2195996467
I  I42  1  0.97170000  0.49430000  0.05340000  1.0 -0.0318877
N  N1  1  0.19925000  0.47755000  0.43200000  1.0 -0.1894939105
N  N2  1  0.59550000  0.43550000  0.30870000  1.0 -0.1894939105
N  N3  1  0.92188000  0.05712000  0.19660000  1.0 -0.1813470583
N  N4  1  0.31924000  0.39576000  0.33620000  1.0 -0.4192680727
N  N5  1  0.25533000  0.30207000  0.27580000  1.0 -0.3888839395
N  N6  1  0.14991000  0.30209000  0.30830000  1.0 -0.382839718
N  N7  1  0.71023000  0.37337000  0.35830000  1.0 -0.1813470583
N  N8  1  0.94620000  0.18480000  0.60300000  1.0 -0.1690990518
N  N9  1  0.31460000  0.67920000  0.47100000  1.0 -0.2081670287
N  N10  1  0.73862000  0.17718000  0.47650000  1.0 -0.3888839395
N  N11  1  0.65030000  0.00730000  0.49660000  1.0 -0.4192680727
N  N12  1  0.58690000  0.05350000  0.43710000  1.0 -0.3974659752
N  N13  1  0.95850000  0.09570000  0.69580000  1.0 -0.2290027376
N  N14  1  0.53440000  0.81340000  0.92970000  1.0 -0.1894939105
N  N15  1  0.57490000  0.41430000  0.80870000  1.0 -0.2081670287
N  N16  1  0.71156000  0.86444000  0.80880000  1.0 -0.4371915768
N  N17  1  0.61925000  0.69875000  0.83600000  1.0 -0.382839718
N  N18  1  0.71744000  0.76256000  0.77630000  1.0 -0.4342139672
N  N19  1  0.32730000  0.69510000  0.97090000  1.0 -0.1690990518
N  N20  1  0.64210000  0.30630000  0.85720000  1.0 -0.1894939105
N  N21  1  0.83090000  0.06670000  0.10470000  1.0 -0.1894939105
N  N22  1  0.96230000  0.42810000  0.93850000  1.0 -0.4095405232
N  N23  1  0.83437000  0.27343000  0.97490000  1.0 -0.4192680727
N  N24  1  0.00080000  0.35880000  0.99600000  1.0 -0.4095405232
N  N25  1  0.47755000  0.19925000  0.56800000  1.0 -0.1894939105
N  N26  1  0.43550000  0.59550000  0.69130000  1.0 -0.1894939105
N  N27  1  0.05712000  0.92188000  0.80340000  1.0 -0.1813470583
N  N28  1  0.39576000  0.31924000  0.66380000  1.0 -0.4192680727
N  N29  1  0.30207000  0.25533000  0.72420000  1.0 -0.3888839395
N  N30  1  0.30209000  0.14991000  0.69170000  1.0 -0.382839718
N  N31  1  0.37337000  0.71023000  0.64170000  1.0 -0.1813470583
N  N32  1  0.18480000  0.94620000  0.39700000  1.0 -0.1690990518
N  N33  1  0.67920000  0.31460000  0.52900000  1.0 -0.2081670287
N  N34  1  0.17718000  0.73862000  0.52350000  1.0 -0.3888839395
N  N35  1  0.00730000  0.65030000  0.50340000  1.0 -0.4192680727
N  N36  1  0.05350000  0.58690000  0.56290000  1.0 -0.3974659752
N  N37  1  0.09570000  0.95850000  0.30420000  1.0 -0.2290027376
N  N38  1  0.81340000  0.53440000  0.07030000  1.0 -0.1894939105
N  N39  1  0.41430000  0.57490000  0.19130000  1.0 -0.2081670287
N  N40  1  0.86444000  0.71156000  0.19120000  1.0 -0.4371915768
N  N41  1  0.69875000  0.61925000  0.16400000  1.0 -0.382839718
N  N42  1  0.76256000  0.71744000  0.22370000  1.0 -0.4342139672
N  N43  1  0.69510000  0.32730000  0.02910000  1.0 -0.1690990518
N  N44  1  0.30630000  0.64210000  0.14280000  1.0 -0.1894939105
N  N45  1  0.06670000  0.83090000  0.89530000  1.0 -0.1894939105
N  N46  1  0.42810000  0.96230000  0.06150000  1.0 -0.4095405232
N  N47  1  0.27343000  0.83437000  0.02510000  1.0 -0.4192680727
N  N48  1  0.35880000  0.00080000  0.00400000  1.0 -0.4095405232
