# DDEC6 charges by PACMAN v1.1 (https://github.com/mtap-research/PACMAN-charge/)
data_CAVMOD_FSR_pacman
_symmetry_space_group_name_H-M   'P 1'
_cell_length_a   23.00130000
_cell_length_b   14.05780000
_cell_length_c   38.50680000
_cell_angle_alpha   90.00000000
_cell_angle_beta   125.79300000
_cell_angle_gamma   90.00000000
_symmetry_Int_Tables_number   1
_chemical_formula_structural   Zn4H73C74N7O15
_chemical_formula_sum   'Zn16 H292 C296 N28 O60'
_cell_volume   10099.51370269
_cell_formula_units_Z   4
loop_
 _symmetry_equiv_pos_site_id
 _symmetry_equiv_pos_as_xyz
  1  'x, y, z'
loop_
 _atom_site_type_symbol
 _atom_site_label
 _atom_site_symmetry_multiplicity
 _atom_site_fract_x
 _atom_site_fract_y
 _atom_site_fract_z
 _atom_site_occupancy
 _atom_site_charge
Zn  Zn1  1  0.92535000  0.20127000  0.15743000  1.0 0.9191313611
Zn  Zn2  1  0.92535000  0.29873000  0.65743000  1.0 0.9191313611
Zn  Zn3  1  0.86456000  0.99440000  0.15038000  1.0 0.8370705174
Zn  Zn4  1  0.86456000  0.50560000  0.65038000  1.0 0.8370705174
Zn  Zn5  1  0.42199000  0.16602000  0.89157000  1.0 0.8619629966
Zn  Zn6  1  0.42199000  0.33398000  0.39157000  1.0 0.8619629966
Zn  Zn7  1  0.84227000  0.28750000  0.37314000  1.0 0.7881466226
Zn  Zn8  1  0.84227000  0.21250000  0.87314000  1.0 0.7881466226
Zn  Zn9  1  0.07465000  0.70127000  0.34257000  1.0 0.9191313611
Zn  Zn10  1  0.07465000  0.79873000  0.84257000  1.0 0.9191313611
Zn  Zn11  1  0.13544000  0.49440000  0.34962000  1.0 0.8370705174
Zn  Zn12  1  0.13544000  0.00560000  0.84962000  1.0 0.8370705174
Zn  Zn13  1  0.57801000  0.66602000  0.60843000  1.0 0.8619629966
Zn  Zn14  1  0.57801000  0.83398000  0.10843000  1.0 0.8619629966
Zn  Zn15  1  0.15773000  0.78750000  0.12686000  1.0 0.7881466226
Zn  Zn16  1  0.15773000  0.71250000  0.62686000  1.0 0.7881466226
H  H1  1  0.71960000  0.27990000  0.05140000  1.0 0.1201421149
H  H2  1  0.71960000  0.22010000  0.55140000  1.0 0.1201421149
H  H3  1  0.64480000  0.01250000  0.03190000  1.0 0.1201421149
H  H4  1  0.64480000  0.48750000  0.53190000  1.0 0.1201421149
H  H5  1  0.54490000  0.35050000  0.92160000  1.0 0.1481240487
H  H6  1  0.54490000  0.14950000  0.42160000  1.0 0.1481240487
H  H7  1  0.57950000  0.45210000  0.93400000  1.0 0.1304599413
H  H8  1  0.57950000  0.04790000  0.43400000  1.0 0.1304599413
H  H9  1  0.62640000  0.36300000  0.94140000  1.0 0.1304599413
H  H10  1  0.62640000  0.13700000  0.44140000  1.0 0.1304599413
H  H11  1  0.66730000  0.49840000  0.00760000  1.0 0.1398859354
H  H12  1  0.66730000  0.00160000  0.50760000  1.0 0.1398859354
H  H13  1  0.69000000  0.42800000  0.04510000  1.0 0.1304599413
H  H14  1  0.69000000  0.07200000  0.54510000  1.0 0.1304599413
H  H15  1  0.71320000  0.40820000  0.01480000  1.0 0.1201421149
H  H16  1  0.71320000  0.09180000  0.51480000  1.0 0.1201421149
H  H17  1  0.50410000  0.38110000  0.97050000  1.0 0.1481240487
H  H18  1  0.50410000  0.11890000  0.47050000  1.0 0.1481240487
H  H19  1  0.56270000  0.41320000  0.01770000  1.0 0.1398859354
H  H20  1  0.56270000  0.08680000  0.51770000  1.0 0.1398859354
H  H21  1  0.53980000  0.48160000  0.97950000  1.0 0.1398859354
H  H22  1  0.53980000  0.01840000  0.47950000  1.0 0.1398859354
H  H23  1  0.53030000  0.97170000  0.97770000  1.0 0.0995384145
H  H24  1  0.53030000  0.52830000  0.47770000  1.0 0.0995384145
H  H25  1  0.47200000  0.85370000  0.94440000  1.0 0.1398859354
H  H26  1  0.47200000  0.64630000  0.44440000  1.0 0.1398859354
H  H27  1  0.38800000  0.73510000  0.90490000  1.0 0.1304599413
H  H28  1  0.38800000  0.76490000  0.40490000  1.0 0.1304599413
H  H29  1  0.27660000  0.77370000  0.84330000  1.0 0.1304599413
H  H30  1  0.27660000  0.72630000  0.34330000  1.0 0.1304599413
H  H31  1  0.24900000  0.93100000  0.82120000  1.0 0.1201421149
H  H32  1  0.24900000  0.56900000  0.32120000  1.0 0.1201421149
H  H33  1  0.23030000  0.07060000  0.81500000  1.0 0.1111364285
H  H34  1  0.23030000  0.42940000  0.31500000  1.0 0.1111364285
H  H35  1  0.18060000  0.46140000  0.78120000  1.0 0.1111364285
H  H36  1  0.18060000  0.03860000  0.28120000  1.0 0.1111364285
H  H37  1  0.14570000  0.17930000  0.76920000  1.0 0.1304599413
H  H38  1  0.14570000  0.32070000  0.26920000  1.0 0.1304599413
H  H39  1  0.40840000  0.52640000  0.85730000  1.0 0.1304599413
H  H40  1  0.40840000  0.97360000  0.35730000  1.0 0.1304599413
H  H41  1  0.40620000  0.41490000  0.85630000  1.0 0.1481240487
H  H42  1  0.40620000  0.08510000  0.35630000  1.0 0.1481240487
H  H43  1  0.36030000  0.47270000  0.81350000  1.0 0.1304599413
H  H44  1  0.36030000  0.02730000  0.31350000  1.0 0.1304599413
H  H45  1  0.37510000  0.53000000  0.90710000  1.0 0.1304599413
H  H46  1  0.37510000  0.97000000  0.40710000  1.0 0.1304599413
H  H47  1  0.30510000  0.47870000  0.89510000  1.0 0.1304599413
H  H48  1  0.30510000  0.02130000  0.39510000  1.0 0.1304599413
H  H49  1  0.37200000  0.41860000  0.90730000  1.0 0.1481240487
H  H50  1  0.37200000  0.08140000  0.40730000  1.0 0.1481240487
H  H51  1  0.31000000  0.61800000  0.84200000  1.0 0.1304599413
H  H52  1  0.31000000  0.88200000  0.34200000  1.0 0.1304599413
H  H53  1  0.26040000  0.56730000  0.79760000  1.0 0.1304599413
H  H54  1  0.26040000  0.93270000  0.29760000  1.0 0.1304599413
H  H55  1  0.23870000  0.56950000  0.82930000  1.0 0.1304599413
H  H56  1  0.23870000  0.93050000  0.32930000  1.0 0.1304599413
H  H57  1  0.87810000  0.27500000  0.24980000  1.0 0.1201421149
H  H58  1  0.87810000  0.22500000  0.74980000  1.0 0.1201421149
H  H59  1  0.88320000  0.99300000  0.26840000  1.0 0.1201421149
H  H60  1  0.88320000  0.50700000  0.76840000  1.0 0.1201421149
H  H61  1  0.81520000  0.92560000  0.35150000  1.0 0.1304599413
H  H62  1  0.81520000  0.57440000  0.85150000  1.0 0.1304599413
H  H63  1  0.80770000  0.03640000  0.34610000  1.0 0.1398859354
H  H64  1  0.80770000  0.46360000  0.84610000  1.0 0.1398859354
H  H65  1  0.77230000  0.97080000  0.30560000  1.0 0.1304599413
H  H66  1  0.77230000  0.52920000  0.80560000  1.0 0.1304599413
H  H67  1  0.95180000  0.93960000  0.39990000  1.0 0.1398859354
H  H68  1  0.95180000  0.56040000  0.89990000  1.0 0.1398859354
H  H69  1  0.99040000  0.99760000  0.38410000  1.0 0.1304599413
H  H70  1  0.99040000  0.50240000  0.88410000  1.0 0.1304599413
H  H71  1  0.94360000  0.05050000  0.39550000  1.0 0.1481240487
H  H72  1  0.94360000  0.44950000  0.89550000  1.0 0.1481240487
H  H73  1  0.89230000  0.83630000  0.33620000  1.0 0.1304599413
H  H74  1  0.89230000  0.66370000  0.83620000  1.0 0.1304599413
H  H75  1  0.84560000  0.88020000  0.29010000  1.0 0.1304599413
H  H76  1  0.84560000  0.61980000  0.79010000  1.0 0.1304599413
H  H77  1  0.92920000  0.89030000  0.31830000  1.0 0.1398859354
H  H78  1  0.92920000  0.60970000  0.81830000  1.0 0.1398859354
H  H79  1  0.88540000  0.38440000  0.29620000  1.0 0.1111364285
H  H80  1  0.88540000  0.11560000  0.79620000  1.0 0.1111364285
H  H81  1  0.86850000  0.52790000  0.30010000  1.0 0.1304599413
H  H82  1  0.86850000  0.97210000  0.80010000  1.0 0.1304599413
H  H83  1  0.88400000  0.68390000  0.32360000  1.0 0.1304599413
H  H84  1  0.88400000  0.81610000  0.82360000  1.0 0.1201421149
H  H85  1  0.90000000  0.71750000  0.38770000  1.0 0.1304599413
H  H86  1  0.90000000  0.78250000  0.88770000  1.0 0.1304599413
H  H87  1  0.90040000  0.59500000  0.42820000  1.0 0.1304599413
H  H88  1  0.90040000  0.90500000  0.92820000  1.0 0.1304599413
H  H89  1  0.91940000  0.47440000  0.46270000  1.0 0.0995384145
H  H90  1  0.91940000  0.02560000  0.96270000  1.0 0.0995384145
H  H91  1  0.89120000  0.16580000  0.54360000  1.0 0.1201421149
H  H92  1  0.89120000  0.33420000  0.04360000  1.0 0.1201421149
H  H93  1  0.93010000  0.43060000  0.52260000  1.0 0.1201421149
H  H94  1  0.93010000  0.06940000  0.02260000  1.0 0.1201421149
H  H95  1  0.75260000  0.01340000  0.42170000  1.0 0.1304599413
H  H96  1  0.75260000  0.48660000  0.92170000  1.0 0.1304599413
H  H97  1  0.73760000  0.10910000  0.43600000  1.0 0.1304599413
H  H98  1  0.73760000  0.39090000  0.93600000  1.0 0.1304599413
H  H99  1  0.76650000  0.11080000  0.40790000  1.0 0.1398859354
H  H100  1  0.76650000  0.38920000  0.90790000  1.0 0.1398859354
H  H101  1  0.87800000  0.96380000  0.45210000  1.0 0.1398859354
H  H102  1  0.87800000  0.53620000  0.95210000  1.0 0.1398859354
H  H103  1  0.89400000  0.06180000  0.43980000  1.0 0.1481240487
H  H104  1  0.89400000  0.43820000  0.93980000  1.0 0.1481240487
H  H105  1  0.94240000  0.02620000  0.48740000  1.0 0.1304599413
H  H106  1  0.94240000  0.47380000  0.98740000  1.0 0.1304599413
H  H107  1  0.82700000  0.95660000  0.49300000  1.0 0.1304599413
H  H108  1  0.82700000  0.54340000  0.99300000  1.0 0.1304599413
H  H109  1  0.89270000  0.01530000  0.52960000  1.0 0.1304599413
H  H110  1  0.89270000  0.48470000  0.02960000  1.0 0.1304599413
H  H111  1  0.81450000  0.04930000  0.51040000  1.0 0.1201421149
H  H112  1  0.81450000  0.45070000  0.01040000  1.0 0.1201421149
H  H113  1  0.97300000  0.84180000  0.20280000  1.0 0.1201421149
H  H114  1  0.97300000  0.65820000  0.70280000  1.0 0.1201421149
H  H115  1  0.98180000  0.67730000  0.20380000  1.0 0.1304599413
H  H116  1  0.98180000  0.82270000  0.70380000  1.0 0.1304599413
H  H117  1  0.77900000  0.66140000  0.09840000  1.0 0.1398859354
H  H118  1  0.77900000  0.83860000  0.59840000  1.0 0.1398859354
H  H119  1  0.77010000  0.82590000  0.09740000  1.0 0.1304599413
H  H120  1  0.77010000  0.67410000  0.59740000  1.0 0.1304599413
H  H121  1  0.95600000  0.53350000  0.21650000  1.0 0.1398859354
H  H122  1  0.95600000  0.96650000  0.71650000  1.0 0.1398859354
H  H123  1  0.96950000  0.36960000  0.21880000  1.0 0.1201421149
H  H124  1  0.96950000  0.13040000  0.71880000  1.0 0.1201421149
H  H125  1  0.83730000  0.35950000  0.09030000  1.0 0.1201421149
H  H126  1  0.83730000  0.14050000  0.59030000  1.0 0.1201421149
H  H127  1  0.82380000  0.52350000  0.08800000  1.0 0.1398859354
H  H128  1  0.82380000  0.97650000  0.58800000  1.0 0.1398859354
H  H129  1  0.71310000  0.46780000  0.37440000  1.0 0.1481240487
H  H130  1  0.71310000  0.03220000  0.87440000  1.0 0.1481240487
H  H131  1  0.63710000  0.46800000  0.33040000  1.0 0.1201421149
H  H132  1  0.63710000  0.03200000  0.83040000  1.0 0.1111364285
H  H133  1  0.64940000  0.41250000  0.36950000  1.0 0.1398859354
H  H134  1  0.64940000  0.08750000  0.86950000  1.0 0.1398859354
H  H135  1  0.51540000  0.32110000  0.27110000  1.0 0.1304599413
H  H136  1  0.51540000  0.17890000  0.77110000  1.0 0.1304599413
H  H137  1  0.55890000  0.38790000  0.31120000  1.0 0.1201421149
H  H138  1  0.55890000  0.11210000  0.81120000  1.0 0.1111364285
H  H139  1  0.56510000  0.40050000  0.27300000  1.0 0.1111364285
H  H140  1  0.56510000  0.09950000  0.77300000  1.0 0.1111364285
H  H141  1  0.57090000  0.16530000  0.28640000  1.0 0.1201421149
H  H142  1  0.57090000  0.33470000  0.78640000  1.0 0.1201421149
H  H143  1  0.64640000  0.16940000  0.29500000  1.0 0.1398859354
H  H144  1  0.64640000  0.33060000  0.79500000  1.0 0.1398859354
H  H145  1  0.64060000  0.15750000  0.33333333  1.0 0.1304599413
H  H146  1  0.64060000  0.34250000  0.83330000  1.0 0.1304599413
H  H147  1  0.28040000  0.77990000  0.44860000  1.0 0.1201421149
H  H148  1  0.28040000  0.72010000  0.94860000  1.0 0.1201421149
H  H149  1  0.35520000  0.51250000  0.46810000  1.0 0.1201421149
H  H150  1  0.35520000  0.98750000  0.96810000  1.0 0.1201421149
H  H151  1  0.45510000  0.85050000  0.57840000  1.0 0.1481240487
H  H152  1  0.45510000  0.64950000  0.07840000  1.0 0.1481240487
H  H153  1  0.42050000  0.95210000  0.56600000  1.0 0.1304599413
H  H154  1  0.42050000  0.54790000  0.06600000  1.0 0.1304599413
H  H155  1  0.37360000  0.86300000  0.55860000  1.0 0.1304599413
H  H156  1  0.37360000  0.63700000  0.05860000  1.0 0.1304599413
H  H157  1  0.33270000  0.99840000  0.49240000  1.0 0.1398859354
H  H158  1  0.33270000  0.50160000  0.99240000  1.0 0.1398859354
H  H159  1  0.31000000  0.92800000  0.45490000  1.0 0.1304599413
H  H160  1  0.31000000  0.57200000  0.95490000  1.0 0.1304599413
H  H161  1  0.28680000  0.90820000  0.48520000  1.0 0.1201421149
H  H162  1  0.28680000  0.59180000  0.98520000  1.0 0.1201421149
H  H163  1  0.49590000  0.88110000  0.52950000  1.0 0.1481240487
H  H164  1  0.49590000  0.61890000  0.02950000  1.0 0.1481240487
H  H165  1  0.43730000  0.91320000  0.48230000  1.0 0.1398859354
H  H166  1  0.43730000  0.58680000  0.98230000  1.0 0.1398859354
H  H167  1  0.46020000  0.98160000  0.52050000  1.0 0.1398859354
H  H168  1  0.46020000  0.51840000  0.02050000  1.0 0.1398859354
H  H169  1  0.46970000  0.47170000  0.52230000  1.0 0.0995384145
H  H170  1  0.46970000  0.02830000  0.02230000  1.0 0.0995384145
H  H171  1  0.52800000  0.35370000  0.55560000  1.0 0.1398859354
H  H172  1  0.52800000  0.14630000  0.05560000  1.0 0.1398859354
H  H173  1  0.61200000  0.23510000  0.59510000  1.0 0.1304599413
H  H174  1  0.61200000  0.26490000  0.09510000  1.0 0.1304599413
H  H175  1  0.72340000  0.27370000  0.65670000  1.0 0.1304599413
H  H176  1  0.72340000  0.22630000  0.15670000  1.0 0.1304599413
H  H177  1  0.75100000  0.43100000  0.67880000  1.0 0.1201421149
H  H178  1  0.75100000  0.06900000  0.17880000  1.0 0.1201421149
H  H179  1  0.76970000  0.57060000  0.68500000  1.0 0.1111364285
H  H180  1  0.76970000  0.92940000  0.18500000  1.0 0.1111364285
H  H181  1  0.81940000  0.96140000  0.71880000  1.0 0.1111364285
H  H182  1  0.81940000  0.53860000  0.21880000  1.0 0.1111364285
H  H183  1  0.85430000  0.67930000  0.73080000  1.0 0.1304599413
H  H184  1  0.85430000  0.82070000  0.23080000  1.0 0.1304599413
H  H185  1  0.59160000  0.02640000  0.64270000  1.0 0.1304599413
H  H186  1  0.59160000  0.47360000  0.14270000  1.0 0.1304599413
H  H187  1  0.59380000  0.91490000  0.64370000  1.0 0.1481240487
H  H188  1  0.59380000  0.58510000  0.14370000  1.0 0.1481240487
H  H189  1  0.63970000  0.97270000  0.68650000  1.0 0.1304599413
H  H190  1  0.63970000  0.52730000  0.18650000  1.0 0.1304599413
H  H191  1  0.62490000  0.03000000  0.59290000  1.0 0.1304599413
H  H192  1  0.62490000  0.47000000  0.09290000  1.0 0.1304599413
H  H193  1  0.69490000  0.97870000  0.60490000  1.0 0.1304599413
H  H194  1  0.69490000  0.52130000  0.10490000  1.0 0.1304599413
H  H195  1  0.62800000  0.91860000  0.59270000  1.0 0.1481240487
H  H196  1  0.62800000  0.58140000  0.09270000  1.0 0.1481240487
H  H197  1  0.69000000  0.11800000  0.65800000  1.0 0.1304599413
H  H198  1  0.69000000  0.38200000  0.15800000  1.0 0.1304599413
H  H199  1  0.73960000  0.06730000  0.70240000  1.0 0.1304599413
H  H200  1  0.73960000  0.43270000  0.20240000  1.0 0.1304599413
H  H201  1  0.76130000  0.06950000  0.67070000  1.0 0.1304599413
H  H202  1  0.76130000  0.43050000  0.17070000  1.0 0.1304599413
H  H203  1  0.12190000  0.77500000  0.25020000  1.0 0.1201421149
H  H204  1  0.12190000  0.72500000  0.75020000  1.0 0.1201421149
H  H205  1  0.11680000  0.49300000  0.23160000  1.0 0.1201421149
H  H206  1  0.11680000  0.00700000  0.73160000  1.0 0.1201421149
H  H207  1  0.18480000  0.42560000  0.14850000  1.0 0.1304599413
H  H208  1  0.18480000  0.07440000  0.64850000  1.0 0.1304599413
H  H209  1  0.19230000  0.53640000  0.15390000  1.0 0.1481240487
H  H210  1  0.19230000  0.96360000  0.65390000  1.0 0.1398859354
H  H211  1  0.22770000  0.47080000  0.19440000  1.0 0.1398859354
H  H212  1  0.22770000  0.02920000  0.69440000  1.0 0.1398859354
H  H213  1  0.04820000  0.43960000  0.10010000  1.0 0.1398859354
H  H214  1  0.04820000  0.06040000  0.60010000  1.0 0.1398859354
H  H215  1  0.00960000  0.49760000  0.11590000  1.0 0.1304599413
H  H216  1  0.00960000  0.00240000  0.61590000  1.0 0.1304599413
H  H217  1  0.05640000  0.55050000  0.10450000  1.0 0.1481240487
H  H218  1  0.05640000  0.94950000  0.60450000  1.0 0.1481240487
H  H219  1  0.10770000  0.33630000  0.16380000  1.0 0.1304599413
H  H220  1  0.10770000  0.16370000  0.66380000  1.0 0.1304599413
H  H221  1  0.15440000  0.38020000  0.20990000  1.0 0.1304599413
H  H222  1  0.15440000  0.11980000  0.70990000  1.0 0.1304599413
H  H223  1  0.07080000  0.39030000  0.18170000  1.0 0.1398859354
H  H224  1  0.07080000  0.10970000  0.68170000  1.0 0.1398859354
H  H225  1  0.11460000  0.88440000  0.20380000  1.0 0.1111364285
H  H226  1  0.11460000  0.61560000  0.70380000  1.0 0.1111364285
H  H227  1  0.13150000  0.02790000  0.19990000  1.0 0.1304599413
H  H228  1  0.13150000  0.47210000  0.69990000  1.0 0.1304599413
H  H229  1  0.11600000  0.18390000  0.17640000  1.0 0.1304599413
H  H230  1  0.11600000  0.31610000  0.67640000  1.0 0.1304599413
H  H231  1  0.10000000  0.21750000  0.11230000  1.0 0.1304599413
H  H232  1  0.10000000  0.28250000  0.61230000  1.0 0.1304599413
H  H233  1  0.09960000  0.09500000  0.07180000  1.0 0.1304599413
H  H234  1  0.09960000  0.40500000  0.57180000  1.0 0.1304599413
H  H235  1  0.08060000  0.97440000  0.03730000  1.0 0.0995384145
H  H236  1  0.08060000  0.52560000  0.53730000  1.0 0.0995384145
H  H237  1  0.10880000  0.66580000  0.95640000  1.0 0.1201421149
H  H238  1  0.10880000  0.83420000  0.45640000  1.0 0.1201421149
H  H239  1  0.06990000  0.93060000  0.97740000  1.0 0.1201421149
H  H240  1  0.06990000  0.56940000  0.47740000  1.0 0.1201421149
H  H241  1  0.24740000  0.51340000  0.07830000  1.0 0.1304599413
H  H242  1  0.24740000  0.98660000  0.57830000  1.0 0.1304599413
H  H243  1  0.26240000  0.60910000  0.06400000  1.0 0.1304599413
H  H244  1  0.26240000  0.89090000  0.56400000  1.0 0.1304599413
H  H245  1  0.23350000  0.61080000  0.09210000  1.0 0.1398859354
H  H246  1  0.23350000  0.88920000  0.59210000  1.0 0.1398859354
H  H247  1  0.12200000  0.46380000  0.04790000  1.0 0.1398859354
H  H248  1  0.12200000  0.03620000  0.54790000  1.0 0.1398859354
H  H249  1  0.10600000  0.56180000  0.06020000  1.0 0.1481240487
H  H250  1  0.10600000  0.93820000  0.56020000  1.0 0.1481240487
H  H251  1  0.05760000  0.52620000  0.01260000  1.0 0.1304599413
H  H252  1  0.05760000  0.97380000  0.51260000  1.0 0.1304599413
H  H253  1  0.17300000  0.45660000  0.00700000  1.0 0.1304599413
H  H254  1  0.17300000  0.04340000  0.50700000  1.0 0.1304599413
H  H255  1  0.10730000  0.51530000  0.97040000  1.0 0.1304599413
H  H256  1  0.10730000  0.98470000  0.47040000  1.0 0.1304599413
H  H257  1  0.18550000  0.54930000  0.98960000  1.0 0.1201421149
H  H258  1  0.18550000  0.95070000  0.48960000  1.0 0.1201421149
H  H259  1  0.02700000  0.34180000  0.29720000  1.0 0.1201421149
H  H260  1  0.02700000  0.15820000  0.79720000  1.0 0.1201421149
H  H261  1  0.01820000  0.17730000  0.29620000  1.0 0.1304599413
H  H262  1  0.01820000  0.32270000  0.79620000  1.0 0.1304599413
H  H263  1  0.22100000  0.16140000  0.40160000  1.0 0.1398859354
H  H264  1  0.22100000  0.33860000  0.90160000  1.0 0.1398859354
H  H265  1  0.22990000  0.32590000  0.40260000  1.0 0.1304599413
H  H266  1  0.22990000  0.17410000  0.90260000  1.0 0.1304599413
H  H267  1  0.04400000  0.03350000  0.28350000  1.0 0.1398859354
H  H268  1  0.04400000  0.46650000  0.78350000  1.0 0.1398859354
H  H269  1  0.03050000  0.86960000  0.28120000  1.0 0.1201421149
H  H270  1  0.03050000  0.63040000  0.78120000  1.0 0.1201421149
H  H271  1  0.16270000  0.85950000  0.40970000  1.0 0.1201421149
H  H272  1  0.16270000  0.64050000  0.90970000  1.0 0.1201421149
H  H273  1  0.17620000  0.02350000  0.41200000  1.0 0.1398859354
H  H274  1  0.17620000  0.47650000  0.91200000  1.0 0.1398859354
H  H275  1  0.28690000  0.96780000  0.12560000  1.0 0.1481240487
H  H276  1  0.28690000  0.53220000  0.62560000  1.0 0.1481240487
H  H277  1  0.36290000  0.96800000  0.16960000  1.0 0.1111364285
H  H278  1  0.36290000  0.53200000  0.66960000  1.0 0.1201421149
H  H279  1  0.35060000  0.91250000  0.13050000  1.0 0.1398859354
H  H280  1  0.35060000  0.58750000  0.63050000  1.0 0.1398859354
H  H281  1  0.48460000  0.82110000  0.22890000  1.0 0.1304599413
H  H282  1  0.48460000  0.67890000  0.72890000  1.0 0.1304599413
H  H283  1  0.44110000  0.88790000  0.18880000  1.0 0.1111364285
H  H284  1  0.44110000  0.61210000  0.68880000  1.0 0.1111364285
H  H285  1  0.43490000  0.90050000  0.22700000  1.0 0.1111364285
H  H286  1  0.43490000  0.59950000  0.72700000  1.0 0.1111364285
H  H287  1  0.42910000  0.66530000  0.21360000  1.0 0.1201421149
H  H288  1  0.42910000  0.83470000  0.71360000  1.0 0.1201421149
H  H289  1  0.35360000  0.66940000  0.20500000  1.0 0.1398859354
H  H290  1  0.35360000  0.83060000  0.70500000  1.0 0.1398859354
H  H291  1  0.35940000  0.65750000  0.16670000  1.0 0.1304599413
H  H292  1  0.35940000  0.84250000  0.66666667  1.0 0.1304599413
C  C1  1  0.76360000  0.11060000  0.08680000  1.0 0.5879895167
C  C2  1  0.76360000  0.38940000  0.58680000  1.0 0.5879895167
C  C3  1  0.69312000  0.14130000  0.04762000  1.0 -0.0385179543
C  C4  1  0.69312000  0.35870000  0.54762000  1.0 -0.0385179543
C  C5  1  0.68270000  0.23630000  0.03540000  1.0 -0.1333329639
C  C6  1  0.68270000  0.26370000  0.53540000  1.0 -0.1333329639
C  C7  1  0.61710000  0.26610000  0.99930000  1.0 -0.0494731165
C  C8  1  0.61710000  0.23390000  0.49930000  1.0 -0.0494731165
C  C9  1  0.56180000  0.20090000  0.97540000  1.0 0.2495207117
C  C10  1  0.56180000  0.29910000  0.47540000  1.0 0.2495207117
C  C11  1  0.57230000  0.10590000  0.98770000  1.0 -0.0703177432
C  C12  1  0.57230000  0.39410000  0.48770000  1.0 -0.0703177432
C  C13  1  0.63800000  0.07600000  0.02380000  1.0 -0.1410060279
C  C14  1  0.63800000  0.42400000  0.52380000  1.0 -0.1410060279
C  C15  1  0.60560000  0.37420000  0.98580000  1.0 0.3002797218
C  C16  1  0.60560000  0.12580000  0.48580000  1.0 0.3002797218
C  C17  1  0.58740000  0.38600000  0.94170000  1.0 -0.4625731527
C  C18  1  0.58740000  0.11400000  0.44170000  1.0 -0.4625731527
C  C19  1  0.67580000  0.43290000  0.01630000  1.0 -0.4671721159
C  C20  1  0.67580000  0.06710000  0.51630000  1.0 -0.4671721159
C  C21  1  0.54770000  0.41640000  0.98860000  1.0 -0.4871133043
C  C22  1  0.54770000  0.08360000  0.48860000  1.0 -0.4871133043
C  C23  1  0.51920000  0.03120000  0.96470000  1.0 0.0995384145
C  C24  1  0.51920000  0.46880000  0.46470000  1.0 0.0995384145
C  C25  1  0.41070000  0.96340000  0.90640000  1.0 0.1398859354
C  C26  1  0.41070000  0.53660000  0.40640000  1.0 0.1398859354
C  C27  1  0.42730000  0.86920000  0.91970000  1.0 -0.1601865867
C  C28  1  0.42730000  0.63080000  0.41970000  1.0 -0.1601865867
C  C29  1  0.37700000  0.79810000  0.89600000  1.0 -0.077697046
C  C30  1  0.37700000  0.70190000  0.39600000  1.0 -0.077697046
C  C31  1  0.31020000  0.82130000  0.85910000  1.0 -0.0703177432
C  C32  1  0.31020000  0.67870000  0.35910000  1.0 -0.0703177432
C  C33  1  0.29370000  0.91550000  0.84590000  1.0 -0.1509424412
C  C34  1  0.29370000  0.58450000  0.34590000  1.0 -0.1509424412
C  C35  1  0.34390000  0.98650000  0.86950000  1.0 0.1481240487
C  C36  1  0.34390000  0.51350000  0.36950000  1.0 0.1481240487
C  C37  1  0.26700000  0.11520000  0.82910000  1.0 0.1111364285
C  C38  1  0.26700000  0.38480000  0.32910000  1.0 0.1111364285
C  C39  1  0.24780000  0.21530000  0.81660000  1.0 -0.0703177432
C  C40  1  0.24780000  0.28470000  0.31660000  1.0 -0.0703177432
C  C41  1  0.29396000  0.29200000  0.83706000  1.0 0.2495207117
C  C42  1  0.29396000  0.20800000  0.33706000  1.0 0.2495207117
C  C43  1  0.26870000  0.38430000  0.82380000  1.0 -0.0385179543
C  C44  1  0.26870000  0.11570000  0.32380000  1.0 -0.0385179543
C  C45  1  0.19740000  0.39970000  0.79000000  1.0 -0.1509424412
C  C46  1  0.19740000  0.10030000  0.29000000  1.0 -0.1509424412
C  C47  1  0.15129000  0.32290000  0.76959000  1.0 -0.0494731165
C  C48  1  0.15129000  0.17710000  0.26959000  1.0 -0.0494731165
C  C49  1  0.17658000  0.23070000  0.78288000  1.0 -0.1410060279
C  C50  1  0.17658000  0.26930000  0.28288000  1.0 -0.1410060279
C  C51  1  0.31790000  0.47350000  0.84690000  1.0 0.2820841373
C  C52  1  0.31790000  0.02650000  0.34690000  1.0 0.2820841373
C  C53  1  0.37860000  0.47170000  0.84320000  1.0 -0.439375267
C  C54  1  0.37860000  0.02830000  0.34320000  1.0 -0.439375267
C  C55  1  0.34500000  0.47530000  0.89330000  1.0 -0.4671721159
C  C56  1  0.34500000  0.02470000  0.39330000  1.0 -0.4671721159
C  C57  1  0.27810000  0.56540000  0.82710000  1.0 -0.439375267
C  C58  1  0.27810000  0.93460000  0.32710000  1.0 -0.4451147689
C  C59  1  0.07510000  0.34480000  0.73280000  1.0 0.5436424838
C  C60  1  0.07510000  0.15520000  0.23280000  1.0 0.5436424838
C  C61  1  0.88690000  0.11490000  0.21690000  1.0 0.5729529933
C  C62  1  0.88690000  0.38510000  0.71690000  1.0 0.5729529933
C  C63  1  0.88141000  0.13140000  0.25351000  1.0 -0.059976274
C  C64  1  0.88141000  0.36860000  0.75351000  1.0 -0.059976274
C  C65  1  0.87748000  0.22380000  0.26488000  1.0 -0.1601865867
C  C66  1  0.87748000  0.27620000  0.76488000  1.0 -0.1601865867
C  C67  1  0.87280000  0.23950000  0.29880000  1.0 -0.0703177432
C  C68  1  0.87280000  0.26050000  0.79880000  1.0 -0.0703177432
C  C69  1  0.87188000  0.16290000  0.32128000  1.0 0.259627659
C  C70  1  0.87188000  0.33710000  0.82128000  1.0 0.259627659
C  C71  1  0.87580000  0.07060000  0.30990000  1.0 -0.0494731165
C  C72  1  0.87580000  0.42940000  0.80990000  1.0 -0.0494731165
C  C73  1  0.88060000  0.05480000  0.27600000  1.0 -0.1410060279
C  C74  1  0.88060000  0.44520000  0.77600000  1.0 -0.1410060279
C  C75  1  0.88250000  0.98270000  0.33730000  1.0 0.3002797218
C  C76  1  0.88250000  0.51730000  0.83730000  1.0 0.3002797218
C  C77  1  0.81280000  0.97840000  0.33490000  1.0 -0.4625731527
C  C78  1  0.81280000  0.52160000  0.83490000  1.0 -0.4625731527
C  C79  1  0.94820000  0.99360000  0.38350000  1.0 -0.4808072782
C  C80  1  0.94820000  0.50640000  0.88350000  1.0 -0.4808072782
C  C81  1  0.88790000  0.88850000  0.31870000  1.0 -0.4625731527
C  C82  1  0.88790000  0.61150000  0.81870000  1.0 -0.4625731527
C  C83  1  0.87610000  0.33990000  0.31020000  1.0 0.1111364285
C  C84  1  0.87610000  0.16010000  0.81020000  1.0 0.1111364285
C  C85  1  0.87520000  0.46790000  0.35010000  1.0 0.1481240487
C  C86  1  0.87520000  0.03210000  0.85010000  1.0 0.1481240487
C  C87  1  0.87488000  0.54130000  0.32578000  1.0 -0.122051183
C  C88  1  0.87488000  0.95870000  0.82578000  1.0 -0.122051183
C  C89  1  0.88420000  0.63480000  0.33990000  1.0 -0.0385179543
C  C90  1  0.88420000  0.86520000  0.83990000  1.0 -0.0385179543
C  C91  1  0.89370000  0.65490000  0.37820000  1.0 -0.059976274
C  C92  1  0.89370000  0.84510000  0.87820000  1.0 -0.059976274
C  C93  1  0.89400000  0.58150000  0.40250000  1.0 -0.1601865867
C  C94  1  0.89400000  0.91850000  0.90250000  1.0 -0.1601865867
C  C95  1  0.88480000  0.48800000  0.38850000  1.0 0.1398859354
C  C96  1  0.88480000  0.01200000  0.88850000  1.0 0.1398859354
C  C97  1  0.90090000  0.41610000  0.44910000  1.0 0.0995384145
C  C98  1  0.90090000  0.08390000  0.94910000  1.0 0.1111364285
C  C99  1  0.89620000  0.34070000  0.47320000  1.0 -0.077697046
C  C100  1  0.89620000  0.15930000  0.97320000  1.0 -0.077697046
C  C101  1  0.87467000  0.24760000  0.45937000  1.0 0.259627659
C  C102  1  0.87467000  0.25240000  0.95937000  1.0 0.259627659
C  C103  1  0.87280000  0.18210000  0.48570000  1.0 -0.0494731165
C  C104  1  0.87280000  0.31790000  0.98570000  1.0 -0.0494731165
C  C105  1  0.89242000  0.20970000  0.52592000  1.0 -0.1333329639
C  C106  1  0.89242000  0.29030000  0.02592000  1.0 -0.1333329639
C  C107  1  0.91384000  0.30280000  0.53974000  1.0 -0.0221903721
C  C108  1  0.91384000  0.19720000  0.03974000  1.0 -0.0221903721
C  C109  1  0.91580000  0.36830000  0.51340000  1.0 -0.1509424412
C  C110  1  0.91580000  0.13170000  0.01340000  1.0 -0.1509424412
C  C111  1  0.84440000  0.07820000  0.47050000  1.0 0.2879380511
C  C112  1  0.84440000  0.42180000  0.97050000  1.0 0.2879380511
C  C113  1  0.76830000  0.07780000  0.43030000  1.0 -0.4671721159
C  C114  1  0.76830000  0.42220000  0.93030000  1.0 -0.4671721159
C  C115  1  0.89450000  0.02770000  0.46160000  1.0 -0.4671721159
C  C116  1  0.89450000  0.47230000  0.96160000  1.0 -0.4671721159
C  C117  1  0.84470000  0.01940000  0.50400000  1.0 -0.4625731527
C  C118  1  0.84470000  0.48060000  0.00400000  1.0 -0.4625731527
C  C119  1  0.93110000  0.33280000  0.58240000  1.0 0.5463188515
C  C120  1  0.93110000  0.16720000  0.08240000  1.0 0.5463188515
C  C121  1  0.93411000  0.80560000  0.18191000  1.0 0.0810181528
C  C122  1  0.93411000  0.69440000  0.68191000  1.0 0.0810181528
C  C123  1  0.93940000  0.70710000  0.18250000  1.0 -0.1509424412
C  C124  1  0.93940000  0.79290000  0.68250000  1.0 -0.1509424412
C  C125  1  0.88130000  0.65300000  0.15120000  1.0 0.1111364285
C  C126  1  0.88130000  0.84700000  0.65120000  1.0 0.1111364285
C  C127  1  0.81784000  0.69750000  0.11934000  1.0 -0.1703515946
C  C128  1  0.81784000  0.80250000  0.61934000  1.0 -0.1703515946
C  C129  1  0.81255000  0.79610000  0.11875000  1.0 0.0810181528
C  C130  1  0.81255000  0.70390000  0.61875000  1.0 0.0810181528
C  C131  1  0.88849000  0.54470000  0.15199000  1.0 0.1111364285
C  C132  1  0.88849000  0.95530000  0.65199000  1.0 0.1111364285
C  C133  1  0.93216000  0.49860000  0.19116000  1.0 -0.1703515946
C  C134  1  0.93216000  0.00140000  0.69116000  1.0 -0.1703515946
C  C135  1  0.94024000  0.40040000  0.19254000  1.0 0.0995384145
C  C136  1  0.94024000  0.09960000  0.69254000  1.0 0.0931699749
C  C137  1  0.86106000  0.39440000  0.11556000  1.0 0.0931699749
C  C138  1  0.86106000  0.10560000  0.61556000  1.0 0.0931699749
C  C139  1  0.85298000  0.49260000  0.11418000  1.0 -0.1855434551
C  C140  1  0.85298000  0.00740000  0.61418000  1.0 -0.1855434551
C  C141  1  0.67080000  0.43100000  0.35530000  1.0 -0.5303345353
C  C142  1  0.67080000  0.06900000  0.85530000  1.0 -0.5303345353
C  C143  1  0.69160000  0.33700000  0.34100000  1.0 0.5610561298
C  C144  1  0.69160000  0.16300000  0.84100000  1.0 0.5610561298
C  C145  1  0.55960000  0.35500000  0.28960000  1.0 -0.3299836068
C  C146  1  0.55960000  0.14500000  0.78960000  1.0 -0.3299836068
C  C147  1  0.61950000  0.18670000  0.30590000  1.0 -0.3213679268
C  C148  1  0.61950000  0.31330000  0.80590000  1.0 -0.3213679268
C  C149  1  0.23640000  0.61060000  0.41320000  1.0 0.5879895167
C  C150  1  0.23640000  0.88940000  0.91320000  1.0 0.5879895167
C  C151  1  0.30688000  0.64130000  0.45238000  1.0 -0.0385179543
C  C152  1  0.30688000  0.85870000  0.95238000  1.0 -0.0385179543
C  C153  1  0.31730000  0.73630000  0.46460000  1.0 -0.1333329639
C  C154  1  0.31730000  0.76370000  0.96460000  1.0 -0.1333329639
C  C155  1  0.38290000  0.76610000  0.50070000  1.0 -0.0494731165
C  C156  1  0.38290000  0.73390000  0.00070000  1.0 -0.0494731165
C  C157  1  0.43820000  0.70090000  0.52460000  1.0 0.2495207117
C  C158  1  0.43820000  0.79910000  0.02460000  1.0 0.2495207117
C  C159  1  0.42770000  0.60590000  0.51230000  1.0 -0.0703177432
C  C160  1  0.42770000  0.89410000  0.01230000  1.0 -0.0703177432
C  C161  1  0.36200000  0.57600000  0.47620000  1.0 -0.1410060279
C  C162  1  0.36200000  0.92400000  0.97620000  1.0 -0.1410060279
C  C163  1  0.39440000  0.87420000  0.51420000  1.0 0.3002797218
C  C164  1  0.39440000  0.62580000  0.01420000  1.0 0.3002797218
C  C165  1  0.41260000  0.88600000  0.55830000  1.0 -0.4625731527
C  C166  1  0.41260000  0.61400000  0.05830000  1.0 -0.4625731527
C  C167  1  0.32420000  0.93290000  0.48370000  1.0 -0.4671721159
C  C168  1  0.32420000  0.56710000  0.98370000  1.0 -0.4671721159
C  C169  1  0.45230000  0.91640000  0.51140000  1.0 -0.4871133043
C  C170  1  0.45230000  0.58360000  0.01140000  1.0 -0.4871133043
C  C171  1  0.48080000  0.53120000  0.53530000  1.0 0.0995384145
C  C172  1  0.48080000  0.96880000  0.03530000  1.0 0.0995384145
C  C173  1  0.58930000  0.46340000  0.59360000  1.0 0.1398859354
C  C174  1  0.58930000  0.03660000  0.09360000  1.0 0.1398859354
C  C175  1  0.57270000  0.36920000  0.58030000  1.0 -0.1601865867
C  C176  1  0.57270000  0.13080000  0.08030000  1.0 -0.1509424412
C  C177  1  0.62300000  0.29810000  0.60400000  1.0 -0.077697046
C  C178  1  0.62300000  0.20190000  0.10400000  1.0 -0.077697046
C  C179  1  0.68980000  0.32130000  0.64090000  1.0 -0.0703177432
C  C180  1  0.68980000  0.17870000  0.14090000  1.0 -0.0703177432
C  C181  1  0.70630000  0.41550000  0.65410000  1.0 -0.1410060279
C  C182  1  0.70630000  0.08450000  0.15410000  1.0 -0.1410060279
C  C183  1  0.65610000  0.48650000  0.63050000  1.0 0.1481240487
C  C184  1  0.65610000  0.01350000  0.13050000  1.0 0.1481240487
C  C185  1  0.73300000  0.61520000  0.67090000  1.0 0.1111364285
C  C186  1  0.73300000  0.88480000  0.17090000  1.0 0.1201421149
C  C187  1  0.75220000  0.71530000  0.68340000  1.0 -0.0703177432
C  C188  1  0.75220000  0.78470000  0.18340000  1.0 -0.0703177432
C  C189  1  0.70604000  0.79200000  0.66294000  1.0 0.2495207117
C  C190  1  0.70604000  0.70800000  0.16294000  1.0 0.2495207117
C  C191  1  0.73130000  0.88430000  0.67620000  1.0 -0.0385179543
C  C192  1  0.73130000  0.61570000  0.17620000  1.0 -0.0385179543
C  C193  1  0.80260000  0.89970000  0.71000000  1.0 -0.1509424412
C  C194  1  0.80260000  0.60030000  0.21000000  1.0 -0.1509424412
C  C195  1  0.84871000  0.82290000  0.73041000  1.0 -0.0494731165
C  C196  1  0.84871000  0.67710000  0.23041000  1.0 -0.0494731165
C  C197  1  0.82342000  0.73070000  0.71712000  1.0 -0.1410060279
C  C198  1  0.82342000  0.76930000  0.21712000  1.0 -0.1410060279
C  C199  1  0.68210000  0.97350000  0.65310000  1.0 0.2820841373
C  C200  1  0.68210000  0.52650000  0.15310000  1.0 0.2820841373
C  C201  1  0.62140000  0.97170000  0.65680000  1.0 -0.439375267
C  C202  1  0.62140000  0.52830000  0.15680000  1.0 -0.439375267
C  C203  1  0.65500000  0.97530000  0.60670000  1.0 -0.4671721159
C  C204  1  0.65500000  0.52470000  0.10670000  1.0 -0.4671721159
C  C205  1  0.72190000  0.06540000  0.67290000  1.0 -0.439375267
C  C206  1  0.72190000  0.43460000  0.17290000  1.0 -0.439375267
C  C207  1  0.92490000  0.84480000  0.76720000  1.0 0.5436424838
C  C208  1  0.92490000  0.65520000  0.26720000  1.0 0.5436424838
C  C209  1  0.11310000  0.61490000  0.28310000  1.0 0.5729529933
C  C210  1  0.11310000  0.88510000  0.78310000  1.0 0.5729529933
C  C211  1  0.11859000  0.63140000  0.24649000  1.0 -0.059976274
C  C212  1  0.11859000  0.86860000  0.74649000  1.0 -0.059976274
C  C213  1  0.12252000  0.72380000  0.23512000  1.0 -0.1601865867
C  C214  1  0.12252000  0.77620000  0.73512000  1.0 -0.1601865867
C  C215  1  0.12720000  0.73950000  0.20120000  1.0 -0.0703177432
C  C216  1  0.12720000  0.76050000  0.70120000  1.0 -0.0703177432
C  C217  1  0.12812000  0.66290000  0.17872000  1.0 0.259627659
C  C218  1  0.12812000  0.83710000  0.67872000  1.0 0.259627659
C  C219  1  0.12420000  0.57060000  0.19010000  1.0 -0.0494731165
C  C220  1  0.12420000  0.92940000  0.69010000  1.0 -0.0494731165
C  C221  1  0.11940000  0.55480000  0.22400000  1.0 -0.1410060279
C  C222  1  0.11940000  0.94520000  0.72400000  1.0 -0.1410060279
C  C223  1  0.11750000  0.48270000  0.16270000  1.0 0.3002797218
C  C224  1  0.11750000  0.01730000  0.66270000  1.0 0.3002797218
C  C225  1  0.18720000  0.47840000  0.16510000  1.0 -0.4625731527
C  C226  1  0.18720000  0.02160000  0.66510000  1.0 -0.4625731527
C  C227  1  0.05180000  0.49360000  0.11650000  1.0 -0.4808072782
C  C228  1  0.05180000  0.00640000  0.61650000  1.0 -0.4808072782
C  C229  1  0.11210000  0.38850000  0.18130000  1.0 -0.4625731527
C  C230  1  0.11210000  0.11150000  0.68130000  1.0 -0.4625731527
C  C231  1  0.12390000  0.83990000  0.18980000  1.0 0.1111364285
C  C232  1  0.12390000  0.66010000  0.68980000  1.0 0.1111364285
C  C233  1  0.12480000  0.96790000  0.14990000  1.0 0.1481240487
C  C234  1  0.12480000  0.53210000  0.64990000  1.0 0.1481240487
C  C235  1  0.12512000  0.04130000  0.17422000  1.0 -0.122051183
C  C236  1  0.12512000  0.45870000  0.67422000  1.0 -0.122051183
C  C237  1  0.11580000  0.13480000  0.16010000  1.0 -0.0385179543
C  C238  1  0.11580000  0.36520000  0.66010000  1.0 -0.0385179543
C  C239  1  0.10630000  0.15490000  0.12180000  1.0 -0.059976274
C  C240  1  0.10630000  0.34510000  0.62180000  1.0 -0.059976274
C  C241  1  0.10600000  0.08150000  0.09750000  1.0 -0.1601865867
C  C242  1  0.10600000  0.41850000  0.59750000  1.0 -0.1601865867
C  C243  1  0.11520000  0.98800000  0.11150000  1.0 0.1398859354
C  C244  1  0.11520000  0.51200000  0.61150000  1.0 0.1398859354
C  C245  1  0.09910000  0.91610000  0.05090000  1.0 0.0995384145
C  C246  1  0.09910000  0.58390000  0.55090000  1.0 0.0995384145
C  C247  1  0.10380000  0.84070000  0.02680000  1.0 -0.077697046
C  C248  1  0.10380000  0.65930000  0.52680000  1.0 -0.077697046
C  C249  1  0.12533000  0.74760000  0.04063000  1.0 0.259627659
C  C250  1  0.12533000  0.75240000  0.54063000  1.0 0.259627659
C  C251  1  0.12720000  0.68210000  0.01430000  1.0 -0.0494731165
C  C252  1  0.12720000  0.81790000  0.51430000  1.0 -0.0494731165
C  C253  1  0.10758000  0.70970000  0.97408000  1.0 -0.1333329639
C  C254  1  0.10758000  0.79030000  0.47408000  1.0 -0.1333329639
C  C255  1  0.08616000  0.80280000  0.96026000  1.0 -0.0221903721
C  C256  1  0.08616000  0.69720000  0.46026000  1.0 -0.0221903721
C  C257  1  0.08420000  0.86830000  0.98660000  1.0 -0.1509424412
C  C258  1  0.08420000  0.63170000  0.48660000  1.0 -0.1509424412
C  C259  1  0.15560000  0.57820000  0.02950000  1.0 0.2879380511
C  C260  1  0.15560000  0.92180000  0.52950000  1.0 0.2879380511
C  C261  1  0.23170000  0.57780000  0.06970000  1.0 -0.4671721159
C  C262  1  0.23170000  0.92220000  0.56970000  1.0 -0.4671721159
C  C263  1  0.10550000  0.52770000  0.03840000  1.0 -0.4671721159
C  C264  1  0.10550000  0.97230000  0.53840000  1.0 -0.4671721159
C  C265  1  0.15530000  0.51940000  0.99600000  1.0 -0.4625731527
C  C266  1  0.15530000  0.98060000  0.49600000  1.0 -0.4625731527
C  C267  1  0.06890000  0.83280000  0.91760000  1.0 0.5463188515
C  C268  1  0.06890000  0.66720000  0.41760000  1.0 0.5463188515
C  C269  1  0.06589000  0.30560000  0.31809000  1.0 0.0810181528
C  C270  1  0.06589000  0.19440000  0.81809000  1.0 0.0810181528
C  C271  1  0.06060000  0.20710000  0.31750000  1.0 -0.1509424412
C  C272  1  0.06060000  0.29290000  0.81750000  1.0 -0.1509424412
C  C273  1  0.11870000  0.15300000  0.34880000  1.0 0.1111364285
C  C274  1  0.11870000  0.34700000  0.84880000  1.0 0.1111364285
C  C275  1  0.18216000  0.19750000  0.38066000  1.0 -0.1703515946
C  C276  1  0.18216000  0.30250000  0.88066000  1.0 -0.1703515946
C  C277  1  0.18745000  0.29610000  0.38125000  1.0 0.0810181528
C  C278  1  0.18745000  0.20390000  0.88125000  1.0 0.0810181528
C  C279  1  0.11151000  0.04470000  0.34801000  1.0 0.1111364285
C  C280  1  0.11151000  0.45530000  0.84801000  1.0 0.1111364285
C  C281  1  0.06784000  0.99860000  0.30884000  1.0 -0.1703515946
C  C282  1  0.06784000  0.50140000  0.80884000  1.0 -0.1703515946
C  C283  1  0.05976000  0.90040000  0.30746000  1.0 0.0995384145
C  C284  1  0.05976000  0.59960000  0.80746000  1.0 0.0931699749
C  C285  1  0.13894000  0.89440000  0.38444000  1.0 0.0931699749
C  C286  1  0.13894000  0.60560000  0.88444000  1.0 0.0931699749
C  C287  1  0.14702000  0.99260000  0.38582000  1.0 -0.1855434551
C  C288  1  0.14702000  0.50740000  0.88582000  1.0 -0.1855434551
C  C289  1  0.32920000  0.93100000  0.14470000  1.0 -0.5420734487
C  C290  1  0.32920000  0.56900000  0.64470000  1.0 -0.5303345353
C  C291  1  0.30840000  0.83700000  0.15900000  1.0 0.5610561298
C  C292  1  0.30840000  0.66300000  0.65900000  1.0 0.5610561298
C  C293  1  0.44040000  0.85500000  0.21040000  1.0 -0.3299836068
C  C294  1  0.44040000  0.64500000  0.71040000  1.0 -0.3299836068
C  C295  1  0.38050000  0.68670000  0.19410000  1.0 -0.3213679268
C  C296  1  0.38050000  0.81330000  0.69410000  1.0 -0.3213679268
N  N1  1  0.87063000  0.85020000  0.15003000  1.0 -0.2709183617
N  N2  1  0.87063000  0.64980000  0.65003000  1.0 -0.2709183617
N  N3  1  0.45780000  0.03990000  0.92790000  1.0 -0.2815343289
N  N4  1  0.45780000  0.46010000  0.42790000  1.0 -0.2815343289
N  N5  1  0.90464000  0.34830000  0.15474000  1.0 -0.2524518519
N  N6  1  0.90464000  0.15170000  0.65474000  1.0 -0.2524518519
N  N7  1  0.33050000  0.08380000  0.85800000  1.0 -0.2709183617
N  N8  1  0.33050000  0.41620000  0.35800000  1.0 -0.2709183617
N  N9  1  0.86680000  0.37130000  0.33850000  1.0 -0.2709183617
N  N10  1  0.86680000  0.12870000  0.83850000  1.0 -0.2709183617
N  N11  1  0.88130000  0.40820000  0.41010000  1.0 -0.2914835586
N  N12  1  0.88130000  0.09180000  0.91010000  1.0 -0.2914835586
N  N13  1  0.62040000  0.28720000  0.31020000  1.0 -0.0221903721
N  N14  1  0.62040000  0.21280000  0.81020000  1.0 -0.0221903721
N  N15  1  0.12937000  0.35020000  0.34997000  1.0 -0.2709183617
N  N16  1  0.12937000  0.14980000  0.84997000  1.0 -0.2709183617
N  N17  1  0.54220000  0.53990000  0.57210000  1.0 -0.2815343289
N  N18  1  0.54220000  0.96010000  0.07210000  1.0 -0.2815343289
N  N19  1  0.09536000  0.84830000  0.34526000  1.0 -0.2524518519
N  N20  1  0.09536000  0.65170000  0.84526000  1.0 -0.2524518519
N  N21  1  0.66950000  0.58380000  0.64200000  1.0 -0.2709183617
N  N22  1  0.66950000  0.91620000  0.14200000  1.0 -0.2709183617
N  N23  1  0.13320000  0.87130000  0.16150000  1.0 -0.2709183617
N  N24  1  0.13320000  0.62870000  0.66150000  1.0 -0.2709183617
N  N25  1  0.11870000  0.90820000  0.08990000  1.0 -0.2914835586
N  N26  1  0.11870000  0.59180000  0.58990000  1.0 -0.2914835586
N  N27  1  0.37960000  0.78720000  0.18980000  1.0 -0.0221903721
N  N28  1  0.37960000  0.71280000  0.68980000  1.0 -0.0221903721
O  O1  1  0.77330000  0.02350000  0.09820000  1.0 -0.5420734487
O  O2  1  0.77330000  0.47650000  0.59820000  1.0 -0.5485066547
O  O3  1  0.81180000  0.17550000  0.10720000  1.0 -0.5584948434
O  O4  1  0.81180000  0.32450000  0.60720000  1.0 -0.5584948434
O  O5  1  0.49780000  0.23270000  0.94240000  1.0 -0.5066377221
O  O6  1  0.49780000  0.26730000  0.44240000  1.0 -0.5066377221
O  O7  1  0.36260000  0.28000000  0.86840000  1.0 -0.4808072782
O  O8  1  0.36260000  0.22000000  0.36840000  1.0 -0.4808072782
O  O9  1  0.05780000  0.43170000  0.72680000  1.0 -0.5066377221
O  O10  1  0.05780000  0.06830000  0.22680000  1.0 -0.5066377221
O  O11  1  0.03250000  0.27780000  0.70980000  1.0 -0.5420734487
O  O12  1  0.03250000  0.22220000  0.20980000  1.0 -0.5420734487
O  O13  1  0.87810000  0.02700000  0.20410000  1.0 -0.5584948434
O  O14  1  0.87810000  0.47300000  0.70410000  1.0 -0.5584948434
O  O15  1  0.90070000  0.18250000  0.20190000  1.0 -0.5303345353
O  O16  1  0.90070000  0.31750000  0.70190000  1.0 -0.5303345353
O  O17  1  0.86440000  0.17510000  0.35260000  1.0 -0.4808072782
O  O18  1  0.86440000  0.32490000  0.85260000  1.0 -0.4808072782
O  O19  1  0.85480000  0.21890000  0.42160000  1.0 -0.4808072782
O  O20  1  0.85480000  0.28110000  0.92160000  1.0 -0.4808072782
O  O21  1  0.93510000  0.27320000  0.60720000  1.0 -0.5162493958
O  O22  1  0.93510000  0.22680000  0.10720000  1.0 -0.5162493958
O  O23  1  0.93820000  0.42310000  0.58970000  1.0 -0.4625731527
O  O24  1  0.93820000  0.07690000  0.08970000  1.0 -0.4625731527
O  O25  1  0.94340000  0.05410000  0.15380000  1.0 -0.439375267
O  O26  1  0.94340000  0.44590000  0.65380000  1.0 -0.439375267
O  O27  1  0.46100000  0.15400000  0.85550000  1.0 -0.5859815452
O  O28  1  0.46100000  0.34600000  0.35550000  1.0 -0.5829539074
O  O29  1  0.73330000  0.29740000  0.33480000  1.0 -0.5485066547
O  O30  1  0.73330000  0.20260000  0.83480000  1.0 -0.5485066547
O  O31  1  0.22670000  0.52350000  0.40180000  1.0 -0.5485066547
O  O32  1  0.22670000  0.97650000  0.90180000  1.0 -0.5420734487
O  O33  1  0.18820000  0.67550000  0.39280000  1.0 -0.5584948434
O  O34  1  0.18820000  0.82450000  0.89280000  1.0 -0.5584948434
O  O35  1  0.50220000  0.73270000  0.55760000  1.0 -0.5066377221
O  O36  1  0.50220000  0.76730000  0.05760000  1.0 -0.5066377221
O  O37  1  0.63740000  0.78000000  0.63160000  1.0 -0.4808072782
O  O38  1  0.63740000  0.72000000  0.13160000  1.0 -0.4808072782
O  O39  1  0.94220000  0.93170000  0.77320000  1.0 -0.5066377221
O  O40  1  0.94220000  0.56830000  0.27320000  1.0 -0.5066377221
O  O41  1  0.96750000  0.77780000  0.79020000  1.0 -0.5420734487
O  O42  1  0.96750000  0.72220000  0.29020000  1.0 -0.5420734487
O  O43  1  0.12190000  0.52700000  0.29590000  1.0 -0.5584948434
O  O44  1  0.12190000  0.97300000  0.79590000  1.0 -0.5584948434
O  O45  1  0.09930000  0.68250000  0.29810000  1.0 -0.5303345353
O  O46  1  0.09930000  0.81750000  0.79810000  1.0 -0.5303345353
O  O47  1  0.13560000  0.67510000  0.14740000  1.0 -0.4808072782
O  O48  1  0.13560000  0.82490000  0.64740000  1.0 -0.4808072782
O  O49  1  0.14520000  0.71890000  0.07840000  1.0 -0.4808072782
O  O50  1  0.14520000  0.78110000  0.57840000  1.0 -0.4808072782
O  O51  1  0.06490000  0.77320000  0.89280000  1.0 -0.5162493958
O  O52  1  0.06490000  0.72680000  0.39280000  1.0 -0.5162493958
O  O53  1  0.06180000  0.92310000  0.91030000  1.0 -0.4625731527
O  O54  1  0.06180000  0.57690000  0.41030000  1.0 -0.4625731527
O  O55  1  0.05660000  0.55410000  0.34620000  1.0 -0.439375267
O  O56  1  0.05660000  0.94590000  0.84620000  1.0 -0.439375267
O  O57  1  0.53900000  0.65400000  0.64450000  1.0 -0.5859815452
O  O58  1  0.53900000  0.84600000  0.14450000  1.0 -0.5859815452
O  O59  1  0.26670000  0.79740000  0.16520000  1.0 -0.5485066547
O  O60  1  0.26670000  0.70260000  0.66520000  1.0 -0.5485066547
