# DDEC6 charges by PACMAN v1.1 (https://github.com/mtap-research/PACMAN-charge/)
data_CAVMIX_ASR_pacman
_symmetry_space_group_name_H-M   'P 1'
_cell_length_a   22.28600000
_cell_length_b   19.84500000
_cell_length_c   40.57890000
_cell_angle_alpha   90.00000000
_cell_angle_beta   122.33900000
_cell_angle_gamma   90.00000000
_symmetry_Int_Tables_number   1
_chemical_formula_structural   Zn7H96C94S2(N2O7)3
_chemical_formula_sum   'Zn28 H384 C376 S8 N24 O84'
_cell_volume   15163.09088661
_cell_formula_units_Z   4
loop_
 _symmetry_equiv_pos_site_id
 _symmetry_equiv_pos_as_xyz
  1  'x, y, z'
loop_
 _atom_site_type_symbol
 _atom_site_label
 _atom_site_symmetry_multiplicity
 _atom_site_fract_x
 _atom_site_fract_y
 _atom_site_fract_z
 _atom_site_occupancy
 _atom_site_charge
Zn  Zn1  1  0.57370000  0.15287000  0.61973000  1.0 0.7571130435
Zn  Zn2  1  0.57370000  0.34713000  0.11973000  1.0 0.7571130435
Zn  Zn3  1  0.19716000  0.82043000  0.96641000  1.0 0.7825944059
Zn  Zn4  1  0.19716000  0.67957000  0.46641000  1.0 0.7825944059
Zn  Zn5  1  0.64761000  0.70300000  0.72368000  1.0 0.9529043498
Zn  Zn6  1  0.64761000  0.79700000  0.22368000  1.0 0.9561658393
Zn  Zn7  1  0.78442000  0.72678000  0.72173000  1.0 0.9529043498
Zn  Zn8  1  0.78442000  0.77322000  0.22173000  1.0 0.9529043498
Zn  Zn9  1  0.76621000  0.58559000  0.75755000  1.0 0.994222347
Zn  Zn10  1  0.76621000  0.91441000  0.25755000  1.0 0.994222347
Zn  Zn11  1  0.67923000  0.61767000  0.66764000  1.0 0.941813771
Zn  Zn12  1  0.67923000  0.88233000  0.16764000  1.0 0.941813771
Zn  Zn13  1  0.79634000  0.72597000  0.48160000  1.0 0.7825944059
Zn  Zn14  1  0.79634000  0.77403000  0.98160000  1.0 0.7825944059
Zn  Zn15  1  0.42630000  0.65287000  0.88027000  1.0 0.7571130435
Zn  Zn16  1  0.42630000  0.84713000  0.38027000  1.0 0.7571130435
Zn  Zn17  1  0.80284000  0.32043000  0.53359000  1.0 0.7825944059
Zn  Zn18  1  0.80284000  0.17957000  0.03359000  1.0 0.785254408
Zn  Zn19  1  0.35239000  0.20300000  0.77632000  1.0 0.9529043498
Zn  Zn20  1  0.35239000  0.29700000  0.27632000  1.0 0.9529043498
Zn  Zn21  1  0.21558000  0.22678000  0.77827000  1.0 0.9529043498
Zn  Zn22  1  0.21558000  0.27322000  0.27827000  1.0 0.9529043498
Zn  Zn23  1  0.23379000  0.08559000  0.74245000  1.0 0.994222347
Zn  Zn24  1  0.23379000  0.41441000  0.24245000  1.0 0.994222347
Zn  Zn25  1  0.32077000  0.11767000  0.83236000  1.0 0.941813771
Zn  Zn26  1  0.32077000  0.38233000  0.33236000  1.0 0.941813771
Zn  Zn27  1  0.20366000  0.22597000  0.01840000  1.0 0.7825944059
Zn  Zn28  1  0.20366000  0.27403000  0.51840000  1.0 0.7825944059
H  H1  1  0.70480000  0.92280000  0.66570000  1.0 0.1206796633
H  H2  1  0.70480000  0.57720000  0.16570000  1.0 0.1206796633
H  H3  1  0.57510000  0.89390000  0.70500000  1.0 0.1206796633
H  H4  1  0.57510000  0.60610000  0.20500000  1.0 0.1206796633
H  H5  1  0.41120000  0.95290000  0.62070000  1.0 0.1308233855
H  H6  1  0.41120000  0.54710000  0.12070000  1.0 0.1308233855
H  H7  1  0.37700000  0.00750000  0.63360000  1.0 0.1308233855
H  H8  1  0.37700000  0.49250000  0.13360000  1.0 0.1308233855
H  H9  1  0.42180000  0.02960000  0.61600000  1.0 0.1392340753
H  H10  1  0.42180000  0.47040000  0.11600000  1.0 0.1392340753
H  H11  1  0.54050000  0.06790000  0.71870000  1.0 0.1308233855
H  H12  1  0.54050000  0.43210000  0.21870000  1.0 0.1308233855
H  H13  1  0.50280000  0.10120000  0.67730000  1.0 0.1509211294
H  H14  1  0.50280000  0.39880000  0.17730000  1.0 0.1509211294
H  H15  1  0.45810000  0.07930000  0.69500000  1.0 0.1392340753
H  H16  1  0.45810000  0.42070000  0.19500000  1.0 0.1392340753
H  H17  1  0.51160000  0.94640000  0.72440000  1.0 0.1308233855
H  H18  1  0.51160000  0.55360000  0.22440000  1.0 0.1308233855
H  H19  1  0.43050000  0.96330000  0.69810000  1.0 0.1308233855
H  H20  1  0.43050000  0.53670000  0.19810000  1.0 0.1308233855
H  H21  1  0.46240000  0.90410000  0.68660000  1.0 0.1206796633
H  H22  1  0.46240000  0.59590000  0.18660000  1.0 0.1206796633
H  H23  1  0.68550000  0.00310000  0.62160000  1.0 0.1073980241
H  H24  1  0.68550000  0.49690000  0.12160000  1.0 0.1073980241
H  H25  1  0.66790000  0.02940000  0.56130000  1.0 0.1308233855
H  H26  1  0.66790000  0.47060000  0.06130000  1.0 0.1308233855
H  H27  1  0.70090000  0.08370000  0.52270000  1.0 0.1392340753
H  H28  1  0.70090000  0.41630000  0.02270000  1.0 0.1392340753
H  H29  1  0.70620000  0.20040000  0.52260000  1.0 0.1308233855
H  H30  1  0.70620000  0.29960000  0.02260000  1.0 0.1308233855
H  H31  1  0.67850000  0.26290000  0.56100000  1.0 0.1206796633
H  H32  1  0.67850000  0.23710000  0.06100000  1.0 0.1206796633
H  H33  1  0.67860000  0.30170000  0.61210000  1.0 0.1008956152
H  H34  1  0.67860000  0.19830000  0.11210000  1.0 0.1008956152
H  H35  1  0.67490000  0.39950000  0.64040000  1.0 0.1073980241
H  H36  1  0.67490000  0.10050000  0.14040000  1.0 0.1073980241
H  H37  1  0.61810000  0.40730000  0.71910000  1.0 0.1206796633
H  H38  1  0.61810000  0.09270000  0.21910000  1.0 0.1206796633
H  H39  1  0.59410000  0.20210000  0.75280000  1.0 0.1308233855
H  H40  1  0.59410000  0.29790000  0.25280000  1.0 0.1308233855
H  H41  1  0.61570000  0.19010000  0.72230000  1.0 0.1392340753
H  H42  1  0.61570000  0.30990000  0.22230000  1.0 0.1392340753
H  H43  1  0.66180000  0.23740000  0.75820000  1.0 0.1206796633
H  H44  1  0.66180000  0.26260000  0.25820000  1.0 0.1206796633
H  H45  1  0.47310000  0.24040000  0.69980000  1.0 0.1392340753
H  H46  1  0.47310000  0.25960000  0.19980000  1.0 0.1392340753
H  H47  1  0.46540000  0.29910000  0.67190000  1.0 0.1206796633
H  H48  1  0.46540000  0.20090000  0.17190000  1.0 0.1206796633
H  H49  1  0.49310000  0.22830000  0.66860000  1.0 0.1392340753
H  H50  1  0.49310000  0.27170000  0.16860000  1.0 0.1392340753
H  H51  1  0.54490000  0.30980000  0.75680000  1.0 0.1392340753
H  H52  1  0.54490000  0.19020000  0.25680000  1.0 0.1392340753
H  H53  1  0.61280000  0.34690000  0.76360000  1.0 0.1206796633
H  H54  1  0.61280000  0.15310000  0.26360000  1.0 0.1206796633
H  H55  1  0.53720000  0.37040000  0.73000000  1.0 0.1308233855
H  H56  1  0.53720000  0.12960000  0.23000000  1.0 0.1308233855
H  H57  1  0.73980000  0.62840000  0.58340000  1.0 0.1073980241
H  H58  1  0.73980000  0.87160000  0.08340000  1.0 0.1073980241
H  H59  1  0.82800000  0.80230000  0.63920000  1.0 0.1206796633
H  H60  1  0.82800000  0.69770000  0.13920000  1.0 0.1206796633
H  H61  1  0.95480000  0.83740000  0.60830000  1.0 0.1206796633
H  H62  1  0.95480000  0.66260000  0.10830000  1.0 0.1206796633
H  H63  1  0.90560000  0.83870000  0.56260000  1.0 0.1392340753
H  H64  1  0.90560000  0.66130000  0.06260000  1.0 0.1392340753
H  H65  1  0.93490000  0.90630000  0.58590000  1.0 0.1308233855
H  H66  1  0.93490000  0.59370000  0.08590000  1.0 0.1308233855
H  H67  1  0.77170000  0.88920000  0.52730000  1.0 0.1509211294
H  H68  1  0.77170000  0.61080000  0.02730000  1.0 0.1509211294
H  H69  1  0.74370000  0.90680000  0.55440000  1.0 0.1308233855
H  H70  1  0.74370000  0.59320000  0.05440000  1.0 0.1308233855
H  H71  1  0.79650000  0.95560000  0.55200000  1.0 0.1308233855
H  H72  1  0.79650000  0.54440000  0.05200000  1.0 0.1308233855
H  H73  1  0.91100000  0.88140000  0.64980000  1.0 0.1206796633
H  H74  1  0.91100000  0.61860000  0.14980000  1.0 0.1206796633
H  H75  1  0.88290000  0.94970000  0.62720000  1.0 0.1308233855
H  H76  1  0.88290000  0.55030000  0.12720000  1.0 0.1308233855
H  H77  1  0.83080000  0.90090000  0.63030000  1.0 0.1206796633
H  H78  1  0.83080000  0.59910000  0.13030000  1.0 0.1206796633
H  H79  1  0.73000000  0.59980000  0.52740000  1.0 0.1008956152
H  H80  1  0.73000000  0.90020000  0.02740000  1.0 0.1008956152
H  H81  1  0.74560000  0.50830000  0.50190000  1.0 0.1308233855
H  H82  1  0.74560000  0.99170000  0.00190000  1.0 0.1308233855
H  H83  1  0.71890000  0.42660000  0.45510000  1.0 0.1206796633
H  H84  1  0.71890000  0.07340000  0.95510000  1.0 0.1206796633
H  H85  1  0.69670000  0.45740000  0.39440000  1.0 0.1308233855
H  H86  1  0.69670000  0.04260000  0.89440000  1.0 0.1308233855
H  H87  1  0.70120000  0.57000000  0.38050000  1.0 0.1308233855
H  H88  1  0.70120000  0.93000000  0.88050000  1.0 0.1308233855
H  H89  1  0.68070000  0.67690000  0.37230000  1.0 0.1008956152
H  H90  1  0.68070000  0.82310000  0.87230000  1.0 0.1008956152
H  H91  1  0.67300000  0.75350000  0.32980000  1.0 0.1206796633
H  H92  1  0.67300000  0.74650000  0.82980000  1.0 0.1206796633
H  H93  1  0.76070000  0.93770000  0.36040000  1.0 0.1206796633
H  H94  1  0.76070000  0.56230000  0.86040000  1.0 0.1206796633
H  H95  1  0.87970000  0.87690000  0.48210000  1.0 0.1509211294
H  H96  1  0.87970000  0.62310000  0.98210000  1.0 0.1509211294
H  H97  1  0.91360000  0.90770000  0.46010000  1.0 0.1308233855
H  H98  1  0.91360000  0.59230000  0.96010000  1.0 0.1308233855
H  H99  1  0.90540000  0.95210000  0.48940000  1.0 0.1308233855
H  H100  1  0.90540000  0.54790000  0.98940000  1.0 0.1308233855
H  H101  1  0.75870000  0.92080000  0.46520000  1.0 0.1509211294
H  H102  1  0.75870000  0.57920000  0.96520000  1.0 0.1509211294
H  H103  1  0.79190000  0.99320000  0.47380000  1.0 0.1308233855
H  H104  1  0.79190000  0.50680000  0.97380000  1.0 0.1308233855
H  H105  1  0.72230000  0.97750000  0.43350000  1.0 0.1308233855
H  H106  1  0.72230000  0.52250000  0.93350000  1.0 0.1308233855
H  H107  1  0.84580000  0.03790000  0.43950000  1.0 0.1308233855
H  H108  1  0.84580000  0.46210000  0.93950000  1.0 0.1308233855
H  H109  1  0.85050000  0.99400000  0.40880000  1.0 0.1308233855
H  H110  1  0.85050000  0.50600000  0.90880000  1.0 0.1308233855
H  H111  1  0.77680000  0.02130000  0.39920000  1.0 0.1308233855
H  H112  1  0.77680000  0.47870000  0.89920000  1.0 0.1308233855
H  H113  1  0.99210000  0.78720000  0.82150000  1.0 0.1073980241
H  H114  1  0.99210000  0.71280000  0.32150000  1.0 0.1073980241
H  H115  1  0.94650000  0.62690000  0.86480000  1.0 0.1206796633
H  H116  1  0.94650000  0.87310000  0.36480000  1.0 0.1206796633
H  H117  1  0.96180000  0.57390000  0.91570000  1.0 0.1308233855
H  H118  1  0.96180000  0.92610000  0.41570000  1.0 0.1308233855
H  H119  1  0.00870000  0.53690000  0.90320000  1.0 0.1308233855
H  H120  1  0.00870000  0.96310000  0.40320000  1.0 0.1308233855
H  H121  1  0.02500000  0.52820000  0.94560000  1.0 0.1308233855
H  H122  1  0.02500000  0.97180000  0.44560000  1.0 0.1308233855
H  H123  1  0.13420000  0.57030000  0.92940000  1.0 0.1308233855
H  H124  1  0.13420000  0.92970000  0.42940000  1.0 0.1308233855
H  H125  1  0.17000000  0.62580000  0.96180000  1.0 0.1392340753
H  H126  1  0.17000000  0.87420000  0.46180000  1.0 0.1392340753
H  H127  1  0.14820000  0.55660000  0.97100000  1.0 0.1308233855
H  H128  1  0.14820000  0.94340000  0.47100000  1.0 0.1308233855
H  H129  1  0.00920000  0.67130000  0.96240000  1.0 0.1392340753
H  H130  1  0.00920000  0.82870000  0.46240000  1.0 0.1392340753
H  H131  1  0.06790000  0.62150000  0.99220000  1.0 0.1392340753
H  H132  1  0.06790000  0.87850000  0.49220000  1.0 0.1392340753
H  H133  1  0.08970000  0.69070000  0.98300000  1.0 0.1509211294
H  H134  1  0.08970000  0.80930000  0.48300000  1.0 0.1509211294
H  H135  1  0.09530000  0.84480000  0.85460000  1.0 0.0899525057
H  H136  1  0.09530000  0.65520000  0.35460000  1.0 0.0899525057
H  H137  1  0.14940000  0.92560000  0.85170000  1.0 0.1392340753
H  H138  1  0.14940000  0.57440000  0.35170000  1.0 0.1392340753
H  H139  1  0.22620000  0.00750000  0.85440000  1.0 0.1392340753
H  H140  1  0.22620000  0.49250000  0.35440000  1.0 0.1392340753
H  H141  1  0.33333333  0.02740000  0.91240000  1.0 0.1392340753
H  H142  1  0.33333333  0.47260000  0.41240000  1.0 0.1392340753
H  H143  1  0.36360000  0.96540000  0.96770000  1.0 0.1392340753
H  H144  1  0.36360000  0.53460000  0.46770000  1.0 0.1392340753
H  H145  1  0.38750000  0.88250000  0.00560000  1.0 0.0899525057
H  H146  1  0.38750000  0.61750000  0.50560000  1.0 0.0899525057
H  H147  1  0.47060000  0.85980000  0.06780000  1.0 0.1206796633
H  H148  1  0.47060000  0.64020000  0.56780000  1.0 0.1206796633
H  H149  1  0.43060000  0.76010000  0.14020000  1.0 0.1206796633
H  H150  1  0.43060000  0.73990000  0.64020000  1.0 0.1206796633
H  H151  1  0.23150000  0.64460000  0.07260000  1.0 0.1392340753
H  H152  1  0.23150000  0.85540000  0.57260000  1.0 0.1392340753
H  H153  1  0.24010000  0.68080000  0.04100000  1.0 0.1509211294
H  H154  1  0.24010000  0.81920000  0.54100000  1.0 0.1509211294
H  H155  1  0.30320000  0.63870000  0.07420000  1.0 0.1308233855
H  H156  1  0.30320000  0.86130000  0.57420000  1.0 0.1308233855
H  H157  1  0.24570000  0.81770000  0.09940000  1.0 0.1206796633
H  H158  1  0.24570000  0.68230000  0.59940000  1.0 0.1206796633
H  H159  1  0.20610000  0.79080000  0.05650000  1.0 0.1392340753
H  H160  1  0.20610000  0.70920000  0.55650000  1.0 0.1392340753
H  H161  1  0.19630000  0.75440000  0.08760000  1.0 0.1308233855
H  H162  1  0.19630000  0.74560000  0.58760000  1.0 0.1308233855
H  H163  1  0.34610000  0.74970000  0.15360000  1.0 0.1308233855
H  H164  1  0.34610000  0.75030000  0.65360000  1.0 0.1308233855
H  H165  1  0.29470000  0.68770000  0.14090000  1.0 0.1392340753
H  H166  1  0.29470000  0.81230000  0.64090000  1.0 0.1392340753
H  H167  1  0.36740000  0.68070000  0.14380000  1.0 0.1308233855
H  H168  1  0.36740000  0.81930000  0.64380000  1.0 0.1308233855
H  H169  1  0.99730000  0.78660000  0.56200000  1.0 0.1599432519
H  H170  1  0.99730000  0.71340000  0.06200000  1.0 0.1599432519
H  H171  1  0.06020000  0.73650000  0.57400000  1.0 0.1392340753
H  H172  1  0.06020000  0.76350000  0.07400000  1.0 0.1392340753
H  H173  1  0.02290000  0.77280000  0.53340000  1.0 0.1599432519
H  H174  1  0.02290000  0.72720000  0.03340000  1.0 0.1599432519
H  H175  1  0.01180000  0.62160000  0.51150000  1.0 0.0899525057
H  H176  1  0.01180000  0.87840000  0.01150000  1.0 0.0899525057
H  H177  1  0.01870000  0.69770000  0.50360000  1.0 0.1308233855
H  H178  1  0.01870000  0.80230000  0.00360000  1.0 0.1308233855
H  H179  1  0.06650000  0.66810000  0.54570000  1.0 0.1206796633
H  H180  1  0.06650000  0.83190000  0.04570000  1.0 0.1206796633
H  H181  1  0.98040000  0.86140000  0.95230000  1.0 0.1509211294
H  H182  1  0.98040000  0.63860000  0.45230000  1.0 0.1509211294
H  H183  1  0.99500000  0.89570000  0.99070000  1.0 0.0899525057
H  H184  1  0.99500000  0.60430000  0.49070000  1.0 0.0899525057
H  H185  1  0.98260000  0.94020000  0.95570000  1.0 0.1392340753
H  H186  1  0.98260000  0.55980000  0.45570000  1.0 0.1392340753
H  H187  1  0.14610000  0.98560000  0.03070000  1.0 0.1599432519
H  H188  1  0.14610000  0.51440000  0.53070000  1.0 0.1599432519
H  H189  1  0.06570000  0.00090000  0.00010000  1.0 0.1509211294
H  H190  1  0.06570000  0.49910000  0.50010000  1.0 0.1509211294
H  H191  1  0.08710000  0.95250000  0.03530000  1.0 0.1509211294
H  H192  1  0.08710000  0.54750000  0.53530000  1.0 0.1509211294
H  H193  1  0.29520000  0.42280000  0.83430000  1.0 0.1206796633
H  H194  1  0.29520000  0.07720000  0.33430000  1.0 0.1206796633
H  H195  1  0.42490000  0.39390000  0.79500000  1.0 0.1206796633
H  H196  1  0.42490000  0.10610000  0.29500000  1.0 0.1206796633
H  H197  1  0.58880000  0.45290000  0.87930000  1.0 0.1308233855
H  H198  1  0.58880000  0.04710000  0.37930000  1.0 0.1308233855
H  H199  1  0.62300000  0.50750000  0.86640000  1.0 0.1308233855
H  H200  1  0.62300000  0.99250000  0.36640000  1.0 0.1308233855
H  H201  1  0.57820000  0.52960000  0.88400000  1.0 0.1392340753
H  H202  1  0.57820000  0.97040000  0.38400000  1.0 0.1392340753
H  H203  1  0.45950000  0.56790000  0.78130000  1.0 0.1308233855
H  H204  1  0.45950000  0.93210000  0.28130000  1.0 0.1308233855
H  H205  1  0.49720000  0.60120000  0.82270000  1.0 0.1509211294
H  H206  1  0.49720000  0.89880000  0.32270000  1.0 0.1509211294
H  H207  1  0.54190000  0.57930000  0.80500000  1.0 0.1392340753
H  H208  1  0.54190000  0.92070000  0.30500000  1.0 0.1392340753
H  H209  1  0.48840000  0.44640000  0.77560000  1.0 0.1308233855
H  H210  1  0.48840000  0.05360000  0.27560000  1.0 0.1308233855
H  H211  1  0.56950000  0.46330000  0.80190000  1.0 0.1308233855
H  H212  1  0.56950000  0.03670000  0.30190000  1.0 0.1308233855
H  H213  1  0.53760000  0.40410000  0.81340000  1.0 0.1206796633
H  H214  1  0.53760000  0.09590000  0.31340000  1.0 0.1206796633
H  H215  1  0.31450000  0.50310000  0.87840000  1.0 0.1073980241
H  H216  1  0.31450000  0.99690000  0.37840000  1.0 0.1073980241
H  H217  1  0.33210000  0.52940000  0.93870000  1.0 0.1308233855
H  H218  1  0.33210000  0.97060000  0.43870000  1.0 0.1308233855
H  H219  1  0.29910000  0.58370000  0.97730000  1.0 0.1392340753
H  H220  1  0.29910000  0.91630000  0.47730000  1.0 0.1392340753
H  H221  1  0.29380000  0.70040000  0.97740000  1.0 0.1308233855
H  H222  1  0.29380000  0.79960000  0.47740000  1.0 0.1308233855
H  H223  1  0.32150000  0.76290000  0.93900000  1.0 0.1206796633
H  H224  1  0.32150000  0.73710000  0.43900000  1.0 0.1206796633
H  H225  1  0.32140000  0.80170000  0.88790000  1.0 0.1008956152
H  H226  1  0.32140000  0.69830000  0.38790000  1.0 0.1008956152
H  H227  1  0.32510000  0.89950000  0.85960000  1.0 0.1073980241
H  H228  1  0.32510000  0.60050000  0.35960000  1.0 0.1073980241
H  H229  1  0.38190000  0.90730000  0.78090000  1.0 0.1206796633
H  H230  1  0.38190000  0.59270000  0.28090000  1.0 0.1206796633
H  H231  1  0.40590000  0.70210000  0.74720000  1.0 0.1308233855
H  H232  1  0.40590000  0.79790000  0.24720000  1.0 0.1308233855
H  H233  1  0.38430000  0.69010000  0.77770000  1.0 0.1392340753
H  H234  1  0.38430000  0.80990000  0.27770000  1.0 0.1392340753
H  H235  1  0.33820000  0.73740000  0.74180000  1.0 0.1206796633
H  H236  1  0.33820000  0.76260000  0.24180000  1.0 0.1206796633
H  H237  1  0.52690000  0.74040000  0.80020000  1.0 0.1392340753
H  H238  1  0.52690000  0.75960000  0.30020000  1.0 0.1392340753
H  H239  1  0.53460000  0.79910000  0.82810000  1.0 0.1206796633
H  H240  1  0.53460000  0.70090000  0.32810000  1.0 0.1206796633
H  H241  1  0.50690000  0.72830000  0.83140000  1.0 0.1392340753
H  H242  1  0.50690000  0.77170000  0.33140000  1.0 0.1392340753
H  H243  1  0.45510000  0.80980000  0.74320000  1.0 0.1392340753
H  H244  1  0.45510000  0.69020000  0.24320000  1.0 0.1392340753
H  H245  1  0.38720000  0.84690000  0.73640000  1.0 0.1206796633
H  H246  1  0.38720000  0.65310000  0.23640000  1.0 0.1206796633
H  H247  1  0.46280000  0.87040000  0.77000000  1.0 0.1308233855
H  H248  1  0.46280000  0.62960000  0.27000000  1.0 0.1308233855
H  H249  1  0.26020000  0.12840000  0.91660000  1.0 0.1073980241
H  H250  1  0.26020000  0.37160000  0.41660000  1.0 0.1073980241
H  H251  1  0.17200000  0.30230000  0.86080000  1.0 0.1206796633
H  H252  1  0.17200000  0.19770000  0.36080000  1.0 0.1206796633
H  H253  1  0.04520000  0.33740000  0.89170000  1.0 0.1206796633
H  H254  1  0.04520000  0.16260000  0.39170000  1.0 0.1206796633
H  H255  1  0.09440000  0.33870000  0.93740000  1.0 0.1392340753
H  H256  1  0.09440000  0.16130000  0.43740000  1.0 0.1392340753
H  H257  1  0.06510000  0.40630000  0.91410000  1.0 0.1308233855
H  H258  1  0.06510000  0.09370000  0.41410000  1.0 0.1308233855
H  H259  1  0.22830000  0.38920000  0.97270000  1.0 0.1509211294
H  H260  1  0.22830000  0.11080000  0.47270000  1.0 0.1509211294
H  H261  1  0.25630000  0.40680000  0.94560000  1.0 0.1308233855
H  H262  1  0.25630000  0.09320000  0.44560000  1.0 0.1308233855
H  H263  1  0.20350000  0.45560000  0.94800000  1.0 0.1308233855
H  H264  1  0.20350000  0.04440000  0.44800000  1.0 0.1308233855
H  H265  1  0.08900000  0.38140000  0.85020000  1.0 0.1206796633
H  H266  1  0.08900000  0.11860000  0.35020000  1.0 0.1206796633
H  H267  1  0.11710000  0.44970000  0.87280000  1.0 0.1308233855
H  H268  1  0.11710000  0.05030000  0.37280000  1.0 0.1308233855
H  H269  1  0.16920000  0.40090000  0.86970000  1.0 0.1206796633
H  H270  1  0.16920000  0.09910000  0.36970000  1.0 0.1206796633
H  H271  1  0.27000000  0.09980000  0.97260000  1.0 0.1008956152
H  H272  1  0.27000000  0.40020000  0.47260000  1.0 0.1008956152
H  H273  1  0.25440000  0.00830000  0.99810000  1.0 0.1308233855
H  H274  1  0.25440000  0.49170000  0.49810000  1.0 0.1308233855
H  H275  1  0.28110000  0.92660000  0.04490000  1.0 0.1206796633
H  H276  1  0.28110000  0.57340000  0.54490000  1.0 0.1206796633
H  H277  1  0.30330000  0.95740000  0.10560000  1.0 0.1308233855
H  H278  1  0.30330000  0.54260000  0.60560000  1.0 0.1308233855
H  H279  1  0.29880000  0.07000000  0.11950000  1.0 0.1308233855
H  H280  1  0.29880000  0.43000000  0.61950000  1.0 0.1308233855
H  H281  1  0.31930000  0.17690000  0.12770000  1.0 0.1008956152
H  H282  1  0.31930000  0.32310000  0.62770000  1.0 0.1008956152
H  H283  1  0.32700000  0.25350000  0.17020000  1.0 0.1206796633
H  H284  1  0.32700000  0.24650000  0.67020000  1.0 0.1206796633
H  H285  1  0.23930000  0.43770000  0.13960000  1.0 0.1206796633
H  H286  1  0.23930000  0.06230000  0.63960000  1.0 0.1206796633
H  H287  1  0.12030000  0.37690000  0.01790000  1.0 0.1509211294
H  H288  1  0.12030000  0.12310000  0.51790000  1.0 0.1509211294
H  H289  1  0.08640000  0.40770000  0.03990000  1.0 0.1308233855
H  H290  1  0.08640000  0.09230000  0.53990000  1.0 0.1308233855
H  H291  1  0.09460000  0.45210000  0.01060000  1.0 0.1308233855
H  H292  1  0.09460000  0.04790000  0.51060000  1.0 0.1308233855
H  H293  1  0.24130000  0.42080000  0.03480000  1.0 0.1509211294
H  H294  1  0.24130000  0.07920000  0.53480000  1.0 0.1509211294
H  H295  1  0.20810000  0.49320000  0.02620000  1.0 0.1308233855
H  H296  1  0.20810000  0.00680000  0.52620000  1.0 0.1308233855
H  H297  1  0.27770000  0.47750000  0.06650000  1.0 0.1308233855
H  H298  1  0.27770000  0.02250000  0.56650000  1.0 0.1308233855
H  H299  1  0.15420000  0.53790000  0.06050000  1.0 0.1308233855
H  H300  1  0.15420000  0.96210000  0.56050000  1.0 0.1308233855
H  H301  1  0.14950000  0.49400000  0.09120000  1.0 0.1308233855
H  H302  1  0.14950000  0.00600000  0.59120000  1.0 0.1308233855
H  H303  1  0.22320000  0.52130000  0.10080000  1.0 0.1308233855
H  H304  1  0.22320000  0.97870000  0.60080000  1.0 0.1308233855
H  H305  1  0.00790000  0.28720000  0.67850000  1.0 0.1073980241
H  H306  1  0.00790000  0.21280000  0.17850000  1.0 0.1073980241
H  H307  1  0.05350000  0.12690000  0.63520000  1.0 0.1206796633
H  H308  1  0.05350000  0.37310000  0.13520000  1.0 0.1206796633
H  H309  1  0.03820000  0.07390000  0.58430000  1.0 0.1308233855
H  H310  1  0.03820000  0.42610000  0.08430000  1.0 0.1308233855
H  H311  1  0.99130000  0.03690000  0.59680000  1.0 0.1308233855
H  H312  1  0.99130000  0.46310000  0.09680000  1.0 0.1308233855
H  H313  1  0.97500000  0.02820000  0.55440000  1.0 0.1308233855
H  H314  1  0.97500000  0.47180000  0.05440000  1.0 0.1308233855
H  H315  1  0.86580000  0.07030000  0.57060000  1.0 0.1308233855
H  H316  1  0.86580000  0.42970000  0.07060000  1.0 0.1308233855
H  H317  1  0.83000000  0.12580000  0.53820000  1.0 0.1392340753
H  H318  1  0.83000000  0.37420000  0.03820000  1.0 0.1392340753
H  H319  1  0.85180000  0.05660000  0.52900000  1.0 0.1308233855
H  H320  1  0.85180000  0.44340000  0.02900000  1.0 0.1308233855
H  H321  1  0.99080000  0.17130000  0.53760000  1.0 0.1392340753
H  H322  1  0.99080000  0.32870000  0.03760000  1.0 0.1392340753
H  H323  1  0.93210000  0.12150000  0.50780000  1.0 0.1392340753
H  H324  1  0.93210000  0.37850000  0.00780000  1.0 0.1392340753
H  H325  1  0.91030000  0.19070000  0.51700000  1.0 0.1509211294
H  H326  1  0.91030000  0.30930000  0.01700000  1.0 0.1509211294
H  H327  1  0.90470000  0.34480000  0.64540000  1.0 0.0899525057
H  H328  1  0.90470000  0.15520000  0.14540000  1.0 0.0899525057
H  H329  1  0.85060000  0.42560000  0.64830000  1.0 0.1392340753
H  H330  1  0.85060000  0.07440000  0.14830000  1.0 0.1392340753
H  H331  1  0.77380000  0.50750000  0.64560000  1.0 0.1392340753
H  H332  1  0.77380000  0.99250000  0.14560000  1.0 0.1392340753
H  H333  1  0.66666667  0.52740000  0.58760000  1.0 0.1392340753
H  H334  1  0.66666667  0.97260000  0.08760000  1.0 0.1392340753
H  H335  1  0.63640000  0.46540000  0.53230000  1.0 0.1392340753
H  H336  1  0.63640000  0.03460000  0.03230000  1.0 0.1392340753
H  H337  1  0.61250000  0.38250000  0.49440000  1.0 0.0899525057
H  H338  1  0.61250000  0.11750000  0.99440000  1.0 0.0899525057
H  H339  1  0.52940000  0.35980000  0.43220000  1.0 0.1206796633
H  H340  1  0.52940000  0.14020000  0.93220000  1.0 0.1206796633
H  H341  1  0.56940000  0.26010000  0.35980000  1.0 0.1206796633
H  H342  1  0.56940000  0.23990000  0.85980000  1.0 0.1206796633
H  H343  1  0.76850000  0.14460000  0.42740000  1.0 0.1392340753
H  H344  1  0.76850000  0.35540000  0.92740000  1.0 0.1392340753
H  H345  1  0.75990000  0.18080000  0.45900000  1.0 0.1509211294
H  H346  1  0.75990000  0.31920000  0.95900000  1.0 0.1509211294
H  H347  1  0.69680000  0.13870000  0.42580000  1.0 0.1308233855
H  H348  1  0.69680000  0.36130000  0.92580000  1.0 0.1308233855
H  H349  1  0.75430000  0.31770000  0.40060000  1.0 0.1308233855
H  H350  1  0.75430000  0.18230000  0.90060000  1.0 0.1308233855
H  H351  1  0.79390000  0.29080000  0.44350000  1.0 0.1392340753
H  H352  1  0.79390000  0.20920000  0.94350000  1.0 0.1392340753
H  H353  1  0.80370000  0.25440000  0.41240000  1.0 0.1308233855
H  H354  1  0.80370000  0.24560000  0.91240000  1.0 0.1308233855
H  H355  1  0.65390000  0.24970000  0.34640000  1.0 0.1308233855
H  H356  1  0.65390000  0.25030000  0.84640000  1.0 0.1308233855
H  H357  1  0.70530000  0.18770000  0.35910000  1.0 0.1392340753
H  H358  1  0.70530000  0.31230000  0.85910000  1.0 0.1392340753
H  H359  1  0.63260000  0.18070000  0.35620000  1.0 0.1308233855
H  H360  1  0.63260000  0.31930000  0.85620000  1.0 0.1308233855
H  H361  1  0.00270000  0.28660000  0.93800000  1.0 0.1599432519
H  H362  1  0.00270000  0.21340000  0.43800000  1.0 0.1599432519
H  H363  1  0.93980000  0.23650000  0.92600000  1.0 0.1392340753
H  H364  1  0.93980000  0.26350000  0.42600000  1.0 0.1392340753
H  H365  1  0.97710000  0.27280000  0.96660000  1.0 0.1599432519
H  H366  1  0.97710000  0.22720000  0.46660000  1.0 0.1599432519
H  H367  1  0.98820000  0.12160000  0.98850000  1.0 0.0899525057
H  H368  1  0.98820000  0.37840000  0.48850000  1.0 0.0899525057
H  H369  1  0.98130000  0.19770000  0.99640000  1.0 0.1308233855
H  H370  1  0.98130000  0.30230000  0.49640000  1.0 0.1308233855
H  H371  1  0.93350000  0.16810000  0.95430000  1.0 0.1206796633
H  H372  1  0.93350000  0.33190000  0.45430000  1.0 0.1206796633
H  H373  1  0.01960000  0.36140000  0.54770000  1.0 0.1509211294
H  H374  1  0.01960000  0.13860000  0.04770000  1.0 0.1509211294
H  H375  1  0.00500000  0.39570000  0.50930000  1.0 0.0899525057
H  H376  1  0.00500000  0.10430000  0.00930000  1.0 0.0899525057
H  H377  1  0.01740000  0.44020000  0.54430000  1.0 0.1392340753
H  H378  1  0.01740000  0.05980000  0.04430000  1.0 0.1392340753
H  H379  1  0.85390000  0.48560000  0.46930000  1.0 0.1599432519
H  H380  1  0.85390000  0.01440000  0.96930000  1.0 0.1599432519
H  H381  1  0.93430000  0.50090000  0.49990000  1.0 0.1509211294
H  H382  1  0.93430000  0.99910000  0.99990000  1.0 0.1509211294
H  H383  1  0.91290000  0.45250000  0.46470000  1.0 0.1509211294
H  H384  1  0.91290000  0.04750000  0.96470000  1.0 0.1509211294
C  C1  1  0.68500000  0.83480000  0.70880000  1.0 0.6009753804
C  C2  1  0.68500000  0.66520000  0.20880000  1.0 0.6009753804
C  C3  1  0.64595000  0.89862000  0.68843000  1.0 -0.0228814084
C  C4  1  0.64595000  0.60138000  0.18843000  1.0 -0.0228814084
C  C5  1  0.66666667  0.93670000  0.66740000  1.0 -0.1391028636
C  C6  1  0.66666667  0.56330000  0.16740000  1.0 -0.1286155005
C  C7  1  0.63026000  0.99546000  0.64883000  1.0 -0.0694135154
C  C8  1  0.63026000  0.50454000  0.14883000  1.0 -0.0759445686
C  C9  1  0.57321000  0.01619000  0.65130000  1.0 0.258603372
C  C10  1  0.57321000  0.48381000  0.15130000  1.0 0.258603372
C  C11  1  0.55253000  0.97813000  0.67234000  1.0 -0.0600051579
C  C12  1  0.55253000  0.52187000  0.17234000  1.0 -0.0694135154
C  C13  1  0.58890000  0.91935000  0.69090000  1.0 -0.1200942852
C  C14  1  0.58890000  0.58065000  0.19090000  1.0 -0.1200942852
C  C15  1  0.48680000  0.99750000  0.67420000  1.0 0.3003341497
C  C16  1  0.48680000  0.50250000  0.17420000  1.0 0.3003341497
C  C17  1  0.41740000  0.99680000  0.63200000  1.0 -0.4798271248
C  C18  1  0.41740000  0.50320000  0.13200000  1.0 -0.4798271248
C  C19  1  0.49810000  0.06820000  0.69310000  1.0 -0.4798271248
C  C20  1  0.49810000  0.43180000  0.19310000  1.0 -0.4798271248
C  C21  1  0.47140000  0.94820000  0.69810000  1.0 -0.4725356248
C  C22  1  0.47140000  0.55180000  0.19810000  1.0 -0.4725356248
C  C23  1  0.65280000  0.02610000  0.62490000  1.0 0.0899525057
C  C24  1  0.65280000  0.47390000  0.12490000  1.0 0.0899525057
C  C25  1  0.65336000  0.11364000  0.58423000  1.0 0.1308233855
C  C26  1  0.65336000  0.38636000  0.08423000  1.0 0.1308233855
C  C27  1  0.67001000  0.07621000  0.56121000  1.0 -0.1686621417
C  C28  1  0.67001000  0.42379000  0.06121000  1.0 -0.1686621417
C  C29  1  0.68981000  0.10870000  0.53812000  1.0 -0.0694135154
C  C30  1  0.68981000  0.39130000  0.03812000  1.0 -0.0694135154
C  C31  1  0.69298000  0.17870000  0.53805000  1.0 -0.0600051579
C  C32  1  0.69298000  0.32130000  0.03805000  1.0 -0.0600051579
C  C33  1  0.67636000  0.21611000  0.56106000  1.0 -0.1764117476
C  C34  1  0.67636000  0.28389000  0.06106000  1.0 -0.1764117476
C  C35  1  0.65653000  0.18359000  0.58415000  1.0 0.1392340753
C  C36  1  0.65653000  0.31641000  0.08415000  1.0 0.1392340753
C  C37  1  0.65374000  0.27720000  0.62054000  1.0 0.1008956152
C  C38  1  0.65374000  0.22280000  0.12054000  1.0 0.1008956152
C  C39  1  0.63708000  0.31107000  0.64680000  1.0 -0.0759445686
C  C40  1  0.63708000  0.18893000  0.14680000  1.0 -0.0759445686
C  C41  1  0.65691000  0.37849000  0.65385000  1.0 -0.1463243604
C  C42  1  0.65691000  0.12151000  0.15385000  1.0 -0.1463243604
C  C43  1  0.64982000  0.41454000  0.68095000  1.0 -0.0286756579
C  C44  1  0.64982000  0.08546000  0.18095000  1.0 -0.0286756579
C  C45  1  0.62291000  0.38316000  0.70101000  1.0 -0.1200942852
C  C46  1  0.62291000  0.11684000  0.20101000  1.0 -0.1200942852
C  C47  1  0.60309000  0.31574000  0.69397000  1.0 -0.0694135154
C  C48  1  0.60309000  0.18426000  0.19397000  1.0 -0.0694135154
C  C49  1  0.61017000  0.27969000  0.66686000  1.0 0.258603372
C  C50  1  0.61017000  0.22031000  0.16686000  1.0 0.258603372
C  C51  1  0.56920000  0.28260000  0.71580000  1.0 0.2911431383
C  C52  1  0.56920000  0.21740000  0.21580000  1.0 0.2911431383
C  C53  1  0.61430000  0.22250000  0.73940000  1.0 -0.4597399294
C  C54  1  0.61430000  0.27750000  0.23940000  1.0 -0.4597399294
C  C55  1  0.49320000  0.26060000  0.68630000  1.0 -0.4725356248
C  C56  1  0.49320000  0.23940000  0.18630000  1.0 -0.4725356248
C  C57  1  0.56570000  0.33220000  0.74430000  1.0 -0.4597399294
C  C58  1  0.56570000  0.16780000  0.24430000  1.0 -0.4597399294
C  C59  1  0.67030000  0.48720000  0.68850000  1.0 0.591736045
C  C60  1  0.67030000  0.01280000  0.18850000  1.0 0.591736045
C  C61  1  0.76879000  0.69380000  0.64709000  1.0 0.6009753804
C  C62  1  0.76879000  0.80620000  0.14709000  1.0 0.6009753804
C  C63  1  0.78212000  0.71230000  0.61617000  1.0 -0.0453846396
C  C64  1  0.78212000  0.78770000  0.11617000  1.0 -0.0453846396
C  C65  1  0.76094000  0.66949000  0.58467000  1.0 -0.1463243604
C  C66  1  0.76094000  0.83051000  0.08467000  1.0 -0.1463243604
C  C67  1  0.77139000  0.68815000  0.55509000  1.0 -0.0694135154
C  C68  1  0.77139000  0.81185000  0.05509000  1.0 -0.0694135154
C  C69  1  0.80312000  0.74960000  0.55702000  1.0 0.258603372
C  C70  1  0.80312000  0.75040000  0.05702000  1.0 0.258603372
C  C71  1  0.82432000  0.79238000  0.58852000  1.0 -0.0694135154
C  C72  1  0.82432000  0.70762000  0.08852000  1.0 -0.0694135154
C  C73  1  0.81380000  0.77370000  0.61810000  1.0 -0.1286155005
C  C74  1  0.81380000  0.72630000  0.11810000  1.0 -0.1286155005
C  C75  1  0.85370000  0.86720000  0.58910000  1.0 0.3003341497
C  C76  1  0.85370000  0.63280000  0.08910000  1.0 0.3003341497
C  C77  1  0.91810000  0.86190000  0.58620000  1.0 -0.4798271248
C  C78  1  0.91810000  0.63810000  0.08620000  1.0 -0.4798271248
C  C79  1  0.78380000  0.90930000  0.55160000  1.0 -0.5199250141
C  C80  1  0.78380000  0.59070000  0.05160000  1.0 -0.5199250141
C  C81  1  0.87130000  0.90330000  0.62790000  1.0 -0.4597399294
C  C82  1  0.87130000  0.59670000  0.12790000  1.0 -0.4597399294
C  C83  1  0.75150000  0.63850000  0.52550000  1.0 0.1008956152
C  C84  1  0.75150000  0.86150000  0.02550000  1.0 0.1008956152
C  C85  1  0.73945000  0.58810000  0.46925000  1.0 0.1392340753
C  C86  1  0.73945000  0.91190000  0.96925000  1.0 0.1392340753
C  C87  1  0.73677000  0.52070000  0.47757000  1.0 -0.1623993863
C  C88  1  0.73677000  0.97930000  0.97757000  1.0 -0.1623993863
C  C89  1  0.72073000  0.47170000  0.44953000  1.0 -0.0694135154
C  C90  1  0.72073000  0.02830000  0.94953000  1.0 -0.0694135154
C  C91  1  0.70747000  0.49020000  0.41317000  1.0 -0.0868022355
C  C92  1  0.70747000  0.00980000  0.91317000  1.0 -0.0868022355
C  C93  1  0.71015000  0.55770000  0.40485000  1.0 -0.1686621417
C  C94  1  0.71015000  0.94230000  0.90485000  1.0 -0.1686621417
C  C95  1  0.72619000  0.60663000  0.43289000  1.0 0.1308233855
C  C96  1  0.72619000  0.89337000  0.93289000  1.0 0.1392340753
C  C97  1  0.70900000  0.70360000  0.39400000  1.0 0.1073980241
C  C98  1  0.70900000  0.79640000  0.89400000  1.0 0.1073980241
C  C99  1  0.72018000  0.77294000  0.38738000  1.0 -0.0759445686
C  C100  1  0.72018000  0.72706000  0.88738000  1.0 -0.0759445686
C  C101  1  0.69796000  0.78602000  0.34882000  1.0 -0.1463243604
C  C102  1  0.69796000  0.71398000  0.84882000  1.0 -0.1463243604
C  C103  1  0.71316000  0.84776000  0.33873000  1.0 -0.0286756579
C  C104  1  0.71316000  0.65224000  0.83873000  1.0 -0.0286756579
C  C105  1  0.75058000  0.89643000  0.36720000  1.0 -0.1200942852
C  C106  1  0.75058000  0.60357000  0.86720000  1.0 -0.1200942852
C  C107  1  0.77281000  0.88335000  0.40576000  1.0 -0.0600051579
C  C108  1  0.77281000  0.61665000  0.90576000  1.0 -0.0600051579
C  C109  1  0.75765000  0.82160000  0.41585000  1.0 0.258603372
C  C110  1  0.75765000  0.67840000  0.91585000  1.0 0.258603372
C  C111  1  0.81133000  0.93920000  0.43733000  1.0 0.3003341497
C  C112  1  0.81133000  0.56080000  0.93733000  1.0 0.3003341497
C  C113  1  0.88410000  0.91690000  0.47020000  1.0 -0.489207955
C  C114  1  0.88410000  0.58310000  0.97020000  1.0 -0.489207955
C  C115  1  0.76700000  0.95960000  0.45400000  1.0 -0.4798271248
C  C116  1  0.76700000  0.54040000  0.95400000  1.0 -0.489207955
C  C117  1  0.82210000  0.00440000  0.41950000  1.0 -0.4798271248
C  C118  1  0.82210000  0.49560000  0.91950000  1.0 -0.4798271248
C  C119  1  0.69440000  0.85810000  0.29710000  1.0 0.591736045
C  C120  1  0.69440000  0.64190000  0.79710000  1.0 0.591736045
C  C121  1  0.88906000  0.69440000  0.79896000  1.0 0.6009753804
C  C122  1  0.88906000  0.80560000  0.29896000  1.0 0.6009753804
C  C123  1  0.95913000  0.70521000  0.83714000  1.0 -0.0286756579
C  C124  1  0.95913000  0.79479000  0.33714000  1.0 -0.0286756579
C  C125  1  0.00352000  0.75881000  0.84231000  1.0 -0.1391028636
C  C126  1  0.00352000  0.74119000  0.34231000  1.0 -0.1391028636
C  C127  1  0.06495000  0.76995000  0.87856000  1.0 -0.0694135154
C  C128  1  0.06495000  0.73005000  0.37856000  1.0 -0.0694135154
C  C129  1  0.08199000  0.72749000  0.90963000  1.0 0.2701583694
C  C130  1  0.08199000  0.77251000  0.40963000  1.0 0.2701583694
C  C131  1  0.03760000  0.67388000  0.90446000  1.0 -0.0694135154
C  C132  1  0.03760000  0.82612000  0.40446000  1.0 -0.0694135154
C  C133  1  0.97617000  0.66274000  0.86822000  1.0 -0.1200942852
C  C134  1  0.97617000  0.83726000  0.36822000  1.0 -0.1200942852
C  C135  1  0.05909000  0.62017000  0.93772000  1.0 0.3218871843
C  C136  1  0.05909000  0.87983000  0.43772000  1.0 0.3218871843
C  C137  1  0.00892000  0.55905000  0.92429000  1.0 -0.489207955
C  C138  1  0.00892000  0.94095000  0.42429000  1.0 -0.489207955
C  C139  1  0.13550000  0.59023000  0.95135000  1.0 -0.4993436055
C  C140  1  0.13550000  0.90977000  0.45135000  1.0 -0.4993436055
C  C141  1  0.05617000  0.65430000  0.97225000  1.0 -0.4993436055
C  C142  1  0.05617000  0.84570000  0.47225000  1.0 -0.489207955
C  C143  1  0.10909000  0.82439000  0.87824000  1.0 0.1206796633
C  C144  1  0.10909000  0.67561000  0.37824000  1.0 0.1206796633
C  C145  1  0.21049000  0.89643000  0.90806000  1.0 0.1392340753
C  C146  1  0.21049000  0.60357000  0.40806000  1.0 0.1392340753
C  C147  1  0.19237000  0.93360000  0.87495000  1.0 -0.1764117476
C  C148  1  0.19237000  0.56640000  0.37495000  1.0 -0.1764117476
C  C149  1  0.23839000  0.98270000  0.87659000  1.0 -0.0694135154
C  C150  1  0.23839000  0.51730000  0.37659000  1.0 -0.0694135154
C  C151  1  0.30254000  0.99459000  0.91135000  1.0 -0.0694135154
C  C152  1  0.30254000  0.50541000  0.41135000  1.0 -0.0694135154
C  C153  1  0.32067000  0.95740000  0.94446000  1.0 -0.1867598441
C  C154  1  0.32067000  0.54260000  0.44446000  1.0 -0.1867598441
C  C155  1  0.27465000  0.90835000  0.94282000  1.0 0.1308233855
C  C156  1  0.27465000  0.59165000  0.44282000  1.0 0.1308233855
C  C157  1  0.35018000  0.86290000  0.00628000  1.0 0.1008956152
C  C158  1  0.35018000  0.63710000  0.50628000  1.0 0.1008956152
C  C159  1  0.36878000  0.82833000  0.04193000  1.0 -0.0868022355
C  C160  1  0.36878000  0.67167000  0.54193000  1.0 -0.0868022355
C  C161  1  0.43906000  0.83691000  0.07218000  1.0 -0.1463243604
C  C162  1  0.43906000  0.66309000  0.57218000  1.0 -0.1463243604
C  C163  1  0.46224000  0.81130000  0.10901000  1.0 -0.0286756579
C  C164  1  0.46224000  0.68870000  0.60901000  1.0 -0.0286756579
C  C165  1  0.41516000  0.77720000  0.11560000  1.0 -0.1200942852
C  C166  1  0.41516000  0.72280000  0.61560000  1.0 -0.1200942852
C  C167  1  0.34487000  0.76861000  0.08535000  1.0 -0.0600051579
C  C168  1  0.34487000  0.73139000  0.58535000  1.0 -0.0600051579
C  C169  1  0.32169000  0.79417000  0.04852000  1.0 0.2543363388
C  C170  1  0.32169000  0.70583000  0.54852000  1.0 0.2543363388
C  C171  1  0.29250000  0.73200000  0.09420000  1.0 0.3075706254
C  C172  1  0.29250000  0.76800000  0.59420000  1.0 0.3075706254
C  C173  1  0.26410000  0.66790000  0.06800000  1.0 -0.4798271248
C  C174  1  0.26410000  0.83210000  0.56800000  1.0 -0.4798271248
C  C175  1  0.22920000  0.77800000  0.08340000  1.0 -0.489207955
C  C176  1  0.22920000  0.72200000  0.58340000  1.0 -0.489207955
C  C177  1  0.32860000  0.71050000  0.13720000  1.0 -0.4798271248
C  C178  1  0.32860000  0.78950000  0.63720000  1.0 -0.4798271248
C  C179  1  0.53843000  0.82230000  0.14253000  1.0 0.6009753804
C  C180  1  0.53843000  0.67770000  0.64253000  1.0 0.6009753804
C  C181  1  0.01570000  0.75310000  0.55260000  1.0 -0.5515789945
C  C182  1  0.01570000  0.74690000  0.05260000  1.0 -0.5515789945
C  C183  1  0.02040000  0.66630000  0.52210000  1.0 -0.5682249973
C  C184  1  0.02040000  0.83370000  0.02210000  1.0 -0.5682249973
C  C185  1  0.00270000  0.89890000  0.96970000  1.0 -0.4798271248
C  C186  1  0.00270000  0.60110000  0.46970000  1.0 -0.489207955
C  C187  1  0.09890000  0.96710000  0.01690000  1.0 -0.5682249973
C  C188  1  0.09890000  0.53290000  0.51690000  1.0 -0.5682249973
C  C189  1  0.31500000  0.33480000  0.79120000  1.0 0.6009753804
C  C190  1  0.31500000  0.16520000  0.29120000  1.0 0.6009753804
C  C191  1  0.35405000  0.39862000  0.81157000  1.0 -0.0228814084
C  C192  1  0.35405000  0.10138000  0.31157000  1.0 -0.0228814084
C  C193  1  0.33337000  0.43670000  0.83260000  1.0 -0.1391028636
C  C194  1  0.33337000  0.06330000  0.33260000  1.0 -0.1391028636
C  C195  1  0.36974000  0.49546000  0.85117000  1.0 -0.0759445686
C  C196  1  0.36974000  0.00454000  0.35117000  1.0 -0.0694135154
C  C197  1  0.42679000  0.51619000  0.84870000  1.0 0.258603372
C  C198  1  0.42679000  0.98381000  0.34870000  1.0 0.258603372
C  C199  1  0.44747000  0.47813000  0.82766000  1.0 -0.0694135154
C  C200  1  0.44747000  0.02187000  0.32766000  1.0 -0.0600051579
C  C201  1  0.41110000  0.41935000  0.80910000  1.0 -0.1200942852
C  C202  1  0.41110000  0.08065000  0.30910000  1.0 -0.1200942852
C  C203  1  0.51320000  0.49750000  0.82580000  1.0 0.3003341497
C  C204  1  0.51320000  0.00250000  0.32580000  1.0 0.3003341497
C  C205  1  0.58260000  0.49680000  0.86800000  1.0 -0.489207955
C  C206  1  0.58260000  0.00320000  0.36800000  1.0 -0.4798271248
C  C207  1  0.50190000  0.56820000  0.80690000  1.0 -0.4798271248
C  C208  1  0.50190000  0.93180000  0.30690000  1.0 -0.4798271248
C  C209  1  0.52860000  0.44820000  0.80190000  1.0 -0.4725356248
C  C210  1  0.52860000  0.05180000  0.30190000  1.0 -0.4725356248
C  C211  1  0.34720000  0.52610000  0.87510000  1.0 0.0899525057
C  C212  1  0.34720000  0.97390000  0.37510000  1.0 0.0899525057
C  C213  1  0.34664000  0.61364000  0.91577000  1.0 0.1308233855
C  C214  1  0.34664000  0.88636000  0.41577000  1.0 0.1308233855
C  C215  1  0.32999000  0.57621000  0.93879000  1.0 -0.1686621417
C  C216  1  0.32999000  0.92379000  0.43879000  1.0 -0.1686621417
C  C217  1  0.31019000  0.60870000  0.96188000  1.0 -0.0694135154
C  C218  1  0.31019000  0.89130000  0.46188000  1.0 -0.0694135154
C  C219  1  0.30702000  0.67870000  0.96195000  1.0 -0.0600051579
C  C220  1  0.30702000  0.82130000  0.46195000  1.0 -0.0600051579
C  C221  1  0.32364000  0.71611000  0.93894000  1.0 -0.1764117476
C  C222  1  0.32364000  0.78389000  0.43894000  1.0 -0.1764117476
C  C223  1  0.34347000  0.68359000  0.91585000  1.0 0.1392340753
C  C224  1  0.34347000  0.81641000  0.41585000  1.0 0.1392340753
C  C225  1  0.34626000  0.77720000  0.87946000  1.0 0.1073980241
C  C226  1  0.34626000  0.72280000  0.37946000  1.0 0.1008956152
C  C227  1  0.36292000  0.81107000  0.85320000  1.0 -0.0759445686
C  C228  1  0.36292000  0.68893000  0.35320000  1.0 -0.0759445686
C  C229  1  0.34309000  0.87849000  0.84615000  1.0 -0.1463243604
C  C230  1  0.34309000  0.62151000  0.34615000  1.0 -0.1463243604
C  C231  1  0.35018000  0.91454000  0.81905000  1.0 -0.0286756579
C  C232  1  0.35018000  0.58546000  0.31905000  1.0 -0.0286756579
C  C233  1  0.37709000  0.88316000  0.79899000  1.0 -0.1200942852
C  C234  1  0.37709000  0.61684000  0.29899000  1.0 -0.1200942852
C  C235  1  0.39691000  0.81574000  0.80603000  1.0 -0.0694135154
C  C236  1  0.39691000  0.68426000  0.30603000  1.0 -0.0694135154
C  C237  1  0.38983000  0.77969000  0.83314000  1.0 0.258603372
C  C238  1  0.38983000  0.72031000  0.33314000  1.0 0.258603372
C  C239  1  0.43080000  0.78260000  0.78420000  1.0 0.2911431383
C  C240  1  0.43080000  0.71740000  0.28420000  1.0 0.2911431383
C  C241  1  0.38570000  0.72250000  0.76060000  1.0 -0.4597399294
C  C242  1  0.38570000  0.77750000  0.26060000  1.0 -0.4597399294
C  C243  1  0.50680000  0.76060000  0.81370000  1.0 -0.4725356248
C  C244  1  0.50680000  0.73940000  0.31370000  1.0 -0.4725356248
C  C245  1  0.43430000  0.83220000  0.75570000  1.0 -0.4597399294
C  C246  1  0.43430000  0.66780000  0.25570000  1.0 -0.4597399294
C  C247  1  0.32970000  0.98720000  0.81150000  1.0 0.591736045
C  C248  1  0.32970000  0.51280000  0.31150000  1.0 0.591736045
C  C249  1  0.23121000  0.19380000  0.85291000  1.0 0.6009753804
C  C250  1  0.23121000  0.30620000  0.35291000  1.0 0.6009753804
C  C251  1  0.21788000  0.21230000  0.88383000  1.0 -0.0453846396
C  C252  1  0.21788000  0.28770000  0.38383000  1.0 -0.0453846396
C  C253  1  0.23906000  0.16949000  0.91533000  1.0 -0.1463243604
C  C254  1  0.23906000  0.33051000  0.41533000  1.0 -0.1463243604
C  C255  1  0.22861000  0.18815000  0.94491000  1.0 -0.0694135154
C  C256  1  0.22861000  0.31185000  0.44491000  1.0 -0.0694135154
C  C257  1  0.19688000  0.24960000  0.94298000  1.0 0.258603372
C  C258  1  0.19688000  0.25040000  0.44298000  1.0 0.258603372
C  C259  1  0.17568000  0.29238000  0.91148000  1.0 -0.0694135154
C  C260  1  0.17568000  0.20762000  0.41148000  1.0 -0.0694135154
C  C261  1  0.18620000  0.27370000  0.88190000  1.0 -0.1286155005
C  C262  1  0.18620000  0.22630000  0.38190000  1.0 -0.1286155005
C  C263  1  0.14630000  0.36720000  0.91090000  1.0 0.3003341497
C  C264  1  0.14630000  0.13280000  0.41090000  1.0 0.3003341497
C  C265  1  0.08190000  0.36190000  0.91380000  1.0 -0.4798271248
C  C266  1  0.08190000  0.13810000  0.41380000  1.0 -0.4798271248
C  C267  1  0.21620000  0.40930000  0.94840000  1.0 -0.5199250141
C  C268  1  0.21620000  0.09070000  0.44840000  1.0 -0.5199250141
C  C269  1  0.12870000  0.40330000  0.87210000  1.0 -0.4597399294
C  C270  1  0.12870000  0.09670000  0.37210000  1.0 -0.4597399294
C  C271  1  0.24850000  0.13850000  0.97450000  1.0 0.1008956152
C  C272  1  0.24850000  0.36150000  0.47450000  1.0 0.1008956152
C  C273  1  0.26055000  0.08810000  0.03075000  1.0 0.1392340753
C  C274  1  0.26055000  0.41190000  0.53075000  1.0 0.1392340753
C  C275  1  0.26323000  0.02070000  0.02243000  1.0 -0.1623993863
C  C276  1  0.26323000  0.47930000  0.52243000  1.0 -0.1623993863
C  C277  1  0.27927000  0.97170000  0.05047000  1.0 -0.0694135154
C  C278  1  0.27927000  0.52830000  0.55047000  1.0 -0.0694135154
C  C279  1  0.29253000  0.99020000  0.08683000  1.0 -0.0868022355
C  C280  1  0.29253000  0.50980000  0.58683000  1.0 -0.0868022355
C  C281  1  0.28985000  0.05770000  0.09515000  1.0 -0.1623993863
C  C282  1  0.28985000  0.44230000  0.59515000  1.0 -0.1686621417
C  C283  1  0.27381000  0.10663000  0.06711000  1.0 0.1308233855
C  C284  1  0.27381000  0.39337000  0.56711000  1.0 0.1308233855
C  C285  1  0.29100000  0.20360000  0.10600000  1.0 0.1073980241
C  C286  1  0.29100000  0.29640000  0.60600000  1.0 0.1073980241
C  C287  1  0.27982000  0.27294000  0.11262000  1.0 -0.0759445686
C  C288  1  0.27982000  0.22706000  0.61262000  1.0 -0.0759445686
C  C289  1  0.30204000  0.28602000  0.15118000  1.0 -0.1463243604
C  C290  1  0.30204000  0.21398000  0.65118000  1.0 -0.1463243604
C  C291  1  0.28684000  0.34776000  0.16127000  1.0 -0.0286756579
C  C292  1  0.28684000  0.15224000  0.66127000  1.0 -0.0286756579
C  C293  1  0.24942000  0.39643000  0.13280000  1.0 -0.1200942852
C  C294  1  0.24942000  0.10357000  0.63280000  1.0 -0.1200942852
C  C295  1  0.22719000  0.38335000  0.09424000  1.0 -0.0600051579
C  C296  1  0.22719000  0.11665000  0.59424000  1.0 -0.0600051579
C  C297  1  0.24235000  0.32160000  0.08415000  1.0 0.258603372
C  C298  1  0.24235000  0.17840000  0.58415000  1.0 0.258603372
C  C299  1  0.18867000  0.43920000  0.06267000  1.0 0.3003341497
C  C300  1  0.18867000  0.06080000  0.56267000  1.0 0.3003341497
C  C301  1  0.11590000  0.41690000  0.02980000  1.0 -0.489207955
C  C302  1  0.11590000  0.08310000  0.52980000  1.0 -0.489207955
C  C303  1  0.23300000  0.45960000  0.04600000  1.0 -0.4798271248
C  C304  1  0.23300000  0.04040000  0.54600000  1.0 -0.489207955
C  C305  1  0.17790000  0.50440000  0.08050000  1.0 -0.4798271248
C  C306  1  0.17790000  0.99560000  0.58050000  1.0 -0.4798271248
C  C307  1  0.30560000  0.35810000  0.20290000  1.0 0.591736045
C  C308  1  0.30560000  0.14190000  0.70290000  1.0 0.591736045
C  C309  1  0.11094000  0.19440000  0.70104000  1.0 0.6009753804
C  C310  1  0.11094000  0.30560000  0.20104000  1.0 0.6009753804
C  C311  1  0.04087000  0.20521000  0.66286000  1.0 -0.0286756579
C  C312  1  0.04087000  0.29479000  0.16286000  1.0 -0.0286756579
C  C313  1  0.99648000  0.25881000  0.65769000  1.0 -0.1391028636
C  C314  1  0.99648000  0.24119000  0.15769000  1.0 -0.1391028636
C  C315  1  0.93505000  0.26995000  0.62144000  1.0 -0.0694135154
C  C316  1  0.93505000  0.23005000  0.12144000  1.0 -0.0694135154
C  C317  1  0.91801000  0.22749000  0.59037000  1.0 0.2701583694
C  C318  1  0.91801000  0.27251000  0.09037000  1.0 0.2701583694
C  C319  1  0.96240000  0.17388000  0.59554000  1.0 -0.0694135154
C  C320  1  0.96240000  0.32612000  0.09554000  1.0 -0.0694135154
C  C321  1  0.02383000  0.16274000  0.63178000  1.0 -0.1200942852
C  C322  1  0.02383000  0.33726000  0.13178000  1.0 -0.1200942852
C  C323  1  0.94091000  0.12017000  0.56228000  1.0 0.3218871843
C  C324  1  0.94091000  0.37983000  0.06228000  1.0 0.3218871843
C  C325  1  0.99108000  0.05905000  0.57571000  1.0 -0.489207955
C  C326  1  0.99108000  0.44095000  0.07571000  1.0 -0.489207955
C  C327  1  0.86450000  0.09023000  0.54865000  1.0 -0.4993436055
C  C328  1  0.86450000  0.40977000  0.04865000  1.0 -0.4993436055
C  C329  1  0.94383000  0.15430000  0.52775000  1.0 -0.4993436055
C  C330  1  0.94383000  0.34570000  0.02775000  1.0 -0.4993436055
C  C331  1  0.89091000  0.32439000  0.62176000  1.0 0.1206796633
C  C332  1  0.89091000  0.17561000  0.12176000  1.0 0.1206796633
C  C333  1  0.78951000  0.39643000  0.59194000  1.0 0.1392340753
C  C334  1  0.78951000  0.10357000  0.09194000  1.0 0.1392340753
C  C335  1  0.80763000  0.43360000  0.62505000  1.0 -0.1764117476
C  C336  1  0.80763000  0.06640000  0.12505000  1.0 -0.1764117476
C  C337  1  0.76161000  0.48270000  0.62341000  1.0 -0.0694135154
C  C338  1  0.76161000  0.01730000  0.12341000  1.0 -0.0694135154
C  C339  1  0.69746000  0.49459000  0.58865000  1.0 -0.0694135154
C  C340  1  0.69746000  0.00541000  0.08865000  1.0 -0.0694135154
C  C341  1  0.67933000  0.45740000  0.55554000  1.0 -0.1867598441
C  C342  1  0.67933000  0.04260000  0.05554000  1.0 -0.1867598441
C  C343  1  0.72535000  0.40835000  0.55718000  1.0 0.1308233855
C  C344  1  0.72535000  0.09165000  0.05718000  1.0 0.1308233855
C  C345  1  0.64982000  0.36290000  0.49372000  1.0 0.1008956152
C  C346  1  0.64982000  0.13710000  0.99372000  1.0 0.1008956152
C  C347  1  0.63122000  0.32833000  0.45807000  1.0 -0.0868022355
C  C348  1  0.63122000  0.17167000  0.95807000  1.0 -0.0868022355
C  C349  1  0.56094000  0.33691000  0.42782000  1.0 -0.1463243604
C  C350  1  0.56094000  0.16309000  0.92782000  1.0 -0.1463243604
C  C351  1  0.53776000  0.31130000  0.39099000  1.0 -0.0286756579
C  C352  1  0.53776000  0.18870000  0.89099000  1.0 -0.0286756579
C  C353  1  0.58484000  0.27720000  0.38440000  1.0 -0.1200942852
C  C354  1  0.58484000  0.22280000  0.88440000  1.0 -0.1200942852
C  C355  1  0.65513000  0.26861000  0.41465000  1.0 -0.0600051579
C  C356  1  0.65513000  0.23139000  0.91465000  1.0 -0.0600051579
C  C357  1  0.67831000  0.29417000  0.45148000  1.0 0.2543363388
C  C358  1  0.67831000  0.20583000  0.95148000  1.0 0.2543363388
C  C359  1  0.70750000  0.23200000  0.40580000  1.0 0.3075706254
C  C360  1  0.70750000  0.26800000  0.90580000  1.0 0.3075706254
C  C361  1  0.73590000  0.16790000  0.43200000  1.0 -0.4798271248
C  C362  1  0.73590000  0.33210000  0.93200000  1.0 -0.4798271248
C  C363  1  0.77080000  0.27800000  0.41660000  1.0 -0.489207955
C  C364  1  0.77080000  0.22200000  0.91660000  1.0 -0.489207955
C  C365  1  0.67140000  0.21050000  0.36280000  1.0 -0.4798271248
C  C366  1  0.67140000  0.28950000  0.86280000  1.0 -0.4798271248
C  C367  1  0.46157000  0.32230000  0.35747000  1.0 0.6009753804
C  C368  1  0.46157000  0.17770000  0.85747000  1.0 0.6009753804
C  C369  1  0.98430000  0.25310000  0.94740000  1.0 -0.5515789945
C  C370  1  0.98430000  0.24690000  0.44740000  1.0 -0.5515789945
C  C371  1  0.97960000  0.16630000  0.97790000  1.0 -0.5682249973
C  C372  1  0.97960000  0.33370000  0.47790000  1.0 -0.5682249973
C  C373  1  0.99730000  0.39890000  0.53030000  1.0 -0.489207955
C  C374  1  0.99730000  0.10110000  0.03030000  1.0 -0.489207955
C  C375  1  0.90110000  0.46710000  0.48310000  1.0 -0.5682249973
C  C376  1  0.90110000  0.03290000  0.98310000  1.0 -0.557537103
S  S1  1  0.95610000  0.68740000  0.53210000  1.0 0.6575692783
S  S2  1  0.95610000  0.81260000  0.03210000  1.0 0.6575692783
S  S3  1  0.09520000  0.89770000  0.98860000  1.0 0.6009753804
S  S4  1  0.09520000  0.60230000  0.48860000  1.0 0.6009753804
S  S5  1  0.04390000  0.18740000  0.96790000  1.0 0.6575692783
S  S6  1  0.04390000  0.31260000  0.46790000  1.0 0.6575692783
S  S7  1  0.90480000  0.39770000  0.51140000  1.0 0.6009753804
S  S8  1  0.90480000  0.10230000  0.01140000  1.0 0.6009753804
N  N1  1  0.63644000  0.21610000  0.60814000  1.0 -0.2813301876
N  N2  1  0.63644000  0.28390000  0.10814000  1.0 -0.2813301876
N  N3  1  0.62950000  0.08500000  0.60750000  1.0 -0.2813301876
N  N4  1  0.62950000  0.41500000  0.10750000  1.0 -0.2813301876
N  N5  1  0.16709000  0.84570000  0.90969000  1.0 -0.2903235961
N  N6  1  0.16709000  0.65430000  0.40969000  1.0 -0.2903235961
N  N7  1  0.28760000  0.86950000  0.97540000  1.0 -0.2903235961
N  N8  1  0.28760000  0.63050000  0.47540000  1.0 -0.2903235961
N  N9  1  0.73551000  0.67620000  0.42781000  1.0 -0.2712144439
N  N10  1  0.73551000  0.82380000  0.92781000  1.0 -0.2712144439
N  N11  1  0.75971000  0.64100000  0.49661000  1.0 -0.2813301876
N  N12  1  0.75971000  0.85900000  0.99661000  1.0 -0.2813301876
N  N13  1  0.36356000  0.71610000  0.89186000  1.0 -0.2813301876
N  N14  1  0.36356000  0.78390000  0.39186000  1.0 -0.2813301876
N  N15  1  0.37050000  0.58500000  0.89250000  1.0 -0.2813301876
N  N16  1  0.37050000  0.91500000  0.39250000  1.0 -0.2813301876
N  N17  1  0.83291000  0.34570000  0.59031000  1.0 -0.2954331447
N  N18  1  0.83291000  0.15430000  0.09031000  1.0 -0.2903235961
N  N19  1  0.71240000  0.36950000  0.52460000  1.0 -0.2813301876
N  N20  1  0.71240000  0.13050000  0.02460000  1.0 -0.2813301876
N  N21  1  0.26449000  0.17620000  0.07219000  1.0 -0.2712144439
N  N22  1  0.26449000  0.32380000  0.57219000  1.0 -0.2712144439
N  N23  1  0.24029000  0.14100000  0.00339000  1.0 -0.2813301876
N  N24  1  0.24029000  0.35900000  0.50339000  1.0 -0.2813301876
O  O1  1  0.66160000  0.80180000  0.72610000  1.0 -0.5400008593
O  O2  1  0.66160000  0.69820000  0.22610000  1.0 -0.5400008593
O  O3  1  0.73666000  0.81720000  0.70706000  1.0 -0.5199250141
O  O4  1  0.73666000  0.68280000  0.20706000  1.0 -0.5199250141
O  O5  1  0.53971000  0.07360000  0.63514000  1.0 -0.4798271248
O  O6  1  0.53971000  0.42640000  0.13514000  1.0 -0.4798271248
O  O7  1  0.58959000  0.21570000  0.66079000  1.0 -0.4993436055
O  O8  1  0.58959000  0.28430000  0.16079000  1.0 -0.4993436055
O  O9  1  0.67049000  0.52044000  0.66182000  1.0 -0.5515789945
O  O10  1  0.67049000  0.97956000  0.16182000  1.0 -0.5515789945
O  O11  1  0.68614000  0.51250000  0.72065000  1.0 -0.557537103
O  O12  1  0.68614000  0.98750000  0.22065000  1.0 -0.557537103
O  O13  1  0.80180000  0.72450000  0.67923000  1.0 -0.5199250141
O  O14  1  0.80180000  0.77550000  0.17923000  1.0 -0.5199250141
O  O15  1  0.72147000  0.64830000  0.63888000  1.0 -0.5682249973
O  O16  1  0.72147000  0.85170000  0.13888000  1.0 -0.5682249973
O  O17  1  0.81308000  0.77010000  0.52888000  1.0 -0.5068518628
O  O18  1  0.81308000  0.72990000  0.02888000  1.0 -0.4993436055
O  O19  1  0.77987000  0.81020000  0.45267000  1.0 -0.489207955
O  O20  1  0.77987000  0.68980000  0.95267000  1.0 -0.489207955
O  O21  1  0.65353000  0.81430000  0.27174000  1.0 -0.557537103
O  O22  1  0.65353000  0.68570000  0.77174000  1.0 -0.557537103
O  O23  1  0.72045000  0.90680000  0.29021000  1.0 -0.5256148984
O  O24  1  0.72045000  0.59320000  0.79021000  1.0 -0.5256148984
O  O25  1  0.87467000  0.73390000  0.77099000  1.0 -0.5400008593
O  O26  1  0.87467000  0.76610000  0.27099000  1.0 -0.5400008593
O  O27  1  0.84956000  0.64910000  0.79796000  1.0 -0.5682249973
O  O28  1  0.84956000  0.85090000  0.29796000  1.0 -0.5682249973
O  O29  1  0.13624000  0.74030000  0.94534000  1.0 -0.5068518628
O  O30  1  0.13624000  0.75970000  0.44534000  1.0 -0.5068518628
O  O31  1  0.25503000  0.78540000  0.02005000  1.0 -0.5068518628
O  O32  1  0.25503000  0.71460000  0.52005000  1.0 -0.5068518628
O  O33  1  0.58066000  0.84740000  0.13457000  1.0 -0.5400008593
O  O34  1  0.58066000  0.65260000  0.63457000  1.0 -0.5400008593
O  O35  1  0.55377000  0.80610000  0.17618000  1.0 -0.5400008593
O  O36  1  0.55377000  0.69390000  0.67618000  1.0 -0.5400008593
O  O37  1  0.89250000  0.69860000  0.49420000  1.0 -0.5515789945
O  O38  1  0.89250000  0.80140000  0.99420000  1.0 -0.5515789945
O  O39  1  0.13740000  0.88980000  0.97080000  1.0 -0.5840616931
O  O40  1  0.13740000  0.61020000  0.47080000  1.0 -0.5851599087
O  O41  1  0.71871000  0.65955000  0.71795000  1.0 -1.0107661892
O  O42  1  0.71871000  0.84045000  0.21795000  1.0 -1.0107661892
O  O43  1  0.33840000  0.30180000  0.77390000  1.0 -0.5400008593
O  O44  1  0.33840000  0.19820000  0.27390000  1.0 -0.5400008593
O  O45  1  0.26334000  0.31720000  0.79294000  1.0 -0.5199250141
O  O46  1  0.26334000  0.18280000  0.29294000  1.0 -0.5199250141
O  O47  1  0.46029000  0.57360000  0.86486000  1.0 -0.4798271248
O  O48  1  0.46029000  0.92640000  0.36486000  1.0 -0.4798271248
O  O49  1  0.41041000  0.71570000  0.83921000  1.0 -0.4993436055
O  O50  1  0.41041000  0.78430000  0.33921000  1.0 -0.4993436055
O  O51  1  0.32951000  0.02044000  0.83818000  1.0 -0.5515789945
O  O52  1  0.32951000  0.47956000  0.33818000  1.0 -0.5515789945
O  O53  1  0.31386000  0.01250000  0.77935000  1.0 -0.557537103
O  O54  1  0.31386000  0.48750000  0.27935000  1.0 -0.557537103
O  O55  1  0.19820000  0.22450000  0.82077000  1.0 -0.5199250141
O  O56  1  0.19820000  0.27550000  0.32077000  1.0 -0.5199250141
O  O57  1  0.27853000  0.14830000  0.86112000  1.0 -0.5682249973
O  O58  1  0.27853000  0.35170000  0.36112000  1.0 -0.5682249973
O  O59  1  0.18692000  0.27010000  0.97112000  1.0 -0.4993436055
O  O60  1  0.18692000  0.22990000  0.47112000  1.0 -0.5068518628
O  O61  1  0.22013000  0.31020000  0.04733000  1.0 -0.489207955
O  O62  1  0.22013000  0.18980000  0.54733000  1.0 -0.489207955
O  O63  1  0.34647000  0.31430000  0.22826000  1.0 -0.557537103
O  O64  1  0.34647000  0.18570000  0.72826000  1.0 -0.557537103
O  O65  1  0.27955000  0.40680000  0.20979000  1.0 -0.5256148984
O  O66  1  0.27955000  0.09320000  0.70979000  1.0 -0.5256148984
O  O67  1  0.12533000  0.23390000  0.72901000  1.0 -0.5400008593
O  O68  1  0.12533000  0.26610000  0.22901000  1.0 -0.5400008593
O  O69  1  0.15044000  0.14910000  0.70204000  1.0 -0.5682249973
O  O70  1  0.15044000  0.35090000  0.20204000  1.0 -0.5682249973
O  O71  1  0.86376000  0.24030000  0.55466000  1.0 -0.5068518628
O  O72  1  0.86376000  0.25970000  0.05466000  1.0 -0.5068518628
O  O73  1  0.74497000  0.28540000  0.47995000  1.0 -0.5068518628
O  O74  1  0.74497000  0.21460000  0.97995000  1.0 -0.5068518628
O  O75  1  0.41934000  0.34740000  0.36543000  1.0 -0.5400008593
O  O76  1  0.41934000  0.15260000  0.86543000  1.0 -0.5400008593
O  O77  1  0.44623000  0.30610000  0.32382000  1.0 -0.5400008593
O  O78  1  0.44623000  0.19390000  0.82382000  1.0 -0.5400008593
O  O79  1  0.10750000  0.19860000  0.00580000  1.0 -0.5515789945
O  O80  1  0.10750000  0.30140000  0.50580000  1.0 -0.5515789945
O  O81  1  0.86260000  0.38980000  0.52920000  1.0 -0.5840616931
O  O82  1  0.86260000  0.11020000  0.02920000  1.0 -0.5840616931
O  O83  1  0.28129000  0.15955000  0.78205000  1.0 -1.0107661892
O  O84  1  0.28129000  0.34045000  0.28205000  1.0 -1.0107661892
