# DDEC6 charges by PACMAN v1.1 (https://github.com/mtap-research/PACMAN-charge/)
data_CAXZOU_FSR_pacman
_symmetry_space_group_name_H-M   'P 1'
_cell_length_a   13.03700000
_cell_length_b   21.66600000
_cell_length_c   26.14800000
_cell_angle_alpha   89.87200000
_cell_angle_beta   95.11400000
_cell_angle_gamma   98.98300000
_symmetry_Int_Tables_number   1
_chemical_formula_structural   Zn4H75C115N9O16
_chemical_formula_sum   'Zn8 H150 C230 N18 O32'
_cell_volume   7265.61409036
_cell_formula_units_Z   2
loop_
 _symmetry_equiv_pos_site_id
 _symmetry_equiv_pos_as_xyz
  1  'x, y, z'
loop_
 _atom_site_type_symbol
 _atom_site_label
 _atom_site_symmetry_multiplicity
 _atom_site_fract_x
 _atom_site_fract_y
 _atom_site_fract_z
 _atom_site_occupancy
 _atom_site_charge
Zn  Zn1  1  0.13621000  0.34017000  0.52853000  1.0 0.8319031759
Zn  Zn2  1  0.12148000  0.17349000  0.02689000  1.0 0.8384096189
Zn  Zn3  1  0.12012000  0.20385000  0.52600000  1.0 0.8205477758
Zn  Zn4  1  0.13876000  0.31078000  0.02813000  1.0 0.8319031759
Zn  Zn5  1  0.86379000  0.65983000  0.47147000  1.0 0.8319031759
Zn  Zn6  1  0.87852000  0.82651000  0.97311000  1.0 0.8384096189
Zn  Zn7  1  0.87988000  0.79615000  0.47400000  1.0 0.8205477758
Zn  Zn8  1  0.86124000  0.68922000  0.97187000  1.0 0.8319031759
H  H1  1  0.80623000  0.33905000  0.52489000  1.0 0.1191842046
H  H2  1  0.13326000  0.40903000  0.94727000  1.0 0.1113822029
H  H3  1  0.14564000  0.33397000  0.19868000  1.0 0.1191842046
H  H4  1  0.14949000  0.14258000  0.27613000  1.0 0.1191842046
H  H5  1  0.80631000  0.31463000  0.02875000  1.0 0.1191842046
H  H6  1  0.14713000  0.94392000  0.51991000  1.0 0.1286117315
H  H7  1  0.77961000  0.13069000  0.02071000  1.0 0.1191842046
H  H8  1  0.12093000  0.37743000  0.36372000  1.0 0.1191842046
H  H9  1  0.12450000  0.91164000  0.04295000  1.0 0.1286117315
H  H10  1  0.25904000  0.70896000  0.85946000  1.0 0.1191842046
H  H11  1  0.61298000  0.14593000  0.53338000  1.0 0.1286117315
H  H12  1  0.48736000  0.35890000  0.04689000  1.0 0.1286117315
H  H13  1  0.13948000  0.43492000  0.61045000  1.0 0.1113822029
H  H14  1  0.44288000  0.19823000  0.53189000  1.0 0.1286117315
H  H15  1  0.13053000  0.45135000  0.45912000  1.0 0.1113822029
H  H16  1  0.13425000  0.19464000  0.36194000  1.0 0.1286117315
H  H17  1  0.13351000  0.07935000  0.10746000  1.0 0.1191842046
H  H18  1  0.60314000  0.12159000  0.01564000  1.0 0.1191842046
H  H19  1  0.13354000  0.10727000  0.44675000  1.0 0.1113822029
H  H20  1  0.12712000  0.95748000  0.96452000  1.0 0.1191842046
H  H21  1  0.14947000  0.32678000  0.86052000  1.0 0.1286117315
H  H22  1  0.77600000  0.15304000  0.52356000  1.0 0.1191842046
H  H23  1  0.65865000  0.36198000  0.04475000  1.0 0.1191842046
H  H24  1  0.20854000  0.06107000  0.38008000  1.0 0.1113822029
H  H25  1  0.47759000  0.38574000  0.53445000  1.0 0.1364525868
H  H26  1  0.26787000  0.81438000  0.86612000  1.0 0.1191842046
H  H27  1  0.11936000  0.60093000  0.54213000  1.0 0.1286117315
H  H28  1  0.17937000  0.42108000  0.09990000  1.0 0.1191842046
H  H29  1  0.10073000  0.13800000  0.86527000  1.0 0.1113822029
H  H30  1  0.14901000  0.14961000  0.19264000  1.0 0.1191842046
H  H31  1  0.23781000  0.62892000  0.62741000  1.0 0.1191842046
H  H32  1  0.14162000  0.38214000  0.27823000  1.0 0.1113822029
H  H33  1  0.21628000  0.47176000  0.88567000  1.0 0.1191842046
H  H34  1  0.23891000  0.53187000  0.81069000  1.0 0.1286117315
H  H35  1  0.14250000  0.09931000  0.59614000  1.0 0.1191842046
H  H36  1  0.44413000  0.17060000  0.02060000  1.0 0.1286117315
H  H37  1  0.10648000  0.18057000  0.69450000  1.0 0.1191842046
H  H38  1  0.17970000  0.99246000  0.90184000  1.0 0.1003633901
H  H39  1  0.15097000  0.36893000  0.68859000  1.0 0.1191842046
H  H40  1  0.07246000  0.90635000  0.44302000  1.0 0.1113822029
H  H41  1  0.17635000  0.37659000  0.77736000  1.0 0.1191842046
H  H42  1  0.05390000  0.02027000  0.16972000  1.0 0.0791124097
H  H43  1  0.12936000  0.06289000  0.95862000  1.0 0.1113822029
H  H44  1  0.08105000  0.85360000  0.36804000  1.0 0.1286117315
H  H45  1  0.65028000  0.39109000  0.53292000  1.0 0.1286117315
H  H46  1  0.03787000  0.48273000  0.66666667  1.0 0.1191842046
H  H47  1  0.07515000  0.97879000  0.25051000  1.0 0.1191842046
H  H48  1  0.12498000  0.88943000  0.87926000  1.0 0.1286117315
H  H49  1  0.04726000  0.64032000  0.86425000  1.0 0.1286117315
H  H50  1  0.12959000  0.55557000  0.46490000  1.0 0.1286117315
H  H51  1  0.19058000  0.60732000  0.23268000  1.0 0.1191842046
H  H52  1  0.18620000  0.52929000  0.09649000  1.0 0.1286117315
H  H53  1  0.18192000  0.91825000  0.73629000  1.0 0.1191842046
H  H54  1  0.06220000  0.59535000  0.94485000  1.0 0.1113822029
H  H55  1  0.25738000  0.66855000  0.70958000  1.0 0.1286117315
H  H56  1  0.09669000  0.82010000  0.73354000  1.0 0.1113822029
H  H57  1  0.23947000  0.00658000  0.31222000  1.0 0.1286117315
H  H58  1  0.07611000  0.70983000  0.72560000  1.0 0.1191842046
H  H59  1  0.16081000  0.99698000  0.59547000  1.0 0.1286117315
H  H60  1  0.28203000  0.83439000  0.35258000  1.0 0.1286117315
H  H61  1  0.15649000  0.57264000  0.01625000  1.0 0.1191842046
H  H62  1  0.26702000  0.87228000  0.20594000  1.0 0.1286117315
H  H63  1  0.11469000  0.69510000  0.23520000  1.0 0.1191842046
H  H64  1  0.28382000  0.73048000  0.36378000  1.0 0.1113822029
H  H65  1  0.05395000  0.52507000  0.74926000  1.0 0.1286117315
H  H66  1  0.08539000  0.79847000  0.22951000  1.0 0.1191842046
H  H67  1  0.10349000  0.13339000  0.77695000  1.0 0.1113822029
H  H68  1  0.19660000  0.06264000  0.84272000  1.0 0.1113822029
H  H69  1  0.22231000  0.50650000  0.24783000  1.0 0.1286117315
H  H70  1  0.23763000  0.90429000  0.12165000  1.0 0.1286117315
H  H71  1  0.19286000  0.63112000  0.37834000  1.0 0.1113822029
H  H72  1  0.23573000  0.47201000  0.33235000  1.0 0.0890286654
H  H73  1  0.22933000  0.00572000  0.88690000  1.0 0.1003633901
H  H74  1  0.21063000  0.92946000  0.73785000  1.0 0.1191842046
H  H75  1  0.02630000  0.99160000  0.85039000  1.0 0.0791124097
H  H76  1  0.19377000  0.66095000  0.47511000  1.0 0.1191842046
H  H77  1  0.86674000  0.59097000  0.05273000  1.0 0.1113822029
H  H78  1  0.85436000  0.66603000  0.80132000  1.0 0.1191842046
H  H79  1  0.85051000  0.85742000  0.72387000  1.0 0.1191842046
H  H80  1  0.19369000  0.68537000  0.97125000  1.0 0.1191842046
H  H81  1  0.85287000  0.05608000  0.48009000  1.0 0.1286117315
H  H82  1  0.22039000  0.86931000  0.97929000  1.0 0.1191842046
H  H83  1  0.87907000  0.62257000  0.63628000  1.0 0.1191842046
H  H84  1  0.87550000  0.08836000  0.95705000  1.0 0.1286117315
H  H85  1  0.74096000  0.29104000  0.14054000  1.0 0.1191842046
H  H86  1  0.38702000  0.85407000  0.46662000  1.0 0.1286117315
H  H87  1  0.51264000  0.64110000  0.95311000  1.0 0.1286117315
H  H88  1  0.86052000  0.56508000  0.38955000  1.0 0.1113822029
H  H89  1  0.55712000  0.80177000  0.46811000  1.0 0.1286117315
H  H90  1  0.86947000  0.54865000  0.54088000  1.0 0.1113822029
H  H91  1  0.86575000  0.80536000  0.63806000  1.0 0.1286117315
H  H92  1  0.86649000  0.92065000  0.89254000  1.0 0.1191842046
H  H93  1  0.39686000  0.87841000  0.98436000  1.0 0.1191842046
H  H94  1  0.86646000  0.89273000  0.55325000  1.0 0.1113822029
H  H95  1  0.87288000  0.04252000  0.03548000  1.0 0.1191842046
H  H96  1  0.85053000  0.67322000  0.13948000  1.0 0.1286117315
H  H97  1  0.22400000  0.84696000  0.47644000  1.0 0.1191842046
H  H98  1  0.34135000  0.63802000  0.95525000  1.0 0.1191842046
H  H99  1  0.79146000  0.93893000  0.61992000  1.0 0.1113822029
H  H100  1  0.52241000  0.61426000  0.46555000  1.0 0.1364525868
H  H101  1  0.73213000  0.18562000  0.13388000  1.0 0.1191842046
H  H102  1  0.88064000  0.39907000  0.45787000  1.0 0.1286117315
H  H103  1  0.82063000  0.57892000  0.90010000  1.0 0.1191842046
H  H104  1  0.89927000  0.86200000  0.13473000  1.0 0.1113822029
H  H105  1  0.85099000  0.85039000  0.80736000  1.0 0.1191842046
H  H106  1  0.76219000  0.37108000  0.37259000  1.0 0.1191842046
H  H107  1  0.85838000  0.61786000  0.72177000  1.0 0.1113822029
H  H108  1  0.78372000  0.52824000  0.11433000  1.0 0.1191842046
H  H109  1  0.76109000  0.46813000  0.18931000  1.0 0.1286117315
H  H110  1  0.85750000  0.90069000  0.40386000  1.0 0.1191842046
H  H111  1  0.55587000  0.82940000  0.97940000  1.0 0.1286117315
H  H112  1  0.89352000  0.81943000  0.30550000  1.0 0.1191842046
H  H113  1  0.82030000  0.00754000  0.09816000  1.0 0.1003633901
H  H114  1  0.84903000  0.63107000  0.31141000  1.0 0.1191842046
H  H115  1  0.92754000  0.09365000  0.55698000  1.0 0.1113822029
H  H116  1  0.82365000  0.62341000  0.22264000  1.0 0.1191842046
H  H117  1  0.94610000  0.97973000  0.83028000  1.0 0.0791124097
H  H118  1  0.87064000  0.93711000  0.04138000  1.0 0.1113822029
H  H119  1  0.91895000  0.14640000  0.63196000  1.0 0.1286117315
H  H120  1  0.34972000  0.60891000  0.46708000  1.0 0.1286117315
H  H121  1  0.96213000  0.51727000  0.33333333  1.0 0.1191842046
H  H122  1  0.92485000  0.02121000  0.74949000  1.0 0.1191842046
H  H123  1  0.87502000  0.11057000  0.12074000  1.0 0.1286117315
H  H124  1  0.95274000  0.35968000  0.13575000  1.0 0.1286117315
H  H125  1  0.87041000  0.44443000  0.53510000  1.0 0.1286117315
H  H126  1  0.80942000  0.39268000  0.76732000  1.0 0.1191842046
H  H127  1  0.81380000  0.47071000  0.90351000  1.0 0.1286117315
H  H128  1  0.81808000  0.08175000  0.26371000  1.0 0.1191842046
H  H129  1  0.93780000  0.40465000  0.05515000  1.0 0.1113822029
H  H130  1  0.74262000  0.33145000  0.29042000  1.0 0.1286117315
H  H131  1  0.90331000  0.17990000  0.26646000  1.0 0.1113822029
H  H132  1  0.76053000  0.99342000  0.68778000  1.0 0.1286117315
H  H133  1  0.92389000  0.29017000  0.27440000  1.0 0.1191842046
H  H134  1  0.83919000  0.00302000  0.40453000  1.0 0.1286117315
H  H135  1  0.71797000  0.16561000  0.64742000  1.0 0.1286117315
H  H136  1  0.84351000  0.42736000  0.98375000  1.0 0.1191842046
H  H137  1  0.73298000  0.12772000  0.79406000  1.0 0.1286117315
H  H138  1  0.88531000  0.30490000  0.76480000  1.0 0.1191842046
H  H139  1  0.71618000  0.26952000  0.63622000  1.0 0.1113822029
H  H140  1  0.94605000  0.47493000  0.25074000  1.0 0.1286117315
H  H141  1  0.91461000  0.20153000  0.77049000  1.0 0.1191842046
H  H142  1  0.89651000  0.86661000  0.22305000  1.0 0.1113822029
H  H143  1  0.80340000  0.93736000  0.15728000  1.0 0.1113822029
H  H144  1  0.77769000  0.49350000  0.75217000  1.0 0.1286117315
H  H145  1  0.76237000  0.09571000  0.87835000  1.0 0.1286117315
H  H146  1  0.80714000  0.36888000  0.62166000  1.0 0.1113822029
H  H147  1  0.76427000  0.52799000  0.66765000  1.0 0.0890286654
H  H148  1  0.77067000  0.99428000  0.11310000  1.0 0.1003633901
H  H149  1  0.78937000  0.07054000  0.26215000  1.0 0.1191842046
H  H150  1  0.97370000  0.00840000  0.14961000  1.0 0.0791124097
C  C1  1  0.92850000  0.25420000  0.52430000  1.0 0.5702852969
C  C2  1  0.14720000  0.99050000  0.42320000  1.0 0.0507640266
C  C3  1  0.13730000  0.24420000  0.12440000  1.0 0.5702852969
C  C4  1  0.59400000  0.23870000  0.53110000  1.0 0.0791124097
C  C5  1  0.14230000  0.23220000  0.29040000  1.0 0.0690274953
C  C6  1  0.81240000  0.22430000  0.02380000  1.0 -0.0107777114
C  C7  1  0.16670000  0.92500000  0.33070000  1.0 0.1780241891
C  C8  1  0.76430000  0.30030000  0.52610000  1.0 -0.1795163911
C  C9  1  0.32580000  0.25920000  0.03110000  1.0 0.5702852969
C  C10  1  0.14110000  0.52700000  0.92310000  1.0 0.0507640266
C  C11  1  0.14150000  0.43300000  0.97730000  1.0 0.0295142789
C  C12  1  0.17070000  0.69760000  0.79060000  1.0 0.1780241891
C  C13  1  0.44120000  0.26290000  0.03240000  1.0 -0.0107777114
C  C14  1  0.14240000  0.29450000  0.21310000  1.0 -0.149430582
C  C15  1  0.32770000  0.28490000  0.53050000  1.0 0.5929537578
C  C16  1  0.14630000  0.18110000  0.26080000  1.0 -0.149430582
C  C17  1  0.14530000  0.96520000  0.13810000  1.0 0.0507640266
C  C18  1  0.14410000  0.49800000  0.97300000  1.0 0.0240939925
C  C19  1  0.14040000  0.27210000  0.68330000  1.0 -0.0188994657
C  C20  1  0.76550000  0.27540000  0.02880000  1.0 -0.1600518295
C  C21  1  0.14660000  0.98680000  0.52010000  1.0 -0.1102643186
C  C22  1  0.65730000  0.30000000  0.52820000  1.0 0.0690274953
C  C23  1  0.59480000  0.21340000  0.02750000  1.0 0.0791124097
C  C24  1  0.44440000  0.29240000  0.53090000  1.0 -0.0188994657
C  C25  1  0.74900000  0.16660000  0.02160000  1.0 -0.1298594929
C  C26  1  0.13360000  0.52400000  0.58880000  1.0 0.0295142789
C  C27  1  0.81270000  0.24840000  0.52580000  1.0 -0.0188994657
C  C28  1  0.14180000  0.01970000  0.47300000  1.0 0.0295142789
C  C29  1  0.13440000  0.99070000  0.08690000  1.0 0.0295142789
C  C30  1  0.12830000  0.34170000  0.34560000  1.0 -0.1189560429
C  C31  1  0.12820000  0.95480000  0.04080000  1.0 -0.1021188769
C  C32  1  0.13980000  0.28790000  0.26290000  1.0 0.0690274953
C  C33  1  0.16770000  0.91740000  0.23590000  1.0 0.1591106146
C  C34  1  0.66020000  0.27220000  0.03410000  1.0 0.0606858446
C  C35  1  0.22530000  0.73040000  0.83390000  1.0 -0.167205235
C  C36  1  0.65100000  0.18570000  0.53050000  1.0 -0.1298594929
C  C37  1  0.12720000  0.23300000  0.87090000  1.0 -0.0003056395
C  C38  1  0.51340000  0.32220000  0.04100000  1.0 -0.1021188769
C  C39  1  0.13810000  0.46020000  0.58170000  1.0 0.01043134
C  C40  1  0.48650000  0.23650000  0.53140000  1.0 -0.167205235
C  C41  1  0.13330000  0.46980000  0.49140000  1.0 0.0606858446
C  C42  1  0.13540000  0.23240000  0.34480000  1.0 -0.1600518295
C  C43  1  0.18960000  0.82750000  0.28990000  1.0 0.1525906785
C  C44  1  0.13150000  0.05390000  0.07870000  1.0 0.0295142789
C  C45  1  0.13070000  0.28230000  0.37190000  1.0 0.01043134
C  C46  1  0.64360000  0.16080000  0.02070000  1.0 -0.149430582
C  C47  1  0.13290000  0.08360000  0.47640000  1.0 0.0370750621
C  C48  1  0.12770000  0.98150000  0.99400000  1.0 -0.1396940101
C  C49  1  0.17360000  0.82670000  0.80120000  1.0 0.0606858446
C  C50  1  0.12500000  0.27780000  0.43020000  1.0 0.5776765584
C  C51  1  0.14090000  0.28810000  0.84400000  1.0 -0.1795163911
C  C52  1  0.74720000  0.18940000  0.52630000  1.0 -0.1021188769
C  C53  1  0.61550000  0.32360000  0.04050000  1.0 -0.1396940101
C  C54  1  0.18900000  0.01790000  0.37990000  1.0 -0.149430582
C  C55  1  0.13460000  0.55210000  0.63740000  1.0 0.0507640266
C  C56  1  0.50650000  0.34930000  0.53260000  1.0 -0.0917756786
C  C57  1  0.22880000  0.79300000  0.83830000  1.0 -0.1102643186
C  C58  1  0.93050000  0.23070000  0.02600000  1.0 0.5776765584
C  C59  1  0.12640000  0.55890000  0.54070000  1.0 -0.1102643186
C  C60  1  0.16940000  0.44020000  0.06830000  1.0 0.0507640266
C  C61  1  0.11180000  0.17450000  0.84650000  1.0 -0.1396940101
C  C62  1  0.14560000  0.18580000  0.21100000  1.0 -0.1298594929
C  C63  1  0.17850000  0.89260000  0.80870000  1.0 -0.0917756786
C  C64  1  0.19940000  0.60750000  0.65200000  1.0 -0.1298594929
C  C65  1  0.13710000  0.34360000  0.29430000  1.0 -0.149430582
C  C66  1  0.13110000  0.27150000  0.62570000  1.0 0.5776765584
C  C67  1  0.18900000  0.50890000  0.88290000  1.0 -0.1396940101
C  C68  1  0.20010000  0.54390000  0.83600000  1.0 -0.192080623
C  C69  1  0.13920000  0.07880000  0.56470000  1.0 0.0507640266
C  C70  1  0.48630000  0.20920000  0.02590000  1.0 -0.149430582
C  C71  1  0.12270000  0.21950000  0.71070000  1.0 -0.149430582
C  C72  1  0.17600000  0.97990000  0.86770000  1.0 -0.1298594929
C  C73  1  0.14130000  0.28280000  0.78900000  1.0 0.0791124097
C  C74  1  0.15040000  0.33310000  0.70830000  1.0 -0.1189560429
C  C75  1  0.14020000  0.24180000  0.18190000  1.0 -0.0188994657
C  C76  1  0.10560000  0.92730000  0.41650000  1.0 -0.1396940101
C  C77  1  0.15910000  0.33790000  0.76090000  1.0 -0.1600518295
C  C78  1  0.09460000  0.98900000  0.17620000  1.0 -0.167205235
C  C79  1  0.20510000  0.70200000  0.29920000  1.0 0.0690274953
C  C80  1  0.12330000  0.23800000  0.92950000  1.0 0.5776765584
C  C81  1  0.12790000  0.04450000  0.99080000  1.0 0.0295142789
C  C82  1  0.11230000  0.89520000  0.37170000  1.0 -0.1795163911
C  C83  1  0.60890000  0.35200000  0.53140000  1.0 -0.149430582
C  C84  1  0.15110000  0.59560000  0.83030000  1.0 0.1780241891
C  C85  1  0.14940000  0.60340000  0.73750000  1.0 0.1591106146
C  C86  1  0.08040000  0.52080000  0.67430000  1.0 -0.1396940101
C  C87  1  0.10830000  0.96370000  0.22420000  1.0 -0.192080623
C  C88  1  0.12950000  0.22510000  0.76390000  1.0 0.0690274953
C  C89  1  0.15500000  0.91690000  0.85550000  1.0 -0.2015243382
C  C90  1  0.09010000  0.61000000  0.87010000  1.0 -0.1795163911
C  C91  1  0.12970000  0.53170000  0.49450000  1.0 -0.1298594929
C  C92  1  0.20400000  0.59370000  0.26610000  1.0 -0.1298594929
C  C93  1  0.17360000  0.50450000  0.06690000  1.0 -0.1396940101
C  C94  1  0.18530000  0.93410000  0.76950000  1.0 -0.0325019923
C  C95  1  0.09240000  0.58020000  0.91750000  1.0 -0.1396940101
C  C96  1  0.21000000  0.63250000  0.70120000  1.0 -0.192080623
C  C97  1  0.12560000  0.79710000  0.75960000  1.0 -0.1298594929
C  C98  1  0.20300000  0.98550000  0.33770000  1.0 -0.167205235
C  C99  1  0.11650000  0.73050000  0.75340000  1.0 -0.192080623
C  C100  1  0.15050000  0.01750000  0.56460000  1.0 -0.1298594929
C  C101  1  0.24460000  0.80620000  0.32840000  1.0 -0.1600518295
C  C102  1  0.15770000  0.52990000  0.01790000  1.0 -0.1102643186
C  C103  1  0.21970000  0.89970000  0.19840000  1.0 -0.1795163911
C  C104  1  0.14720000  0.72350000  0.26040000  1.0 -0.149430582
C  C105  1  0.24890000  0.74380000  0.33420000  1.0 -0.1396940101
C  C106  1  0.09000000  0.54720000  0.72420000  1.0 -0.1795163911
C  C107  1  0.13190000  0.78600000  0.25510000  1.0 -0.167205235
C  C108  1  0.21020000  0.63590000  0.30820000  1.0 0.0370750621
C  C109  1  0.11350000  0.17220000  0.79330000  1.0 -0.167205235
C  C110  1  0.19000000  0.02070000  0.83360000  1.0 0.0370750621
C  C111  1  0.21600000  0.53320000  0.27480000  1.0 -0.167205235
C  C112  1  0.20580000  0.92070000  0.14780000  1.0 -0.1298594929
C  C113  1  0.20200000  0.60600000  0.35090000  1.0 -0.0718430863
C  C114  1  0.22000000  0.51200000  0.32630000  1.0 0.0890286654
C  C115  1  0.09300000  0.98800000  0.84200000  1.0 -0.0760620967
C  C116  1  0.07150000  0.74580000  0.47570000  1.0 0.5702852969
C  C117  1  0.85280000  0.00950000  0.57680000  1.0 0.0507640266
C  C118  1  0.86270000  0.75580000  0.87560000  1.0 0.5702852969
C  C119  1  0.40600000  0.76130000  0.46890000  1.0 0.0791124097
C  C120  1  0.85770000  0.76780000  0.70960000  1.0 0.0690274953
C  C121  1  0.18760000  0.77570000  0.97620000  1.0 -0.0107777114
C  C122  1  0.83330000  0.07500000  0.66930000  1.0 0.1780241891
C  C123  1  0.23570000  0.69970000  0.47390000  1.0 -0.1795163911
C  C124  1  0.67420000  0.74080000  0.96890000  1.0 0.5702852969
C  C125  1  0.85890000  0.47300000  0.07690000  1.0 0.0507640266
C  C126  1  0.85850000  0.56700000  0.02270000  1.0 0.0295142789
C  C127  1  0.82930000  0.30240000  0.20940000  1.0 0.1780241891
C  C128  1  0.55880000  0.73710000  0.96760000  1.0 -0.0107777114
C  C129  1  0.85760000  0.70550000  0.78690000  1.0 -0.149430582
C  C130  1  0.67230000  0.71510000  0.46950000  1.0 0.5929537578
C  C131  1  0.85370000  0.81890000  0.73920000  1.0 -0.149430582
C  C132  1  0.85470000  0.03480000  0.86190000  1.0 0.0507640266
C  C133  1  0.85590000  0.50200000  0.02700000  1.0 0.0240939925
C  C134  1  0.85960000  0.72790000  0.31670000  1.0 -0.0188994657
C  C135  1  0.23450000  0.72460000  0.97120000  1.0 -0.1600518295
C  C136  1  0.85340000  0.01320000  0.47990000  1.0 -0.1102643186
C  C137  1  0.34270000  0.70000000  0.47180000  1.0 0.0690274953
C  C138  1  0.40520000  0.78660000  0.97250000  1.0 0.0791124097
C  C139  1  0.55560000  0.70760000  0.46910000  1.0 -0.0188994657
C  C140  1  0.25100000  0.83340000  0.97840000  1.0 -0.1298594929
C  C141  1  0.86640000  0.47600000  0.41120000  1.0 0.0295142789
C  C142  1  0.18730000  0.75160000  0.47420000  1.0 -0.0188994657
C  C143  1  0.85820000  0.98030000  0.52700000  1.0 0.0295142789
C  C144  1  0.86560000  0.00930000  0.91310000  1.0 0.0295142789
C  C145  1  0.87170000  0.65830000  0.65440000  1.0 -0.1189560429
C  C146  1  0.87180000  0.04520000  0.95920000  1.0 -0.1021188769
C  C147  1  0.86020000  0.71210000  0.73710000  1.0 0.0690274953
C  C148  1  0.83230000  0.08260000  0.76410000  1.0 0.1591106146
C  C149  1  0.33980000  0.72780000  0.96590000  1.0 0.0606858446
C  C150  1  0.77470000  0.26960000  0.16610000  1.0 -0.167205235
C  C151  1  0.34900000  0.81430000  0.46950000  1.0 -0.1298594929
C  C152  1  0.87280000  0.76700000  0.12910000  1.0 -0.0003056395
C  C153  1  0.48660000  0.67780000  0.95900000  1.0 -0.1021188769
C  C154  1  0.86190000  0.53980000  0.41830000  1.0 0.01043134
C  C155  1  0.51350000  0.76350000  0.46860000  1.0 -0.167205235
C  C156  1  0.86670000  0.53020000  0.50860000  1.0 0.0606858446
C  C157  1  0.86460000  0.76760000  0.65520000  1.0 -0.1600518295
C  C158  1  0.81040000  0.17250000  0.71010000  1.0 0.1525906785
C  C159  1  0.86850000  0.94610000  0.92130000  1.0 0.0295142789
C  C160  1  0.86930000  0.71770000  0.62810000  1.0 0.01043134
C  C161  1  0.35640000  0.83920000  0.97930000  1.0 -0.149430582
C  C162  1  0.86710000  0.91640000  0.52360000  1.0 0.0370750621
C  C163  1  0.87230000  0.01850000  0.00600000  1.0 -0.1396940101
C  C164  1  0.82640000  0.17330000  0.19880000  1.0 0.0606858446
C  C165  1  0.87500000  0.72220000  0.56980000  1.0 0.5776765584
C  C166  1  0.85910000  0.71190000  0.15600000  1.0 -0.1795163911
C  C167  1  0.25280000  0.81060000  0.47370000  1.0 -0.1021188769
C  C168  1  0.38450000  0.67640000  0.95950000  1.0 -0.1396940101
C  C169  1  0.81100000  0.98210000  0.62010000  1.0 -0.149430582
C  C170  1  0.86540000  0.44790000  0.36260000  1.0 0.0507640266
C  C171  1  0.49350000  0.65070000  0.46740000  1.0 -0.0917756786
C  C172  1  0.77120000  0.20700000  0.16170000  1.0 -0.1102643186
C  C173  1  0.06950000  0.76930000  0.97400000  1.0 0.5776765584
C  C174  1  0.87360000  0.44110000  0.45930000  1.0 -0.1102643186
C  C175  1  0.83060000  0.55980000  0.93170000  1.0 0.0507640266
C  C176  1  0.88820000  0.82550000  0.15350000  1.0 -0.1396940101
C  C177  1  0.85440000  0.81420000  0.78900000  1.0 -0.1298594929
C  C178  1  0.82150000  0.10740000  0.19130000  1.0 -0.0917756786
C  C179  1  0.80060000  0.39250000  0.34800000  1.0 -0.1298594929
C  C180  1  0.86290000  0.65640000  0.70570000  1.0 -0.149430582
C  C181  1  0.86890000  0.72850000  0.37430000  1.0 0.5776765584
C  C182  1  0.81100000  0.49110000  0.11710000  1.0 -0.1396940101
C  C183  1  0.79990000  0.45610000  0.16400000  1.0 -0.192080623
C  C184  1  0.86080000  0.92120000  0.43530000  1.0 0.0507640266
C  C185  1  0.51370000  0.79080000  0.97410000  1.0 -0.149430582
C  C186  1  0.87730000  0.78050000  0.28930000  1.0 -0.149430582
C  C187  1  0.82400000  0.02010000  0.13230000  1.0 -0.1298594929
C  C188  1  0.85870000  0.71720000  0.21100000  1.0 0.0791124097
C  C189  1  0.84960000  0.66690000  0.29170000  1.0 -0.1189560429
C  C190  1  0.85980000  0.75820000  0.81810000  1.0 -0.0188994657
C  C191  1  0.89440000  0.07270000  0.58350000  1.0 -0.1396940101
C  C192  1  0.84090000  0.66210000  0.23910000  1.0 -0.1600518295
C  C193  1  0.90540000  0.01100000  0.82380000  1.0 -0.167205235
C  C194  1  0.79490000  0.29800000  0.70080000  1.0 0.0690274953
C  C195  1  0.87670000  0.76200000  0.07050000  1.0 0.5776765584
C  C196  1  0.87210000  0.95550000  0.00920000  1.0 0.0295142789
C  C197  1  0.88770000  0.10480000  0.62830000  1.0 -0.1795163911
C  C198  1  0.39110000  0.64800000  0.46860000  1.0 -0.149430582
C  C199  1  0.84890000  0.40440000  0.16970000  1.0 0.1780241891
C  C200  1  0.85060000  0.39660000  0.26250000  1.0 0.1591106146
C  C201  1  0.91960000  0.47920000  0.32570000  1.0 -0.1396940101
C  C202  1  0.89170000  0.03630000  0.77580000  1.0 -0.192080623
C  C203  1  0.87050000  0.77490000  0.23610000  1.0 0.0690274953
C  C204  1  0.84500000  0.08310000  0.14450000  1.0 -0.2015243382
C  C205  1  0.90990000  0.39000000  0.12990000  1.0 -0.1795163911
C  C206  1  0.87030000  0.46830000  0.50550000  1.0 -0.1298594929
C  C207  1  0.79600000  0.40630000  0.73390000  1.0 -0.1298594929
C  C208  1  0.82640000  0.49550000  0.93310000  1.0 -0.1396940101
C  C209  1  0.81470000  0.06590000  0.23050000  1.0 -0.0325019923
C  C210  1  0.90760000  0.41980000  0.08250000  1.0 -0.1396940101
C  C211  1  0.79000000  0.36750000  0.29880000  1.0 -0.192080623
C  C212  1  0.87440000  0.20290000  0.24040000  1.0 -0.1298594929
C  C213  1  0.79700000  0.01450000  0.66230000  1.0 -0.167205235
C  C214  1  0.88350000  0.26950000  0.24660000  1.0 -0.192080623
C  C215  1  0.84950000  0.98250000  0.43540000  1.0 -0.1298594929
C  C216  1  0.75540000  0.19380000  0.67160000  1.0 -0.1600518295
C  C217  1  0.84230000  0.47010000  0.98210000  1.0 -0.1102643186
C  C218  1  0.78030000  0.10030000  0.80160000  1.0 -0.1795163911
C  C219  1  0.85280000  0.27650000  0.73960000  1.0 -0.149430582
C  C220  1  0.75110000  0.25620000  0.66580000  1.0 -0.1396940101
C  C221  1  0.91000000  0.45280000  0.27580000  1.0 -0.1795163911
C  C222  1  0.86810000  0.21400000  0.74490000  1.0 -0.167205235
C  C223  1  0.78980000  0.36410000  0.69180000  1.0 0.0370750621
C  C224  1  0.88650000  0.82780000  0.20670000  1.0 -0.167205235
C  C225  1  0.81000000  0.97930000  0.16640000  1.0 0.0370750621
C  C226  1  0.78400000  0.46680000  0.72520000  1.0 -0.167205235
C  C227  1  0.79420000  0.07930000  0.85220000  1.0 -0.1298594929
C  C228  1  0.79800000  0.39400000  0.64910000  1.0 -0.0718430863
C  C229  1  0.78000000  0.48800000  0.67370000  1.0 0.0890286654
C  C230  1  0.90700000  0.01200000  0.15800000  1.0 -0.0760620967
N  N1  1  0.15040000  0.40300000  0.02350000  1.0 -0.240774198
N  N2  1  0.12340000  0.11120000  0.52150000  1.0 -0.2103655995
N  N3  1  0.12600000  0.08120000  0.03230000  1.0 -0.2103655995
N  N4  1  0.14070000  0.43330000  0.53400000  1.0 -0.2227809266
N  N5  1  0.17510000  0.89140000  0.28650000  1.0 -0.1600518295
N  N6  1  0.16050000  0.63190000  0.78620000  1.0 -0.149430582
N  N7  1  0.19800000  0.00270000  0.77650000  1.0 -0.1396940101
N  N8  1  0.20470000  0.54350000  0.36420000  1.0 -0.2576785819
N  N9  1  0.14300000  0.98900000  0.78900000  1.0 -0.0188994657
N  N10  1  0.84960000  0.59700000  0.97650000  1.0 -0.240774198
N  N11  1  0.87660000  0.88880000  0.47850000  1.0 -0.2103655995
N  N12  1  0.87400000  0.91880000  0.96770000  1.0 -0.2103655995
N  N13  1  0.85930000  0.56670000  0.46600000  1.0 -0.2227809266
N  N14  1  0.82490000  0.10860000  0.71350000  1.0 -0.167205235
N  N15  1  0.83950000  0.36810000  0.21380000  1.0 -0.149430582
N  N16  1  0.80200000  0.99730000  0.22350000  1.0 -0.1298594929
N  N17  1  0.79530000  0.45650000  0.63580000  1.0 -0.2576785819
N  N18  1  0.85700000  0.01100000  0.21100000  1.0 -0.0188994657
O  O1  1  0.12460000  0.22630000  0.44920000  1.0 -0.5195286012
O  O2  1  0.96320000  0.20460000  0.51880000  1.0 -0.5330755249
O  O3  1  0.98170000  0.28400000  0.02370000  1.0 -0.5330755249
O  O4  1  0.13770000  0.29770000  0.10490000  1.0 -0.5409369306
O  O5  1  0.96530000  0.17870000  0.02790000  1.0 -0.5605539218
O  O6  1  0.12010000  0.21890000  0.60460000  1.0 -0.5409369306
O  O7  1  0.97790000  0.30770000  0.52740000  1.0 -0.5330755249
O  O8  1  0.27630000  0.20350000  0.02550000  1.0 -0.5605539218
O  O9  1  0.12250000  0.32950000  0.45120000  1.0 -0.5195286012
O  O10  1  0.27410000  0.23190000  0.53430000  1.0 -0.5496137128
O  O11  1  0.14530000  0.32190000  0.60340000  1.0 -0.5195286012
O  O12  1  0.10670000  0.18520000  0.94990000  1.0 -0.5409369306
O  O13  1  0.29010000  0.33510000  0.52760000  1.0 -0.5330755249
O  O14  1  0.13460000  0.28870000  0.95080000  1.0 -0.5108856992
O  O15  1  0.29300000  0.30710000  0.03610000  1.0 -0.4922815398
O  O16  1  0.13330000  0.19250000  0.10180000  1.0 -0.5496137128
O  O17  1  0.87540000  0.77370000  0.55080000  1.0 -0.5195286012
O  O18  1  0.03680000  0.79540000  0.48120000  1.0 -0.5330755249
O  O19  1  0.01830000  0.71600000  0.97630000  1.0 -0.5330755249
O  O20  1  0.86230000  0.70230000  0.89510000  1.0 -0.5409369306
O  O21  1  0.03470000  0.82130000  0.97210000  1.0 -0.5605539218
O  O22  1  0.87990000  0.78110000  0.39540000  1.0 -0.5409369306
O  O23  1  0.02210000  0.69230000  0.47260000  1.0 -0.5330755249
O  O24  1  0.72370000  0.79650000  0.97450000  1.0 -0.5605539218
O  O25  1  0.87750000  0.67050000  0.54880000  1.0 -0.5195286012
O  O26  1  0.72590000  0.76810000  0.46570000  1.0 -0.5496137128
O  O27  1  0.85470000  0.67810000  0.39660000  1.0 -0.5195286012
O  O28  1  0.89330000  0.81480000  0.05010000  1.0 -0.5409369306
O  O29  1  0.70990000  0.66490000  0.47240000  1.0 -0.5330755249
O  O30  1  0.86540000  0.71130000  0.04920000  1.0 -0.5108856992
O  O31  1  0.70700000  0.69290000  0.96390000  1.0 -0.4922815398
O  O32  1  0.86670000  0.80750000  0.89820000  1.0 -0.5496137128
