# DDEC6 charges by PACMAN v1.1 (https://github.com/mtap-research/PACMAN-charge/)
data_CAXZAG_FSR_pacman
_symmetry_space_group_name_H-M   'P 1'
_cell_length_a   13.07920000
_cell_length_b   21.16550000
_cell_length_c   26.16060000
_cell_angle_alpha   89.82200000
_cell_angle_beta   96.18800000
_cell_angle_gamma   96.68900000
_symmetry_Int_Tables_number   1
_chemical_formula_structural   Zn2H36C57(NO2)4
_chemical_formula_sum   'Zn8 H144 C228 N16 O32'
_cell_volume   7150.45044034
_cell_formula_units_Z   4
loop_
 _symmetry_equiv_pos_site_id
 _symmetry_equiv_pos_as_xyz
  1  'x, y, z'
loop_
 _atom_site_type_symbol
 _atom_site_label
 _atom_site_symmetry_multiplicity
 _atom_site_fract_x
 _atom_site_fract_y
 _atom_site_fract_z
 _atom_site_occupancy
 _atom_site_charge
Zn  Zn1  1  0.37748000  0.79728000  0.98164000  1.0 0.8348157698
Zn  Zn2  1  0.37020000  0.65786000  0.97845000  1.0 0.8387295499
Zn  Zn3  1  0.37201000  0.82571000  0.47825000  1.0 0.8387295499
Zn  Zn4  1  0.36833000  0.68661000  0.48136000  1.0 0.8387295499
Zn  Zn5  1  0.62252000  0.20272000  0.01836000  1.0 0.8348157698
Zn  Zn6  1  0.62980000  0.34214000  0.02155000  1.0 0.8387295499
Zn  Zn7  1  0.62799000  0.17429000  0.52175000  1.0 0.8387295499
Zn  Zn8  1  0.63167000  0.31339000  0.51864000  1.0 0.8387295499
H  H1  1  0.36625000  0.58586000  0.56040000  1.0 0.1198433521
H  H2  1  0.36345000  0.92405000  0.39888000  1.0 0.1117912638
H  H3  1  0.36124000  0.89824000  0.06102000  1.0 0.1117912638
H  H4  1  0.36042000  0.55884000  0.90003000  1.0 0.1117912638
H  H5  1  0.37392000  0.54718000  0.05061000  1.0 0.1117912638
H  H6  1  0.69835000  0.66332000  0.95973000  1.0 0.1117912638
H  H7  1  0.40905000  0.86705000  0.64087000  1.0 0.1198433521
H  H8  1  0.38564000  0.82204000  0.81321000  1.0 0.1198433521
H  H9  1  0.37264000  0.43948000  0.04641000  1.0 0.1198433521
H  H10  1  0.39635000  0.62082000  0.14080000  1.0 0.1198433521
H  H11  1  0.37233000  0.09871000  0.46607000  1.0 0.1306147304
H  H12  1  0.04125000  0.82953000  0.46498000  1.0 0.1198433521
H  H13  1  0.38521000  0.04619000  0.54617000  1.0 0.1306147304
H  H14  1  0.36319000  0.66364000  0.31291000  1.0 0.1198433521
H  H15  1  0.38605000  0.32501000  0.24094000  1.0 0.1198433521
H  H16  1  0.36585000  0.67547000  0.64547000  1.0 0.1198433521
H  H17  1  0.43685000  0.98399000  0.33705000  1.0 0.1117912638
H  H18  1  0.69479000  0.86598000  0.45535000  1.0 0.1117912638
H  H19  1  0.33391000  0.85785000  0.22785000  1.0 0.1198433521
H  H20  1  0.33059000  0.84955000  0.31580000  1.0 0.1198433521
H  H21  1  0.38320000  0.38642000  0.96876000  1.0 0.1198433521
H  H22  1  0.35919000  0.06798000  0.99216000  1.0 0.1198433521
H  H23  1  0.40494000  0.22233000  0.26050000  1.0 0.1198433521
H  H24  1  0.37947000  0.93669000  0.54901000  1.0 0.1117912638
H  H25  1  0.43293000  0.46702000  0.75859000  1.0 0.1306147304
H  H26  1  0.43807000  0.39068000  0.56895000  1.0 0.1198433521
H  H27  1  0.44744000  0.51082000  0.83841000  1.0 0.1198433521
H  H28  1  0.35789000  0.81002000  0.14607000  1.0 0.1198433521
H  H29  1  0.24589000  0.99584000  0.19349000  1.0 0.1306147304
H  H30  1  0.40797000  0.16112000  0.74193000  1.0 0.1117912638
H  H31  1  0.36295000  0.57805000  0.41152000  1.0 0.1198433521
H  H32  1  0.05693000  0.80524000  0.98876000  1.0 0.1198433521
H  H33  1  0.38178000  0.61187000  0.22688000  1.0 0.1198433521
H  H34  1  0.39071000  0.15949000  0.13910000  1.0 0.1306147304
H  H35  1  0.27631000  0.52498000  0.61996000  1.0 0.1198433521
H  H36  1  0.39091000  0.39491000  0.16359000  1.0 0.0988242099
H  H37  1  0.27487000  0.94321000  0.11735000  1.0 0.1198433521
H  H38  1  0.87347000  0.88038000  0.45536000  1.0 0.1198433521
H  H39  1  0.43105000  0.33915000  0.64673000  1.0 0.1306147304
H  H40  1  0.41843000  0.02566000  0.25398000  1.0 0.1198433521
H  H41  1  0.24970000  0.31596000  0.80704000  1.0 0.1306147304
H  H42  1  0.40043000  0.87398000  0.72790000  1.0 0.1198433521
H  H43  1  0.43043000  0.27147000  0.76143000  1.0 0.1198433521
H  H44  1  0.34922000  0.62949000  0.81834000  1.0 0.1117912638
H  H45  1  0.85115000  0.61277000  0.94574000  1.0 0.1117912638
H  H46  1  0.35779000  0.62418000  0.73042000  1.0 0.1198433521
H  H47  1  0.42544000  0.10380000  0.06593000  1.0 0.1117912638
H  H48  1  0.03027000  0.62053000  0.94574000  1.0 0.1198433521
H  H49  1  0.27124000  0.11220000  0.38902000  1.0 0.1198433521
H  H50  1  0.36873000  0.90685000  0.91026000  1.0 0.1198433521
H  H51  1  0.41171000  0.08986000  0.67244000  1.0 0.0945624406
H  H52  1  0.71708000  0.84744000  0.00296000  1.0 0.1117912638
H  H53  1  0.13000000  0.26315000  0.14657000  1.0 0.1198433521
H  H54  1  0.22642000  0.54066000  0.14482000  1.0 0.1117912638
H  H55  1  0.69979000  0.68277000  0.49131000  1.0 0.1117912638
H  H56  1  0.28455000  0.35481000  0.88815000  1.0 0.1306147304
H  H57  1  0.90135000  0.85042000  0.01895000  1.0 0.1198433521
H  H58  1  0.10211000  0.07668000  0.68459000  1.0 0.1198433521
H  H59  1  0.15019000  0.15983000  0.16403000  1.0 0.1355544472
H  H60  1  0.14812000  0.18989000  0.64921000  1.0 0.1117912638
H  H61  1  0.08987000  0.36927000  0.18434000  1.0 0.1198433521
H  H62  1  0.08230000  0.47772000  0.15385000  1.0 0.1306147304
H  H63  1  0.24164000  0.92834000  0.64233000  1.0 0.0988242099
H  H64  1  0.23892000  0.15261000  0.30485000  1.0 0.1306147304
H  H65  1  0.25754000  0.46966000  0.69575000  1.0 0.1306147304
H  H66  1  0.17858000  0.29942000  0.66666667  1.0 0.1306147304
H  H67  1  0.32629000  0.46890000  0.41035000  1.0 0.1306147304
H  H68  1  0.35212000  0.41514000  0.49094000  1.0 0.1198433521
H  H69  1  0.35996000  0.01500000  0.91186000  1.0 0.1306147304
H  H70  1  0.03801000  0.64111000  0.48570000  1.0 0.1198433521
H  H71  1  0.86118000  0.62925000  0.48806000  1.0 0.1198433521
H  H72  1  0.08832000  0.97235000  0.64764000  1.0 0.1198433521
H  H73  1  0.63375000  0.41414000  0.43960000  1.0 0.1198433521
H  H74  1  0.63655000  0.07595000  0.60112000  1.0 0.1117912638
H  H75  1  0.63876000  0.10176000  0.93898000  1.0 0.1117912638
H  H76  1  0.63958000  0.44116000  0.09997000  1.0 0.1117912638
H  H77  1  0.62608000  0.45282000  0.94939000  1.0 0.1117912638
H  H78  1  0.30165000  0.33668000  0.04027000  1.0 0.1117912638
H  H79  1  0.59095000  0.13295000  0.35913000  1.0 0.1198433521
H  H80  1  0.61436000  0.17796000  0.18679000  1.0 0.1198433521
H  H81  1  0.62736000  0.56052000  0.95359000  1.0 0.1198433521
H  H82  1  0.60365000  0.37918000  0.85920000  1.0 0.1198433521
H  H83  1  0.62767000  0.90129000  0.53393000  1.0 0.1306147304
H  H84  1  0.95875000  0.17047000  0.53502000  1.0 0.1198433521
H  H85  1  0.61479000  0.95381000  0.45383000  1.0 0.1306147304
H  H86  1  0.63681000  0.33636000  0.68709000  1.0 0.1198433521
H  H87  1  0.61395000  0.67499000  0.75906000  1.0 0.1198433521
H  H88  1  0.63415000  0.32453000  0.35453000  1.0 0.1198433521
H  H89  1  0.56315000  0.01601000  0.66295000  1.0 0.1117912638
H  H90  1  0.30521000  0.13402000  0.54465000  1.0 0.1117912638
H  H91  1  0.66609000  0.14215000  0.77215000  1.0 0.1198433521
H  H92  1  0.66941000  0.15045000  0.68420000  1.0 0.1198433521
H  H93  1  0.61680000  0.61358000  0.03124000  1.0 0.1198433521
H  H94  1  0.64081000  0.93202000  0.00784000  1.0 0.1198433521
H  H95  1  0.59506000  0.77767000  0.73950000  1.0 0.1198433521
H  H96  1  0.62053000  0.06331000  0.45099000  1.0 0.1117912638
H  H97  1  0.56707000  0.53298000  0.24141000  1.0 0.1306147304
H  H98  1  0.56193000  0.60932000  0.43105000  1.0 0.1198433521
H  H99  1  0.55256000  0.48918000  0.16159000  1.0 0.1117912638
H  H100  1  0.64211000  0.18998000  0.85393000  1.0 0.1198433521
H  H101  1  0.75411000  0.00416000  0.80651000  1.0 0.1306147304
H  H102  1  0.59203000  0.83888000  0.25807000  1.0 0.1117912638
H  H103  1  0.63705000  0.42195000  0.58848000  1.0 0.1198433521
H  H104  1  0.94307000  0.19476000  0.01124000  1.0 0.1198433521
H  H105  1  0.61822000  0.38813000  0.77312000  1.0 0.1198433521
H  H106  1  0.60929000  0.84051000  0.86090000  1.0 0.1306147304
H  H107  1  0.72369000  0.47502000  0.38004000  1.0 0.1198433521
H  H108  1  0.60909000  0.60509000  0.83641000  1.0 0.0988242099
H  H109  1  0.72513000  0.05679000  0.88265000  1.0 0.1117912638
H  H110  1  0.12653000  0.11962000  0.54464000  1.0 0.1198433521
H  H111  1  0.56895000  0.66085000  0.35327000  1.0 0.1306147304
H  H112  1  0.58157000  0.97434000  0.74602000  1.0 0.1198433521
H  H113  1  0.75030000  0.68404000  0.19296000  1.0 0.1306147304
H  H114  1  0.59957000  0.12602000  0.27210000  1.0 0.1198433521
H  H115  1  0.56957000  0.72853000  0.23857000  1.0 0.1198433521
H  H116  1  0.65078000  0.37051000  0.18166000  1.0 0.1117912638
H  H117  1  0.14885000  0.38723000  0.05426000  1.0 0.1117912638
H  H118  1  0.64221000  0.37582000  0.26958000  1.0 0.1198433521
H  H119  1  0.57456000  0.89620000  0.93407000  1.0 0.1117912638
H  H120  1  0.96973000  0.37947000  0.05426000  1.0 0.1198433521
H  H121  1  0.72876000  0.88780000  0.61098000  1.0 0.1198433521
H  H122  1  0.63127000  0.09315000  0.08974000  1.0 0.1198433521
H  H123  1  0.58829000  0.91014000  0.32756000  1.0 0.0945624406
H  H124  1  0.28292000  0.15256000  0.99704000  1.0 0.1117912638
H  H125  1  0.87000000  0.73685000  0.85343000  1.0 0.1198433521
H  H126  1  0.77358000  0.45934000  0.85518000  1.0 0.1117912638
H  H127  1  0.30021000  0.31723000  0.50869000  1.0 0.1117912638
H  H128  1  0.71545000  0.64519000  0.11185000  1.0 0.1306147304
H  H129  1  0.09865000  0.14958000  0.98105000  1.0 0.1198433521
H  H130  1  0.89789000  0.92332000  0.31541000  1.0 0.1198433521
H  H131  1  0.84981000  0.84017000  0.83597000  1.0 0.1355544472
H  H132  1  0.85188000  0.81011000  0.35079000  1.0 0.1198433521
H  H133  1  0.91013000  0.63073000  0.81566000  1.0 0.1198433521
H  H134  1  0.91770000  0.52228000  0.84615000  1.0 0.1306147304
H  H135  1  0.75836000  0.07166000  0.35767000  1.0 0.0988242099
H  H136  1  0.76108000  0.84739000  0.69515000  1.0 0.1306147304
H  H137  1  0.74246000  0.53034000  0.30425000  1.0 0.1306147304
H  H138  1  0.82142000  0.70058000  0.33333333  1.0 0.1306147304
H  H139  1  0.67371000  0.53110000  0.58965000  1.0 0.1306147304
H  H140  1  0.64788000  0.58486000  0.50906000  1.0 0.1198433521
H  H141  1  0.64004000  0.98500000  0.08814000  1.0 0.1306147304
H  H142  1  0.96199000  0.35889000  0.51430000  1.0 0.1198433521
H  H143  1  0.13882000  0.37075000  0.51194000  1.0 0.1198433521
H  H144  1  0.91168000  0.02765000  0.35236000  1.0 0.1198433521
C  C1  1  0.36030000  0.56090000  0.52990000  1.0 0.0283606382
C  C2  1  0.57300000  0.74690000  0.98370000  1.0 0.5678206975
C  C3  1  0.36410000  0.95100000  0.42790000  1.0 0.0390583993
C  C4  1  0.36860000  0.71640000  0.13460000  1.0 -0.0184253899
C  C5  1  0.36430000  0.92360000  0.03110000  1.0 0.0390583993
C  C6  1  0.38200000  0.77090000  0.63550000  1.0 -0.0135981851
C  C7  1  0.37160000  0.46800000  0.92350000  1.0 0.0283606382
C  C8  1  0.36190000  0.43770000  0.87220000  1.0 0.0495279053
C  C9  1  0.35740000  0.49620000  0.53670000  1.0 0.0231916713
C  C10  1  0.36880000  0.72980000  0.88120000  1.0 0.5888338322
C  C11  1  0.36760000  0.53400000  0.93020000  1.0 0.0390583993
C  C12  1  0.37380000  0.52740000  0.01800000  1.0 0.0598910964
C  C13  1  0.35770000  0.46270000  0.58570000  1.0 0.0598910964
C  C14  1  0.73880000  0.70270000  0.96890000  1.0 -0.16013159
C  C15  1  0.37860000  0.71990000  0.07820000  1.0 0.5888338322
C  C16  1  0.39650000  0.82930000  0.66010000  1.0 -0.1094817584
C  C17  1  0.56540000  0.76610000  0.47610000  1.0 0.5816328222
C  C18  1  0.68140000  0.77340000  0.47520000  1.0 -0.0184253899
C  C19  1  0.37860000  0.78170000  0.79660000  1.0 -0.1408879707
C  C20  1  0.37440000  0.46310000  0.01550000  1.0 -0.1283620261
C  C21  1  0.38540000  0.76560000  0.57830000  1.0 0.5888338322
C  C22  1  0.38240000  0.65630000  0.15990000  1.0 -0.1197015296
C  C23  1  0.37100000  0.05380000  0.46750000  1.0 -0.0902134763
C  C24  1  0.00430000  0.78890000  0.46950000  1.0 -0.1408879707
C  C25  1  0.35790000  0.98860000  0.03350000  1.0 0.0390583993
C  C26  1  0.36150000  0.01610000  0.42120000  1.0 0.0283606382
C  C27  1  0.36890000  0.72900000  0.82530000  1.0 -0.0405907227
C  C28  1  0.37830000  0.02220000  0.51510000  1.0 -0.1676738682
C  C29  1  0.34760000  0.75460000  0.32330000  1.0 -0.0184253899
C  C30  1  0.68940000  0.75220000  0.98220000  1.0 -0.0184253899
C  C31  1  0.35700000  0.70290000  0.29580000  1.0 -0.16013159
C  C32  1  0.89700000  0.78470000  0.47050000  1.0 0.0701297223
C  C33  1  0.35120000  0.01890000  0.08480000  1.0 0.0598910964
C  C34  1  0.35310000  0.04340000  0.37030000  1.0 0.0495279053
C  C35  1  0.33780000  0.29200000  0.22500000  1.0 -0.1197015296
C  C36  1  0.37170000  0.71550000  0.66260000  1.0 -0.1676738682
C  C37  1  0.28480000  0.18070000  0.21320000  1.0 0.1587802613
C  C38  1  0.39710000  0.01850000  0.33040000  1.0 -0.1408879707
C  C39  1  0.25800000  0.09580000  0.67600000  1.0 0.0390583993
C  C40  1  0.73320000  0.83110000  0.46310000  1.0 -0.1197015296
C  C41  1  0.33930000  0.81830000  0.24460000  1.0 -0.1511094456
C  C42  1  0.34870000  0.76360000  0.21740000  1.0 0.0701297223
C  C43  1  0.35300000  0.75390000  0.38090000  1.0 0.5888338322
C  C44  1  0.33750000  0.38680000  0.77220000  1.0 0.1962086106
C  C45  1  0.36980000  0.71890000  0.71780000  1.0 0.078773986
C  C46  1  0.32510000  0.08140000  0.17480000  1.0 0.1818374949
C  C47  1  0.84440000  0.70650000  0.96820000  1.0 0.0701297223
C  C48  1  0.33810000  0.81270000  0.29650000  1.0 -0.1283620261
C  C49  1  0.37750000  0.43070000  0.96960000  1.0 -0.102260509
C  C50  1  0.35970000  0.02320000  0.99070000  1.0 -0.0902134763
C  C51  1  0.34950000  0.23100000  0.23590000  1.0 -0.1676738682
C  C52  1  0.37550000  0.95800000  0.51700000  1.0 0.0988242099
C  C53  1  0.39810000  0.44500000  0.78460000  1.0 -0.1788099116
C  C54  1  0.24300000  0.37240000  0.17740000  1.0 0.0283606382
C  C55  1  0.17130000  0.74310000  0.47660000  1.0 0.5888338322
C  C56  1  0.40260000  0.40730000  0.59470000  1.0 -0.1283620261
C  C57  1  0.40840000  0.47040000  0.83190000  1.0 -0.1283620261
C  C58  1  0.35850000  0.76980000  0.16230000  1.0 -0.1676738682
C  C59  1  0.28340000  0.01750000  0.16830000  1.0 -0.1899079487
C  C60  1  0.36120000  0.18840000  0.72640000  1.0 -0.1408879707
C  C61  1  0.35430000  0.55660000  0.44300000  1.0 0.0390583993
C  C62  1  0.37870000  0.77930000  0.74100000  1.0 0.0701297223
C  C63  1  0.01420000  0.76640000  0.98060000  1.0 -0.16013159
C  C64  1  0.32530000  0.09000000  0.27010000  1.0 0.1818374949
C  C65  1  0.37530000  0.65160000  0.21050000  1.0 -0.16013159
C  C66  1  0.37110000  0.11490000  0.13580000  1.0 -0.1788099116
C  C67  1  0.35800000  0.70540000  0.24070000  1.0 0.0701297223
C  C68  1  0.30520000  0.48600000  0.62500000  1.0 -0.1408879707
C  C69  1  0.32700000  0.41210000  0.16370000  1.0 -0.0405907227
C  C70  1  0.05860000  0.71110000  0.96960000  1.0 -0.0184253899
C  C71  1  0.29980000  0.98690000  0.12250000  1.0 -0.1408879707
C  C72  1  0.83890000  0.83960000  0.46180000  1.0 -0.16013159
C  C73  1  0.39670000  0.37600000  0.64030000  1.0 -0.1676738682
C  C74  1  0.17540000  0.71770000  0.97340000  1.0 0.5967318112
C  C75  1  0.38490000  0.04260000  0.28040000  1.0 -0.1899079487
C  C76  1  0.29270000  0.35510000  0.81330000  1.0 -0.1788099116
C  C77  1  0.33910000  0.39850000  0.67810000  1.0 0.1677432204
C  C78  1  0.25840000  0.30710000  0.19150000  1.0 0.0598910964
C  C79  1  0.90570000  0.76340000  0.97950000  1.0 0.0701297223
C  C80  1  0.31090000  0.29240000  0.71590000  1.0 0.1501929308
C  C81  1  0.39300000  0.83330000  0.71170000  1.0 -0.1511094456
C  C82  1  0.05900000  0.73700000  0.47460000  1.0 -0.0581400213
C  C83  1  0.37420000  0.25440000  0.73760000  1.0 -0.16013159
C  C84  1  0.35830000  0.66760000  0.79920000  1.0 -0.1197015296
C  C85  1  0.89250000  0.65180000  0.95490000  1.0 -0.16013159
C  C86  1  0.36140000  0.66450000  0.74680000  1.0 -0.16013159
C  C87  1  0.38830000  0.08220000  0.09140000  1.0 -0.1408879707
C  C88  1  0.99890000  0.65630000  0.95540000  1.0 -0.1094817584
C  C89  1  0.27670000  0.16490000  0.69150000  1.0 0.0701297223
C  C90  1  0.29810000  0.09340000  0.36120000  1.0 -0.1197015296
C  C91  1  0.36870000  0.92860000  0.94200000  1.0 0.0701297223
C  C92  1  0.34550000  0.06580000  0.66630000  1.0 -0.0256959894
C  C93  1  0.75020000  0.81100000  0.99670000  1.0 -0.1197015296
C  C94  1  0.18780000  0.25400000  0.16950000  1.0 -0.1283620261
C  C95  1  0.23120000  0.49670000  0.15070000  1.0 0.0598910964
C  C96  1  0.73650000  0.72240000  0.48350000  1.0 -0.1676738682
C  C97  1  0.31000000  0.37960000  0.86090000  1.0 -0.102260509
C  C98  1  0.84530000  0.72490000  0.48110000  1.0 0.078773986
C  C99  1  0.85970000  0.81540000  0.00180000  1.0 -0.1788099116
C  C100  1  0.16040000  0.05960000  0.67390000  1.0 -0.1283620261
C  C101  1  0.19850000  0.19330000  0.17930000  1.0 -0.1511094456
C  C102  1  0.20790000  0.20650000  0.67110000  1.0 -0.1283620261
C  C103  1  0.14980000  0.39490000  0.17540000  1.0 -0.102260509
C  C104  1  0.14680000  0.46090000  0.15880000  1.0 -0.1511094456
C  C105  1  0.24660000  0.97290000  0.64810000  1.0 0.0495279053
C  C106  1  0.27960000  0.11850000  0.31120000  1.0 -0.2002375355
C  C107  1  0.29480000  0.45380000  0.67030000  1.0 -0.1788099116
C  C108  1  0.22410000  0.27100000  0.68170000  1.0 -0.16013159
C  C109  1  0.34110000  0.49190000  0.44190000  1.0 -0.1408879707
C  C110  1  0.35050000  0.45990000  0.48990000  1.0 -0.102260509
C  C111  1  0.36250000  0.99160000  0.94290000  1.0 -0.1676738682
C  C112  1  0.00210000  0.67760000  0.48210000  1.0 -0.102260509
C  C113  1  0.89770000  0.67020000  0.48440000  1.0 -0.1676738682
C  C114  1  0.15340000  0.99730000  0.65520000  1.0 -0.1511094456
C  C115  1  0.63970000  0.43910000  0.47010000  1.0 0.0283606382
C  C116  1  0.42700000  0.25310000  0.01630000  1.0 0.5678206975
C  C117  1  0.63590000  0.04900000  0.57210000  1.0 0.0390583993
C  C118  1  0.63140000  0.28360000  0.86540000  1.0 -0.0184253899
C  C119  1  0.63570000  0.07640000  0.96890000  1.0 0.0390583993
C  C120  1  0.61800000  0.22910000  0.36450000  1.0 -0.0135981851
C  C121  1  0.62840000  0.53200000  0.07650000  1.0 0.0283606382
C  C122  1  0.63810000  0.56230000  0.12780000  1.0 0.0495279053
C  C123  1  0.64260000  0.50380000  0.46330000  1.0 0.0231916713
C  C124  1  0.63120000  0.27020000  0.11880000  1.0 0.5888338322
C  C125  1  0.63240000  0.46600000  0.06980000  1.0 0.0390583993
C  C126  1  0.62620000  0.47260000  0.98200000  1.0 0.0598910964
C  C127  1  0.64230000  0.53730000  0.41430000  1.0 0.0598910964
C  C128  1  0.26120000  0.29730000  0.03110000  1.0 -0.16013159
C  C129  1  0.62140000  0.28010000  0.92180000  1.0 0.5888338322
C  C130  1  0.60350000  0.17070000  0.33990000  1.0 -0.1094817584
C  C131  1  0.43460000  0.23390000  0.52390000  1.0 0.5816328222
C  C132  1  0.31860000  0.22660000  0.52480000  1.0 -0.0184253899
C  C133  1  0.62140000  0.21830000  0.20340000  1.0 -0.1408879707
C  C134  1  0.62560000  0.53690000  0.98450000  1.0 -0.1283620261
C  C135  1  0.61460000  0.23440000  0.42170000  1.0 0.5888338322
C  C136  1  0.61760000  0.34370000  0.84010000  1.0 -0.1197015296
C  C137  1  0.62900000  0.94620000  0.53250000  1.0 -0.0902134763
C  C138  1  0.99570000  0.21110000  0.53050000  1.0 -0.1408879707
C  C139  1  0.64210000  0.01140000  0.96650000  1.0 0.0390583993
C  C140  1  0.63850000  0.98390000  0.57880000  1.0 0.0283606382
C  C141  1  0.63110000  0.27100000  0.17470000  1.0 -0.0405907227
C  C142  1  0.62170000  0.97780000  0.48490000  1.0 -0.1676738682
C  C143  1  0.65240000  0.24540000  0.67670000  1.0 -0.0184253899
C  C144  1  0.31060000  0.24780000  0.01780000  1.0 -0.0184253899
C  C145  1  0.64300000  0.29710000  0.70420000  1.0 -0.16013159
C  C146  1  0.10300000  0.21530000  0.52950000  1.0 0.0701297223
C  C147  1  0.64880000  0.98110000  0.91520000  1.0 0.0598910964
C  C148  1  0.64690000  0.95660000  0.62970000  1.0 0.0495279053
C  C149  1  0.66220000  0.70800000  0.77500000  1.0 -0.1094817584
C  C150  1  0.62830000  0.28450000  0.33740000  1.0 -0.1676738682
C  C151  1  0.71520000  0.81930000  0.78680000  1.0 0.1587802613
C  C152  1  0.60290000  0.98150000  0.66960000  1.0 -0.1408879707
C  C153  1  0.74200000  0.90420000  0.32400000  1.0 0.0390583993
C  C154  1  0.26680000  0.16890000  0.53690000  1.0 -0.1197015296
C  C155  1  0.66070000  0.18170000  0.75540000  1.0 -0.1511094456
C  C156  1  0.65130000  0.23640000  0.78260000  1.0 0.0701297223
C  C157  1  0.64700000  0.24610000  0.61910000  1.0 0.5888338322
C  C158  1  0.66250000  0.61320000  0.22780000  1.0 0.1962086106
C  C159  1  0.63020000  0.28110000  0.28220000  1.0 0.078773986
C  C160  1  0.67490000  0.91860000  0.82520000  1.0 0.1818374949
C  C161  1  0.15560000  0.29350000  0.03180000  1.0 0.0701297223
C  C162  1  0.66190000  0.18730000  0.70350000  1.0 -0.1283620261
C  C163  1  0.62250000  0.56930000  0.03040000  1.0 -0.102260509
C  C164  1  0.64030000  0.97680000  0.00930000  1.0 -0.0902134763
C  C165  1  0.65050000  0.76900000  0.76410000  1.0 -0.1676738682
C  C166  1  0.62450000  0.04200000  0.48300000  1.0 0.0988242099
C  C167  1  0.60190000  0.55500000  0.21540000  1.0 -0.1788099116
C  C168  1  0.75700000  0.62760000  0.82260000  1.0 0.0283606382
C  C169  1  0.82870000  0.25690000  0.52340000  1.0 0.5888338322
C  C170  1  0.59740000  0.59270000  0.40530000  1.0 -0.1283620261
C  C171  1  0.59160000  0.52960000  0.16810000  1.0 -0.1283620261
C  C172  1  0.64150000  0.23020000  0.83770000  1.0 -0.1676738682
C  C173  1  0.71660000  0.98250000  0.83170000  1.0 -0.1899079487
C  C174  1  0.63880000  0.81160000  0.27360000  1.0 -0.1408879707
C  C175  1  0.64570000  0.44340000  0.55700000  1.0 0.0495279053
C  C176  1  0.62130000  0.22070000  0.25900000  1.0 0.0701297223
C  C177  1  0.98580000  0.23360000  0.01940000  1.0 -0.16013159
C  C178  1  0.67470000  0.91000000  0.72990000  1.0 0.1818374949
C  C179  1  0.62470000  0.34840000  0.78950000  1.0 -0.16013159
C  C180  1  0.62890000  0.88510000  0.86420000  1.0 -0.1788099116
C  C181  1  0.64200000  0.29460000  0.75930000  1.0 0.0701297223
C  C182  1  0.69480000  0.51400000  0.37500000  1.0 -0.1408879707
C  C183  1  0.67300000  0.58790000  0.83630000  1.0 -0.0405907227
C  C184  1  0.94140000  0.28890000  0.03040000  1.0 -0.0184253899
C  C185  1  0.70020000  0.01310000  0.87750000  1.0 -0.1408879707
C  C186  1  0.16110000  0.16040000  0.53820000  1.0 -0.16013159
C  C187  1  0.60330000  0.62400000  0.35970000  1.0 -0.1676738682
C  C188  1  0.82460000  0.28230000  0.02660000  1.0 0.5967318112
C  C189  1  0.61510000  0.95740000  0.71960000  1.0 -0.1899079487
C  C190  1  0.70730000  0.64490000  0.18670000  1.0 -0.1788099116
C  C191  1  0.66090000  0.60150000  0.32190000  1.0 0.1677432204
C  C192  1  0.74160000  0.69290000  0.80850000  1.0 0.0598910964
C  C193  1  0.09430000  0.23660000  0.02050000  1.0 0.0701297223
C  C194  1  0.68910000  0.70760000  0.28410000  1.0 0.1501929308
C  C195  1  0.60700000  0.16670000  0.28830000  1.0 -0.1511094456
C  C196  1  0.94100000  0.26300000  0.52540000  1.0 -0.0581400213
C  C197  1  0.62580000  0.74560000  0.26240000  1.0 -0.16013159
C  C198  1  0.64170000  0.33240000  0.20080000  1.0 -0.1197015296
C  C199  1  0.10750000  0.34820000  0.04510000  1.0 -0.16013159
C  C200  1  0.63860000  0.33550000  0.25320000  1.0 -0.16013159
C  C201  1  0.61170000  0.91780000  0.90860000  1.0 -0.1408879707
C  C202  1  0.00110000  0.34370000  0.04460000  1.0 -0.1094817584
C  C203  1  0.72330000  0.83510000  0.30850000  1.0 0.0701297223
C  C204  1  0.70190000  0.90660000  0.63880000  1.0 -0.1197015296
C  C205  1  0.63130000  0.07140000  0.05800000  1.0 0.0701297223
C  C206  1  0.65450000  0.93420000  0.33370000  1.0 -0.0256959894
C  C207  1  0.24980000  0.18900000  0.00330000  1.0 -0.1197015296
C  C208  1  0.81220000  0.74600000  0.83050000  1.0 -0.1283620261
C  C209  1  0.76880000  0.50330000  0.84930000  1.0 0.0598910964
C  C210  1  0.26350000  0.27760000  0.51650000  1.0 -0.1676738682
C  C211  1  0.69000000  0.62040000  0.13910000  1.0 -0.102260509
C  C212  1  0.15470000  0.27510000  0.51890000  1.0 0.078773986
C  C213  1  0.14030000  0.18460000  0.99820000  1.0 -0.1788099116
C  C214  1  0.83960000  0.94040000  0.32610000  1.0 -0.1283620261
C  C215  1  0.80150000  0.80670000  0.82070000  1.0 -0.1511094456
C  C216  1  0.79210000  0.79350000  0.32890000  1.0 -0.1283620261
C  C217  1  0.85020000  0.60510000  0.82460000  1.0 -0.102260509
C  C218  1  0.85320000  0.53910000  0.84120000  1.0 -0.1511094456
C  C219  1  0.75340000  0.02710000  0.35190000  1.0 0.0495279053
C  C220  1  0.72040000  0.88150000  0.68880000  1.0 -0.2002375355
C  C221  1  0.70520000  0.54620000  0.32970000  1.0 -0.1788099116
C  C222  1  0.77590000  0.72900000  0.31830000  1.0 -0.16013159
C  C223  1  0.65890000  0.50810000  0.55810000  1.0 -0.1408879707
C  C224  1  0.64950000  0.54010000  0.51010000  1.0 -0.102260509
C  C225  1  0.63750000  0.00840000  0.05710000  1.0 -0.1676738682
C  C226  1  0.99790000  0.32240000  0.51790000  1.0 -0.102260509
C  C227  1  0.10230000  0.32980000  0.51560000  1.0 -0.1676738682
C  C228  1  0.84660000  0.00270000  0.34480000  1.0 -0.1511094456
N  N1  1  0.37300000  0.56430000  0.97500000  1.0 -0.2170731133
N  N2  1  0.35590000  0.59300000  0.48610000  1.0 -0.206411392
N  N3  1  0.37470000  0.89750000  0.98560000  1.0 -0.2002375355
N  N4  1  0.36740000  0.92670000  0.47450000  1.0 -0.1899079487
N  N5  1  0.32780000  0.36000000  0.72330000  1.0 -0.1676738682
N  N6  1  0.30460000  0.11590000  0.21960000  1.0 -0.1788099116
N  N7  1  0.32390000  0.47650000  0.14990000  1.0 -0.2529098099
N  N8  1  0.34110000  0.00470000  0.64850000  1.0 -0.2698479002
N  N9  1  0.62700000  0.43570000  0.02500000  1.0 -0.2170731133
N  N10  1  0.64410000  0.40700000  0.51390000  1.0 -0.206411392
N  N11  1  0.62530000  0.10250000  0.01440000  1.0 -0.2002375355
N  N12  1  0.63260000  0.07330000  0.52550000  1.0 -0.1899079487
N  N13  1  0.67220000  0.64000000  0.27670000  1.0 -0.1676738682
N  N14  1  0.69540000  0.88410000  0.78040000  1.0 -0.1788099116
N  N15  1  0.67610000  0.52350000  0.85010000  1.0 -0.2529098099
N  N16  1  0.65890000  0.99530000  0.35150000  1.0 -0.2698479002
O  O1  1  0.53300000  0.79630000  0.98950000  1.0 -0.5211087173
O  O2  1  0.37600000  0.77520000  0.05790000  1.0 -0.5583609944
O  O3  1  0.37940000  0.78370000  0.90380000  1.0 -0.551773653
O  O4  1  0.52200000  0.71020000  0.48430000  1.0 -0.551773653
O  O5  1  0.39300000  0.81930000  0.55400000  1.0 -0.5583609944
O  O6  1  0.52340000  0.81590000  0.47460000  1.0 -0.5327281361
O  O7  1  0.52660000  0.69300000  0.98050000  1.0 -0.5211087173
O  O8  1  0.37750000  0.71140000  0.55750000  1.0 -0.551773653
O  O9  1  0.38280000  0.66920000  0.05360000  1.0 -0.5394901043
O  O10  1  0.34950000  0.80570000  0.40280000  1.0 -0.5327281361
O  O11  1  0.21760000  0.66750000  0.97560000  1.0 -0.5327281361
O  O12  1  0.22490000  0.77420000  0.97380000  1.0 -0.5583609944
O  O13  1  0.36060000  0.67640000  0.90310000  1.0 -0.5394901043
O  O14  1  0.36020000  0.70080000  0.40320000  1.0 -0.551773653
O  O15  1  0.21810000  0.80080000  0.47890000  1.0 -0.5583609944
O  O16  1  0.21490000  0.69290000  0.47600000  1.0 -0.5394901043
O  O17  1  0.46700000  0.20370000  0.01050000  1.0 -0.5211087173
O  O18  1  0.62400000  0.22480000  0.94210000  1.0 -0.5583609944
O  O19  1  0.62060000  0.21630000  0.09620000  1.0 -0.551773653
O  O20  1  0.47800000  0.28980000  0.51570000  1.0 -0.551773653
O  O21  1  0.60700000  0.18070000  0.44600000  1.0 -0.5583609944
O  O22  1  0.47660000  0.18410000  0.52540000  1.0 -0.5327281361
O  O23  1  0.47340000  0.30700000  0.01950000  1.0 -0.5211087173
O  O24  1  0.62250000  0.28860000  0.44250000  1.0 -0.551773653
O  O25  1  0.61720000  0.33080000  0.94640000  1.0 -0.5394901043
O  O26  1  0.65050000  0.19430000  0.59720000  1.0 -0.5327281361
O  O27  1  0.78240000  0.33250000  0.02440000  1.0 -0.5327281361
O  O28  1  0.77510000  0.22580000  0.02620000  1.0 -0.5583609944
O  O29  1  0.63940000  0.32360000  0.09690000  1.0 -0.5394901043
O  O30  1  0.63980000  0.29920000  0.59680000  1.0 -0.551773653
O  O31  1  0.78190000  0.19920000  0.52110000  1.0 -0.5583609944
O  O32  1  0.78510000  0.30710000  0.52400000  1.0 -0.5394901043
