# DDEC6 charges by PACMAN v1.1 (https://github.com/mtap-research/PACMAN-charge/)
data_CAYJIZ_FSR_pacman
_symmetry_space_group_name_H-M   'P 1'
_cell_length_a   13.11420000
_cell_length_b   21.86150000
_cell_length_c   26.10860000
_cell_angle_alpha   90.00000000
_cell_angle_beta   92.61200000
_cell_angle_gamma   90.00000000
_symmetry_Int_Tables_number   1
_chemical_formula_structural   Zn2H52C75N5O8
_chemical_formula_sum   'Zn8 H208 C300 N20 O32'
_cell_volume   7477.45655538
_cell_formula_units_Z   4
loop_
 _symmetry_equiv_pos_site_id
 _symmetry_equiv_pos_as_xyz
  1  'x, y, z'
loop_
 _atom_site_type_symbol
 _atom_site_label
 _atom_site_symmetry_multiplicity
 _atom_site_fract_x
 _atom_site_fract_y
 _atom_site_fract_z
 _atom_site_occupancy
 _atom_site_charge
Zn  Zn1  1  0.89334000  0.34081000  0.97549000  1.0 0.8275802306
Zn  Zn2  1  0.87366000  0.20647000  0.97632000  1.0 0.8372034899
Zn  Zn3  1  0.89334000  0.15919000  0.47549000  1.0 0.8275802306
Zn  Zn4  1  0.87366000  0.29353000  0.47632000  1.0 0.8372034899
Zn  Zn5  1  0.10666000  0.84081000  0.52451000  1.0 0.8275802306
Zn  Zn6  1  0.12634000  0.70647000  0.52368000  1.0 0.8372034899
Zn  Zn7  1  0.10666000  0.65919000  0.02451000  1.0 0.8275802306
Zn  Zn8  1  0.12634000  0.79353000  0.02368000  1.0 0.8372034899
H  H1  1  0.87666000  0.43322000  0.89562000  1.0 0.1084454537
H  H2  1  0.88167000  0.45212000  0.04409000  1.0 0.1084454537
H  H3  1  0.86734000  0.55654000  0.03583000  1.0 0.1206519404
H  H4  1  0.22489000  0.34642000  0.96749000  1.0 0.1206519404
H  H5  1  0.19536000  0.16560000  0.98231000  1.0 0.1206519404
H  H6  1  0.85325000  0.59951000  0.95664000  1.0 0.1206519404
H  H7  1  0.86472000  0.18198000  0.80954000  1.0 0.1299937206
H  H8  1  0.89354000  0.36346000  0.81116000  1.0 0.1206519404
H  H9  1  0.36565000  0.15359000  0.98150000  1.0 0.1299937206
H  H10  1  0.93301000  0.62477000  0.87586000  1.0 0.1005879911
H  H11  1  0.77762000  0.47287000  0.83230000  1.0 0.1084454537
H  H12  1  0.87764000  0.36504000  0.72388000  1.0 0.1299937206
H  H13  1  0.40243000  0.39029000  0.95856000  1.0 0.1299937206
H  H14  1  0.91675000  0.66202000  0.79032000  1.0 0.0824094422
H  H15  1  0.75123000  0.51340000  0.74988000  1.0 0.0824094422
H  H16  1  0.85384000  0.12683000  0.72510000  1.0 0.139943762
H  H17  1  0.54196000  0.19680000  0.97618000  1.0 0.1299937206
H  H18  1  0.57355000  0.37696000  0.95808000  1.0 0.1299937206
H  H19  1  0.88423000  0.31046000  0.64015000  1.0 0.1206519404
H  H20  1  0.86619000  0.12909000  0.63843000  1.0 0.1206519404
H  H21  1  0.74647000  0.69767000  0.64380000  1.0 0.1084454537
H  H22  1  0.90244000  0.69863000  0.77855000  1.0 0.0824094422
H  H23  1  0.92362000  0.51063000  0.69828000  1.0 0.0896482655
H  H24  1  0.71344000  0.61747000  0.62582000  1.0 0.1005879911
H  H25  1  0.75881000  0.80019000  0.63883000  1.0 0.0896482655
H  H26  1  0.90111000  0.80465000  0.77528000  1.0 0.1084454537
H  H27  1  0.93491000  0.45413000  0.62295000  1.0 0.1084454537
H  H28  1  0.74097000  0.56695000  0.55128000  1.0 0.1005879911
H  H29  1  0.86963000  0.39363000  0.55549000  1.0 0.1084454537
H  H30  1  0.88114000  0.39693000  0.40650000  1.0 0.1084454537
H  H31  1  0.85033000  0.90264000  0.77221000  1.0 0.1005879911
H  H32  1  0.87642000  0.88064000  0.61754000  1.0 0.0824094422
H  H33  1  0.84508000  0.55445000  0.48352000  1.0 0.1206519404
H  H34  1  0.86312000  0.50290000  0.40584000  1.0 0.139943762
H  H35  1  0.90586000  0.97823000  0.61144000  1.0 0.0896482655
H  H36  1  0.91461000  0.03842000  0.67719000  1.0 0.0896482655
H  H37  1  0.91500000  0.81588000  0.14649000  1.0 0.1005879911
H  H38  1  0.92913000  0.85608000  0.13468000  1.0 0.0824094422
H  H39  1  0.90870000  0.71216000  0.13638000  1.0 0.1005879911
H  H40  1  0.94709000  0.91170000  0.06013000  1.0 0.1005879911
H  H41  1  0.95966000  0.00642000  0.33029000  1.0 0.0824094422
H  H42  1  0.94310000  0.96954000  0.24988000  1.0 0.0896482655
H  H43  1  0.72551000  0.85437000  0.29162000  1.0 0.0824094422
H  H44  1  0.77057000  0.99036000  0.19175000  1.0 0.1084454537
H  H45  1  0.72273000  0.90035000  0.37210000  1.0 0.1084454537
H  H46  1  0.70861000  0.80721000  0.25322000  1.0 0.0896482655
H  H47  1  0.69968000  0.70130000  0.24317000  1.0 0.1084454537
H  H48  1  0.62250000  0.62414000  0.18622000  1.0 0.1084454537
H  H49  1  0.91919000  0.61567000  0.15461000  1.0 0.0896482655
H  H50  1  0.89916000  0.51395000  0.13091000  1.0 0.0896482655
H  H51  1  0.74080000  0.46732000  0.13487000  1.0 0.1005879911
H  H52  1  0.76292000  0.04312000  0.11763000  1.0 0.1084454537
H  H53  1  0.87666000  0.06678000  0.39562000  1.0 0.1084454537
H  H54  1  0.88167000  0.04788000  0.54409000  1.0 0.1084454537
H  H55  1  0.86734000  0.94346000  0.53583000  1.0 0.1206519404
H  H56  1  0.22489000  0.15358000  0.46749000  1.0 0.1206519404
H  H57  1  0.19536000  0.33440000  0.48231000  1.0 0.1206519404
H  H58  1  0.85325000  0.90049000  0.45664000  1.0 0.1206519404
H  H59  1  0.86472000  0.31802000  0.30954000  1.0 0.1299937206
H  H60  1  0.89354000  0.13654000  0.31116000  1.0 0.1206519404
H  H61  1  0.36565000  0.34641000  0.48150000  1.0 0.1299937206
H  H62  1  0.93301000  0.87523000  0.37586000  1.0 0.1005879911
H  H63  1  0.77762000  0.02713000  0.33230000  1.0 0.1084454537
H  H64  1  0.87764000  0.13496000  0.22388000  1.0 0.1299937206
H  H65  1  0.40243000  0.10971000  0.45856000  1.0 0.1299937206
H  H66  1  0.91675000  0.83798000  0.29032000  1.0 0.0824094422
H  H67  1  0.75123000  0.98660000  0.24988000  1.0 0.0824094422
H  H68  1  0.85384000  0.37317000  0.22510000  1.0 0.139943762
H  H69  1  0.54196000  0.30320000  0.47618000  1.0 0.1299937206
H  H70  1  0.57355000  0.12304000  0.45808000  1.0 0.1299937206
H  H71  1  0.88423000  0.18954000  0.14015000  1.0 0.1299937206
H  H72  1  0.86619000  0.37091000  0.13843000  1.0 0.1206519404
H  H73  1  0.74647000  0.80233000  0.14380000  1.0 0.1084454537
H  H74  1  0.90244000  0.80137000  0.27855000  1.0 0.0824094422
H  H75  1  0.92362000  0.98937000  0.19828000  1.0 0.0896482655
H  H76  1  0.71344000  0.88253000  0.12582000  1.0 0.1005879911
H  H77  1  0.75881000  0.69981000  0.13883000  1.0 0.0896482655
H  H78  1  0.90111000  0.69535000  0.27528000  1.0 0.1084454537
H  H79  1  0.93491000  0.04587000  0.12295000  1.0 0.1084454537
H  H80  1  0.74097000  0.93305000  0.05128000  1.0 0.1005879911
H  H81  1  0.86963000  0.10637000  0.05549000  1.0 0.1084454537
H  H82  1  0.88114000  0.10307000  0.90650000  1.0 0.1084454537
H  H83  1  0.85033000  0.59736000  0.27221000  1.0 0.1005879911
H  H84  1  0.87642000  0.61936000  0.11754000  1.0 0.0824094422
H  H85  1  0.84508000  0.94555000  0.98352000  1.0 0.1206519404
H  H86  1  0.86312000  0.99710000  0.90584000  1.0 0.139943762
H  H87  1  0.90586000  0.52177000  0.11144000  1.0 0.0896482655
H  H88  1  0.91461000  0.46158000  0.17719000  1.0 0.0896482655
H  H89  1  0.91500000  0.68412000  0.64649000  1.0 0.1005879911
H  H90  1  0.92913000  0.64392000  0.63468000  1.0 0.0824094422
H  H91  1  0.90870000  0.78784000  0.63638000  1.0 0.1005879911
H  H92  1  0.94709000  0.58830000  0.56013000  1.0 0.1005879911
H  H93  1  0.95966000  0.49358000  0.83029000  1.0 0.0824094422
H  H94  1  0.94310000  0.53046000  0.74988000  1.0 0.0896482655
H  H95  1  0.72551000  0.64563000  0.79162000  1.0 0.0824094422
H  H96  1  0.77057000  0.50964000  0.69175000  1.0 0.1084454537
H  H97  1  0.72273000  0.59965000  0.87210000  1.0 0.1084454537
H  H98  1  0.70861000  0.69279000  0.75322000  1.0 0.0896482655
H  H99  1  0.69968000  0.79870000  0.74317000  1.0 0.1084454537
H  H100  1  0.62250000  0.87586000  0.68622000  1.0 0.1084454537
H  H101  1  0.91919000  0.88433000  0.65461000  1.0 0.0896482655
H  H102  1  0.89916000  0.98605000  0.63091000  1.0 0.0896482655
H  H103  1  0.74080000  0.03268000  0.63487000  1.0 0.1005879911
H  H104  1  0.76292000  0.45688000  0.61763000  1.0 0.1084454537
H  H105  1  0.12334000  0.93322000  0.60438000  1.0 0.1084454537
H  H106  1  0.11833000  0.95212000  0.45591000  1.0 0.1084454537
H  H107  1  0.13266000  0.05654000  0.46417000  1.0 0.1206519404
H  H108  1  0.77511000  0.84642000  0.53251000  1.0 0.1206519404
H  H109  1  0.80464000  0.66560000  0.51769000  1.0 0.1206519404
H  H110  1  0.14675000  0.09951000  0.54336000  1.0 0.1206519404
H  H111  1  0.13528000  0.68198000  0.69046000  1.0 0.1299937206
H  H112  1  0.10646000  0.86346000  0.68884000  1.0 0.1206519404
H  H113  1  0.63435000  0.65359000  0.51850000  1.0 0.1299937206
H  H114  1  0.06699000  0.12477000  0.62414000  1.0 0.1005879911
H  H115  1  0.22238000  0.97287000  0.66770000  1.0 0.1084454537
H  H116  1  0.12236000  0.86504000  0.77612000  1.0 0.1299937206
H  H117  1  0.59757000  0.89029000  0.54144000  1.0 0.1299937206
H  H118  1  0.08325000  0.16202000  0.70968000  1.0 0.0824094422
H  H119  1  0.24877000  0.01340000  0.75012000  1.0 0.0824094422
H  H120  1  0.14616000  0.62683000  0.77490000  1.0 0.139943762
H  H121  1  0.45804000  0.69680000  0.52382000  1.0 0.1299937206
H  H122  1  0.42645000  0.87696000  0.54192000  1.0 0.1299937206
H  H123  1  0.11577000  0.81046000  0.85985000  1.0 0.1206519404
H  H124  1  0.13381000  0.62909000  0.86157000  1.0 0.1206519404
H  H125  1  0.25353000  0.19767000  0.85620000  1.0 0.1084454537
H  H126  1  0.09756000  0.19863000  0.72145000  1.0 0.0824094422
H  H127  1  0.07638000  0.01063000  0.80172000  1.0 0.0896482655
H  H128  1  0.28656000  0.11747000  0.87418000  1.0 0.1005879911
H  H129  1  0.24119000  0.30019000  0.86117000  1.0 0.0896482655
H  H130  1  0.09889000  0.30465000  0.72472000  1.0 0.1084454537
H  H131  1  0.06509000  0.95413000  0.87705000  1.0 0.1084454537
H  H132  1  0.25903000  0.06695000  0.94872000  1.0 0.1005879911
H  H133  1  0.13037000  0.89363000  0.94451000  1.0 0.1084454537
H  H134  1  0.11886000  0.89693000  0.09350000  1.0 0.1084454537
H  H135  1  0.14967000  0.40264000  0.72779000  1.0 0.1005879911
H  H136  1  0.12358000  0.38064000  0.88246000  1.0 0.0824094422
H  H137  1  0.15492000  0.05445000  0.01648000  1.0 0.1206519404
H  H138  1  0.13688000  0.00290000  0.09416000  1.0 0.139943762
H  H139  1  0.09414000  0.47823000  0.88856000  1.0 0.0896482655
H  H140  1  0.08539000  0.53842000  0.82281000  1.0 0.0896482655
H  H141  1  0.08500000  0.31588000  0.35351000  1.0 0.1005879911
H  H142  1  0.07087000  0.35608000  0.36532000  1.0 0.0824094422
H  H143  1  0.09130000  0.21216000  0.36362000  1.0 0.1005879911
H  H144  1  0.05291000  0.41170000  0.43987000  1.0 0.1005879911
H  H145  1  0.04034000  0.50642000  0.16971000  1.0 0.0824094422
H  H146  1  0.05690000  0.46954000  0.25012000  1.0 0.0896482655
H  H147  1  0.27449000  0.35437000  0.20838000  1.0 0.0824094422
H  H148  1  0.22943000  0.49036000  0.30825000  1.0 0.1084454537
H  H149  1  0.27727000  0.40035000  0.12790000  1.0 0.1084454537
H  H150  1  0.29139000  0.30721000  0.24678000  1.0 0.0896482655
H  H151  1  0.30032000  0.20130000  0.25683000  1.0 0.1084454537
H  H152  1  0.37750000  0.12414000  0.31378000  1.0 0.1084454537
H  H153  1  0.08081000  0.11567000  0.34539000  1.0 0.0896482655
H  H154  1  0.10084000  0.01395000  0.36909000  1.0 0.0896482655
H  H155  1  0.25920000  0.96732000  0.36513000  1.0 0.1005879911
H  H156  1  0.23708000  0.54312000  0.38237000  1.0 0.1084454537
H  H157  1  0.12334000  0.56678000  0.10438000  1.0 0.1084454537
H  H158  1  0.11833000  0.54788000  0.95591000  1.0 0.1084454537
H  H159  1  0.13266000  0.44346000  0.96417000  1.0 0.1206519404
H  H160  1  0.77511000  0.65358000  0.03251000  1.0 0.1206519404
H  H161  1  0.80464000  0.83440000  0.01769000  1.0 0.1206519404
H  H162  1  0.14675000  0.40049000  0.04336000  1.0 0.1206519404
H  H163  1  0.13528000  0.81802000  0.19046000  1.0 0.1299937206
H  H164  1  0.10646000  0.63654000  0.18884000  1.0 0.1206519404
H  H165  1  0.63435000  0.84641000  0.01850000  1.0 0.1299937206
H  H166  1  0.06699000  0.37523000  0.12414000  1.0 0.1005879911
H  H167  1  0.22238000  0.52713000  0.16770000  1.0 0.1084454537
H  H168  1  0.12236000  0.63496000  0.27612000  1.0 0.1299937206
H  H169  1  0.59757000  0.60971000  0.04144000  1.0 0.1299937206
H  H170  1  0.08325000  0.33798000  0.20968000  1.0 0.0824094422
H  H171  1  0.24877000  0.48660000  0.25012000  1.0 0.0824094422
H  H172  1  0.14616000  0.87317000  0.27490000  1.0 0.139943762
H  H173  1  0.45804000  0.80320000  0.02382000  1.0 0.1299937206
H  H174  1  0.42645000  0.62304000  0.04192000  1.0 0.1299937206
H  H175  1  0.11577000  0.68954000  0.35985000  1.0 0.1299937206
H  H176  1  0.13381000  0.87091000  0.36157000  1.0 0.1206519404
H  H177  1  0.25353000  0.30233000  0.35620000  1.0 0.1084454537
H  H178  1  0.09756000  0.30137000  0.22145000  1.0 0.0824094422
H  H179  1  0.07638000  0.48937000  0.30172000  1.0 0.0896482655
H  H180  1  0.28656000  0.38253000  0.37418000  1.0 0.1005879911
H  H181  1  0.24119000  0.19981000  0.36117000  1.0 0.0896482655
H  H182  1  0.09889000  0.19535000  0.22472000  1.0 0.1084454537
H  H183  1  0.06509000  0.54587000  0.37705000  1.0 0.1084454537
H  H184  1  0.25903000  0.43305000  0.44872000  1.0 0.1005879911
H  H185  1  0.13037000  0.60637000  0.44451000  1.0 0.1084454537
H  H186  1  0.11886000  0.60307000  0.59350000  1.0 0.1084454537
H  H187  1  0.14967000  0.09736000  0.22779000  1.0 0.1005879911
H  H188  1  0.12358000  0.11936000  0.38246000  1.0 0.0824094422
H  H189  1  0.15492000  0.44555000  0.51648000  1.0 0.1206519404
H  H190  1  0.13688000  0.49710000  0.59416000  1.0 0.139943762
H  H191  1  0.09414000  0.02177000  0.38856000  1.0 0.0896482655
H  H192  1  0.08539000  0.96158000  0.32281000  1.0 0.0896482655
H  H193  1  0.08500000  0.18412000  0.85351000  1.0 0.1005879911
H  H194  1  0.07087000  0.14392000  0.86532000  1.0 0.0824094422
H  H195  1  0.09130000  0.28784000  0.86362000  1.0 0.1005879911
H  H196  1  0.05291000  0.08830000  0.93987000  1.0 0.1005879911
H  H197  1  0.04034000  0.99358000  0.66971000  1.0 0.0824094422
H  H198  1  0.05690000  0.03046000  0.75012000  1.0 0.0896482655
H  H199  1  0.27449000  0.14563000  0.70838000  1.0 0.0824094422
H  H200  1  0.22943000  0.00964000  0.80825000  1.0 0.1084454537
H  H201  1  0.27727000  0.09965000  0.62790000  1.0 0.1084454537
H  H202  1  0.29139000  0.19279000  0.74678000  1.0 0.0896482655
H  H203  1  0.30032000  0.29870000  0.75683000  1.0 0.1084454537
H  H204  1  0.37750000  0.37586000  0.81378000  1.0 0.1084454537
H  H205  1  0.08081000  0.38433000  0.84539000  1.0 0.0896482655
H  H206  1  0.10084000  0.48605000  0.86909000  1.0 0.0896482655
H  H207  1  0.25920000  0.53268000  0.86513000  1.0 0.1005879911
H  H208  1  0.23708000  0.95688000  0.88237000  1.0 0.1084454537
C  C1  1  0.07960000  0.26620000  0.97710000  1.0 0.5804840348
C  C2  1  0.87490000  0.45890000  0.92390000  1.0 -0.04918854
C  C3  1  0.87880000  0.46960000  0.01160000  1.0 0.0276260672
C  C4  1  0.88040000  0.27060000  0.87680000  1.0 0.5714801572
C  C5  1  0.19250000  0.25870000  0.97540000  1.0 -0.0276972622
C  C6  1  0.86250000  0.52120000  0.91530000  1.0 0.0033343087
C  C7  1  0.86860000  0.53200000  0.00680000  1.0 -0.1500048914
C  C8  1  0.87640000  0.27140000  0.81920000  1.0 -0.0106312926
C  C9  1  0.25390000  0.30770000  0.96990000  1.0 -0.189847985
C  C10  1  0.23690000  0.19970000  0.97920000  1.0 -0.1024224498
C  C11  1  0.86040000  0.55730000  0.95970000  1.0 -0.106808799
C  C12  1  0.85190000  0.54500000  0.86320000  1.0 0.0623810825
C  C13  1  0.86920000  0.21880000  0.79200000  1.0 -0.1399932154
C  C14  1  0.88460000  0.32710000  0.79300000  1.0 -0.1295068552
C  C15  1  0.36090000  0.30170000  0.96770000  1.0 0.0733092728
C  C16  1  0.33820000  0.19270000  0.97830000  1.0 -0.1399932154
C  C17  1  0.89720000  0.60230000  0.85070000  1.0 -0.1024224498
C  C18  1  0.80250000  0.51160000  0.82500000  1.0 -0.0596040702
C  C19  1  0.86810000  0.21790000  0.73800000  1.0 0.0896482655
C  C20  1  0.87930000  0.32760000  0.74080000  1.0 -0.1500048914
C  C21  1  0.40400000  0.24210000  0.97280000  1.0 0.0824094422
C  C22  1  0.42890000  0.35100000  0.96230000  1.0 -0.1631816175
C  C23  1  0.88690000  0.62500000  0.79880000  1.0 -0.1295068552
C  C24  1  0.78910000  0.53520000  0.77470000  1.0 -0.069285073
C  C25  1  0.87630000  0.27400000  0.71190000  1.0 0.0824094422
C  C26  1  0.86200000  0.16420000  0.70870000  1.0 -0.1295068552
C  C27  1  0.51270000  0.23540000  0.97290000  1.0 -0.1631816175
C  C28  1  0.53140000  0.34330000  0.96220000  1.0 -0.1024224498
C  C29  1  0.83310000  0.59210000  0.76210000  1.0 0.1206519404
C  C30  1  0.87950000  0.27370000  0.65780000  1.0 -0.1676104531
C  C31  1  0.86770000  0.16550000  0.65680000  1.0 -0.106808799
C  C32  1  0.57380000  0.28590000  0.96830000  1.0 -0.017223721
C  C33  1  0.87570000  0.22010000  0.63140000  1.0 -0.0106312926
C  C34  1  0.68810000  0.27790000  0.97090000  1.0 0.5804840348
C  C35  1  0.82070000  0.68130000  0.70730000  1.0 0.1005879911
C  C36  1  0.83300000  0.57970000  0.66830000  1.0 0.1206519404
C  C37  1  0.88170000  0.22100000  0.57420000  1.0 0.5804840348
C  C38  1  0.78290000  0.71720000  0.67050000  1.0 0.0033343087
C  C39  1  0.87280000  0.71850000  0.75010000  1.0 -0.1781755496
C  C40  1  0.89050000  0.52430000  0.66810000  1.0 -0.079403904
C  C41  1  0.76630000  0.58930000  0.62460000  1.0 -0.1024224498
C  C42  1  0.79030000  0.77970000  0.66650000  1.0 -0.0036633435
C  C43  1  0.87650000  0.78200000  0.74720000  1.0 -0.1995028533
C  C44  1  0.89750000  0.49030000  0.62290000  1.0 -0.122845452
C  C45  1  0.78020000  0.55690000  0.58070000  1.0 -0.069285073
C  C46  1  0.84420000  0.81080000  0.70330000  1.0 0.0623810825
C  C47  1  0.84810000  0.51110000  0.57820000  1.0 0.0458957873
C  C48  1  0.85650000  0.87790000  0.69720000  1.0 0.0203374525
C  C49  1  0.85920000  0.47930000  0.52900000  1.0 0.0146024407
C  C50  1  0.86580000  0.41630000  0.52530000  1.0 -0.017223721
C  C51  1  0.87180000  0.41750000  0.43710000  1.0 0.0733092728
C  C52  1  0.86180000  0.91750000  0.73960000  1.0 -0.1676104531
C  C53  1  0.87700000  0.90510000  0.64670000  1.0 -0.0907867129
C  C54  1  0.85420000  0.51230000  0.48310000  1.0 -0.122845452
C  C55  1  0.86300000  0.48140000  0.43660000  1.0 -0.1399932154
C  C56  1  0.89520000  0.96160000  0.64360000  1.0 -0.0596040702
C  C57  1  0.89980000  0.99740000  0.68290000  1.0 -0.0391938243
C  C58  1  0.87470000  0.79200000  0.16700000  1.0 -0.1676104531
C  C59  1  0.89670000  0.89360000  0.12960000  1.0 -0.189847985
C  C60  1  0.86630000  0.73120000  0.15910000  1.0 -0.0276972622
C  C61  1  0.90630000  0.92630000  0.08570000  1.0 -0.1295068552
C  C62  1  0.91160000  0.97590000  0.32310000  1.0 -0.1024224498
C  C63  1  0.90230000  0.95370000  0.27490000  1.0 -0.0907867129
C  C64  1  0.77010000  0.88640000  0.29970000  1.0 -0.069285073
C  C65  1  0.79870000  0.97250000  0.16330000  1.0 -0.0276972622
C  C66  1  0.77150000  0.91130000  0.34900000  1.0 -0.0596040702
C  C67  1  0.75130000  0.78750000  0.23100000  1.0 -0.069285073
C  C68  1  0.74180000  0.72400000  0.22270000  1.0 -0.0391938243
C  C69  1  0.79300000  0.69500000  0.18530000  1.0 0.0203374525
C  C70  1  0.67800000  0.60210000  0.17510000  1.0 -0.122845452
C  C71  1  0.77280000  0.63000000  0.17280000  1.0 0.0203374525
C  C72  1  0.85570000  0.59700000  0.15620000  1.0 -0.079403904
C  C73  1  0.84370000  0.53600000  0.14200000  1.0 0.0276260672
C  C74  1  0.74880000  0.50810000  0.14440000  1.0 -0.1500048914
C  C75  1  0.79880000  0.00640000  0.11910000  1.0 -0.0391938243
C  C76  1  0.07960000  0.23380000  0.47710000  1.0 0.5804840348
C  C77  1  0.87490000  0.04110000  0.42390000  1.0 -0.04918854
C  C78  1  0.87880000  0.03040000  0.51160000  1.0 0.0276260672
C  C79  1  0.88040000  0.22940000  0.37680000  1.0 0.5714801572
C  C80  1  0.19250000  0.24130000  0.47540000  1.0 -0.0276972622
C  C81  1  0.86250000  0.97880000  0.41530000  1.0 0.0033343087
C  C82  1  0.86860000  0.96800000  0.50680000  1.0 -0.1500048914
C  C83  1  0.87640000  0.22860000  0.31920000  1.0 -0.0106312926
C  C84  1  0.25390000  0.19230000  0.46990000  1.0 -0.189847985
C  C85  1  0.23690000  0.30030000  0.47920000  1.0 -0.1024224498
C  C86  1  0.86040000  0.94270000  0.45970000  1.0 -0.106808799
C  C87  1  0.85190000  0.95500000  0.36320000  1.0 0.0623810825
C  C88  1  0.86920000  0.28120000  0.29200000  1.0 -0.1399932154
C  C89  1  0.88460000  0.17290000  0.29300000  1.0 -0.1295068552
C  C90  1  0.36090000  0.19830000  0.46770000  1.0 0.0733092728
C  C91  1  0.33820000  0.30730000  0.47830000  1.0 -0.1399932154
C  C92  1  0.89720000  0.89770000  0.35070000  1.0 -0.1024224498
C  C93  1  0.80250000  0.98840000  0.32500000  1.0 -0.0596040702
C  C94  1  0.86810000  0.28210000  0.23800000  1.0 0.0896482655
C  C95  1  0.87930000  0.17240000  0.24080000  1.0 -0.1500048914
C  C96  1  0.40400000  0.25790000  0.47280000  1.0 0.0824094422
C  C97  1  0.42890000  0.14900000  0.46230000  1.0 -0.1631816175
C  C98  1  0.88690000  0.87500000  0.29880000  1.0 -0.1295068552
C  C99  1  0.78910000  0.96480000  0.27470000  1.0 -0.069285073
C  C100  1  0.87630000  0.22600000  0.21190000  1.0 0.0824094422
C  C101  1  0.86200000  0.33580000  0.20870000  1.0 -0.1295068552
C  C102  1  0.51270000  0.26460000  0.47290000  1.0 -0.1631816175
C  C103  1  0.53140000  0.15670000  0.46220000  1.0 -0.1024224498
C  C104  1  0.83310000  0.90790000  0.26210000  1.0 0.1206519404
C  C105  1  0.87950000  0.22630000  0.15780000  1.0 -0.1676104531
C  C106  1  0.86770000  0.33450000  0.15680000  1.0 -0.106808799
C  C107  1  0.57380000  0.21410000  0.46830000  1.0 -0.017223721
C  C108  1  0.87570000  0.27990000  0.13140000  1.0 -0.0106312926
C  C109  1  0.68810000  0.22210000  0.47090000  1.0 0.5804840348
C  C110  1  0.82070000  0.81870000  0.20730000  1.0 0.1005879911
C  C111  1  0.83300000  0.92030000  0.16830000  1.0 0.1206519404
C  C112  1  0.88170000  0.27900000  0.07420000  1.0 0.5804840348
C  C113  1  0.78290000  0.78280000  0.17050000  1.0 0.0033343087
C  C114  1  0.87280000  0.78150000  0.25010000  1.0 -0.1781755496
C  C115  1  0.89050000  0.97570000  0.16810000  1.0 -0.079403904
C  C116  1  0.76630000  0.91070000  0.12460000  1.0 -0.1024224498
C  C117  1  0.79030000  0.72030000  0.16650000  1.0 -0.0036633435
C  C118  1  0.87650000  0.71800000  0.24720000  1.0 -0.1995028533
C  C119  1  0.89750000  0.00970000  0.12290000  1.0 -0.122845452
C  C120  1  0.78020000  0.94310000  0.08070000  1.0 -0.069285073
C  C121  1  0.84420000  0.68920000  0.20330000  1.0 0.0623810825
C  C122  1  0.84810000  0.98890000  0.07820000  1.0 0.0458957873
C  C123  1  0.85650000  0.62210000  0.19720000  1.0 0.0203374525
C  C124  1  0.85920000  0.02070000  0.02900000  1.0 0.0146024407
C  C125  1  0.86580000  0.08370000  0.02530000  1.0 -0.017223721
C  C126  1  0.87180000  0.08250000  0.93710000  1.0 0.0733092728
C  C127  1  0.86180000  0.58250000  0.23960000  1.0 -0.1676104531
C  C128  1  0.87700000  0.59490000  0.14670000  1.0 -0.0907867129
C  C129  1  0.85420000  0.98770000  0.98310000  1.0 -0.122845452
C  C130  1  0.86300000  0.01860000  0.93660000  1.0 -0.1399932154
C  C131  1  0.89520000  0.53840000  0.14360000  1.0 -0.0596040702
C  C132  1  0.89980000  0.50260000  0.18290000  1.0 -0.0391938243
C  C133  1  0.87470000  0.70800000  0.66700000  1.0 -0.1676104531
C  C134  1  0.89670000  0.60640000  0.62960000  1.0 -0.189847985
C  C135  1  0.86630000  0.76880000  0.65910000  1.0 -0.0276972622
C  C136  1  0.90630000  0.57370000  0.58570000  1.0 -0.1399932154
C  C137  1  0.91160000  0.52410000  0.82310000  1.0 -0.1024224498
C  C138  1  0.90230000  0.54630000  0.77490000  1.0 -0.0907867129
C  C139  1  0.77010000  0.61360000  0.79970000  1.0 -0.069285073
C  C140  1  0.79870000  0.52750000  0.66330000  1.0 -0.0276972622
C  C141  1  0.77150000  0.58870000  0.84900000  1.0 -0.0596040702
C  C142  1  0.75130000  0.71250000  0.73100000  1.0 -0.069285073
C  C143  1  0.74180000  0.77600000  0.72270000  1.0 -0.0391938243
C  C144  1  0.79300000  0.80500000  0.68530000  1.0 0.0203374525
C  C145  1  0.67800000  0.89790000  0.67510000  1.0 -0.122845452
C  C146  1  0.77280000  0.87000000  0.67280000  1.0 0.0203374525
C  C147  1  0.85570000  0.90300000  0.65620000  1.0 -0.079403904
C  C148  1  0.84370000  0.96400000  0.64200000  1.0 0.0276260672
C  C149  1  0.74880000  0.99190000  0.64440000  1.0 -0.1500048914
C  C150  1  0.79880000  0.49360000  0.61910000  1.0 -0.0391938243
C  C151  1  0.92040000  0.76620000  0.52290000  1.0 0.5804840348
C  C152  1  0.12510000  0.95890000  0.57610000  1.0 -0.04918854
C  C153  1  0.12120000  0.96960000  0.48840000  1.0 0.0276260672
C  C154  1  0.11960000  0.77060000  0.62320000  1.0 0.5714801572
C  C155  1  0.80750000  0.75870000  0.52460000  1.0 -0.0276972622
C  C156  1  0.13750000  0.02120000  0.58470000  1.0 0.0033343087
C  C157  1  0.13140000  0.03200000  0.49320000  1.0 -0.1500048914
C  C158  1  0.12360000  0.77140000  0.68080000  1.0 -0.0106312926
C  C159  1  0.74610000  0.80770000  0.53010000  1.0 -0.189847985
C  C160  1  0.76310000  0.69970000  0.52080000  1.0 -0.1024224498
C  C161  1  0.13960000  0.05730000  0.54030000  1.0 -0.106808799
C  C162  1  0.14810000  0.04500000  0.63680000  1.0 0.0623810825
C  C163  1  0.13080000  0.71880000  0.70800000  1.0 -0.1399932154
C  C164  1  0.11540000  0.82710000  0.70700000  1.0 -0.1295068552
C  C165  1  0.63910000  0.80170000  0.53230000  1.0 0.0733092728
C  C166  1  0.66180000  0.69270000  0.52170000  1.0 -0.1399932154
C  C167  1  0.10280000  0.10230000  0.64930000  1.0 -0.1024224498
C  C168  1  0.19750000  0.01160000  0.67500000  1.0 -0.0596040702
C  C169  1  0.13190000  0.71790000  0.76200000  1.0 0.0896482655
C  C170  1  0.12070000  0.82760000  0.75920000  1.0 -0.1500048914
C  C171  1  0.59600000  0.74210000  0.52720000  1.0 0.0824094422
C  C172  1  0.57110000  0.85100000  0.53770000  1.0 -0.1631816175
C  C173  1  0.11310000  0.12500000  0.70120000  1.0 -0.1295068552
C  C174  1  0.21090000  0.03520000  0.72530000  1.0 -0.069285073
C  C175  1  0.12370000  0.77400000  0.78810000  1.0 0.0824094422
C  C176  1  0.13800000  0.66420000  0.79130000  1.0 -0.1295068552
C  C177  1  0.48730000  0.73540000  0.52710000  1.0 -0.1631816175
C  C178  1  0.46860000  0.84330000  0.53780000  1.0 -0.1024224498
C  C179  1  0.16690000  0.09210000  0.73790000  1.0 0.1206519404
C  C180  1  0.12050000  0.77370000  0.84220000  1.0 -0.1676104531
C  C181  1  0.13230000  0.66550000  0.84320000  1.0 -0.106808799
C  C182  1  0.42620000  0.78590000  0.53170000  1.0 -0.017223721
C  C183  1  0.12430000  0.72010000  0.86860000  1.0 -0.0106312926
C  C184  1  0.31190000  0.77790000  0.52910000  1.0 0.5804840348
C  C185  1  0.17930000  0.18130000  0.79270000  1.0 0.1005879911
C  C186  1  0.16700000  0.07970000  0.83170000  1.0 0.1206519404
C  C187  1  0.11830000  0.72100000  0.92580000  1.0 0.5804840348
C  C188  1  0.21710000  0.21720000  0.82950000  1.0 0.0033343087
C  C189  1  0.12720000  0.21850000  0.74990000  1.0 -0.1781755496
C  C190  1  0.10950000  0.02430000  0.83190000  1.0 -0.079403904
C  C191  1  0.23370000  0.08930000  0.87540000  1.0 -0.1024224498
C  C192  1  0.20970000  0.27970000  0.83350000  1.0 -0.0036633435
C  C193  1  0.12350000  0.28200000  0.75280000  1.0 -0.1995028533
C  C194  1  0.10250000  0.99030000  0.87710000  1.0 -0.122845452
C  C195  1  0.21980000  0.05690000  0.91930000  1.0 -0.069285073
C  C196  1  0.15580000  0.31080000  0.79670000  1.0 0.0623810825
C  C197  1  0.15190000  0.01110000  0.92180000  1.0 0.0458957873
C  C198  1  0.14350000  0.37790000  0.80280000  1.0 0.0203374525
C  C199  1  0.14080000  0.97930000  0.97100000  1.0 0.0146024407
C  C200  1  0.13420000  0.91630000  0.97470000  1.0 -0.017223721
C  C201  1  0.12820000  0.91750000  0.06290000  1.0 0.0733092728
C  C202  1  0.13820000  0.41750000  0.76040000  1.0 -0.1676104531
C  C203  1  0.12300000  0.40510000  0.85330000  1.0 -0.0907867129
C  C204  1  0.14580000  0.01230000  0.01690000  1.0 -0.122845452
C  C205  1  0.13700000  0.98140000  0.06340000  1.0 -0.1399932154
C  C206  1  0.10480000  0.46160000  0.85640000  1.0 -0.0596040702
C  C207  1  0.10020000  0.49740000  0.81710000  1.0 -0.0391938243
C  C208  1  0.12530000  0.29200000  0.33300000  1.0 -0.1676104531
C  C209  1  0.10330000  0.39360000  0.37040000  1.0 -0.189847985
C  C210  1  0.13370000  0.23120000  0.34090000  1.0 -0.0276972622
C  C211  1  0.09370000  0.42630000  0.41430000  1.0 -0.1399932154
C  C212  1  0.08840000  0.47590000  0.17690000  1.0 -0.1024224498
C  C213  1  0.09770000  0.45370000  0.22510000  1.0 -0.0907867129
C  C214  1  0.22990000  0.38640000  0.20030000  1.0 -0.069285073
C  C215  1  0.20130000  0.47250000  0.33670000  1.0 -0.0276972622
C  C216  1  0.22850000  0.41130000  0.15100000  1.0 -0.0596040702
C  C217  1  0.24870000  0.28750000  0.26900000  1.0 -0.069285073
C  C218  1  0.25820000  0.22400000  0.27730000  1.0 -0.0391938243
C  C219  1  0.20700000  0.19500000  0.31470000  1.0 0.0203374525
C  C220  1  0.32200000  0.10210000  0.32490000  1.0 -0.122845452
C  C221  1  0.22720000  0.13000000  0.32720000  1.0 0.0203374525
C  C222  1  0.14430000  0.09700000  0.34380000  1.0 -0.079403904
C  C223  1  0.15630000  0.03600000  0.35800000  1.0 0.0276260672
C  C224  1  0.25120000  0.00810000  0.35560000  1.0 -0.1500048914
C  C225  1  0.20120000  0.50640000  0.38090000  1.0 -0.0391938243
C  C226  1  0.92040000  0.73380000  0.02290000  1.0 0.5804840348
C  C227  1  0.12510000  0.54110000  0.07610000  1.0 -0.04918854
C  C228  1  0.12120000  0.53040000  0.98840000  1.0 0.0276260672
C  C229  1  0.11960000  0.72940000  0.12320000  1.0 0.5714801572
C  C230  1  0.80750000  0.74130000  0.02460000  1.0 -0.0276972622
C  C231  1  0.13750000  0.47880000  0.08470000  1.0 0.0033343087
C  C232  1  0.13140000  0.46800000  0.99320000  1.0 -0.1500048914
C  C233  1  0.12360000  0.72860000  0.18080000  1.0 -0.0106312926
C  C234  1  0.74610000  0.69230000  0.03010000  1.0 -0.189847985
C  C235  1  0.76310000  0.80030000  0.02080000  1.0 -0.1024224498
C  C236  1  0.13960000  0.44270000  0.04030000  1.0 -0.106808799
C  C237  1  0.14810000  0.45500000  0.13680000  1.0 0.0623810825
C  C238  1  0.13080000  0.78120000  0.20800000  1.0 -0.1399932154
C  C239  1  0.11540000  0.67290000  0.20700000  1.0 -0.1295068552
C  C240  1  0.63910000  0.69830000  0.03230000  1.0 0.0733092728
C  C241  1  0.66180000  0.80730000  0.02170000  1.0 -0.1399932154
C  C242  1  0.10280000  0.39770000  0.14930000  1.0 -0.1024224498
C  C243  1  0.19750000  0.48840000  0.17500000  1.0 -0.0596040702
C  C244  1  0.13190000  0.78210000  0.26200000  1.0 0.0896482655
C  C245  1  0.12070000  0.67240000  0.25920000  1.0 -0.1500048914
C  C246  1  0.59600000  0.75790000  0.02720000  1.0 0.0824094422
C  C247  1  0.57110000  0.64900000  0.03770000  1.0 -0.1631816175
C  C248  1  0.11310000  0.37500000  0.20120000  1.0 -0.1295068552
C  C249  1  0.21090000  0.46480000  0.22530000  1.0 -0.069285073
C  C250  1  0.12370000  0.72600000  0.28810000  1.0 0.0824094422
C  C251  1  0.13800000  0.83580000  0.29130000  1.0 -0.1295068552
C  C252  1  0.48730000  0.76460000  0.02710000  1.0 -0.1631816175
C  C253  1  0.46860000  0.65670000  0.03780000  1.0 -0.1024224498
C  C254  1  0.16690000  0.40790000  0.23790000  1.0 0.1084454537
C  C255  1  0.12050000  0.72630000  0.34220000  1.0 -0.1676104531
C  C256  1  0.13230000  0.83450000  0.34320000  1.0 -0.106808799
C  C257  1  0.42620000  0.71410000  0.03170000  1.0 -0.017223721
C  C258  1  0.12430000  0.77990000  0.36860000  1.0 -0.0106312926
C  C259  1  0.31190000  0.72210000  0.02910000  1.0 0.5804840348
C  C260  1  0.17930000  0.31870000  0.29270000  1.0 0.1005879911
C  C261  1  0.16700000  0.42030000  0.33170000  1.0 0.1206519404
C  C262  1  0.11830000  0.77900000  0.42580000  1.0 0.5804840348
C  C263  1  0.21710000  0.28280000  0.32950000  1.0 0.0033343087
C  C264  1  0.12720000  0.28150000  0.24990000  1.0 -0.1781755496
C  C265  1  0.10950000  0.47570000  0.33190000  1.0 -0.079403904
C  C266  1  0.23370000  0.41070000  0.37540000  1.0 -0.1024224498
C  C267  1  0.20970000  0.22030000  0.33350000  1.0 -0.0036633435
C  C268  1  0.12350000  0.21800000  0.25280000  1.0 -0.1995028533
C  C269  1  0.10250000  0.50970000  0.37710000  1.0 -0.122845452
C  C270  1  0.21980000  0.44310000  0.41930000  1.0 -0.069285073
C  C271  1  0.15580000  0.18920000  0.29670000  1.0 0.0623810825
C  C272  1  0.15190000  0.48890000  0.42180000  1.0 0.0458957873
C  C273  1  0.14350000  0.12210000  0.30280000  1.0 0.0203374525
C  C274  1  0.14080000  0.52070000  0.47100000  1.0 0.0146024407
C  C275  1  0.13420000  0.58370000  0.47470000  1.0 -0.017223721
C  C276  1  0.12820000  0.58250000  0.56290000  1.0 0.0733092728
C  C277  1  0.13820000  0.08250000  0.26040000  1.0 -0.1676104531
C  C278  1  0.12300000  0.09490000  0.35330000  1.0 -0.0907867129
C  C279  1  0.14580000  0.48770000  0.51690000  1.0 -0.122845452
C  C280  1  0.13700000  0.51860000  0.56340000  1.0 -0.1399932154
C  C281  1  0.10480000  0.03840000  0.35640000  1.0 -0.0596040702
C  C282  1  0.10020000  0.00260000  0.31710000  1.0 -0.0391938243
C  C283  1  0.12530000  0.20800000  0.83300000  1.0 -0.1676104531
C  C284  1  0.10330000  0.10640000  0.87040000  1.0 -0.189847985
C  C285  1  0.13370000  0.26880000  0.84090000  1.0 -0.0276972622
C  C286  1  0.09370000  0.07370000  0.91430000  1.0 -0.1399932154
C  C287  1  0.08840000  0.02410000  0.67690000  1.0 -0.1024224498
C  C288  1  0.09770000  0.04630000  0.72510000  1.0 -0.0907867129
C  C289  1  0.22990000  0.11360000  0.70030000  1.0 -0.069285073
C  C290  1  0.20130000  0.02750000  0.83670000  1.0 -0.0276972622
C  C291  1  0.22850000  0.08870000  0.65100000  1.0 -0.0596040702
C  C292  1  0.24870000  0.21250000  0.76900000  1.0 -0.069285073
C  C293  1  0.25820000  0.27600000  0.77730000  1.0 -0.0391938243
C  C294  1  0.20700000  0.30500000  0.81470000  1.0 0.0203374525
C  C295  1  0.32200000  0.39790000  0.82490000  1.0 -0.122845452
C  C296  1  0.22720000  0.37000000  0.82720000  1.0 0.0203374525
C  C297  1  0.14430000  0.40300000  0.84380000  1.0 -0.079403904
C  C298  1  0.15630000  0.46400000  0.85800000  1.0 0.0276260672
C  C299  1  0.25120000  0.49190000  0.85560000  1.0 -0.1500048914
C  C300  1  0.20120000  0.99360000  0.88090000  1.0 -0.0391938243
N  N1  1  0.88460000  0.43370000  0.97074000  1.0 -0.2137363084
N  N2  1  0.86710000  0.11440000  0.98010000  1.0 -0.2151374795
N  N3  1  0.82620000  0.61660000  0.71290000  1.0 -0.2520133347
N  N4  1  0.88440000  0.97980000  0.73250000  1.0 -0.229761263
N  N5  1  0.66600000  0.54110000  0.16090000  1.0 -0.1781755496
N  N6  1  0.88460000  0.06630000  0.47074000  1.0 -0.2137363084
N  N7  1  0.86710000  0.38560000  0.48010000  1.0 -0.2151374795
N  N8  1  0.82620000  0.88340000  0.21290000  1.0 -0.2520133347
N  N9  1  0.88440000  0.52020000  0.23250000  1.0 -0.229761263
N  N10  1  0.66600000  0.95890000  0.66090000  1.0 -0.1781755496
N  N11  1  0.11540000  0.93370000  0.52926000  1.0 -0.2137363084
N  N12  1  0.13290000  0.61440000  0.51990000  1.0 -0.2151374795
N  N13  1  0.17380000  0.11660000  0.78710000  1.0 -0.2520133347
N  N14  1  0.11560000  0.47980000  0.76750000  1.0 -0.229761263
N  N15  1  0.33400000  0.04110000  0.33910000  1.0 -0.1781755496
N  N16  1  0.11540000  0.56630000  0.02926000  1.0 -0.2137363084
N  N17  1  0.13290000  0.88560000  0.01990000  1.0 -0.2151374795
N  N18  1  0.17380000  0.38340000  0.28710000  1.0 -0.2520133347
N  N19  1  0.11560000  0.02020000  0.26750000  1.0 -0.229761263
N  N20  1  0.33400000  0.45890000  0.83910000  1.0 -0.1781755496
O  O1  1  0.04400000  0.32000000  0.97708000  1.0 -0.5460094937
O  O2  1  0.89110000  0.32990000  0.05252000  1.0 -0.5400091269
O  O3  1  0.89150000  0.32080000  0.89943000  1.0 -0.5400091269
O  O4  1  0.73870000  0.32530000  0.97100000  1.0 -0.5276278384
O  O5  1  0.02710000  0.21790000  0.97780000  1.0 -0.5400091269
O  O6  1  0.87820000  0.22770000  0.05250000  1.0 -0.5400091269
O  O7  1  0.87340000  0.21960000  0.89917000  1.0 -0.5400091269
O  O8  1  0.72380000  0.22570000  0.97340000  1.0 -0.5193212457
O  O9  1  0.04400000  0.18000000  0.47708000  1.0 -0.5460094937
O  O10  1  0.89110000  0.17010000  0.55252000  1.0 -0.5400091269
O  O11  1  0.89150000  0.17920000  0.39943000  1.0 -0.5400091269
O  O12  1  0.73870000  0.17470000  0.47100000  1.0 -0.5276278384
O  O13  1  0.02710000  0.28210000  0.47780000  1.0 -0.5400091269
O  O14  1  0.87820000  0.27230000  0.55250000  1.0 -0.5400091269
O  O15  1  0.87340000  0.28040000  0.39917000  1.0 -0.5400091269
O  O16  1  0.72380000  0.27430000  0.47340000  1.0 -0.5193212457
O  O17  1  0.95600000  0.82000000  0.52292000  1.0 -0.5460094937
O  O18  1  0.10890000  0.82990000  0.44748000  1.0 -0.5400091269
O  O19  1  0.10850000  0.82080000  0.60057000  1.0 -0.5400091269
O  O20  1  0.26130000  0.82530000  0.52900000  1.0 -0.5276278384
O  O21  1  0.97290000  0.71790000  0.52220000  1.0 -0.5400091269
O  O22  1  0.12180000  0.72770000  0.44750000  1.0 -0.5400091269
O  O23  1  0.12660000  0.71960000  0.60083000  1.0 -0.5400091269
O  O24  1  0.27620000  0.72570000  0.52660000  1.0 -0.5193212457
O  O25  1  0.95600000  0.68000000  0.02292000  1.0 -0.5460094937
O  O26  1  0.10890000  0.67010000  0.94748000  1.0 -0.5400091269
O  O27  1  0.10850000  0.67920000  0.10057000  1.0 -0.5400091269
O  O28  1  0.26130000  0.67470000  0.02900000  1.0 -0.5276278384
O  O29  1  0.97290000  0.78210000  0.02220000  1.0 -0.5400091269
O  O30  1  0.12180000  0.77230000  0.94750000  1.0 -0.5400091269
O  O31  1  0.12660000  0.78040000  0.10083000  1.0 -0.5400091269
O  O32  1  0.27620000  0.77430000  0.02660000  1.0 -0.5193212457
