# DDEC6 charges by PACMAN v1.1 (https://github.com/mtap-research/PACMAN-charge/)
data_CDLGLU02_ASR_pacman
_symmetry_space_group_name_H-M   'P 1'
_cell_length_a   7.24700000
_cell_length_b   10.71800000
_cell_length_c   11.54500000
_cell_angle_alpha   90.00000000
_cell_angle_beta   90.00000000
_cell_angle_gamma   90.00000000
_symmetry_Int_Tables_number   1
_chemical_formula_structural   CdH7C5NO4
_chemical_formula_sum   'Cd4 H28 C20 N4 O16'
_cell_volume   896.73877957
_cell_formula_units_Z   4
loop_
 _symmetry_equiv_pos_site_id
 _symmetry_equiv_pos_as_xyz
  1  'x, y, z'
loop_
 _atom_site_type_symbol
 _atom_site_label
 _atom_site_symmetry_multiplicity
 _atom_site_fract_x
 _atom_site_fract_y
 _atom_site_fract_z
 _atom_site_occupancy
 _atom_site_charge
Cd  Cd1  1  0.61120000  0.43390000  0.46010000  1.0 0.8677808987
Cd  Cd2  1  0.88880000  0.56610000  0.96010000  1.0 0.7873899685
Cd  Cd3  1  0.38880000  0.93390000  0.03990000  1.0 0.7845235812
Cd  Cd4  1  0.11120000  0.06610000  0.53990000  1.0 0.8502456294
H  H1  1  0.16445000  0.28888000  0.26050000  1.0 0.1007799932
H  H2  1  0.84773000  0.24861000  0.17611000  1.0 0.1007799932
H  H3  1  0.72441000  0.10737000  0.34515000  1.0 0.1266118782
H  H4  1  0.33555000  0.71112000  0.76050000  1.0 0.0908670159
H  H5  1  0.48468000  0.87612000  0.63706000  1.0 0.1007799932
H  H6  1  0.65227000  0.75139000  0.67611000  1.0 0.0908670159
H  H7  1  0.77559000  0.89263000  0.84515000  1.0 0.1199164834
H  H8  1  0.83555000  0.78888000  0.23950000  1.0 0.0908670159
H  H9  1  0.15227000  0.74861000  0.32389000  1.0 0.0908670159
H  H10  1  0.27559000  0.60737000  0.15485000  1.0 0.1199164834
H  H11  1  0.11460000  0.48170000  0.20205000  1.0 0.1007799932
H  H12  1  0.66445000  0.21112000  0.73950000  1.0 0.0908670159
H  H13  1  0.51532000  0.37612000  0.86294000  1.0 0.1007799932
H  H14  1  0.34773000  0.25139000  0.82389000  1.0 0.1007799932
H  H15  1  0.22441000  0.39263000  0.65485000  1.0 0.1199164834
H  H16  1  0.38540000  0.51830000  0.70205000  1.0 0.1007799932
H  H17  1  0.61460000  0.01830000  0.79795000  1.0 0.1007799932
H  H18  1  0.01532000  0.12388000  0.13706000  1.0 0.1007799932
H  H19  1  0.98468000  0.62388000  0.36294000  1.0 0.1007799932
H  H20  1  0.88540000  0.98170000  0.29795000  1.0 0.1007799932
H  H21  1  0.19398000  0.03103000  0.32106000  1.0 0.2715750979
H  H22  1  0.27316000  0.15209000  0.43345000  1.0 0.2249997752
H  H23  1  0.16088000  0.87004000  0.84160000  1.0 0.2862014817
H  H24  1  0.37199000  0.94685000  0.91291000  1.0 0.1963910805
H  H25  1  0.87199000  0.55315000  0.08709000  1.0 0.1963910805
H  H26  1  0.66088000  0.62996000  0.15840000  1.0 0.2862014817
H  H27  1  0.82151000  0.34438000  0.60409000  1.0 0.2829514192
H  H28  1  0.64562000  0.47251000  0.64141000  1.0 0.2427137392
C  C1  1  0.97000000  0.28600000  0.39900000  1.0 0.5718171643
C  C2  1  0.07100000  0.21800000  0.30500000  1.0 0.0364430743
C  C3  1  0.93400000  0.16800000  0.21100000  1.0 -0.1480777664
C  C4  1  0.80000000  0.06500000  0.26800000  1.0 -0.2793359337
C  C5  1  0.66200000  0.02400000  0.17800000  1.0 0.5971388764
C  C6  1  0.53000000  0.71400000  0.89900000  1.0 0.5718171643
C  C7  1  0.42900000  0.78200000  0.80500000  1.0 0.0364430743
C  C8  1  0.56600000  0.83200000  0.71100000  1.0 -0.1404856
C  C9  1  0.70000000  0.93500000  0.76800000  1.0 -0.2793359337
C  C10  1  0.83800000  0.97600000  0.67800000  1.0 0.5937661873
C  C11  1  0.03000000  0.78600000  0.10100000  1.0 0.5718171643
C  C12  1  0.92900000  0.71800000  0.19500000  1.0 0.0364430743
C  C13  1  0.06600000  0.66800000  0.28900000  1.0 -0.1404856
C  C14  1  0.20000000  0.56500000  0.23200000  1.0 -0.2793359337
C  C15  1  0.33800000  0.52400000  0.32200000  1.0 0.5971388764
C  C16  1  0.47000000  0.21400000  0.60100000  1.0 0.5718171643
C  C17  1  0.57100000  0.28200000  0.69500000  1.0 0.0364430743
C  C18  1  0.43400000  0.33200000  0.78900000  1.0 -0.1404856
C  C19  1  0.30000000  0.43500000  0.73200000  1.0 -0.2793359337
C  C20  1  0.16200000  0.47600000  0.82200000  1.0 0.5971388764
N  N1  1  0.18800000  0.12700000  0.35700000  1.0 -0.5164825572
N  N2  1  0.31200000  0.87300000  0.85700000  1.0 -0.5277480734
N  N3  1  0.81200000  0.62700000  0.14300000  1.0 -0.5277480734
N  N4  1  0.68800000  0.37300000  0.64300000  1.0 -0.5164825572
O  O1  1  0.96900000  0.25100000  0.50300000  1.0 -0.5062531484
O  O2  1  0.86600000  0.38200000  0.36300000  1.0 -0.5487522138
O  O3  1  0.52100000  0.95800000  0.21400000  1.0 -0.539860532
O  O4  1  0.68100000  0.03800000  0.07400000  1.0 -0.4989355287
O  O5  1  0.53100000  0.74900000  0.00300000  1.0 -0.4989355287
O  O6  1  0.63400000  0.61800000  0.86300000  1.0 -0.539860532
O  O7  1  0.97900000  0.04200000  0.71400000  1.0 -0.5487522138
O  O8  1  0.81900000  0.96200000  0.57400000  1.0 -0.4989355287
O  O9  1  0.03100000  0.75100000  0.99700000  1.0 -0.4989355287
O  O10  1  0.13400000  0.88200000  0.13700000  1.0 -0.5561334742
O  O11  1  0.47900000  0.45800000  0.28600000  1.0 -0.5487522138
O  O12  1  0.31900000  0.53800000  0.42600000  1.0 -0.4989355287
O  O13  1  0.46900000  0.24900000  0.49700000  1.0 -0.4989355287
O  O14  1  0.36600000  0.11800000  0.63700000  1.0 -0.5487522138
O  O15  1  0.02100000  0.54200000  0.78600000  1.0 -0.539860532
O  O16  1  0.18100000  0.46200000  0.92600000  1.0 -0.4989355287
