# DDEC6 charges by PACMAN v1.1 (https://github.com/mtap-research/PACMAN-charge/)
data_CECVAI_ASR_pacman
_symmetry_space_group_name_H-M   'P 1'
_cell_length_a   22.38690000
_cell_length_b   22.38690000
_cell_length_c   22.38690000
_cell_angle_alpha   90.00000000
_cell_angle_beta   90.00000000
_cell_angle_gamma   90.00000000
_symmetry_Int_Tables_number   1
_chemical_formula_structural   Cu6H54C53(N5O7)3
_chemical_formula_sum   'Cu24 H216 C212 N60 O84'
_cell_volume   11219.71636194
_cell_formula_units_Z   4
loop_
 _symmetry_equiv_pos_site_id
 _symmetry_equiv_pos_as_xyz
  1  'x, y, z'
loop_
 _atom_site_type_symbol
 _atom_site_label
 _atom_site_symmetry_multiplicity
 _atom_site_fract_x
 _atom_site_fract_y
 _atom_site_fract_z
 _atom_site_occupancy
 _atom_site_charge
Cu  Cu1  1  0.66246000  0.91738000  0.25592000  1.0 0.721896402
Cu  Cu2  1  0.83754000  0.08262000  0.75592000  1.0 0.721896402
Cu  Cu3  1  0.33754000  0.41738000  0.24408000  1.0 0.721896402
Cu  Cu4  1  0.16246000  0.58262000  0.74408000  1.0 0.721896402
Cu  Cu5  1  0.25592000  0.66246000  0.91738000  1.0 0.721896402
Cu  Cu6  1  0.75592000  0.83754000  0.08262000  1.0 0.721896402
Cu  Cu7  1  0.24408000  0.33754000  0.41738000  1.0 0.721896402
Cu  Cu8  1  0.74408000  0.16246000  0.58262000  1.0 0.721896402
Cu  Cu9  1  0.91738000  0.25592000  0.66246000  1.0 0.721896402
Cu  Cu10  1  0.08262000  0.75592000  0.83754000  1.0 0.721896402
Cu  Cu11  1  0.41738000  0.24408000  0.33754000  1.0 0.721896402
Cu  Cu12  1  0.58262000  0.74408000  0.16246000  1.0 0.721896402
Cu  Cu13  1  0.66999000  0.04081000  0.29468000  1.0 0.732114014
Cu  Cu14  1  0.83001000  0.95919000  0.79468000  1.0 0.732114014
Cu  Cu15  1  0.33001000  0.54081000  0.20532000  1.0 0.732114014
Cu  Cu16  1  0.16999000  0.45919000  0.70532000  1.0 0.732114014
Cu  Cu17  1  0.29468000  0.66999000  0.04081000  1.0 0.732114014
Cu  Cu18  1  0.79468000  0.83001000  0.95919000  1.0 0.732114014
Cu  Cu19  1  0.20532000  0.33001000  0.54081000  1.0 0.732114014
Cu  Cu20  1  0.70532000  0.16999000  0.45919000  1.0 0.732114014
Cu  Cu21  1  0.04081000  0.29468000  0.66999000  1.0 0.732114014
Cu  Cu22  1  0.95919000  0.79468000  0.83001000  1.0 0.732114014
Cu  Cu23  1  0.54081000  0.20532000  0.33001000  1.0 0.732114014
Cu  Cu24  1  0.45919000  0.70532000  0.16999000  1.0 0.732114014
H  H1  1  0.37520000  0.93200000  0.41080000  1.0 0.3665573679
H  H2  1  0.12480000  0.06800000  0.91080000  1.0 0.3665573679
H  H3  1  0.62480000  0.43200000  0.08920000  1.0 0.3665573679
H  H4  1  0.87520000  0.56800000  0.58920000  1.0 0.3665573679
H  H5  1  0.41080000  0.37520000  0.93200000  1.0 0.3665573679
H  H6  1  0.91080000  0.12480000  0.06800000  1.0 0.3665573679
H  H7  1  0.08920000  0.62480000  0.43200000  1.0 0.3665573679
H  H8  1  0.58920000  0.87520000  0.56800000  1.0 0.3665573679
H  H9  1  0.93200000  0.41080000  0.37520000  1.0 0.3665573679
H  H10  1  0.06800000  0.91080000  0.12480000  1.0 0.3665573679
H  H11  1  0.43200000  0.08920000  0.62480000  1.0 0.3665573679
H  H12  1  0.56800000  0.58920000  0.87520000  1.0 0.3665573679
H  H13  1  0.53030000  0.81330000  0.26100000  1.0 0.1103569835
H  H14  1  0.96970000  0.18670000  0.76100000  1.0 0.1103569835
H  H15  1  0.46970000  0.31330000  0.23900000  1.0 0.1103569835
H  H16  1  0.03030000  0.68670000  0.73900000  1.0 0.1103569835
H  H17  1  0.26100000  0.53030000  0.81330000  1.0 0.1103569835
H  H18  1  0.76100000  0.96970000  0.18670000  1.0 0.1103569835
H  H19  1  0.23900000  0.46970000  0.31330000  1.0 0.1103569835
H  H20  1  0.73900000  0.03030000  0.68670000  1.0 0.1103569835
H  H21  1  0.81330000  0.26100000  0.53030000  1.0 0.1103569835
H  H22  1  0.18670000  0.76100000  0.96970000  1.0 0.1103569835
H  H23  1  0.31330000  0.23900000  0.46970000  1.0 0.1103569835
H  H24  1  0.68670000  0.73900000  0.03030000  1.0 0.1103569835
H  H25  1  0.55430000  0.01090000  0.39010000  1.0 0.1291846764
H  H26  1  0.94570000  0.98910000  0.89010000  1.0 0.1291846764
H  H27  1  0.44570000  0.51090000  0.10990000  1.0 0.1291846764
H  H28  1  0.05430000  0.48910000  0.60990000  1.0 0.1291846764
H  H29  1  0.39010000  0.55430000  0.01090000  1.0 0.1291846764
H  H30  1  0.89010000  0.94570000  0.98910000  1.0 0.1291846764
H  H31  1  0.10990000  0.44570000  0.51090000  1.0 0.1291846764
H  H32  1  0.60990000  0.05430000  0.48910000  1.0 0.1291846764
H  H33  1  0.01090000  0.39010000  0.55430000  1.0 0.1291846764
H  H34  1  0.98910000  0.89010000  0.94570000  1.0 0.1291846764
H  H35  1  0.51090000  0.10990000  0.44570000  1.0 0.1291846764
H  H36  1  0.48910000  0.60990000  0.05430000  1.0 0.1291846764
H  H37  1  0.45890000  0.98990000  0.42550000  1.0 0.1291846764
H  H38  1  0.04110000  0.01010000  0.92550000  1.0 0.1291846764
H  H39  1  0.54110000  0.48990000  0.07450000  1.0 0.1291846764
H  H40  1  0.95890000  0.51010000  0.57450000  1.0 0.1291846764
H  H41  1  0.42550000  0.45890000  0.98990000  1.0 0.1291846764
H  H42  1  0.92550000  0.04110000  0.01010000  1.0 0.1291846764
H  H43  1  0.07450000  0.54110000  0.48990000  1.0 0.1291846764
H  H44  1  0.57450000  0.95890000  0.51010000  1.0 0.1291846764
H  H45  1  0.98990000  0.42550000  0.45890000  1.0 0.1291846764
H  H46  1  0.01010000  0.92550000  0.04110000  1.0 0.1291846764
H  H47  1  0.48990000  0.07450000  0.54110000  1.0 0.1291846764
H  H48  1  0.51010000  0.57450000  0.95890000  1.0 0.1291846764
H  H49  1  0.45490000  0.84090000  0.32700000  1.0 0.1402105858
H  H50  1  0.04510000  0.15910000  0.82700000  1.0 0.1402105858
H  H51  1  0.54510000  0.34090000  0.17300000  1.0 0.1402105858
H  H52  1  0.95490000  0.65910000  0.67300000  1.0 0.1402105858
H  H53  1  0.32700000  0.45490000  0.84090000  1.0 0.1402105858
H  H54  1  0.82700000  0.04510000  0.15910000  1.0 0.1402105858
H  H55  1  0.17300000  0.54510000  0.34090000  1.0 0.1402105858
H  H56  1  0.67300000  0.95490000  0.65910000  1.0 0.1402105858
H  H57  1  0.84090000  0.32700000  0.45490000  1.0 0.1402105858
H  H58  1  0.15910000  0.82700000  0.04510000  1.0 0.1402105858
H  H59  1  0.34090000  0.17300000  0.54510000  1.0 0.1402105858
H  H60  1  0.65910000  0.67300000  0.95490000  1.0 0.1402105858
H  H61  1  0.90820000  0.92070000  0.46100000  1.0 0.3529506296
H  H62  1  0.59180000  0.07930000  0.96100000  1.0 0.3529506296
H  H63  1  0.09180000  0.42070000  0.03900000  1.0 0.3529506296
H  H64  1  0.40820000  0.57930000  0.53900000  1.0 0.3529506296
H  H65  1  0.46100000  0.90820000  0.92070000  1.0 0.3529506296
H  H66  1  0.96100000  0.59180000  0.07930000  1.0 0.3529506296
H  H67  1  0.03900000  0.09180000  0.42070000  1.0 0.3529506296
H  H68  1  0.53900000  0.40820000  0.57930000  1.0 0.3529506296
H  H69  1  0.92070000  0.46100000  0.90820000  1.0 0.3529506296
H  H70  1  0.07930000  0.96100000  0.59180000  1.0 0.3529506296
H  H71  1  0.42070000  0.03900000  0.09180000  1.0 0.3529506296
H  H72  1  0.57930000  0.53900000  0.40820000  1.0 0.3529506296
H  H73  1  0.76320000  0.05410000  0.43430000  1.0 0.1217577924
H  H74  1  0.73680000  0.94590000  0.93430000  1.0 0.1217577924
H  H75  1  0.23680000  0.55410000  0.06570000  1.0 0.1217577924
H  H76  1  0.26320000  0.44590000  0.56570000  1.0 0.1217577924
H  H77  1  0.43430000  0.76320000  0.05410000  1.0 0.1217577924
H  H78  1  0.93430000  0.73680000  0.94590000  1.0 0.1217577924
H  H79  1  0.06570000  0.23680000  0.55410000  1.0 0.1217577924
H  H80  1  0.56570000  0.26320000  0.44590000  1.0 0.1217577924
H  H81  1  0.05410000  0.43430000  0.76320000  1.0 0.1217577924
H  H82  1  0.94590000  0.93430000  0.73680000  1.0 0.1217577924
H  H83  1  0.55410000  0.06570000  0.23680000  1.0 0.1217577924
H  H84  1  0.44590000  0.56570000  0.26320000  1.0 0.1217577924
H  H85  1  0.79320000  0.88530000  0.26980000  1.0 0.1402105858
H  H86  1  0.70680000  0.11470000  0.76980000  1.0 0.1402105858
H  H87  1  0.20680000  0.38530000  0.23020000  1.0 0.1402105858
H  H88  1  0.29320000  0.61470000  0.73020000  1.0 0.1402105858
H  H89  1  0.26980000  0.79320000  0.88530000  1.0 0.1402105858
H  H90  1  0.76980000  0.70680000  0.11470000  1.0 0.1402105858
H  H91  1  0.23020000  0.20680000  0.38530000  1.0 0.1402105858
H  H92  1  0.73020000  0.29320000  0.61470000  1.0 0.1402105858
H  H93  1  0.88530000  0.26980000  0.79320000  1.0 0.1402105858
H  H94  1  0.11470000  0.76980000  0.70680000  1.0 0.1402105858
H  H95  1  0.38530000  0.23020000  0.20680000  1.0 0.1402105858
H  H96  1  0.61470000  0.73020000  0.29320000  1.0 0.1402105858
H  H97  1  0.86980000  0.85100000  0.33100000  1.0 0.1291846764
H  H98  1  0.63020000  0.14900000  0.83100000  1.0 0.1291846764
H  H99  1  0.13020000  0.35100000  0.16900000  1.0 0.1291846764
H  H100  1  0.36980000  0.64900000  0.66900000  1.0 0.1291846764
H  H101  1  0.33100000  0.86980000  0.85100000  1.0 0.1291846764
H  H102  1  0.83100000  0.63020000  0.14900000  1.0 0.1291846764
H  H103  1  0.16900000  0.13020000  0.35100000  1.0 0.1291846764
H  H104  1  0.66900000  0.36980000  0.64900000  1.0 0.1291846764
H  H105  1  0.85100000  0.33100000  0.86980000  1.0 0.1291846764
H  H106  1  0.14900000  0.83100000  0.63020000  1.0 0.1291846764
H  H107  1  0.35100000  0.16900000  0.13020000  1.0 0.1291846764
H  H108  1  0.64900000  0.66900000  0.36980000  1.0 0.1291846764
H  H109  1  0.83950000  0.98710000  0.44640000  1.0 0.1217577924
H  H110  1  0.66050000  0.01290000  0.94640000  1.0 0.1217577924
H  H111  1  0.16050000  0.48710000  0.05360000  1.0 0.1217577924
H  H112  1  0.33950000  0.51290000  0.55360000  1.0 0.1217577924
H  H113  1  0.44640000  0.83950000  0.98710000  1.0 0.1217577924
H  H114  1  0.94640000  0.66050000  0.01290000  1.0 0.1217577924
H  H115  1  0.05360000  0.16050000  0.48710000  1.0 0.1217577924
H  H116  1  0.55360000  0.33950000  0.51290000  1.0 0.1217577924
H  H117  1  0.98710000  0.44640000  0.83950000  1.0 0.1217577924
H  H118  1  0.01290000  0.94640000  0.66050000  1.0 0.1217577924
H  H119  1  0.48710000  0.05360000  0.16050000  1.0 0.1217577924
H  H120  1  0.51290000  0.55360000  0.33950000  1.0 0.1217577924
H  H121  1  0.67550000  0.05420000  0.13350000  1.0 0.1402105858
H  H122  1  0.82450000  0.94580000  0.63350000  1.0 0.1402105858
H  H123  1  0.32450000  0.55420000  0.36650000  1.0 0.1402105858
H  H124  1  0.17550000  0.44580000  0.86650000  1.0 0.1402105858
H  H125  1  0.13350000  0.67550000  0.05420000  1.0 0.1402105858
H  H126  1  0.63350000  0.82450000  0.94580000  1.0 0.1402105858
H  H127  1  0.36650000  0.32450000  0.55420000  1.0 0.1402105858
H  H128  1  0.86650000  0.17550000  0.44580000  1.0 0.1402105858
H  H129  1  0.05420000  0.13350000  0.67550000  1.0 0.1402105858
H  H130  1  0.94580000  0.63350000  0.82450000  1.0 0.1402105858
H  H131  1  0.55420000  0.36650000  0.32450000  1.0 0.1402105858
H  H132  1  0.44580000  0.86650000  0.17550000  1.0 0.1402105858
H  H133  1  0.70490000  0.08720000  0.18990000  1.0 0.052411824
H  H134  1  0.79510000  0.91280000  0.68990000  1.0 0.052411824
H  H135  1  0.29510000  0.58720000  0.31010000  1.0 0.052411824
H  H136  1  0.20490000  0.41280000  0.81010000  1.0 0.052411824
H  H137  1  0.18990000  0.70490000  0.08720000  1.0 0.052411824
H  H138  1  0.68990000  0.79510000  0.91280000  1.0 0.052411824
H  H139  1  0.31010000  0.29510000  0.58720000  1.0 0.052411824
H  H140  1  0.81010000  0.20490000  0.41280000  1.0 0.052411824
H  H141  1  0.08720000  0.18990000  0.70490000  1.0 0.052411824
H  H142  1  0.91280000  0.68990000  0.79510000  1.0 0.052411824
H  H143  1  0.58720000  0.31010000  0.29510000  1.0 0.052411824
H  H144  1  0.41280000  0.81010000  0.20490000  1.0 0.052411824
H  H145  1  0.63180000  0.99120000  0.05710000  1.0 0.1291846764
H  H146  1  0.86820000  0.00880000  0.55710000  1.0 0.1291846764
H  H147  1  0.36820000  0.49120000  0.44290000  1.0 0.1291846764
H  H148  1  0.13180000  0.50880000  0.94290000  1.0 0.1291846764
H  H149  1  0.05710000  0.63180000  0.99120000  1.0 0.1291846764
H  H150  1  0.55710000  0.86820000  0.00880000  1.0 0.1291846764
H  H151  1  0.44290000  0.36820000  0.49120000  1.0 0.1291846764
H  H152  1  0.94290000  0.13180000  0.50880000  1.0 0.1291846764
H  H153  1  0.99120000  0.05710000  0.63180000  1.0 0.1291846764
H  H154  1  0.00880000  0.55710000  0.86820000  1.0 0.1291846764
H  H155  1  0.49120000  0.44290000  0.36820000  1.0 0.1291846764
H  H156  1  0.50880000  0.94290000  0.13180000  1.0 0.1291846764
H  H157  1  0.59240000  0.99880000  0.11630000  1.0 0.1402105858
H  H158  1  0.90760000  0.00120000  0.61630000  1.0 0.1402105858
H  H159  1  0.40760000  0.49880000  0.38370000  1.0 0.1402105858
H  H160  1  0.09240000  0.50120000  0.88370000  1.0 0.1402105858
H  H161  1  0.11630000  0.59240000  0.99880000  1.0 0.1402105858
H  H162  1  0.61630000  0.90760000  0.00120000  1.0 0.1402105858
H  H163  1  0.38370000  0.40760000  0.49880000  1.0 0.1402105858
H  H164  1  0.88370000  0.09240000  0.50120000  1.0 0.1402105858
H  H165  1  0.99880000  0.11630000  0.59240000  1.0 0.1402105858
H  H166  1  0.00120000  0.61630000  0.90760000  1.0 0.1402105858
H  H167  1  0.49880000  0.38370000  0.40760000  1.0 0.1402105858
H  H168  1  0.50120000  0.88370000  0.09240000  1.0 0.1402105858
H  H169  1  0.65160000  0.95880000  0.11760000  1.0 0.1402105858
H  H170  1  0.84840000  0.04120000  0.61760000  1.0 0.1402105858
H  H171  1  0.34840000  0.45880000  0.38240000  1.0 0.1402105858
H  H172  1  0.15160000  0.54120000  0.88240000  1.0 0.1402105858
H  H173  1  0.11760000  0.65160000  0.95880000  1.0 0.1402105858
H  H174  1  0.61760000  0.84840000  0.04120000  1.0 0.1402105858
H  H175  1  0.38240000  0.34840000  0.45880000  1.0 0.1402105858
H  H176  1  0.88240000  0.15160000  0.54120000  1.0 0.1402105858
H  H177  1  0.95880000  0.11760000  0.65160000  1.0 0.1402105858
H  H178  1  0.04120000  0.61760000  0.84840000  1.0 0.1402105858
H  H179  1  0.45880000  0.38240000  0.34840000  1.0 0.1402105858
H  H180  1  0.54120000  0.88240000  0.15160000  1.0 0.1402105858
H  H181  1  0.68900000  0.06430000  0.03700000  1.0 0.1291846764
H  H182  1  0.81100000  0.93570000  0.53700000  1.0 0.1291846764
H  H183  1  0.31100000  0.56430000  0.46300000  1.0 0.1291846764
H  H184  1  0.18900000  0.43570000  0.96300000  1.0 0.1291846764
H  H185  1  0.03700000  0.68900000  0.06430000  1.0 0.1291846764
H  H186  1  0.53700000  0.81100000  0.93570000  1.0 0.1291846764
H  H187  1  0.46300000  0.31100000  0.56430000  1.0 0.1291846764
H  H188  1  0.96300000  0.18900000  0.43570000  1.0 0.1291846764
H  H189  1  0.06430000  0.03700000  0.68900000  1.0 0.1291846764
H  H190  1  0.93570000  0.53700000  0.81100000  1.0 0.1291846764
H  H191  1  0.56430000  0.46300000  0.31100000  1.0 0.1291846764
H  H192  1  0.43570000  0.96300000  0.18900000  1.0 0.1291846764
H  H193  1  0.74260000  0.07180000  0.08370000  1.0 0.1217577924
H  H194  1  0.75740000  0.92820000  0.58370000  1.0 0.1217577924
H  H195  1  0.25740000  0.57180000  0.41630000  1.0 0.1217577924
H  H196  1  0.24260000  0.42820000  0.91630000  1.0 0.1217577924
H  H197  1  0.08370000  0.74260000  0.07180000  1.0 0.1217577924
H  H198  1  0.58370000  0.75740000  0.92820000  1.0 0.1217577924
H  H199  1  0.41630000  0.25740000  0.57180000  1.0 0.1217577924
H  H200  1  0.91630000  0.24260000  0.42820000  1.0 0.1217577924
H  H201  1  0.07180000  0.08370000  0.74260000  1.0 0.1217577924
H  H202  1  0.92820000  0.58370000  0.75740000  1.0 0.1217577924
H  H203  1  0.57180000  0.41630000  0.25740000  1.0 0.1217577924
H  H204  1  0.42820000  0.91630000  0.24260000  1.0 0.1217577924
H  H205  1  0.69070000  0.12080000  0.08070000  1.0 0.1291846764
H  H206  1  0.80930000  0.87920000  0.58070000  1.0 0.1291846764
H  H207  1  0.30930000  0.62080000  0.41930000  1.0 0.1291846764
H  H208  1  0.19070000  0.37920000  0.91930000  1.0 0.1291846764
H  H209  1  0.08070000  0.69070000  0.12080000  1.0 0.1291846764
H  H210  1  0.58070000  0.80930000  0.87920000  1.0 0.1291846764
H  H211  1  0.41930000  0.30930000  0.62080000  1.0 0.1291846764
H  H212  1  0.91930000  0.19070000  0.37920000  1.0 0.1291846764
H  H213  1  0.12080000  0.08070000  0.69070000  1.0 0.1291846764
H  H214  1  0.87920000  0.58070000  0.80930000  1.0 0.1291846764
H  H215  1  0.62080000  0.41930000  0.30930000  1.0 0.1291846764
H  H216  1  0.37920000  0.91930000  0.19070000  1.0 0.1291846764
C  C1  1  0.67030000  0.82970000  0.17030000  1.0 0.3665573679
C  C2  1  0.82970000  0.17030000  0.67030000  1.0 0.3665573679
C  C3  1  0.32970000  0.32970000  0.32970000  1.0 0.3665573679
C  C4  1  0.17030000  0.67030000  0.82970000  1.0 0.3665573679
C  C5  1  0.55400000  0.84700000  0.27090000  1.0 -0.0010687702
C  C6  1  0.94600000  0.15300000  0.77090000  1.0 -0.0010687702
C  C7  1  0.44600000  0.34700000  0.22910000  1.0 -0.0010687702
C  C8  1  0.05400000  0.65300000  0.72910000  1.0 -0.0010687702
C  C9  1  0.27090000  0.55400000  0.84700000  1.0 -0.0010687702
C  C10  1  0.77090000  0.94600000  0.15300000  1.0 0.0006615145
C  C11  1  0.22910000  0.44600000  0.34700000  1.0 -0.0010687702
C  C12  1  0.72910000  0.05400000  0.65300000  1.0 -0.0010687702
C  C13  1  0.84700000  0.27090000  0.55400000  1.0 -0.0010687702
C  C14  1  0.15300000  0.77090000  0.94600000  1.0 -0.0010687702
C  C15  1  0.34700000  0.22910000  0.44600000  1.0 -0.0010687702
C  C16  1  0.65300000  0.72910000  0.05400000  1.0 -0.0010687702
C  C17  1  0.53220000  0.88690000  0.31520000  1.0 -0.0236560532
C  C18  1  0.96780000  0.11310000  0.81520000  1.0 -0.0236560532
C  C19  1  0.46780000  0.38690000  0.18480000  1.0 -0.0236560532
C  C20  1  0.03220000  0.61310000  0.68480000  1.0 -0.0236560532
C  C21  1  0.31520000  0.53220000  0.88690000  1.0 -0.0236560532
C  C22  1  0.81520000  0.96780000  0.11310000  1.0 -0.0236560532
C  C23  1  0.18480000  0.46780000  0.38690000  1.0 -0.0236560532
C  C24  1  0.68480000  0.03220000  0.61310000  1.0 -0.0236560532
C  C25  1  0.88690000  0.31520000  0.53220000  1.0 -0.0236560532
C  C26  1  0.11310000  0.81520000  0.96780000  1.0 -0.0236560532
C  C27  1  0.38690000  0.18480000  0.46780000  1.0 -0.0236560532
C  C28  1  0.61310000  0.68480000  0.03220000  1.0 -0.0236560532
C  C29  1  0.56240000  0.94040000  0.33430000  1.0 0.2780034077
C  C30  1  0.93760000  0.05960000  0.83430000  1.0 0.2780034077
C  C31  1  0.43760000  0.44040000  0.16570000  1.0 0.2780034077
C  C32  1  0.06240000  0.55960000  0.66570000  1.0 0.2780034077
C  C33  1  0.33430000  0.56240000  0.94040000  1.0 0.2780034077
C  C34  1  0.83430000  0.93760000  0.05960000  1.0 0.2780034077
C  C35  1  0.16570000  0.43760000  0.44040000  1.0 0.2780034077
C  C36  1  0.66570000  0.06240000  0.55960000  1.0 0.2780034077
C  C37  1  0.94040000  0.33430000  0.56240000  1.0 0.2780034077
C  C38  1  0.05960000  0.83430000  0.93760000  1.0 0.2780034077
C  C39  1  0.44040000  0.16570000  0.43760000  1.0 0.2780034077
C  C40  1  0.55960000  0.66570000  0.06240000  1.0 0.2780034077
C  C41  1  0.53420000  0.97630000  0.37600000  1.0 -0.198636315
C  C42  1  0.96580000  0.02370000  0.87600000  1.0 -0.198636315
C  C43  1  0.46580000  0.47630000  0.12400000  1.0 -0.198636315
C  C44  1  0.03420000  0.52370000  0.62400000  1.0 -0.198636315
C  C45  1  0.37600000  0.53420000  0.97630000  1.0 -0.198636315
C  C46  1  0.87600000  0.96580000  0.02370000  1.0 -0.198636315
C  C47  1  0.12400000  0.46580000  0.47630000  1.0 -0.198636315
C  C48  1  0.62400000  0.03420000  0.52370000  1.0 -0.198636315
C  C49  1  0.97630000  0.37600000  0.53420000  1.0 -0.198636315
C  C50  1  0.02370000  0.87600000  0.96580000  1.0 -0.198636315
C  C51  1  0.47630000  0.12400000  0.46580000  1.0 -0.198636315
C  C52  1  0.52370000  0.62400000  0.03420000  1.0 -0.198636315
C  C53  1  0.47770000  0.96370000  0.39790000  1.0 -0.198636315
C  C54  1  0.02230000  0.03630000  0.89790000  1.0 -0.198636315
C  C55  1  0.52230000  0.46370000  0.10210000  1.0 -0.198636315
C  C56  1  0.97770000  0.53630000  0.60210000  1.0 -0.198636315
C  C57  1  0.39790000  0.47770000  0.96370000  1.0 -0.198636315
C  C58  1  0.89790000  0.02230000  0.03630000  1.0 -0.198636315
C  C59  1  0.10210000  0.52230000  0.46370000  1.0 -0.198636315
C  C60  1  0.60210000  0.97770000  0.53630000  1.0 -0.198636315
C  C61  1  0.96370000  0.39790000  0.47770000  1.0 -0.198636315
C  C62  1  0.03630000  0.89790000  0.02230000  1.0 -0.198636315
C  C63  1  0.46370000  0.10210000  0.52230000  1.0 -0.198636315
C  C64  1  0.53630000  0.60210000  0.97770000  1.0 -0.198636315
C  C65  1  0.44910000  0.91220000  0.37880000  1.0 0.2598424226
C  C66  1  0.05090000  0.08780000  0.87880000  1.0 0.2598424226
C  C67  1  0.55090000  0.41220000  0.12120000  1.0 0.2598424226
C  C68  1  0.94910000  0.58780000  0.62120000  1.0 0.2598424226
C  C69  1  0.37880000  0.44910000  0.91220000  1.0 0.2598424226
C  C70  1  0.87880000  0.05090000  0.08780000  1.0 0.2598424226
C  C71  1  0.12120000  0.55090000  0.41220000  1.0 0.2598424226
C  C72  1  0.62120000  0.94910000  0.58780000  1.0 0.2598424226
C  C73  1  0.91220000  0.37880000  0.44910000  1.0 0.2598424226
C  C74  1  0.08780000  0.87880000  0.05090000  1.0 0.2598424226
C  C75  1  0.41220000  0.12120000  0.55090000  1.0 0.2598424226
C  C76  1  0.58780000  0.62120000  0.94910000  1.0 0.2598424226
C  C77  1  0.47560000  0.87590000  0.33930000  1.0 -0.2282785443
C  C78  1  0.02440000  0.12410000  0.83930000  1.0 -0.2282785443
C  C79  1  0.52440000  0.37590000  0.16070000  1.0 -0.2282785443
C  C80  1  0.97560000  0.62410000  0.66070000  1.0 -0.2282785443
C  C81  1  0.33930000  0.47560000  0.87590000  1.0 -0.2282785443
C  C82  1  0.83930000  0.02440000  0.12410000  1.0 -0.2282785443
C  C83  1  0.16070000  0.52440000  0.37590000  1.0 -0.2282785443
C  C84  1  0.66070000  0.97560000  0.62410000  1.0 -0.2282785443
C  C85  1  0.87590000  0.33930000  0.47560000  1.0 -0.2282785443
C  C86  1  0.12410000  0.83930000  0.02440000  1.0 -0.2282785443
C  C87  1  0.37590000  0.16070000  0.52440000  1.0 -0.2282785443
C  C88  1  0.62410000  0.66070000  0.97560000  1.0 -0.2282785443
C  C89  1  0.63370000  0.13370000  0.36630000  1.0 0.3876993701
C  C90  1  0.86630000  0.86630000  0.86630000  1.0 0.3876993701
C  C91  1  0.36630000  0.63370000  0.13370000  1.0 0.3876993701
C  C92  1  0.13370000  0.36630000  0.63370000  1.0 0.3876993701
C  C93  1  0.75040000  0.03800000  0.39720000  1.0 0.0218388846
C  C94  1  0.74960000  0.96200000  0.89720000  1.0 0.0218388846
C  C95  1  0.24960000  0.53800000  0.10280000  1.0 0.0218388846
C  C96  1  0.25040000  0.46200000  0.60280000  1.0 0.0218388846
C  C97  1  0.39720000  0.75040000  0.03800000  1.0 0.0218388846
C  C98  1  0.89720000  0.74960000  0.96200000  1.0 0.0218388846
C  C99  1  0.10280000  0.24960000  0.53800000  1.0 0.0218388846
C  C100  1  0.60280000  0.25040000  0.46200000  1.0 0.0218388846
C  C101  1  0.03800000  0.39720000  0.75040000  1.0 0.0218388846
C  C102  1  0.96200000  0.89720000  0.74960000  1.0 0.0218388846
C  C103  1  0.53800000  0.10280000  0.24960000  1.0 0.0218388846
C  C104  1  0.46200000  0.60280000  0.25040000  1.0 0.0218388846
C  C105  1  0.78090000  0.98620000  0.37490000  1.0 -0.0236560532
C  C106  1  0.71910000  0.01380000  0.87490000  1.0 -0.0236560532
C  C107  1  0.21910000  0.48620000  0.12510000  1.0 -0.0236560532
C  C108  1  0.28090000  0.51380000  0.62510000  1.0 -0.0236560532
C  C109  1  0.37490000  0.78090000  0.98620000  1.0 -0.0236560532
C  C110  1  0.87490000  0.71910000  0.01380000  1.0 -0.0236560532
C  C111  1  0.12510000  0.21910000  0.48620000  1.0 -0.0236560532
C  C112  1  0.62510000  0.28090000  0.51380000  1.0 -0.0236560532
C  C113  1  0.98620000  0.37490000  0.78090000  1.0 -0.0236560532
C  C114  1  0.01380000  0.87490000  0.71910000  1.0 -0.0236560532
C  C115  1  0.48620000  0.12510000  0.21910000  1.0 -0.0236560532
C  C116  1  0.51380000  0.62510000  0.28090000  1.0 -0.0236560532
C  C117  1  0.76790000  0.95720000  0.32020000  1.0 0.2780034077
C  C118  1  0.73210000  0.04280000  0.82020000  1.0 0.2780034077
C  C119  1  0.23210000  0.45720000  0.17980000  1.0 0.2780034077
C  C120  1  0.26790000  0.54280000  0.67980000  1.0 0.2780034077
C  C121  1  0.32020000  0.76790000  0.95720000  1.0 0.2780034077
C  C122  1  0.82020000  0.73210000  0.04280000  1.0 0.2780034077
C  C123  1  0.17980000  0.23210000  0.45720000  1.0 0.2780034077
C  C124  1  0.67980000  0.26790000  0.54280000  1.0 0.2780034077
C  C125  1  0.95720000  0.32020000  0.76790000  1.0 0.2780034077
C  C126  1  0.04280000  0.82020000  0.73210000  1.0 0.2780034077
C  C127  1  0.45720000  0.17980000  0.23210000  1.0 0.2780034077
C  C128  1  0.54280000  0.67980000  0.26790000  1.0 0.2780034077
C  C129  1  0.80190000  0.90620000  0.30570000  1.0 -0.2282785443
C  C130  1  0.69810000  0.09380000  0.80570000  1.0 -0.2282785443
C  C131  1  0.19810000  0.40620000  0.19430000  1.0 -0.2282785443
C  C132  1  0.30190000  0.59380000  0.69430000  1.0 -0.2282785443
C  C133  1  0.30570000  0.80190000  0.90620000  1.0 -0.2282785443
C  C134  1  0.80570000  0.69810000  0.09380000  1.0 -0.2282785443
C  C135  1  0.19430000  0.19810000  0.40620000  1.0 -0.2282785443
C  C136  1  0.69430000  0.30190000  0.59380000  1.0 -0.2282785443
C  C137  1  0.90620000  0.30570000  0.80190000  1.0 -0.2282785443
C  C138  1  0.09380000  0.80570000  0.69810000  1.0 -0.2282785443
C  C139  1  0.40620000  0.19430000  0.19810000  1.0 -0.2282785443
C  C140  1  0.59380000  0.69430000  0.30190000  1.0 -0.2282785443
C  C141  1  0.84780000  0.88550000  0.34210000  1.0 -0.1778511286
C  C142  1  0.65220000  0.11450000  0.84210000  1.0 -0.1778511286
C  C143  1  0.15220000  0.38550000  0.15790000  1.0 -0.1778511286
C  C144  1  0.34780000  0.61450000  0.65790000  1.0 -0.1778511286
C  C145  1  0.34210000  0.84780000  0.88550000  1.0 -0.1778511286
C  C146  1  0.84210000  0.65220000  0.11450000  1.0 -0.1778511286
C  C147  1  0.15790000  0.15220000  0.38550000  1.0 -0.1778511286
C  C148  1  0.65790000  0.34780000  0.61450000  1.0 -0.1778511286
C  C149  1  0.88550000  0.34210000  0.84780000  1.0 -0.1778511286
C  C150  1  0.11450000  0.84210000  0.65220000  1.0 -0.1778511286
C  C151  1  0.38550000  0.15790000  0.15220000  1.0 -0.1778511286
C  C152  1  0.61450000  0.65790000  0.34780000  1.0 -0.1778511286
C  C153  1  0.86140000  0.91540000  0.39480000  1.0 0.28931288
C  C154  1  0.63860000  0.08460000  0.89480000  1.0 0.28931288
C  C155  1  0.13860000  0.41540000  0.10520000  1.0 0.28931288
C  C156  1  0.36140000  0.58460000  0.60520000  1.0 0.28931288
C  C157  1  0.39480000  0.86140000  0.91540000  1.0 0.28931288
C  C158  1  0.89480000  0.63860000  0.08460000  1.0 0.28931288
C  C159  1  0.10520000  0.13860000  0.41540000  1.0 0.28931288
C  C160  1  0.60520000  0.36140000  0.58460000  1.0 0.28931288
C  C161  1  0.91540000  0.39480000  0.86140000  1.0 0.28931288
C  C162  1  0.08460000  0.89480000  0.63860000  1.0 0.28931288
C  C163  1  0.41540000  0.10520000  0.13860000  1.0 0.28931288
C  C164  1  0.58460000  0.60520000  0.36140000  1.0 0.28931288
C  C165  1  0.82920000  0.96590000  0.41110000  1.0 -0.2874342755
C  C166  1  0.67080000  0.03410000  0.91110000  1.0 -0.2874342755
C  C167  1  0.17080000  0.46590000  0.08890000  1.0 -0.2874342755
C  C168  1  0.32920000  0.53410000  0.58890000  1.0 -0.2874342755
C  C169  1  0.41110000  0.82920000  0.96590000  1.0 -0.2874342755
C  C170  1  0.91110000  0.67080000  0.03410000  1.0 -0.2874342755
C  C171  1  0.08890000  0.17080000  0.46590000  1.0 -0.2874342755
C  C172  1  0.58890000  0.32920000  0.53410000  1.0 -0.2874342755
C  C173  1  0.96590000  0.41110000  0.82920000  1.0 -0.2874342755
C  C174  1  0.03410000  0.91110000  0.67080000  1.0 -0.2874342755
C  C175  1  0.46590000  0.08890000  0.17080000  1.0 -0.2874342755
C  C176  1  0.53410000  0.58890000  0.32920000  1.0 -0.2874342755
C  C177  1  0.67740000  0.05820000  0.17570000  1.0 0.28931288
C  C178  1  0.82260000  0.94180000  0.67570000  1.0 0.28931288
C  C179  1  0.32260000  0.55820000  0.32430000  1.0 0.28931288
C  C180  1  0.17740000  0.44180000  0.82430000  1.0 0.28931288
C  C181  1  0.17570000  0.67740000  0.05820000  1.0 0.28931288
C  C182  1  0.67570000  0.82260000  0.94180000  1.0 0.28931288
C  C183  1  0.32430000  0.32260000  0.55820000  1.0 0.28931288
C  C184  1  0.82430000  0.17740000  0.44180000  1.0 0.28931288
C  C185  1  0.05820000  0.17570000  0.67740000  1.0 0.28931288
C  C186  1  0.94180000  0.67570000  0.82260000  1.0 0.28931288
C  C187  1  0.55820000  0.32430000  0.32260000  1.0 0.28931288
C  C188  1  0.44180000  0.82430000  0.17740000  1.0 0.28931288
C  C189  1  0.63300000  0.99500000  0.10100000  1.0 -0.4031727692
C  C190  1  0.86700000  0.00500000  0.60100000  1.0 -0.4031727692
C  C191  1  0.36700000  0.49500000  0.39900000  1.0 -0.4031727692
C  C192  1  0.13300000  0.50500000  0.89900000  1.0 -0.4031727692
C  C193  1  0.10100000  0.63300000  0.99500000  1.0 -0.4031727692
C  C194  1  0.60100000  0.86700000  0.00500000  1.0 -0.4031727692
C  C195  1  0.39900000  0.36700000  0.49500000  1.0 -0.4031727692
C  C196  1  0.89900000  0.13300000  0.50500000  1.0 -0.4031727692
C  C197  1  0.99500000  0.10100000  0.63300000  1.0 -0.4031727692
C  C198  1  0.00500000  0.60100000  0.86700000  1.0 -0.4031727692
C  C199  1  0.49500000  0.39900000  0.36700000  1.0 -0.4031727692
C  C200  1  0.50500000  0.89900000  0.13300000  1.0 -0.4031727692
C  C201  1  0.70000000  0.07800000  0.07700000  1.0 -0.2772473326
C  C202  1  0.80000000  0.92200000  0.57700000  1.0 -0.2772473326
C  C203  1  0.30000000  0.57800000  0.42300000  1.0 -0.2772473326
C  C204  1  0.20000000  0.42200000  0.92300000  1.0 -0.2772473326
C  C205  1  0.07700000  0.70000000  0.07800000  1.0 -0.2772473326
C  C206  1  0.57700000  0.80000000  0.92200000  1.0 -0.2772473326
C  C207  1  0.42300000  0.30000000  0.57800000  1.0 -0.2772473326
C  C208  1  0.92300000  0.20000000  0.42200000  1.0 -0.2772473326
C  C209  1  0.07800000  0.07700000  0.70000000  1.0 -0.2772473326
C  C210  1  0.92200000  0.57700000  0.80000000  1.0 -0.2772473326
C  C211  1  0.57800000  0.42300000  0.30000000  1.0 -0.2772473326
C  C212  1  0.42200000  0.92300000  0.20000000  1.0 -0.2772473326
N  N1  1  0.62100000  0.81300000  0.19920000  1.0 -0.3169147774
N  N2  1  0.87900000  0.18700000  0.69920000  1.0 -0.3169147774
N  N3  1  0.37900000  0.31300000  0.30080000  1.0 -0.3169147774
N  N4  1  0.12100000  0.68700000  0.80080000  1.0 -0.3169147774
N  N5  1  0.19920000  0.62100000  0.81300000  1.0 -0.3169147774
N  N6  1  0.69920000  0.87900000  0.18700000  1.0 -0.3169147774
N  N7  1  0.30080000  0.37900000  0.31300000  1.0 -0.3169147774
N  N8  1  0.80080000  0.12100000  0.68700000  1.0 -0.3169147774
N  N9  1  0.81300000  0.19920000  0.62100000  1.0 -0.3169147774
N  N10  1  0.18700000  0.69920000  0.87900000  1.0 -0.3169147774
N  N11  1  0.31300000  0.30080000  0.37900000  1.0 -0.3169147774
N  N12  1  0.68700000  0.80080000  0.12100000  1.0 -0.3169147774
N  N13  1  0.60550000  0.85410000  0.24270000  1.0 -0.1459711969
N  N14  1  0.89450000  0.14590000  0.74270000  1.0 -0.1459711969
N  N15  1  0.39450000  0.35410000  0.25730000  1.0 -0.1459711969
N  N16  1  0.10550000  0.64590000  0.75730000  1.0 -0.1459711969
N  N17  1  0.24270000  0.60550000  0.85410000  1.0 -0.1459711969
N  N18  1  0.74270000  0.89450000  0.14590000  1.0 -0.1459711969
N  N19  1  0.25730000  0.39450000  0.35410000  1.0 -0.1459711969
N  N20  1  0.75730000  0.10550000  0.64590000  1.0 -0.1459711969
N  N21  1  0.85410000  0.24270000  0.60550000  1.0 -0.1459711969
N  N22  1  0.14590000  0.74270000  0.89450000  1.0 -0.1459711969
N  N23  1  0.35410000  0.25730000  0.39450000  1.0 -0.1459711969
N  N24  1  0.64590000  0.75730000  0.10550000  1.0 -0.1459711969
N  N25  1  0.68140000  0.11450000  0.39630000  1.0 -0.3325542093
N  N26  1  0.81860000  0.88550000  0.89630000  1.0 -0.3325542093
N  N27  1  0.31860000  0.61450000  0.10370000  1.0 -0.3325542093
N  N28  1  0.18140000  0.38550000  0.60370000  1.0 -0.3325542093
N  N29  1  0.39630000  0.68140000  0.11450000  1.0 -0.3325542093
N  N30  1  0.89630000  0.81860000  0.88550000  1.0 -0.3325542093
N  N31  1  0.10370000  0.31860000  0.61450000  1.0 -0.3325542093
N  N32  1  0.60370000  0.18140000  0.38550000  1.0 -0.3325542093
N  N33  1  0.11450000  0.39630000  0.68140000  1.0 -0.3325542093
N  N34  1  0.88550000  0.89630000  0.81860000  1.0 -0.3325542093
N  N35  1  0.61450000  0.10370000  0.31860000  1.0 -0.3325542093
N  N36  1  0.38550000  0.60370000  0.18140000  1.0 -0.3325542093
N  N37  1  0.70670000  0.06410000  0.37000000  1.0 -0.1432178274
N  N38  1  0.79330000  0.93590000  0.87000000  1.0 -0.1432178274
N  N39  1  0.29330000  0.56410000  0.13000000  1.0 -0.1432178274
N  N40  1  0.20670000  0.43590000  0.63000000  1.0 -0.1432178274
N  N41  1  0.37000000  0.70670000  0.06410000  1.0 -0.1432178274
N  N42  1  0.87000000  0.79330000  0.93590000  1.0 -0.1432178274
N  N43  1  0.13000000  0.29330000  0.56410000  1.0 -0.1432178274
N  N44  1  0.63000000  0.20670000  0.43590000  1.0 -0.1432178274
N  N45  1  0.06410000  0.37000000  0.70670000  1.0 -0.1432178274
N  N46  1  0.93590000  0.87000000  0.79330000  1.0 -0.1432178274
N  N47  1  0.56410000  0.13000000  0.29330000  1.0 -0.1432178274
N  N48  1  0.43590000  0.63000000  0.20670000  1.0 -0.1432178274
N  N49  1  0.66870000  0.04780000  0.11760000  1.0 0.0262978593
N  N50  1  0.83130000  0.95220000  0.61760000  1.0 0.0262978593
N  N51  1  0.33130000  0.54780000  0.38240000  1.0 0.0262978593
N  N52  1  0.16870000  0.45220000  0.88240000  1.0 0.0262978593
N  N53  1  0.11760000  0.66870000  0.04780000  1.0 0.0262978593
N  N54  1  0.61760000  0.83130000  0.95220000  1.0 0.0262978593
N  N55  1  0.38240000  0.33130000  0.54780000  1.0 0.0262978593
N  N56  1  0.88240000  0.16870000  0.45220000  1.0 0.0262978593
N  N57  1  0.04780000  0.11760000  0.66870000  1.0 0.0262978593
N  N58  1  0.95220000  0.61760000  0.83130000  1.0 0.0262978593
N  N59  1  0.54780000  0.38240000  0.33130000  1.0 0.0262978593
N  N60  1  0.45220000  0.88240000  0.16870000  1.0 0.0262978593
O  O1  1  0.61700000  0.95420000  0.31670000  1.0 -0.5338507722
O  O2  1  0.88300000  0.04580000  0.81670000  1.0 -0.5338507722
O  O3  1  0.38300000  0.45420000  0.18330000  1.0 -0.5338507722
O  O4  1  0.11700000  0.54580000  0.68330000  1.0 -0.5338507722
O  O5  1  0.31670000  0.61700000  0.95420000  1.0 -0.5338507722
O  O6  1  0.81670000  0.88300000  0.04580000  1.0 -0.5338507722
O  O7  1  0.18330000  0.38300000  0.45420000  1.0 -0.5338507722
O  O8  1  0.68330000  0.11700000  0.54580000  1.0 -0.5338507722
O  O9  1  0.95420000  0.31670000  0.61700000  1.0 -0.5338507722
O  O10  1  0.04580000  0.81670000  0.88300000  1.0 -0.5338507722
O  O11  1  0.45420000  0.18330000  0.38300000  1.0 -0.5338507722
O  O12  1  0.54580000  0.68330000  0.11700000  1.0 -0.5338507722
O  O13  1  0.39300000  0.89980000  0.40340000  1.0 -0.4574232727
O  O14  1  0.10700000  0.10020000  0.90340000  1.0 -0.4574232727
O  O15  1  0.60700000  0.39980000  0.09660000  1.0 -0.4574232727
O  O16  1  0.89300000  0.60020000  0.59660000  1.0 -0.4574232727
O  O17  1  0.40340000  0.39300000  0.89980000  1.0 -0.4574232727
O  O18  1  0.90340000  0.10700000  0.10020000  1.0 -0.4574232727
O  O19  1  0.09660000  0.60700000  0.39980000  1.0 -0.4574232727
O  O20  1  0.59660000  0.89300000  0.60020000  1.0 -0.4574232727
O  O21  1  0.89980000  0.40340000  0.39300000  1.0 -0.4574232727
O  O22  1  0.10020000  0.90340000  0.10700000  1.0 -0.4574232727
O  O23  1  0.39980000  0.09660000  0.60700000  1.0 -0.4574232727
O  O24  1  0.60020000  0.59660000  0.89300000  1.0 -0.4574232727
O  O25  1  0.72550000  0.97450000  0.28390000  1.0 -0.4862089137
O  O26  1  0.77450000  0.02550000  0.78390000  1.0 -0.4862089137
O  O27  1  0.27450000  0.47450000  0.21610000  1.0 -0.4862089137
O  O28  1  0.22550000  0.52550000  0.71610000  1.0 -0.4862089137
O  O29  1  0.28390000  0.72550000  0.97450000  1.0 -0.4862089137
O  O30  1  0.78390000  0.77450000  0.02550000  1.0 -0.4862089137
O  O31  1  0.21610000  0.27450000  0.47450000  1.0 -0.4862089137
O  O32  1  0.71610000  0.22550000  0.52550000  1.0 -0.4862089137
O  O33  1  0.97450000  0.28390000  0.72550000  1.0 -0.4862089137
O  O34  1  0.02550000  0.78390000  0.77450000  1.0 -0.4862089137
O  O35  1  0.47450000  0.21610000  0.27450000  1.0 -0.4862089137
O  O36  1  0.52550000  0.71610000  0.22550000  1.0 -0.4862089137
O  O37  1  0.90310000  0.89530000  0.43390000  1.0 -0.4271497334
O  O38  1  0.59690000  0.10470000  0.93390000  1.0 -0.4271497334
O  O39  1  0.09690000  0.39530000  0.06610000  1.0 -0.4271497334
O  O40  1  0.40310000  0.60470000  0.56610000  1.0 -0.4271497334
O  O41  1  0.43390000  0.90310000  0.89530000  1.0 -0.4271497334
O  O42  1  0.93390000  0.59690000  0.10470000  1.0 -0.4271497334
O  O43  1  0.06610000  0.09690000  0.39530000  1.0 -0.4271497334
O  O44  1  0.56610000  0.40310000  0.60470000  1.0 -0.4271497334
O  O45  1  0.89530000  0.43390000  0.90310000  1.0 -0.4271497334
O  O46  1  0.10470000  0.93390000  0.59690000  1.0 -0.4271497334
O  O47  1  0.39530000  0.06610000  0.09690000  1.0 -0.4271497334
O  O48  1  0.60470000  0.56610000  0.40310000  1.0 -0.4271497334
O  O49  1  0.65090000  0.03110000  0.20500000  1.0 -0.1634667579
O  O50  1  0.84910000  0.96890000  0.70500000  1.0 -0.1651476652
O  O51  1  0.34910000  0.53110000  0.29500000  1.0 -0.1634667579
O  O52  1  0.15090000  0.46890000  0.79500000  1.0 -0.1634667579
O  O53  1  0.20500000  0.65090000  0.03110000  1.0 -0.1651476652
O  O54  1  0.70500000  0.84910000  0.96890000  1.0 -0.1634667579
O  O55  1  0.29500000  0.34910000  0.53110000  1.0 -0.1634667579
O  O56  1  0.79500000  0.15090000  0.46890000  1.0 -0.1634667579
O  O57  1  0.03110000  0.20500000  0.65090000  1.0 -0.1634667579
O  O58  1  0.96890000  0.70500000  0.84910000  1.0 -0.1634667579
O  O59  1  0.53110000  0.29500000  0.34910000  1.0 -0.1634667579
O  O60  1  0.46890000  0.79500000  0.15090000  1.0 -0.1651476652
O  O61  1  0.70970000  0.09390000  0.19930000  1.0 -0.3643394888
O  O62  1  0.79030000  0.90610000  0.69930000  1.0 -0.3643394888
O  O63  1  0.29030000  0.59390000  0.30070000  1.0 -0.3643394888
O  O64  1  0.20970000  0.40610000  0.80070000  1.0 -0.3643394888
O  O65  1  0.19930000  0.70970000  0.09390000  1.0 -0.3643394888
O  O66  1  0.69930000  0.79030000  0.90610000  1.0 -0.3643394888
O  O67  1  0.30070000  0.29030000  0.59390000  1.0 -0.3643394888
O  O68  1  0.80070000  0.20970000  0.40610000  1.0 -0.3643394888
O  O69  1  0.09390000  0.19930000  0.70970000  1.0 -0.3643394888
O  O70  1  0.90610000  0.69930000  0.79030000  1.0 -0.3643394888
O  O71  1  0.59390000  0.30070000  0.29030000  1.0 -0.3643394888
O  O72  1  0.40610000  0.80070000  0.20970000  1.0 -0.3643394888
O  O73  1  0.64080000  0.02210000  0.21500000  1.0 -0.452463153
O  O74  1  0.85920000  0.97790000  0.71500000  1.0 -0.452463153
O  O75  1  0.35920000  0.52210000  0.28500000  1.0 -0.452463153
O  O76  1  0.14080000  0.47790000  0.78500000  1.0 -0.452463153
O  O77  1  0.21500000  0.64080000  0.02210000  1.0 -0.452463153
O  O78  1  0.71500000  0.85920000  0.97790000  1.0 -0.452463153
O  O79  1  0.28500000  0.35920000  0.52210000  1.0 -0.452463153
O  O80  1  0.78500000  0.14080000  0.47790000  1.0 -0.452463153
O  O81  1  0.02210000  0.21500000  0.64080000  1.0 -0.452463153
O  O82  1  0.97790000  0.71500000  0.85920000  1.0 -0.452463153
O  O83  1  0.52210000  0.28500000  0.35920000  1.0 -0.452463153
O  O84  1  0.47790000  0.78500000  0.14080000  1.0 -0.452463153
