# DDEC6 charges by PACMAN v1.1 (https://github.com/mtap-research/PACMAN-charge/)
data_CEHKUW_FSR_pacman
_symmetry_space_group_name_H-M   'P 1'
_cell_length_a   10.35030000
_cell_length_b   10.35030000
_cell_length_c   52.55700000
_cell_angle_alpha   90.00000000
_cell_angle_beta   90.00000000
_cell_angle_gamma   90.00000000
_symmetry_Int_Tables_number   1
_chemical_formula_structural   Cd4H23C33(NO11)2
_chemical_formula_sum   'Cd16 H92 C132 N8 O88'
_cell_volume   5630.36361620
_cell_formula_units_Z   4
loop_
 _symmetry_equiv_pos_site_id
 _symmetry_equiv_pos_as_xyz
  1  'x, y, z'
loop_
 _atom_site_type_symbol
 _atom_site_label
 _atom_site_symmetry_multiplicity
 _atom_site_fract_x
 _atom_site_fract_y
 _atom_site_fract_z
 _atom_site_occupancy
 _atom_site_charge
Cd  Cd1  1  0.35845000  0.05972000  0.02361000  1.0 1.0464022881
Cd  Cd2  1  0.64155000  0.94028000  0.52361000  1.0 1.0464022881
Cd  Cd3  1  0.94028000  0.35845000  0.77361000  1.0 1.0464022881
Cd  Cd4  1  0.05972000  0.64155000  0.27361000  1.0 1.0464022881
Cd  Cd5  1  0.64155000  0.05972000  0.97639000  1.0 1.0464022881
Cd  Cd6  1  0.35845000  0.94028000  0.47639000  1.0 1.0464022881
Cd  Cd7  1  0.05972000  0.35845000  0.22639000  1.0 1.0464022881
Cd  Cd8  1  0.94028000  0.64155000  0.72639000  1.0 1.0464022881
Cd  Cd9  1  0.14533000  0.24293000  0.82883000  1.0 1.004480747
Cd  Cd10  1  0.85467000  0.75707000  0.32883000  1.0 1.004480747
Cd  Cd11  1  0.75707000  0.14533000  0.57883000  1.0 1.004480747
Cd  Cd12  1  0.24293000  0.85467000  0.07883000  1.0 1.004480747
Cd  Cd13  1  0.85467000  0.24293000  0.17117000  1.0 1.004480747
Cd  Cd14  1  0.14533000  0.75707000  0.67117000  1.0 1.004480747
Cd  Cd15  1  0.24293000  0.14533000  0.42117000  1.0 1.004480747
Cd  Cd16  1  0.75707000  0.85467000  0.92117000  1.0 1.004480747
H  H1  1  0.33590000  0.11990000  0.91310000  1.0 0.1398698235
H  H2  1  0.66410000  0.88010000  0.41310000  1.0 0.1398698235
H  H3  1  0.88010000  0.33590000  0.66310000  1.0 0.1398698235
H  H4  1  0.11990000  0.66410000  0.16310000  1.0 0.1398698235
H  H5  1  0.66410000  0.11990000  0.08690000  1.0 0.1398698235
H  H6  1  0.33590000  0.88010000  0.58690000  1.0 0.1398698235
H  H7  1  0.11990000  0.33590000  0.33690000  1.0 0.1398698235
H  H8  1  0.88010000  0.66410000  0.83690000  1.0 0.1398698235
H  H9  1  0.94890000  0.12710000  0.90730000  1.0 0.1398698235
H  H10  1  0.05110000  0.87290000  0.40730000  1.0 0.1398698235
H  H11  1  0.87290000  0.94890000  0.65730000  1.0 0.1398698235
H  H12  1  0.12710000  0.05110000  0.15730000  1.0 0.1398698235
H  H13  1  0.05110000  0.12710000  0.09270000  1.0 0.1398698235
H  H14  1  0.94890000  0.87290000  0.59270000  1.0 0.1398698235
H  H15  1  0.12710000  0.94890000  0.34270000  1.0 0.1398698235
H  H16  1  0.87290000  0.05110000  0.84270000  1.0 0.1398698235
H  H17  1  0.11730000  0.05450000  0.97490000  1.0 0.1307575716
H  H18  1  0.88270000  0.94550000  0.47490000  1.0 0.1307575716
H  H19  1  0.94550000  0.11730000  0.72490000  1.0 0.1307575716
H  H20  1  0.05450000  0.88270000  0.22490000  1.0 0.1307575716
H  H21  1  0.88270000  0.05450000  0.02510000  1.0 0.1307575716
H  H22  1  0.11730000  0.94550000  0.52510000  1.0 0.1307575716
H  H23  1  0.05450000  0.11730000  0.27510000  1.0 0.1307575716
H  H24  1  0.94550000  0.88270000  0.77510000  1.0 0.1307575716
H  H25  1  0.50000000  0.81590000  0.00000000  1.0 0.1196988211
H  H26  1  0.50000000  0.18410000  0.50000000  1.0 0.1196988211
H  H27  1  0.18410000  0.50000000  0.75000000  1.0 0.1196988211
H  H28  1  0.81590000  0.50000000  0.25000000  1.0 0.1196988211
H  H29  1  0.39310000  0.47910000  0.03160000  1.0 0.1398698235
H  H30  1  0.60690000  0.52090000  0.53160000  1.0 0.1398698235
H  H31  1  0.52090000  0.39310000  0.78160000  1.0 0.1398698235
H  H32  1  0.47910000  0.60690000  0.28160000  1.0 0.1398698235
H  H33  1  0.60690000  0.47910000  0.96840000  1.0 0.1398698235
H  H34  1  0.39310000  0.52090000  0.46840000  1.0 0.1398698235
H  H35  1  0.47910000  0.39310000  0.21840000  1.0 0.1398698235
H  H36  1  0.52090000  0.60690000  0.71840000  1.0 0.1398698235
H  H37  1  0.16690000  0.89700000  0.81900000  1.0 0.0762824019
H  H38  1  0.83310000  0.10300000  0.31900000  1.0 0.0762824019
H  H39  1  0.10300000  0.16690000  0.56900000  1.0 0.0762824019
H  H40  1  0.89700000  0.83310000  0.06900000  1.0 0.0762824019
H  H41  1  0.83310000  0.89700000  0.18100000  1.0 0.0762824019
H  H42  1  0.16690000  0.10300000  0.68100000  1.0 0.0762824019
H  H43  1  0.89700000  0.16690000  0.43100000  1.0 0.0762824019
H  H44  1  0.10300000  0.83310000  0.93100000  1.0 0.0762824019
H  H45  1  0.24280000  0.82430000  0.75380000  1.0 0.1307575716
H  H46  1  0.75720000  0.17570000  0.25380000  1.0 0.1307575716
H  H47  1  0.17570000  0.24280000  0.50380000  1.0 0.1307575716
H  H48  1  0.82430000  0.75720000  0.00380000  1.0 0.1307575716
H  H49  1  0.75720000  0.82430000  0.24620000  1.0 0.1307575716
H  H50  1  0.24280000  0.17570000  0.74620000  1.0 0.1307575716
H  H51  1  0.82430000  0.24280000  0.49620000  1.0 0.1307575716
H  H52  1  0.17570000  0.75720000  0.99620000  1.0 0.1307575716
H  H53  1  0.28700000  0.95600000  0.76570000  1.0 0.1196988211
H  H54  1  0.71300000  0.04400000  0.26570000  1.0 0.1196988211
H  H55  1  0.04400000  0.28700000  0.51570000  1.0 0.1196988211
H  H56  1  0.95600000  0.71300000  0.01570000  1.0 0.1196988211
H  H57  1  0.71300000  0.95600000  0.23430000  1.0 0.1196988211
H  H58  1  0.28700000  0.04400000  0.73430000  1.0 0.1196988211
H  H59  1  0.95600000  0.28700000  0.48430000  1.0 0.1196988211
H  H60  1  0.04400000  0.71300000  0.98430000  1.0 0.1196988211
H  H61  1  0.14080000  0.91640000  0.76630000  1.0 0.1307575716
H  H62  1  0.85920000  0.08360000  0.26630000  1.0 0.1307575716
H  H63  1  0.08360000  0.14080000  0.51630000  1.0 0.1307575716
H  H64  1  0.91640000  0.85920000  0.01630000  1.0 0.1307575716
H  H65  1  0.85920000  0.91640000  0.23370000  1.0 0.1307575716
H  H66  1  0.14080000  0.08360000  0.73370000  1.0 0.1307575716
H  H67  1  0.91640000  0.14080000  0.48370000  1.0 0.1307575716
H  H68  1  0.08360000  0.85920000  0.98370000  1.0 0.1307575716
H  H69  1  0.25540000  0.79280000  0.82720000  1.0 0.1196988211
H  H70  1  0.74460000  0.20720000  0.32720000  1.0 0.1196988211
H  H71  1  0.20720000  0.25540000  0.57720000  1.0 0.1196988211
H  H72  1  0.79280000  0.74460000  0.07720000  1.0 0.1196988211
H  H73  1  0.74460000  0.79280000  0.17280000  1.0 0.1196988211
H  H74  1  0.25540000  0.20720000  0.67280000  1.0 0.1196988211
H  H75  1  0.79280000  0.25540000  0.42280000  1.0 0.1196988211
H  H76  1  0.20720000  0.74460000  0.92280000  1.0 0.1196988211
H  H77  1  0.35660000  0.71330000  0.81150000  1.0 0.1196988211
H  H78  1  0.64340000  0.28670000  0.31150000  1.0 0.1196988211
H  H79  1  0.28670000  0.35660000  0.56150000  1.0 0.1196988211
H  H80  1  0.71330000  0.64340000  0.06150000  1.0 0.1196988211
H  H81  1  0.64340000  0.71330000  0.18850000  1.0 0.1196988211
H  H82  1  0.35660000  0.28670000  0.68850000  1.0 0.1196988211
H  H83  1  0.71330000  0.35660000  0.43850000  1.0 0.1196988211
H  H84  1  0.28670000  0.64340000  0.93850000  1.0 0.1196988211
H  H85  1  0.21080000  0.67230000  0.81140000  1.0 0.1196988211
H  H86  1  0.78920000  0.32770000  0.31140000  1.0 0.1196988211
H  H87  1  0.32770000  0.21080000  0.56140000  1.0 0.1196988211
H  H88  1  0.67230000  0.78920000  0.06140000  1.0 0.1196988211
H  H89  1  0.78920000  0.67230000  0.18860000  1.0 0.1196988211
H  H90  1  0.21080000  0.32770000  0.68860000  1.0 0.1196988211
H  H91  1  0.67230000  0.21080000  0.43860000  1.0 0.1196988211
H  H92  1  0.32770000  0.78920000  0.93860000  1.0 0.1196988211
C  C1  1  0.36820000  0.05070000  0.96051000  1.0 0.5700726485
C  C2  1  0.63180000  0.94930000  0.46051000  1.0 0.5700726485
C  C3  1  0.94930000  0.36820000  0.71051000  1.0 0.5700726485
C  C4  1  0.05070000  0.63180000  0.21051000  1.0 0.5700726485
C  C5  1  0.63180000  0.05070000  0.03949000  1.0 0.5700726485
C  C6  1  0.36820000  0.94930000  0.53949000  1.0 0.5700726485
C  C7  1  0.05070000  0.36820000  0.28949000  1.0 0.5700726485
C  C8  1  0.94930000  0.63180000  0.78949000  1.0 0.5700726485
C  C9  1  0.24490000  0.08020000  0.94595000  1.0 -0.0322152838
C  C10  1  0.75510000  0.91980000  0.44595000  1.0 -0.0322152838
C  C11  1  0.91980000  0.24490000  0.69595000  1.0 -0.0322152838
C  C12  1  0.08020000  0.75510000  0.19595000  1.0 -0.0322152838
C  C13  1  0.75510000  0.08020000  0.05405000  1.0 -0.0322152838
C  C14  1  0.24490000  0.91980000  0.55405000  1.0 -0.0322152838
C  C15  1  0.08020000  0.24490000  0.30405000  1.0 -0.0322152838
C  C16  1  0.91980000  0.75510000  0.80405000  1.0 -0.0322152838
C  C17  1  0.25480000  0.11170000  0.92059000  1.0 -0.1017899152
C  C18  1  0.74520000  0.88830000  0.42059000  1.0 -0.1017899152
C  C19  1  0.88830000  0.25480000  0.67059000  1.0 -0.1017899152
C  C20  1  0.11170000  0.74520000  0.17059000  1.0 -0.1017899152
C  C21  1  0.74520000  0.11170000  0.07941000  1.0 -0.1017899152
C  C22  1  0.25480000  0.88830000  0.57941000  1.0 -0.1017899152
C  C23  1  0.11170000  0.25480000  0.32941000  1.0 -0.1017899152
C  C24  1  0.88830000  0.74520000  0.82941000  1.0 -0.1017899152
C  C25  1  0.14230000  0.13200000  0.90571000  1.0 -0.0072664278
C  C26  1  0.85770000  0.86800000  0.40571000  1.0 -0.0072664278
C  C27  1  0.86800000  0.14230000  0.65571000  1.0 -0.0072664278
C  C28  1  0.13200000  0.85770000  0.15571000  1.0 -0.0072664278
C  C29  1  0.85770000  0.13200000  0.09429000  1.0 -0.0072664278
C  C30  1  0.14230000  0.86800000  0.59429000  1.0 -0.0072664278
C  C31  1  0.13200000  0.14230000  0.34429000  1.0 -0.0072664278
C  C32  1  0.86800000  0.85770000  0.84429000  1.0 -0.0072664278
C  C33  1  0.02330000  0.11850000  0.91704000  1.0 -0.1017899152
C  C34  1  0.97670000  0.88150000  0.41704000  1.0 -0.1017899152
C  C35  1  0.88150000  0.02330000  0.66704000  1.0 -0.1017899152
C  C36  1  0.11850000  0.97670000  0.16704000  1.0 -0.1017899152
C  C37  1  0.97670000  0.11850000  0.08296000  1.0 -0.1017899152
C  C38  1  0.02330000  0.88150000  0.58296000  1.0 -0.1017899152
C  C39  1  0.11850000  0.02330000  0.33296000  1.0 -0.1017899152
C  C40  1  0.88150000  0.97670000  0.83296000  1.0 -0.1017899152
C  C41  1  0.01250000  0.09200000  0.94301000  1.0 -0.0322152838
C  C42  1  0.98750000  0.90800000  0.44301000  1.0 -0.0322152838
C  C43  1  0.90800000  0.01250000  0.69301000  1.0 -0.0322152838
C  C44  1  0.09200000  0.98750000  0.19301000  1.0 -0.0322152838
C  C45  1  0.98750000  0.09200000  0.05699000  1.0 -0.0322152838
C  C46  1  0.01250000  0.90800000  0.55699000  1.0 -0.0322152838
C  C47  1  0.09200000  0.01250000  0.30699000  1.0 -0.0322152838
C  C48  1  0.90800000  0.98750000  0.80699000  1.0 -0.0322152838
C  C49  1  0.12380000  0.07250000  0.95758000  1.0 -0.1168845916
C  C50  1  0.87620000  0.92750000  0.45758000  1.0 -0.1168845916
C  C51  1  0.92750000  0.12380000  0.70758000  1.0 -0.1168845916
C  C52  1  0.07250000  0.87620000  0.20758000  1.0 -0.1168845916
C  C53  1  0.87620000  0.07250000  0.04242000  1.0 -0.1168845916
C  C54  1  0.12380000  0.92750000  0.54242000  1.0 -0.1168845916
C  C55  1  0.07250000  0.12380000  0.29242000  1.0 -0.1168845916
C  C56  1  0.92750000  0.87620000  0.79242000  1.0 -0.1168845916
C  C57  1  0.15210000  0.16660000  0.87792000  1.0 0.5196759677
C  C58  1  0.84790000  0.83340000  0.37792000  1.0 0.5196759677
C  C59  1  0.83340000  0.15210000  0.62792000  1.0 0.5196759677
C  C60  1  0.16660000  0.84790000  0.12792000  1.0 0.5196759677
C  C61  1  0.84790000  0.16660000  0.12208000  1.0 0.5196759677
C  C62  1  0.15210000  0.83340000  0.62208000  1.0 0.5196759677
C  C63  1  0.16660000  0.15210000  0.37208000  1.0 0.5196759677
C  C64  1  0.83340000  0.84790000  0.87208000  1.0 0.5196759677
C  C65  1  0.88210000  0.08050000  0.95441000  1.0 0.5593180931
C  C66  1  0.11790000  0.91950000  0.45441000  1.0 0.5593180931
C  C67  1  0.91950000  0.88210000  0.70441000  1.0 0.5593180931
C  C68  1  0.08050000  0.11790000  0.20441000  1.0 0.5593180931
C  C69  1  0.11790000  0.08050000  0.04559000  1.0 0.5593180931
C  C70  1  0.88210000  0.91950000  0.54559000  1.0 0.5593180931
C  C71  1  0.08050000  0.88210000  0.29559000  1.0 0.5593180931
C  C72  1  0.91950000  0.11790000  0.79559000  1.0 0.5593180931
C  C73  1  0.36590000  0.72970000  0.03987000  1.0 0.5593180931
C  C74  1  0.63410000  0.27030000  0.53987000  1.0 0.5593180931
C  C75  1  0.27030000  0.36590000  0.78987000  1.0 0.5593180931
C  C76  1  0.72970000  0.63410000  0.28987000  1.0 0.5593180931
C  C77  1  0.63410000  0.72970000  0.96013000  1.0 0.5593180931
C  C78  1  0.36590000  0.27030000  0.46013000  1.0 0.5593180931
C  C79  1  0.72970000  0.36590000  0.21013000  1.0 0.5593180931
C  C80  1  0.27030000  0.63410000  0.71013000  1.0 0.5593180931
C  C81  1  0.43360000  0.65780000  0.01885000  1.0 -0.0222110877
C  C82  1  0.56640000  0.34220000  0.51885000  1.0 -0.0222110877
C  C83  1  0.34220000  0.43360000  0.76885000  1.0 -0.0222110877
C  C84  1  0.65780000  0.56640000  0.26885000  1.0 -0.0222110877
C  C85  1  0.56640000  0.65780000  0.98115000  1.0 -0.0222110877
C  C86  1  0.43360000  0.34220000  0.48115000  1.0 -0.0222110877
C  C87  1  0.65780000  0.43360000  0.23115000  1.0 -0.0222110877
C  C88  1  0.34220000  0.56640000  0.73115000  1.0 -0.0222110877
C  C89  1  0.50000000  0.72600000  0.00000000  1.0 -0.0809145445
C  C90  1  0.50000000  0.27400000  0.50000000  1.0 -0.0809145445
C  C91  1  0.27400000  0.50000000  0.75000000  1.0 -0.0809145445
C  C92  1  0.72600000  0.50000000  0.25000000  1.0 -0.0809145445
C  C93  1  0.43560000  0.52450000  0.01879000  1.0 -0.1017899152
C  C94  1  0.56440000  0.47550000  0.51879000  1.0 -0.1017899152
C  C95  1  0.47550000  0.43560000  0.76879000  1.0 -0.1017899152
C  C96  1  0.52450000  0.56440000  0.26879000  1.0 -0.1017899152
C  C97  1  0.56440000  0.52450000  0.98121000  1.0 -0.1017899152
C  C98  1  0.43560000  0.47550000  0.48121000  1.0 -0.1017899152
C  C99  1  0.52450000  0.43560000  0.23121000  1.0 -0.1017899152
C  C100  1  0.47550000  0.56440000  0.73121000  1.0 -0.1017899152
C  C101  1  0.50000000  0.45840000  0.00000000  1.0 -0.0222110877
C  C102  1  0.50000000  0.54160000  0.50000000  1.0 -0.0222110877
C  C103  1  0.54160000  0.50000000  0.75000000  1.0 -0.0222110877
C  C104  1  0.45840000  0.50000000  0.25000000  1.0 -0.0222110877
C  C105  1  0.50000000  0.31100000  0.00000000  1.0 0.6025622463
C  C106  1  0.50000000  0.68900000  0.50000000  1.0 0.6025622463
C  C107  1  0.68900000  0.50000000  0.75000000  1.0 0.6025622463
C  C108  1  0.31100000  0.50000000  0.25000000  1.0 0.6025622463
C  C109  1  0.21200000  0.93300000  0.80540000  1.0 0.2377113359
C  C110  1  0.78800000  0.06700000  0.30540000  1.0 0.2377113359
C  C111  1  0.06700000  0.21200000  0.55540000  1.0 0.2377113359
C  C112  1  0.93300000  0.78800000  0.05540000  1.0 0.2377113359
C  C113  1  0.78800000  0.93300000  0.19460000  1.0 0.2377113359
C  C114  1  0.21200000  0.06700000  0.69460000  1.0 0.2377113359
C  C115  1  0.93300000  0.21200000  0.44460000  1.0 0.2377113359
C  C116  1  0.06700000  0.78800000  0.94460000  1.0 0.2377113359
C  C117  1  0.22800000  0.88500000  0.76730000  1.0 -0.3298014129
C  C118  1  0.77200000  0.11500000  0.26730000  1.0 -0.3298014129
C  C119  1  0.11500000  0.22800000  0.51730000  1.0 -0.3298014129
C  C120  1  0.88500000  0.77200000  0.01730000  1.0 -0.3298014129
C  C121  1  0.77200000  0.88500000  0.23270000  1.0 -0.3298014129
C  C122  1  0.22800000  0.11500000  0.73270000  1.0 -0.3298014129
C  C123  1  0.88500000  0.22800000  0.48270000  1.0 -0.3298014129
C  C124  1  0.11500000  0.77200000  0.98270000  1.0 -0.3298014129
C  C125  1  0.26900000  0.74400000  0.81190000  1.0 -0.2707607174
C  C126  1  0.73100000  0.25600000  0.31190000  1.0 -0.2707607174
C  C127  1  0.25600000  0.26900000  0.56190000  1.0 -0.2707607174
C  C128  1  0.74400000  0.73100000  0.06190000  1.0 -0.2707607174
C  C129  1  0.73100000  0.74400000  0.18810000  1.0 -0.2707607174
C  C130  1  0.26900000  0.25600000  0.68810000  1.0 -0.2707607174
C  C131  1  0.74400000  0.26900000  0.43810000  1.0 -0.2707607174
C  C132  1  0.25600000  0.73100000  0.93810000  1.0 -0.2707607174
N  N1  1  0.24700000  0.82400000  0.79080000  1.0 0.0505957132
N  N2  1  0.75300000  0.17600000  0.29080000  1.0 0.0505957132
N  N3  1  0.17600000  0.24700000  0.54080000  1.0 0.0505957132
N  N4  1  0.82400000  0.75300000  0.04080000  1.0 0.0505957132
N  N5  1  0.75300000  0.82400000  0.20920000  1.0 0.0505957132
N  N6  1  0.24700000  0.17600000  0.70920000  1.0 0.0505957132
N  N7  1  0.82400000  0.24700000  0.45920000  1.0 0.0505957132
N  N8  1  0.17600000  0.75300000  0.95920000  1.0 0.0505957132
O  O1  1  0.35950000  0.00370000  0.98233000  1.0 -0.5690483773
O  O2  1  0.64050000  0.99630000  0.48233000  1.0 -0.5690483773
O  O3  1  0.99630000  0.35950000  0.73233000  1.0 -0.5690483773
O  O4  1  0.00370000  0.64050000  0.23233000  1.0 -0.5690483773
O  O5  1  0.64050000  0.00370000  0.01767000  1.0 -0.5690483773
O  O6  1  0.35950000  0.99630000  0.51767000  1.0 -0.5690483773
O  O7  1  0.00370000  0.35950000  0.26767000  1.0 -0.5690483773
O  O8  1  0.99630000  0.64050000  0.76767000  1.0 -0.5690483773
O  O9  1  0.47140000  0.07180000  0.94956000  1.0 -0.462202909
O  O10  1  0.52860000  0.92820000  0.44956000  1.0 -0.462202909
O  O11  1  0.92820000  0.47140000  0.69956000  1.0 -0.462202909
O  O12  1  0.07180000  0.52860000  0.19956000  1.0 -0.462202909
O  O13  1  0.52860000  0.07180000  0.05044000  1.0 -0.462202909
O  O14  1  0.47140000  0.92820000  0.55044000  1.0 -0.462202909
O  O15  1  0.07180000  0.47140000  0.30044000  1.0 -0.462202909
O  O16  1  0.92820000  0.52860000  0.80044000  1.0 -0.462202909
O  O17  1  0.25800000  0.18360000  0.86790000  1.0 -0.488741132
O  O18  1  0.74200000  0.81640000  0.36790000  1.0 -0.488741132
O  O19  1  0.81640000  0.25800000  0.61790000  1.0 -0.488741132
O  O20  1  0.18360000  0.74200000  0.11790000  1.0 -0.488741132
O  O21  1  0.74200000  0.18360000  0.13210000  1.0 -0.488741132
O  O22  1  0.25800000  0.81640000  0.63210000  1.0 -0.488741132
O  O23  1  0.18360000  0.25800000  0.38210000  1.0 -0.488741132
O  O24  1  0.81640000  0.74200000  0.88210000  1.0 -0.488741132
O  O25  1  0.05160000  0.18240000  0.86602000  1.0 -0.4657670582
O  O26  1  0.94840000  0.81760000  0.36602000  1.0 -0.4657670582
O  O27  1  0.81760000  0.05160000  0.61602000  1.0 -0.4657670582
O  O28  1  0.18240000  0.94840000  0.11602000  1.0 -0.4657670582
O  O29  1  0.94840000  0.18240000  0.13398000  1.0 -0.4657670582
O  O30  1  0.05160000  0.81760000  0.63398000  1.0 -0.4657670582
O  O31  1  0.18240000  0.05160000  0.38398000  1.0 -0.4657670582
O  O32  1  0.81760000  0.94840000  0.88398000  1.0 -0.4657670582
O  O33  1  0.86820000  0.08740000  0.97835000  1.0 -0.5026158417
O  O34  1  0.13180000  0.91260000  0.47835000  1.0 -0.5026158417
O  O35  1  0.91260000  0.86820000  0.72835000  1.0 -0.5026158417
O  O36  1  0.08740000  0.13180000  0.22835000  1.0 -0.5026158417
O  O37  1  0.13180000  0.08740000  0.02165000  1.0 -0.5026158417
O  O38  1  0.86820000  0.91260000  0.52165000  1.0 -0.5026158417
O  O39  1  0.08740000  0.86820000  0.27165000  1.0 -0.5026158417
O  O40  1  0.91260000  0.13180000  0.77165000  1.0 -0.5026158417
O  O41  1  0.78510000  0.06480000  0.93981000  1.0 -0.5518236781
O  O42  1  0.21490000  0.93520000  0.43981000  1.0 -0.5518236781
O  O43  1  0.93520000  0.78510000  0.68981000  1.0 -0.5518236781
O  O44  1  0.06480000  0.21490000  0.18981000  1.0 -0.5518236781
O  O45  1  0.21490000  0.06480000  0.06019000  1.0 -0.5518236781
O  O46  1  0.78510000  0.93520000  0.56019000  1.0 -0.5518236781
O  O47  1  0.06480000  0.78510000  0.31019000  1.0 -0.5518236781
O  O48  1  0.93520000  0.21490000  0.81019000  1.0 -0.5518236781
O  O49  1  0.34180000  0.84850000  0.03678000  1.0 -0.5690483773
O  O50  1  0.65820000  0.15150000  0.53678000  1.0 -0.5690483773
O  O51  1  0.15150000  0.34180000  0.78678000  1.0 -0.5690483773
O  O52  1  0.84850000  0.65820000  0.28678000  1.0 -0.5690483773
O  O53  1  0.65820000  0.84850000  0.96322000  1.0 -0.5690483773
O  O54  1  0.34180000  0.15150000  0.46322000  1.0 -0.5690483773
O  O55  1  0.84850000  0.34180000  0.21322000  1.0 -0.5690483773
O  O56  1  0.15150000  0.65820000  0.71322000  1.0 -0.5690483773
O  O57  1  0.33150000  0.67090000  0.05928000  1.0 -0.488741132
O  O58  1  0.66850000  0.32910000  0.55928000  1.0 -0.488741132
O  O59  1  0.32910000  0.33150000  0.80928000  1.0 -0.488741132
O  O60  1  0.67090000  0.66850000  0.30928000  1.0 -0.488741132
O  O61  1  0.66850000  0.67090000  0.94072000  1.0 -0.488741132
O  O62  1  0.33150000  0.32910000  0.44072000  1.0 -0.488741132
O  O63  1  0.67090000  0.33150000  0.19072000  1.0 -0.488741132
O  O64  1  0.32910000  0.66850000  0.69072000  1.0 -0.488741132
O  O65  1  0.40880000  0.25790000  0.01150000  1.0 -0.5402264321
O  O66  1  0.59120000  0.74210000  0.51150000  1.0 -0.5402264321
O  O67  1  0.74210000  0.40880000  0.76150000  1.0 -0.5402264321
O  O68  1  0.25790000  0.59120000  0.26150000  1.0 -0.5402264321
O  O69  1  0.59120000  0.25790000  0.98850000  1.0 -0.5402264321
O  O70  1  0.40880000  0.74210000  0.48850000  1.0 -0.5402264321
O  O71  1  0.25790000  0.40880000  0.23850000  1.0 -0.5402264321
O  O72  1  0.74210000  0.59120000  0.73850000  1.0 -0.5402264321
O  O73  1  0.20770000  0.05100000  0.81017000  1.0 -0.4444508502
O  O74  1  0.79230000  0.94900000  0.31017000  1.0 -0.4444508502
O  O75  1  0.94900000  0.20770000  0.56017000  1.0 -0.4444508502
O  O76  1  0.05100000  0.79230000  0.06017000  1.0 -0.4444508502
O  O77  1  0.79230000  0.05100000  0.18983000  1.0 -0.4444508502
O  O78  1  0.20770000  0.94900000  0.68983000  1.0 -0.4444508502
O  O79  1  0.05100000  0.20770000  0.43983000  1.0 -0.4444508502
O  O80  1  0.94900000  0.79230000  0.93983000  1.0 -0.4444508502
O  O81  1  0.08500000  0.45090000  0.84069000  1.0 -0.0322152838
O  O82  1  0.91500000  0.54910000  0.34069000  1.0 -0.0222110877
O  O83  1  0.54910000  0.08500000  0.59069000  1.0 -0.0222110877
O  O84  1  0.45090000  0.91500000  0.09069000  1.0 -0.0222110877
O  O85  1  0.91500000  0.45090000  0.15931000  1.0 -0.0222110877
O  O86  1  0.08500000  0.54910000  0.65931000  1.0 -0.0222110877
O  O87  1  0.45090000  0.08500000  0.40931000  1.0 -0.0222110877
O  O88  1  0.54910000  0.91500000  0.90931000  1.0 -0.0322152838
