# DDEC6 charges by PACMAN v1.1 (https://github.com/mtap-research/PACMAN-charge/)
data_CEHPIP_ASR_pacman
_symmetry_space_group_name_H-M   'P 1'
_cell_length_a   10.74100000
_cell_length_b   10.80400000
_cell_length_c   14.05000000
_cell_angle_alpha   88.03100000
_cell_angle_beta   87.35700000
_cell_angle_gamma   68.71600000
_symmetry_Int_Tables_number   1
_chemical_formula_structural   CuH16C15NO4
_chemical_formula_sum   'Cu4 H64 C60 N4 O16'
_cell_volume   1517.34671524
_cell_formula_units_Z   4
loop_
 _symmetry_equiv_pos_site_id
 _symmetry_equiv_pos_as_xyz
  1  'x, y, z'
loop_
 _atom_site_type_symbol
 _atom_site_label
 _atom_site_symmetry_multiplicity
 _atom_site_fract_x
 _atom_site_fract_y
 _atom_site_fract_z
 _atom_site_occupancy
 _atom_site_charge
Cu  Cu1  1  0.25127000  0.25143000  0.78033000  1.0 0.6078178316
Cu  Cu2  1  0.24522000  0.24381000  0.59470000  1.0 0.7672419279
Cu  Cu3  1  0.74873000  0.74857000  0.21967000  1.0 0.6078178316
Cu  Cu4  1  0.75478000  0.75619000  0.40530000  1.0 0.7672419279
H  H1  1  0.13100000  0.44190000  0.94910000  1.0 0.0694843585
H  H2  1  0.12160000  0.44430000  0.11470000  1.0 0.0777805477
H  H3  1  0.37720000  0.06070000  0.11510000  1.0 0.0777805477
H  H4  1  0.37570000  0.06670000  0.95030000  1.0 0.0595217097
H  H5  1  0.68430000  0.13760000  0.61000000  1.0 0.109422961
H  H6  1  0.73390000  0.05250000  0.76530000  1.0 0.0890262727
H  H7  1  0.67750000  0.19870000  0.80880000  1.0 0.109422961
H  H8  1  0.91200000  0.09310000  0.68540000  1.0 0.109422961
H  H9  1  0.91290000  0.12560000  0.79560000  1.0 0.109422961
H  H10  1  0.80980000  0.35560000  0.76260000  1.0 0.1014830052
H  H11  1  0.76630000  0.43680000  0.60640000  1.0 0.109422961
H  H12  1  0.82180000  0.28900000  0.56610000  1.0 0.109422961
H  H13  1  0.58510000  0.40100000  0.68550000  1.0 0.109422961
H  H14  1  0.58700000  0.36580000  0.57560000  1.0 0.109422961
H  H15  1  0.13020000  0.68180000  0.61990000  1.0 0.109422961
H  H16  1  0.40290000  0.59230000  0.67680000  1.0 0.109422961
H  H17  1  0.35750000  0.59240000  0.56990000  1.0 0.109422961
H  H18  1  0.26520000  0.82690000  0.56570000  1.0 0.109422961
H  H19  1  0.41880000  0.77900000  0.59340000  1.0 0.109422961
H  H20  1  0.35720000  0.81320000  0.75540000  1.0 0.1014830052
H  H21  1  0.08270000  0.90390000  0.70170000  1.0 0.1014830052
H  H22  1  0.13090000  0.89920000  0.80830000  1.0 0.109422961
H  H23  1  0.06780000  0.71450000  0.78100000  1.0 0.0890262727
H  H24  1  0.22110000  0.66680000  0.80930000  1.0 0.109422961
H  H25  1  0.41150000  0.08860000  0.42340000  1.0 0.109422961
H  H26  1  0.42520000  0.09300000  0.25950000  1.0 0.1272145241
H  H27  1  0.07980000  0.41270000  0.26090000  1.0 0.1272145241
H  H28  1  0.07520000  0.39870000  0.42760000  1.0 0.109422961
H  H29  1  0.08090000  0.36520000  0.94830000  1.0 0.0595217097
H  H30  1  0.06300000  0.37150000  0.11660000  1.0 0.0694843585
H  H31  1  0.43900000  0.13310000  0.11600000  1.0 0.0694843585
H  H32  1  0.43530000  0.13890000  0.94730000  1.0 0.0595217097
H  H33  1  0.86900000  0.55810000  0.05090000  1.0 0.0694843585
H  H34  1  0.87840000  0.55570000  0.88530000  1.0 0.0777805477
H  H35  1  0.62280000  0.93930000  0.88490000  1.0 0.0777805477
H  H36  1  0.62430000  0.93330000  0.04970000  1.0 0.0595217097
H  H37  1  0.31570000  0.86240000  0.39000000  1.0 0.109422961
H  H38  1  0.26610000  0.94750000  0.23470000  1.0 0.0890262727
H  H39  1  0.32250000  0.80130000  0.19120000  1.0 0.109422961
H  H40  1  0.08800000  0.90690000  0.31460000  1.0 0.109422961
H  H41  1  0.08710000  0.87440000  0.20440000  1.0 0.109422961
H  H42  1  0.19020000  0.64440000  0.23740000  1.0 0.1014830052
H  H43  1  0.23370000  0.56320000  0.39360000  1.0 0.109422961
H  H44  1  0.17820000  0.71100000  0.43390000  1.0 0.109422961
H  H45  1  0.41490000  0.59900000  0.31450000  1.0 0.109422961
H  H46  1  0.41300000  0.63420000  0.42440000  1.0 0.109422961
H  H47  1  0.86980000  0.31820000  0.38010000  1.0 0.109422961
H  H48  1  0.59710000  0.40770000  0.32320000  1.0 0.109422961
H  H49  1  0.64250000  0.40760000  0.43010000  1.0 0.109422961
H  H50  1  0.73480000  0.17310000  0.43430000  1.0 0.109422961
H  H51  1  0.58120000  0.22100000  0.40660000  1.0 0.109422961
H  H52  1  0.64280000  0.18680000  0.24460000  1.0 0.1014830052
H  H53  1  0.91730000  0.09610000  0.29830000  1.0 0.1014830052
H  H54  1  0.86910000  0.10080000  0.19170000  1.0 0.109422961
H  H55  1  0.93220000  0.28550000  0.21900000  1.0 0.0890262727
H  H56  1  0.77890000  0.33320000  0.19070000  1.0 0.109422961
H  H57  1  0.58850000  0.91140000  0.57660000  1.0 0.109422961
H  H58  1  0.57480000  0.90700000  0.74050000  1.0 0.1272145241
H  H59  1  0.92020000  0.58730000  0.73910000  1.0 0.1272145241
H  H60  1  0.92480000  0.60130000  0.57240000  1.0 0.109422961
H  H61  1  0.91910000  0.63480000  0.05170000  1.0 0.0595217097
H  H62  1  0.93700000  0.62850000  0.88340000  1.0 0.0694843585
H  H63  1  0.56100000  0.86690000  0.88400000  1.0 0.0694843585
H  H64  1  0.56470000  0.86110000  0.05270000  1.0 0.0595217097
C  C1  1  0.18010000  0.36320000  0.98330000  1.0 -0.0054572398
C  C2  1  0.17500000  0.36590000  0.08250000  1.0 -0.0544877992
C  C3  1  0.32490000  0.14000000  0.08280000  1.0 -0.0661835008
C  C4  1  0.32360000  0.14430000  0.98400000  1.0 0.0024502167
C  C5  1  0.49770000  0.20380000  0.67560000  1.0 0.5712066099
C  C6  1  0.64020000  0.19820000  0.66390000  1.0 -0.1005608932
C  C7  1  0.72380000  0.14630000  0.75260000  1.0 -0.1883829306
C  C8  1  0.86240000  0.15460000  0.73650000  1.0 -0.1820906908
C  C9  1  0.85570000  0.29530000  0.70900000  1.0 -0.1005608932
C  C10  1  0.77480000  0.34390000  0.62100000  1.0 -0.1820906908
C  C11  1  0.63550000  0.33790000  0.63550000  1.0 -0.1820906908
C  C12  1  0.99890000  0.29100000  0.69810000  1.0 0.5712066099
C  C13  1  0.20930000  0.49260000  0.67820000  1.0 0.5712066099
C  C14  1  0.19840000  0.63640000  0.66820000  1.0 -0.1005608932
C  C15  1  0.33333333  0.63980000  0.63100000  1.0 -0.1820906908
C  C16  1  0.32910000  0.78160000  0.61560000  1.0 -0.1883829306
C  C17  1  0.28860000  0.85930000  0.70750000  1.0 -0.1053606652
C  C18  1  0.15370000  0.85470000  0.74610000  1.0 -0.1742046446
C  C19  1  0.15740000  0.71300000  0.75950000  1.0 -0.1883829306
C  C20  1  0.28170000  0.00150000  0.69870000  1.0 0.5712066099
C  C21  1  0.34380000  0.15620000  0.39020000  1.0 0.0890262727
C  C22  1  0.35130000  0.15650000  0.29200000  1.0 -0.2158351213
C  C23  1  0.25120000  0.25030000  0.24130000  1.0 0.0777805477
C  C24  1  0.14850000  0.34430000  0.29280000  1.0 -0.2374529437
C  C25  1  0.14810000  0.33710000  0.39290000  1.0 0.0777805477
C  C26  1  0.24970000  0.25150000  0.13460000  1.0 0.0216448783
C  C27  1  0.15800000  0.31400000  0.98200000  1.0 0.0595217097
C  C28  1  0.14500000  0.32000000  0.08600000  1.0 -0.0661835008
C  C29  1  0.35900000  0.18400000  0.08500000  1.0 -0.0622786478
C  C30  1  0.35500000  0.18800000  0.98200000  1.0 0.0390554472
C  C31  1  0.81990000  0.63680000  0.01670000  1.0 -0.0054572398
C  C32  1  0.82500000  0.63410000  0.91750000  1.0 -0.0544877992
C  C33  1  0.67510000  0.86000000  0.91720000  1.0 -0.0661835008
C  C34  1  0.67640000  0.85570000  0.01600000  1.0 0.0024502167
C  C35  1  0.50230000  0.79620000  0.32440000  1.0 0.5712066099
C  C36  1  0.35980000  0.80180000  0.33610000  1.0 -0.1005608932
C  C37  1  0.27620000  0.85370000  0.24740000  1.0 -0.1883829306
C  C38  1  0.13760000  0.84540000  0.26350000  1.0 -0.1820906908
C  C39  1  0.14430000  0.70470000  0.29100000  1.0 -0.1005608932
C  C40  1  0.22520000  0.65610000  0.37900000  1.0 -0.1820906908
C  C41  1  0.36450000  0.66210000  0.36450000  1.0 -0.1820906908
C  C42  1  0.00110000  0.70900000  0.30190000  1.0 0.5712066099
C  C43  1  0.79070000  0.50740000  0.32180000  1.0 0.5712066099
C  C44  1  0.80160000  0.36360000  0.33180000  1.0 -0.1005608932
C  C45  1  0.66666667  0.36020000  0.36900000  1.0 -0.1820906908
C  C46  1  0.67090000  0.21840000  0.38440000  1.0 -0.1883829306
C  C47  1  0.71140000  0.14070000  0.29250000  1.0 -0.1053606652
C  C48  1  0.84630000  0.14530000  0.25390000  1.0 -0.1742046446
C  C49  1  0.84260000  0.28700000  0.24050000  1.0 -0.1883829306
C  C50  1  0.71830000  0.99850000  0.30130000  1.0 0.5712066099
C  C51  1  0.65620000  0.84380000  0.60980000  1.0 0.0890262727
C  C52  1  0.64870000  0.84350000  0.70800000  1.0 -0.2158351213
C  C53  1  0.74880000  0.74970000  0.75870000  1.0 0.0777805477
C  C54  1  0.85150000  0.65570000  0.70720000  1.0 -0.2374529437
C  C55  1  0.85190000  0.66290000  0.60710000  1.0 0.0777805477
C  C56  1  0.75030000  0.74850000  0.86540000  1.0 0.0216448783
C  C57  1  0.84200000  0.68600000  0.01800000  1.0 0.0595217097
C  C58  1  0.85500000  0.68000000  0.91400000  1.0 -0.0661835008
C  C59  1  0.64100000  0.81600000  0.91500000  1.0 -0.0622786478
C  C60  1  0.64500000  0.81200000  0.01800000  1.0 0.0390554472
N  N1  1  0.24680000  0.24560000  0.44190000  1.0 -0.226786998
N  N2  1  0.25170000  0.25360000  0.93370000  1.0 -0.1820906908
N  N3  1  0.75320000  0.75440000  0.55810000  1.0 -0.226786998
N  N4  1  0.74830000  0.74640000  0.06630000  1.0 -0.1820906908
O  O1  1  0.44750000  0.19820000  0.75770000  1.0 -0.5216878623
O  O2  1  0.43540000  0.21540000  0.59940000  1.0 -0.5274309189
O  O3  1  0.23190000  0.43840000  0.75950000  1.0 -0.5216878623
O  O4  1  0.20000000  0.43840000  0.60360000  1.0 -0.5103232732
O  O5  1  0.05380000  0.30280000  0.77270000  1.0 -0.5367768079
O  O6  1  0.05490000  0.26930000  0.61670000  1.0 -0.5103232732
O  O7  1  0.26610000  0.06430000  0.77580000  1.0 -0.5367768079
O  O8  1  0.28770000  0.05070000  0.61710000  1.0 -0.5103232732
O  O9  1  0.55250000  0.80180000  0.24230000  1.0 -0.5216878623
O  O10  1  0.56460000  0.78460000  0.40060000  1.0 -0.5274309189
O  O11  1  0.76810000  0.56160000  0.24050000  1.0 -0.5216878623
O  O12  1  0.80000000  0.56160000  0.39640000  1.0 -0.5103232732
O  O13  1  0.94620000  0.69720000  0.22730000  1.0 -0.5367768079
O  O14  1  0.94510000  0.73070000  0.38330000  1.0 -0.5103232732
O  O15  1  0.73390000  0.93570000  0.22420000  1.0 -0.5367768079
O  O16  1  0.71230000  0.94930000  0.38290000  1.0 -0.5103232732
