# DDEC6 charges by PACMAN v1.1 (https://github.com/mtap-research/PACMAN-charge/)
data_CEJCAW_ASR_pacman
_symmetry_space_group_name_H-M   'P 1'
_cell_length_a   11.15560000
_cell_length_b   13.04300000
_cell_length_c   14.13500000
_cell_angle_alpha   89.75900000
_cell_angle_beta   92.81800000
_cell_angle_gamma   94.99400000
_symmetry_Int_Tables_number   1
_chemical_formula_structural   Cu5H28C56(NO6)4
_chemical_formula_sum   'Cu5 H28 C56 N4 O24'
_cell_volume   2046.39256838
_cell_formula_units_Z   1
loop_
 _symmetry_equiv_pos_site_id
 _symmetry_equiv_pos_as_xyz
  1  'x, y, z'
loop_
 _atom_site_type_symbol
 _atom_site_label
 _atom_site_symmetry_multiplicity
 _atom_site_fract_x
 _atom_site_fract_y
 _atom_site_fract_z
 _atom_site_occupancy
 _atom_site_charge
Cu  Cu1  1  0.59444000  0.06789000  0.00066000  1.0 0.7747774192
Cu  Cu2  1  0.40556000  0.93211000  0.99934000  1.0 0.7747774192
Cu  Cu3  1  0.50000000  0.50000000  0.00000000  1.0 0.3026194342
Cu  Cu4  1  0.59847000  0.45028000  0.50107000  1.0 0.8587068983
Cu  Cu5  1  0.40153000  0.54972000  0.49893000  1.0 0.8587068983
H  H1  1  0.82030000  0.69700000  0.39360000  1.0 0.128922005
H  H2  1  0.17970000  0.30300000  0.60640000  1.0 0.128922005
H  H3  1  0.92540000  0.83030000  0.31550000  1.0 0.128922005
H  H4  1  0.07460000  0.16970000  0.68450000  1.0 0.128922005
H  H5  1  0.81900000  0.93180000  0.20900000  1.0 0.128922005
H  H6  1  0.18100000  0.06820000  0.79100000  1.0 0.128922005
H  H7  1  0.17580000  0.33990000  0.33320000  1.0 0.128922005
H  H8  1  0.82420000  0.66010000  0.66680000  1.0 0.128922005
H  H9  1  0.06710000  0.22040000  0.23540000  1.0 0.1215817201
H  H10  1  0.93290000  0.77960000  0.76460000  1.0 0.1215817201
H  H11  1  0.17160000  0.11770000  0.13880000  1.0 0.128922005
H  H12  1  0.82840000  0.88230000  0.86120000  1.0 0.128922005
H  H13  1  0.34990000  0.33410000  0.90490000  1.0 0.1215817201
H  H14  1  0.65010000  0.66590000  0.09510000  1.0 0.1215817201
H  H15  1  0.15770000  0.25560000  0.89770000  1.0 0.1395675965
H  H16  1  0.84230000  0.74440000  0.10230000  1.0 0.1395675965
H  H17  1  0.07660000  0.45730000  0.09040000  1.0 0.1395675965
H  H18  1  0.92340000  0.54270000  0.90960000  1.0 0.1395675965
H  H19  1  0.26880000  0.52990000  0.08640000  1.0 0.1215817201
H  H20  1  0.73120000  0.47010000  0.91360000  1.0 0.1215817201
H  H21  1  0.76980000  0.16080000  0.86150000  1.0 0.128922005
H  H22  1  0.23020000  0.83920000  0.13850000  1.0 0.128922005
H  H23  1  0.95120000  0.25830000  0.85340000  1.0 0.1395675965
H  H24  1  0.04880000  0.74170000  0.14660000  1.0 0.1395675965
H  H25  1  0.93680000  0.31560000  0.12910000  1.0 0.1395675965
H  H26  1  0.06320000  0.68440000  0.87090000  1.0 0.1395675965
H  H27  1  0.75530000  0.21450000  0.12760000  1.0 0.128922005
H  H28  1  0.24470000  0.78550000  0.87240000  1.0 0.128922005
C  C1  1  0.65820000  0.85030000  0.21620000  1.0 -0.0362296633
C  C2  1  0.34180000  0.14970000  0.78380000  1.0 -0.0362296633
C  C3  1  0.59360000  0.77230000  0.26520000  1.0 -0.0249866478
C  C4  1  0.40640000  0.22770000  0.73480000  1.0 -0.0249866478
C  C5  1  0.65820000  0.71440000  0.33100000  1.0 -0.0298599906
C  C6  1  0.34180000  0.28560000  0.66900000  1.0 -0.0298599906
C  C7  1  0.77990000  0.73630000  0.34950000  1.0 -0.0901708125
C  C8  1  0.22010000  0.26370000  0.65050000  1.0 -0.0901708125
C  C9  1  0.84290000  0.81610000  0.30350000  1.0 -0.1137725122
C  C10  1  0.15710000  0.18390000  0.69650000  1.0 -0.1137725122
C  C11  1  0.77910000  0.87530000  0.23790000  1.0 -0.0901708125
C  C12  1  0.22090000  0.12470000  0.76210000  1.0 -0.0901708125
C  C13  1  0.59850000  0.91050000  0.13720000  1.0 0.5772909962
C  C14  1  0.40150000  0.08950000  0.86280000  1.0 0.5772909962
C  C15  1  0.46170000  0.75230000  0.24950000  1.0 0.5772909962
C  C16  1  0.53830000  0.24770000  0.75050000  1.0 0.5772909962
C  C17  1  0.59500000  0.63020000  0.38780000  1.0 0.600441865
C  C18  1  0.40500000  0.36980000  0.61220000  1.0 0.600441865
C  C19  1  0.34000000  0.17580000  0.18100000  1.0 -0.0508202731
C  C20  1  0.66000000  0.82420000  0.81900000  1.0 -0.0508202731
C  C21  1  0.40410000  0.24960000  0.24170000  1.0 0.013227491
C  C22  1  0.59590000  0.75040000  0.75830000  1.0 0.013227491
C  C23  1  0.33900000  0.30890000  0.29940000  1.0 -0.0298599906
C  C24  1  0.66100000  0.69110000  0.70060000  1.0 -0.0298599906
C  C25  1  0.21670000  0.29810000  0.29520000  1.0 -0.0901708125
C  C26  1  0.78330000  0.70190000  0.70480000  1.0 -0.0901708125
C  C27  1  0.15090000  0.22720000  0.23660000  1.0 -0.1174275733
C  C28  1  0.84910000  0.77280000  0.76340000  1.0 -0.1174275733
C  C29  1  0.21400000  0.16580000  0.17900000  1.0 -0.0901708125
C  C30  1  0.78600000  0.83420000  0.82100000  1.0 -0.0901708125
C  C31  1  0.40110000  0.11260000  0.11500000  1.0 0.5772909962
C  C32  1  0.59890000  0.88740000  0.88500000  1.0 0.5772909962
C  C33  1  0.54020000  0.25490000  0.24760000  1.0 0.5772909962
C  C34  1  0.45980000  0.74510000  0.75240000  1.0 0.5772909962
C  C35  1  0.40200000  0.38490000  0.37010000  1.0 0.600441865
C  C36  1  0.59800000  0.61510000  0.62990000  1.0 0.600441865
C  C37  1  0.29320000  0.35930000  0.94280000  1.0 0.0906574831
C  C38  1  0.70680000  0.64070000  0.05720000  1.0 0.0906574831
C  C39  1  0.17760000  0.31110000  0.93830000  1.0 -0.1809373927
C  C40  1  0.82240000  0.68890000  0.06170000  1.0 -0.1809373927
C  C41  1  0.09230000  0.34610000  0.99460000  1.0 0.107037849
C  C42  1  0.90770000  0.65390000  0.00540000  1.0 0.107037849
C  C43  1  0.12990000  0.42990000  0.05100000  1.0 -0.1912016562
C  C44  1  0.87010000  0.57010000  0.94900000  1.0 -0.1912016562
C  C45  1  0.24670000  0.47250000  0.04850000  1.0 0.0906574831
C  C46  1  0.75330000  0.52750000  0.95150000  1.0 0.0906574831
C  C47  1  0.80590000  0.19030000  0.91670000  1.0 0.128922005
C  C48  1  0.19410000  0.80970000  0.08330000  1.0 0.128922005
C  C49  1  0.91580000  0.24880000  0.91130000  1.0 -0.1912016562
C  C50  1  0.08420000  0.75120000  0.08870000  1.0 -0.1809373927
C  C51  1  0.97180000  0.29250000  0.99220000  1.0 0.0990284898
C  C52  1  0.02820000  0.70750000  0.00780000  1.0 0.0990284898
C  C53  1  0.90710000  0.28230000  0.07360000  1.0 -0.1912016562
C  C54  1  0.09290000  0.71770000  0.92640000  1.0 -0.1912016562
C  C55  1  0.79680000  0.22160000  0.07220000  1.0 0.1395675965
C  C56  1  0.20320000  0.77840000  0.92780000  1.0 0.1395675965
N  N1  1  0.32780000  0.43920000  0.99790000  1.0 -0.1445013217
N  N2  1  0.67220000  0.56080000  0.00210000  1.0 -0.1445013217
N  N3  1  0.75070000  0.17480000  0.99630000  1.0 -0.1981093517
N  N4  1  0.24930000  0.82520000  0.00370000  1.0 -0.1981093517
O  O1  1  0.65550000  0.98900000  0.10670000  1.0 -0.4881082805
O  O2  1  0.34450000  0.01100000  0.89330000  1.0 -0.4840298525
O  O3  1  0.49890000  0.87170000  0.10360000  1.0 -0.4690145485
O  O4  1  0.50110000  0.12830000  0.89640000  1.0 -0.4690145485
O  O5  1  0.41630000  0.67380000  0.20610000  1.0 -0.5575163297
O  O6  1  0.58370000  0.32620000  0.79390000  1.0 -0.5575163297
O  O7  1  0.39700000  0.81610000  0.28780000  1.0 -0.5203656784
O  O8  1  0.60300000  0.18390000  0.71220000  1.0 -0.5203656784
O  O9  1  0.65470000  0.55630000  0.41040000  1.0 -0.5020996563
O  O10  1  0.34530000  0.44370000  0.58960000  1.0 -0.5020996563
O  O11  1  0.48800000  0.63920000  0.40760000  1.0 -0.4690145485
O  O12  1  0.51200000  0.36080000  0.59240000  1.0 -0.4690145485
O  O13  1  0.50300000  0.14460000  0.08860000  1.0 -0.4583073042
O  O14  1  0.49700000  0.85540000  0.91140000  1.0 -0.4583073042
O  O15  1  0.34500000  0.03000000  0.08880000  1.0 -0.4881082805
O  O16  1  0.65500000  0.97000000  0.91120000  1.0 -0.4881082805
O  O17  1  0.58860000  0.18530000  0.29080000  1.0 -0.4690145485
O  O18  1  0.41140000  0.81470000  0.70920000  1.0 -0.4690145485
O  O19  1  0.59610000  0.33200000  0.20960000  1.0 -0.5766901902
O  O20  1  0.40390000  0.66800000  0.79040000  1.0 -0.5766901902
O  O21  1  0.50360000  0.37090000  0.39930000  1.0 -0.4347535304
O  O22  1  0.49640000  0.62910000  0.60070000  1.0 -0.4361447028
O  O23  1  0.34100000  0.45640000  0.39560000  1.0 -0.5020996563
O  O24  1  0.65900000  0.54360000  0.60440000  1.0 -0.5020996563
