# DDEC6 charges by PACMAN v1.1 (https://github.com/mtap-research/PACMAN-charge/)
data_CEJVET_FSR_pacman
_symmetry_space_group_name_H-M   'P 1'
_cell_length_a   16.67300000
_cell_length_b   9.58610000
_cell_length_c   22.51800000
_cell_angle_alpha   90.00000000
_cell_angle_beta   103.95600000
_cell_angle_gamma   90.00000000
_symmetry_Int_Tables_number   1
_chemical_formula_structural   CeS2O9
_chemical_formula_sum   'Ce16 S32 O144'
_cell_volume   3492.79146440
_cell_formula_units_Z   16
loop_
 _symmetry_equiv_pos_site_id
 _symmetry_equiv_pos_as_xyz
  1  'x, y, z'
loop_
 _atom_site_type_symbol
 _atom_site_label
 _atom_site_symmetry_multiplicity
 _atom_site_fract_x
 _atom_site_fract_y
 _atom_site_fract_z
 _atom_site_occupancy
 _atom_site_charge
Ce  Ce1  1  0.92600000  0.72788000  0.81776000  1.0 2.001576274
Ce  Ce2  1  0.07400000  0.22788000  0.68224000  1.0 1.9905901843
Ce  Ce3  1  0.07400000  0.27212000  0.18224000  1.0 2.001576274
Ce  Ce4  1  0.92600000  0.77212000  0.31776000  1.0 1.9905901843
Ce  Ce5  1  0.76319000  0.23499000  0.95437000  1.0 2.1063393646
Ce  Ce6  1  0.23681000  0.73499000  0.54563000  1.0 2.1063393646
Ce  Ce7  1  0.23681000  0.76501000  0.04563000  1.0 2.1063393646
Ce  Ce8  1  0.76319000  0.26501000  0.45437000  1.0 2.1063393646
Ce  Ce9  1  0.66774000  0.79868000  0.87025000  1.0 2.1566139552
Ce  Ce10  1  0.33226000  0.29868000  0.62975000  1.0 2.1566139552
Ce  Ce11  1  0.33226000  0.20132000  0.12975000  1.0 2.1542770558
Ce  Ce12  1  0.66774000  0.70132000  0.37025000  1.0 2.1566139552
Ce  Ce13  1  0.53261000  0.75850000  0.58448000  1.0 2.1172284775
Ce  Ce14  1  0.46739000  0.25850000  0.91552000  1.0 2.1172284775
Ce  Ce15  1  0.46739000  0.24150000  0.41552000  1.0 2.1172284775
Ce  Ce16  1  0.53261000  0.74150000  0.08448000  1.0 2.1172284775
S  S1  1  0.84050000  0.96633000  0.89469000  1.0 1.4283372455
S  S2  1  0.15950000  0.46633000  0.60531000  1.0 1.435985336
S  S3  1  0.15950000  0.03367000  0.10531000  1.0 1.435985336
S  S4  1  0.84050000  0.53367000  0.39469000  1.0 1.435985336
S  S5  1  0.58943000  0.16490000  0.82982000  1.0 1.4627406888
S  S6  1  0.41057000  0.66490000  0.67018000  1.0 1.4627406888
S  S7  1  0.41057000  0.83510000  0.17018000  1.0 1.4627406888
S  S8  1  0.58943000  0.33510000  0.32982000  1.0 1.4627406888
S  S9  1  0.98891000  0.96584000  0.74049000  1.0 1.4125298255
S  S10  1  0.01109000  0.46584000  0.75951000  1.0 1.4125298255
S  S11  1  0.01109000  0.03416000  0.25951000  1.0 1.4125298255
S  S12  1  0.98891000  0.53416000  0.24049000  1.0 1.4125298255
S  S13  1  0.81841000  0.49203000  0.88580000  1.0 1.4673340016
S  S14  1  0.18159000  0.99203000  0.61420000  1.0 1.4673340016
S  S15  1  0.18159000  0.50797000  0.11420000  1.0 1.4673340016
S  S16  1  0.81841000  0.00797000  0.38580000  1.0 1.4673340016
S  S17  1  0.62768000  0.52563000  0.98453000  1.0 1.538254618
S  S18  1  0.37232000  0.02563000  0.51547000  1.0 1.538254618
S  S19  1  0.37232000  0.47437000  0.01547000  1.0 1.538254618
S  S20  1  0.62768000  0.97437000  0.48453000  1.0 1.538254618
S  S21  1  0.62179000  0.01119000  0.00214000  1.0 1.5091484481
S  S22  1  0.37821000  0.51119000  0.49786000  1.0 1.5091484481
S  S23  1  0.37821000  0.98881000  0.99786000  1.0 1.5091484481
S  S24  1  0.62179000  0.48881000  0.50214000  1.0 1.5091484481
S  S25  1  0.08678000  0.74944000  0.92706000  1.0 1.4283372455
S  S26  1  0.91322000  0.24944000  0.57294000  1.0 1.4283372455
S  S27  1  0.91322000  0.25056000  0.07294000  1.0 1.4234943085
S  S28  1  0.08678000  0.75056000  0.42706000  1.0 1.4283372455
S  S29  1  0.70196000  0.70885000  0.71969000  1.0 1.483469416
S  S30  1  0.29804000  0.20885000  0.78031000  1.0 1.483469416
S  S31  1  0.29804000  0.29115000  0.28031000  1.0 1.4852509194
S  S32  1  0.70196000  0.79115000  0.21969000  1.0 1.483469416
O  O1  1  0.94090000  0.98160000  0.78723000  1.0 -0.5920732109
O  O2  1  0.05910000  0.48160000  0.71277000  1.0 -0.5920732109
O  O3  1  0.05910000  0.01840000  0.21277000  1.0 -0.5920732109
O  O4  1  0.94090000  0.51840000  0.28723000  1.0 -0.5920732109
O  O5  1  0.01460000  0.66070000  0.92353000  1.0 -0.6006401784
O  O6  1  0.98540000  0.16070000  0.57647000  1.0 -0.5920732109
O  O7  1  0.98540000  0.33930000  0.07647000  1.0 -0.6006401784
O  O8  1  0.01460000  0.83930000  0.42353000  1.0 -0.6006401784
O  O9  1  0.85880000  0.43600000  0.94629000  1.0 -0.6006401784
O  O10  1  0.14120000  0.93600000  0.55371000  1.0 -0.6006401784
O  O11  1  0.14120000  0.56400000  0.05371000  1.0 -0.6081455058
O  O12  1  0.85880000  0.06400000  0.44629000  1.0 -0.6006401784
O  O13  1  0.59450000  0.24400000  0.77624000  1.0 -0.3985308415
O  O14  1  0.40550000  0.74400000  0.72376000  1.0 -0.3985308415
O  O15  1  0.40550000  0.75600000  0.22376000  1.0 -0.3985308415
O  O16  1  0.59450000  0.25600000  0.27624000  1.0 -0.3985308415
O  O17  1  0.07160000  0.82970000  0.86953000  1.0 -0.6081455058
O  O18  1  0.92840000  0.32970000  0.63047000  1.0 -0.6006401784
O  O19  1  0.92840000  0.17030000  0.13047000  1.0 -0.6006401784
O  O20  1  0.07160000  0.67030000  0.36953000  1.0 -0.6081455058
O  O21  1  0.50390000  0.12120000  0.82773000  1.0 -0.6485584427
O  O22  1  0.49610000  0.62120000  0.67227000  1.0 -0.6431187219
O  O23  1  0.49610000  0.87880000  0.17227000  1.0 -0.6431187219
O  O24  1  0.50390000  0.37880000  0.32773000  1.0 -0.6431187219
O  O25  1  0.54760000  0.94310000  0.66897000  1.0 -0.1212665445
O  O26  1  0.45240000  0.44310000  0.83103000  1.0 -0.1307697005
O  O27  1  0.45240000  0.05690000  0.33103000  1.0 -0.1212665445
O  O28  1  0.54760000  0.55690000  0.16897000  1.0 -0.1212665445
O  O29  1  0.61440000  0.25080000  0.88616000  1.0 -0.7863460488
O  O30  1  0.38560000  0.75080000  0.61384000  1.0 -0.7863460488
O  O31  1  0.38560000  0.74920000  0.11384000  1.0 -0.7863460488
O  O32  1  0.61440000  0.24920000  0.38616000  1.0 -0.7863460488
O  O33  1  0.78890000  0.93750000  0.93928000  1.0 -0.7167533046
O  O34  1  0.21110000  0.43750000  0.56072000  1.0 -0.7167533046
O  O35  1  0.21110000  0.06250000  0.06072000  1.0 -0.7167533046
O  O36  1  0.78890000  0.56250000  0.43928000  1.0 -0.7167533046
O  O37  1  0.16360000  0.66620000  0.93529000  1.0 -0.5784361837
O  O38  1  0.83640000  0.16620000  0.56471000  1.0 -0.5784361837
O  O39  1  0.83640000  0.33380000  0.06471000  1.0 -0.5784361837
O  O40  1  0.16360000  0.83380000  0.43529000  1.0 -0.5784361837
O  O41  1  0.83780000  0.11840000  0.88485000  1.0 -0.6006401784
O  O42  1  0.16220000  0.61840000  0.61515000  1.0 -0.6006401784
O  O43  1  0.16220000  0.88160000  0.11515000  1.0 -0.6006401784
O  O44  1  0.83780000  0.38160000  0.38485000  1.0 -0.6006401784
O  O45  1  0.99150000  0.81290000  0.73034000  1.0 -0.5920732109
O  O46  1  0.00850000  0.31290000  0.76966000  1.0 -0.5920732109
O  O47  1  0.00850000  0.18710000  0.26966000  1.0 -0.5920732109
O  O48  1  0.99150000  0.68710000  0.23034000  1.0 -0.5920732109
O  O49  1  0.62310000  0.58440000  0.04381000  1.0 -0.6895736056
O  O50  1  0.37690000  0.08440000  0.45619000  1.0 -0.6895736056
O  O51  1  0.37690000  0.41560000  0.95619000  1.0 -0.6895736056
O  O52  1  0.62310000  0.91560000  0.54381000  1.0 -0.6895736056
O  O53  1  0.70140000  0.08560000  0.01686000  1.0 -0.6609196457
O  O54  1  0.29860000  0.58560000  0.48314000  1.0 -0.6609196457
O  O55  1  0.29860000  0.91440000  0.98314000  1.0 -0.6609196457
O  O56  1  0.70140000  0.41440000  0.51686000  1.0 -0.6609196457
O  O57  1  0.10210000  0.84400000  0.98036000  1.0 -0.6161807314
O  O58  1  0.89790000  0.34400000  0.51964000  1.0 -0.6081455058
O  O59  1  0.89790000  0.15600000  0.01964000  1.0 -0.6161807314
O  O60  1  0.10210000  0.65600000  0.48036000  1.0 -0.6161807314
O  O61  1  0.69330000  0.42250000  0.99506000  1.0 -0.6698963589
O  O62  1  0.30670000  0.92250000  0.50494000  1.0 -0.6698963589
O  O63  1  0.30670000  0.57750000  0.00494000  1.0 -0.6698963589
O  O64  1  0.69330000  0.07750000  0.49506000  1.0 -0.6698963589
O  O65  1  0.64480000  0.04550000  0.83620000  1.0 -0.6833230561
O  O66  1  0.35520000  0.54550000  0.66380000  1.0 -0.6833230561
O  O67  1  0.35520000  0.95450000  0.16380000  1.0 -0.6833230561
O  O68  1  0.64480000  0.45450000  0.33620000  1.0 -0.6833230561
O  O69  1  0.66300000  0.79590000  0.75947000  1.0 -0.6895736056
O  O70  1  0.33700000  0.29590000  0.74053000  1.0 -0.6895736056
O  O71  1  0.33700000  0.20410000  0.24053000  1.0 -0.6985841847
O  O72  1  0.66300000  0.70410000  0.25947000  1.0 -0.6985841847
O  O73  1  0.60320000  0.56480000  0.81951000  1.0 0.1191200086
O  O74  1  0.39680000  0.06480000  0.68049000  1.0 0.1191200086
O  O75  1  0.39680000  0.43520000  0.18049000  1.0 0.1191200086
O  O76  1  0.60320000  0.93520000  0.31951000  1.0 0.1191200086
O  O77  1  0.67120000  0.75840000  0.65659000  1.0 -0.6609196457
O  O78  1  0.32880000  0.25840000  0.84341000  1.0 -0.6609196457
O  O79  1  0.32880000  0.24160000  0.34341000  1.0 -0.6698963589
O  O80  1  0.67120000  0.74160000  0.15659000  1.0 -0.6609196457
O  O81  1  0.80060000  0.89220000  0.83780000  1.0 -0.7096832784
O  O82  1  0.19940000  0.39220000  0.66220000  1.0 -0.7096832784
O  O83  1  0.19940000  0.10780000  0.16220000  1.0 -0.7096832784
O  O84  1  0.80060000  0.60780000  0.33780000  1.0 -0.7096832784
O  O85  1  0.74770000  0.39830000  0.86105000  1.0 -0.6161807314
O  O86  1  0.25230000  0.89830000  0.63895000  1.0 -0.6161807314
O  O87  1  0.25230000  0.60170000  0.13895000  1.0 -0.6161807314
O  O88  1  0.74770000  0.10170000  0.36105000  1.0 -0.6161807314
O  O89  1  0.92420000  0.91500000  0.91459000  1.0 -0.4800140566
O  O90  1  0.07580000  0.41500000  0.58541000  1.0 -0.4800140566
O  O91  1  0.07580000  0.08500000  0.08541000  1.0 -0.4800140566
O  O92  1  0.92420000  0.58500000  0.41459000  1.0 -0.4800140566
O  O93  1  0.51420000  0.82880000  0.82790000  1.0 -0.0718732446
O  O94  1  0.48580000  0.32880000  0.67210000  1.0 -0.0718732446
O  O95  1  0.48580000  0.17120000  0.17210000  1.0 -0.0718732446
O  O96  1  0.51420000  0.67120000  0.32790000  1.0 -0.0718732446
O  O97  1  0.79250000  0.72400000  0.73696000  1.0 -0.6485584427
O  O98  1  0.20750000  0.22400000  0.76304000  1.0 -0.6431187219
O  O99  1  0.20750000  0.27600000  0.26304000  1.0 -0.6485584427
O  O100  1  0.79250000  0.77600000  0.23696000  1.0 -0.6431187219
O  O101  1  0.95070000  0.04020000  0.68407000  1.0 -0.5715921707
O  O102  1  0.04930000  0.54020000  0.81593000  1.0 -0.5784361837
O  O103  1  0.04930000  0.95980000  0.31593000  1.0 -0.5784361837
O  O104  1  0.95070000  0.45980000  0.18407000  1.0 -0.5784361837
O  O105  1  0.61430000  0.93060000  0.05467000  1.0 -0.6485584427
O  O106  1  0.38570000  0.43060000  0.44533000  1.0 -0.6485584427
O  O107  1  0.38570000  0.06940000  0.94533000  1.0 -0.6485584427
O  O108  1  0.61430000  0.56940000  0.55467000  1.0 -0.6485584427
O  O109  1  0.87520000  0.49530000  0.84573000  1.0 -0.6006401784
O  O110  1  0.12480000  0.99530000  0.65427000  1.0 -0.5920732109
O  O111  1  0.12480000  0.50470000  0.15427000  1.0 -0.6006401784
O  O112  1  0.87520000  0.00470000  0.34573000  1.0 -0.5920732109
O  O113  1  0.07230000  0.02550000  0.76247000  1.0 -0.5715921707
O  O114  1  0.92770000  0.52550000  0.73753000  1.0 -0.5715921707
O  O115  1  0.92770000  0.97450000  0.23753000  1.0 -0.5715921707
O  O116  1  0.07230000  0.47450000  0.26247000  1.0 -0.5715921707
O  O117  1  0.79120000  0.63590000  0.89150000  1.0 -0.7167533046
O  O118  1  0.20880000  0.13590000  0.60850000  1.0 -0.7096832784
O  O119  1  0.20880000  0.36410000  0.10850000  1.0 -0.7167533046
O  O120  1  0.79120000  0.86410000  0.39150000  1.0 -0.7096832784
O  O121  1  0.55010000  0.46430000  0.95410000  1.0 -0.6985841847
O  O122  1  0.44990000  0.96430000  0.54590000  1.0 -0.7096832784
O  O123  1  0.44990000  0.53570000  0.04590000  1.0 -0.6985841847
O  O124  1  0.55010000  0.03570000  0.45410000  1.0 -0.6985841847
O  O125  1  0.67820000  0.56480000  0.72530000  1.0 -0.4713423333
O  O126  1  0.32180000  0.06480000  0.77470000  1.0 -0.4713423333
O  O127  1  0.32180000  0.43520000  0.27470000  1.0 -0.4713423333
O  O128  1  0.67820000  0.93520000  0.22530000  1.0 -0.4713423333
O  O129  1  0.61260000  0.93060000  0.94820000  1.0 -0.6895736056
O  O130  1  0.38740000  0.43060000  0.55180000  1.0 -0.6895736056
O  O131  1  0.38740000  0.06940000  0.05180000  1.0 -0.6895736056
O  O132  1  0.61260000  0.56940000  0.44820000  1.0 -0.6895736056
O  O133  1  0.55740000  0.12210000  0.99360000  1.0 -0.5384528941
O  O134  1  0.44260000  0.62210000  0.50640000  1.0 -0.5384528941
O  O135  1  0.44260000  0.87790000  0.00640000  1.0 -0.5384528941
O  O136  1  0.55740000  0.37790000  0.49360000  1.0 -0.5384528941
O  O137  1  0.65050000  0.63620000  0.94800000  1.0 -0.6895736056
O  O138  1  0.34950000  0.13620000  0.55200000  1.0 -0.6985841847
O  O139  1  0.34950000  0.36380000  0.05200000  1.0 -0.6985841847
O  O140  1  0.65050000  0.86380000  0.44800000  1.0 -0.6985841847
O  O141  1  0.47800000  0.77420000  0.46400000  1.0 0.0090303963
O  O142  1  0.52200000  0.27420000  0.03600000  1.0 0.0090303963
O  O143  1  0.52200000  0.22580000  0.53600000  1.0 0.0156530494
O  O144  1  0.47800000  0.72580000  0.96400000  1.0 0.0090303963
