# DDEC6 charges by PACMAN v1.1 (https://github.com/mtap-research/PACMAN-charge/)
data_CEKHIL_ASR_pacman
_symmetry_space_group_name_H-M   'P 1'
_cell_length_a   10.15200000
_cell_length_b   17.95300000
_cell_length_c   18.06200000
_cell_angle_alpha   90.00000000
_cell_angle_beta   94.62000000
_cell_angle_gamma   90.00000000
_symmetry_Int_Tables_number   1
_chemical_formula_structural   CoH6C12NO5
_chemical_formula_sum   'Co4 H24 C48 N4 O20'
_cell_volume   3281.26329820
_cell_formula_units_Z   4
loop_
 _symmetry_equiv_pos_site_id
 _symmetry_equiv_pos_as_xyz
  1  'x, y, z'
loop_
 _atom_site_type_symbol
 _atom_site_label
 _atom_site_symmetry_multiplicity
 _atom_site_fract_x
 _atom_site_fract_y
 _atom_site_fract_z
 _atom_site_occupancy
 _atom_site_charge
Co  Co1  1  0.50930000  0.69537000  0.62858000  1.0 0.9872590019
Co  Co2  1  0.49070000  0.19537000  0.37142000  1.0 0.9872590019
Co  Co3  1  0.27432000  0.75069000  0.48809000  1.0 1.0619599535
Co  Co4  1  0.72568000  0.25069000  0.51191000  1.0 1.0619599535
H  H1  1  0.62050000  0.05280000  0.77510000  1.0 0.2704966455
H  H2  1  0.37950000  0.55280000  0.22490000  1.0 0.2704966455
H  H3  1  0.86460000  0.10990000  0.10100000  1.0 0.2704966455
H  H4  1  0.13540000  0.60990000  0.89900000  1.0 0.2704966455
H  H5  1  0.02290000  0.12140000  0.80280000  1.0 0.1308453712
H  H6  1  0.97710000  0.62140000  0.19720000  1.0 0.1308453712
H  H7  1  0.11410000  0.14290000  0.92280000  1.0 0.1308453712
H  H8  1  0.88590000  0.64290000  0.07720000  1.0 0.1308453712
H  H9  1  0.76630000  0.09260000  0.00210000  1.0 0.1108328528
H  H10  1  0.23370000  0.59260000  0.99790000  1.0 0.1108328528
H  H11  1  0.67510000  0.07120000  0.88210000  1.0 0.1108328528
H  H12  1  0.32490000  0.57120000  0.11790000  1.0 0.1108328528
H  H13  1  0.58950000  0.91850000  0.69740000  1.0 0.1388110234
H  H14  1  0.41050000  0.41850000  0.30260000  1.0 0.1388110234
H  H15  1  0.45840000  0.96550000  0.48730000  1.0 0.1388110234
H  H16  1  0.54160000  0.46550000  0.51270000  1.0 0.1388110234
H  H17  1  0.62650000  0.12760000  0.62230000  1.0 0.1227358593
H  H18  1  0.37350000  0.62760000  0.37770000  1.0 0.1227358593
H  H19  1  0.16540000  0.16010000  0.18330000  1.0 0.1388110234
H  H20  1  0.83460000  0.66010000  0.81670000  1.0 0.1388110234
H  H21  1  0.03500000  0.20460000  0.38190000  1.0 0.1308453712
H  H22  1  0.96500000  0.70460000  0.61810000  1.0 0.1308453712
H  H23  1  0.77440000  0.16360000  0.20630000  1.0 0.1308453712
H  H24  1  0.22560000  0.66360000  0.79370000  1.0 0.1308453712
C  C1  1  0.83999000  0.09417000  0.83054000  1.0 -0.0396456323
C  C2  1  0.16001000  0.59417000  0.16946000  1.0 -0.0396456323
C  C3  1  0.97149000  0.11565000  0.84275000  1.0 -0.0925974478
C  C4  1  0.02851000  0.61565000  0.15725000  1.0 -0.0955080525
C  C5  1  0.02611000  0.12850000  0.91467000  1.0 -0.0955080525
C  C6  1  0.97389000  0.62850000  0.08533000  1.0 -0.0925974478
C  C7  1  0.94923000  0.11986000  0.97439000  1.0 -0.0396456323
C  C8  1  0.05077000  0.61986000  0.02561000  1.0 -0.0396456323
C  C9  1  0.81773000  0.09838000  0.96218000  1.0 -0.1330573694
C  C10  1  0.18227000  0.59838000  0.03782000  1.0 -0.1365412832
C  C11  1  0.76311000  0.08553000  0.89026000  1.0 -0.1365412832
C  C12  1  0.23689000  0.58553000  0.10974000  1.0 -0.1330573694
C  C13  1  0.78660000  0.08465000  0.75237000  1.0 0.4615693032
C  C14  1  0.21340000  0.58465000  0.24763000  1.0 0.4615693032
C  C15  1  0.00899000  0.14279000  0.04803000  1.0 0.4615693032
C  C16  1  0.99101000  0.64279000  0.95197000  1.0 0.4615693032
C  C17  1  0.61600000  0.02569000  0.66965000  1.0 0.2116052485
C  C18  1  0.38400000  0.52569000  0.33035000  1.0 0.2116052485
C  C19  1  0.57570000  0.95293000  0.65909000  1.0 -0.1894078514
C  C20  1  0.42430000  0.45293000  0.34091000  1.0 -0.1894078514
C  C21  1  0.51250000  0.93065000  0.58912000  1.0 -0.0134240547
C  C22  1  0.48750000  0.43065000  0.41088000  1.0 -0.0134240547
C  C23  1  0.49910000  0.98040000  0.53288000  1.0 -0.0797243328
C  C24  1  0.50090000  0.48040000  0.46712000  1.0 -0.0797243328
C  C25  1  0.54570000  0.05503000  0.54157000  1.0 -0.0163631966
C  C26  1  0.45430000  0.55503000  0.45843000  1.0 -0.0163631966
C  C27  1  0.60120000  0.07840000  0.61359000  1.0 -0.1894078514
C  C28  1  0.39880000  0.57840000  0.38641000  1.0 -0.1894078514
C  C29  1  0.46490000  0.85160000  0.58063000  1.0 0.611647041
C  C30  1  0.53510000  0.35160000  0.41937000  1.0 0.611647041
C  C31  1  0.53110000  0.10798000  0.48021000  1.0 0.5723272576
C  C32  1  0.46890000  0.60798000  0.51979000  1.0 0.5723272576
C  C33  1  0.96780000  0.16142000  0.18176000  1.0 0.2116052485
C  C34  1  0.03220000  0.66142000  0.81824000  1.0 0.2116052485
C  C35  1  0.09470000  0.16782000  0.21215000  1.0 -0.1714840443
C  C36  1  0.90530000  0.66782000  0.78785000  1.0 -0.1714840443
C  C37  1  0.11680000  0.18617000  0.28708000  1.0 0.0117559456
C  C38  1  0.88320000  0.68617000  0.71292000  1.0 0.0117559456
C  C39  1  0.01680000  0.19448000  0.33164000  1.0 -0.0925974478
C  C40  1  0.98320000  0.69448000  0.66836000  1.0 -0.0925974478
C  C41  1  0.88430000  0.18773000  0.30116000  1.0 -0.0016369401
C  C42  1  0.11570000  0.68773000  0.69884000  1.0 -0.0016369401
C  C43  1  0.86070000  0.16994000  0.22678000  1.0 -0.1894078514
C  C44  1  0.13930000  0.66994000  0.77322000  1.0 -0.1894078514
C  C45  1  0.25940000  0.19060000  0.32087000  1.0 0.5400116159
C  C46  1  0.74060000  0.69060000  0.67913000  1.0 0.5400116159
C  C47  1  0.77200000  0.19870000  0.34966000  1.0 0.6020602896
C  C48  1  0.22800000  0.69870000  0.65034000  1.0 0.6020602896
N  N1  1  0.67910000  0.04410000  0.74120000  1.0 -0.3598402799
N  N2  1  0.32090000  0.54410000  0.25880000  1.0 -0.3598402799
N  N3  1  0.93120000  0.14310000  0.10630000  1.0 -0.3598402799
N  N4  1  0.06880000  0.64310000  0.89370000  1.0 -0.3598402799
O  O1  1  0.85190000  0.11010000  0.70230000  1.0 -0.4996052668
O  O2  1  0.14810000  0.61010000  0.29770000  1.0 -0.4996052668
O  O3  1  0.12290000  0.17040000  0.05900000  1.0 -0.4735701368
O  O4  1  0.87710000  0.67040000  0.94100000  1.0 -0.4751103209
O  O5  1  0.50130000  0.80780000  0.63110000  1.0 -0.5308450894
O  O6  1  0.49870000  0.30780000  0.36890000  1.0 -0.5308450894
O  O7  1  0.40040000  0.83580000  0.52140000  1.0 -0.5644169734
O  O8  1  0.59960000  0.33580000  0.47860000  1.0 -0.5644169734
O  O9  1  0.48450000  0.08610000  0.41800000  1.0 -0.4910623715
O  O10  1  0.51550000  0.58610000  0.58200000  1.0 -0.4910623715
O  O11  1  0.56380000  0.17580000  0.49040000  1.0 -0.6228808449
O  O12  1  0.43620000  0.67580000  0.50960000  1.0 -0.6228808449
O  O13  1  0.35300000  0.17960000  0.28030000  1.0 -0.5308450894
O  O14  1  0.64700000  0.67960000  0.71970000  1.0 -0.5308450894
O  O15  1  0.27760000  0.20470000  0.38850000  1.0 -0.5195080922
O  O16  1  0.72240000  0.70470000  0.61150000  1.0 -0.5195080922
O  O17  1  0.79940000  0.22610000  0.41170000  1.0 -0.5817740248
O  O18  1  0.20060000  0.72610000  0.58830000  1.0 -0.5817740248
O  O19  1  0.65910000  0.17870000  0.32300000  1.0 -0.5431720899
O  O20  1  0.34090000  0.67870000  0.67700000  1.0 -0.5431720899
