# DDEC6 charges by PACMAN v1.1 (https://github.com/mtap-research/PACMAN-charge/)
data_CEKNIQ_ASR_pacman
_symmetry_space_group_name_H-M   'P 1'
_cell_length_a   31.98150000
_cell_length_b   31.98150000
_cell_length_c   31.98150000
_cell_angle_alpha   114.30100000
_cell_angle_beta   114.30100000
_cell_angle_gamma   100.19100000
_symmetry_Int_Tables_number   1
_chemical_formula_structural   Zn7H48(C34O11)2
_chemical_formula_sum   'Zn28 H192 C272 O88'
_cell_volume   24697.55527250
_cell_formula_units_Z   4
loop_
 _symmetry_equiv_pos_site_id
 _symmetry_equiv_pos_as_xyz
  1  'x, y, z'
loop_
 _atom_site_type_symbol
 _atom_site_label
 _atom_site_symmetry_multiplicity
 _atom_site_fract_x
 _atom_site_fract_y
 _atom_site_fract_z
 _atom_site_occupancy
 _atom_site_charge
Zn  Zn1  1  0.00962000  0.04953000  0.56481000  1.0 0.9280167901
Zn  Zn2  1  0.48472000  0.44481000  0.43519000  1.0 0.9280167901
Zn  Zn3  1  0.04953000  0.48472000  0.03991000  1.0 0.9280167901
Zn  Zn4  1  0.44481000  0.00962000  0.96009000  1.0 0.9280167901
Zn  Zn5  1  0.98472000  0.54953000  0.03991000  1.0 0.9280167901
Zn  Zn6  1  0.50962000  0.94481000  0.96009000  1.0 0.9280167901
Zn  Zn7  1  0.94481000  0.98472000  0.43519000  1.0 0.9280167901
Zn  Zn8  1  0.54953000  0.50962000  0.56481000  1.0 0.9280167901
Zn  Zn9  1  0.81706000  0.38177000  0.96037000  1.0 0.9439308662
Zn  Zn10  1  0.42140000  0.85669000  0.03963000  1.0 0.9439308662
Zn  Zn11  1  0.38177000  0.42140000  0.56471000  1.0 0.9439308662
Zn  Zn12  1  0.85669000  0.81706000  0.43529000  1.0 0.9439308662
Zn  Zn13  1  0.92140000  0.88177000  0.56471000  1.0 0.9439308662
Zn  Zn14  1  0.31706000  0.35669000  0.43529000  1.0 0.9457737737
Zn  Zn15  1  0.35669000  0.92140000  0.03963000  1.0 0.9439308662
Zn  Zn16  1  0.88177000  0.31706000  0.96037000  1.0 0.9439308662
Zn  Zn17  1  0.97851000  0.86119000  0.50000000  1.0 0.9649439984
Zn  Zn18  1  0.36119000  0.47851000  0.50000000  1.0 0.9649439984
Zn  Zn19  1  0.86119000  0.36119000  0.88268000  1.0 0.9649439984
Zn  Zn20  1  0.47851000  0.97851000  0.11732000  1.0 0.9705077105
Zn  Zn21  1  0.93292000  0.93294000  0.50000000  1.0 0.9862030678
Zn  Zn22  1  0.43294000  0.43292000  0.50000000  1.0 0.9862030678
Zn  Zn23  1  0.93294000  0.43294000  0.00002000  1.0 0.9862030678
Zn  Zn24  1  0.43292000  0.93292000  0.99998000  1.0 0.9862030678
Zn  Zn25  1  0.38851000  0.88851000  0.88292000  1.0 0.9705077105
Zn  Zn26  1  0.00559000  0.50559000  0.11708000  1.0 0.9705077105
Zn  Zn27  1  0.88851000  0.00559000  0.50000000  1.0 0.9705077105
Zn  Zn28  1  0.50559000  0.38851000  0.50000000  1.0 0.9705077105
H  H1  1  0.08790000  0.94800000  0.62090000  1.0 0.1218677258
H  H2  1  0.32710000  0.46700000  0.37910000  1.0 0.1218677258
H  H3  1  0.94800000  0.32710000  0.86010000  1.0 0.1218677258
H  H4  1  0.46700000  0.08790000  0.13990000  1.0 0.1218677258
H  H5  1  0.82710000  0.44800000  0.86010000  1.0 0.1218677258
H  H6  1  0.58790000  0.96700000  0.13990000  1.0 0.1218677258
H  H7  1  0.96700000  0.82710000  0.37910000  1.0 0.1218677258
H  H8  1  0.44800000  0.58790000  0.62090000  1.0 0.1218677258
H  H9  1  0.14400000  0.04800000  0.67800000  1.0 0.1099888317
H  H10  1  0.37000000  0.46600000  0.32200000  1.0 0.1099888317
H  H11  1  0.04800000  0.37000000  0.90400000  1.0 0.1099888317
H  H12  1  0.46600000  0.14400000  0.09600000  1.0 0.1099888317
H  H13  1  0.87000000  0.54800000  0.90400000  1.0 0.1099888317
H  H14  1  0.64400000  0.96600000  0.09600000  1.0 0.1099888317
H  H15  1  0.96600000  0.87000000  0.32200000  1.0 0.1099888317
H  H16  1  0.54800000  0.64400000  0.67800000  1.0 0.1099888317
H  H17  1  0.22240000  0.08490000  0.76030000  1.0 0.1099888317
H  H18  1  0.32460000  0.46210000  0.23970000  1.0 0.1099888317
H  H19  1  0.08490000  0.32460000  0.86250000  1.0 0.1099888317
H  H20  1  0.46210000  0.22240000  0.13750000  1.0 0.1099888317
H  H21  1  0.82460000  0.58490000  0.86250000  1.0 0.1099888317
H  H22  1  0.72240000  0.96210000  0.13750000  1.0 0.1099888317
H  H23  1  0.96210000  0.82460000  0.23970000  1.0 0.1099888317
H  H24  1  0.58490000  0.72240000  0.76030000  1.0 0.1099888317
H  H25  1  0.28950000  0.07840000  0.81970000  1.0 0.1099888317
H  H26  1  0.25870000  0.46980000  0.18030000  1.0 0.1099888317
H  H27  1  0.07840000  0.25870000  0.78890000  1.0 0.1099888317
H  H28  1  0.46980000  0.28950000  0.21110000  1.0 0.1099888317
H  H29  1  0.75870000  0.57840000  0.78890000  1.0 0.1099888317
H  H30  1  0.78950000  0.96980000  0.21110000  1.0 0.1099888317
H  H31  1  0.96980000  0.75870000  0.18030000  1.0 0.1099888317
H  H32  1  0.57840000  0.78950000  0.81970000  1.0 0.1099888317
H  H33  1  0.22010000  0.92730000  0.72020000  1.0 0.100955255
H  H34  1  0.20710000  0.49990000  0.27980000  1.0 0.100955255
H  H35  1  0.92730000  0.20710000  0.70720000  1.0 0.100955255
H  H36  1  0.49990000  0.22010000  0.29280000  1.0 0.100955255
H  H37  1  0.70710000  0.42730000  0.70720000  1.0 0.100955255
H  H38  1  0.72010000  0.99990000  0.29280000  1.0 0.100955255
H  H39  1  0.99990000  0.70710000  0.27980000  1.0 0.100955255
H  H40  1  0.42730000  0.72010000  0.72020000  1.0 0.100955255
H  H41  1  0.15300000  0.93380000  0.66080000  1.0 0.1099888317
H  H42  1  0.27300000  0.49220000  0.33920000  1.0 0.1099888317
H  H43  1  0.93380000  0.27300000  0.78080000  1.0 0.1099888317
H  H44  1  0.49220000  0.15300000  0.21920000  1.0 0.1099888317
H  H45  1  0.77300000  0.43380000  0.78080000  1.0 0.1099888317
H  H46  1  0.65300000  0.99220000  0.21920000  1.0 0.1099888317
H  H47  1  0.99220000  0.77300000  0.33920000  1.0 0.1099888317
H  H48  1  0.43380000  0.65300000  0.66080000  1.0 0.1099888317
H  H49  1  0.32070000  0.02740000  0.85130000  1.0 0.1218677258
H  H50  1  0.17610000  0.46940000  0.14870000  1.0 0.1218677258
H  H51  1  0.02740000  0.17610000  0.70670000  1.0 0.1218677258
H  H52  1  0.46940000  0.32070000  0.29330000  1.0 0.1218677258
H  H53  1  0.67610000  0.52740000  0.70670000  1.0 0.1218677258
H  H54  1  0.82070000  0.96940000  0.29330000  1.0 0.1218677258
H  H55  1  0.96940000  0.67610000  0.14870000  1.0 0.1218677258
H  H56  1  0.52740000  0.82070000  0.85130000  1.0 0.1218677258
H  H57  1  0.29170000  0.93130000  0.78120000  1.0 0.1416608476
H  H58  1  0.15010000  0.51050000  0.21880000  1.0 0.1416608476
H  H59  1  0.93130000  0.15010000  0.63960000  1.0 0.1416608476
H  H60  1  0.51050000  0.29170000  0.36040000  1.0 0.1416608476
H  H61  1  0.65010000  0.43130000  0.63960000  1.0 0.1416608476
H  H62  1  0.79170000  0.01050000  0.36040000  1.0 0.1416608476
H  H63  1  0.01050000  0.65010000  0.21880000  1.0 0.1416608476
H  H64  1  0.43130000  0.79170000  0.78120000  1.0 0.1416608476
H  H65  1  0.92470000  0.53700000  0.14790000  1.0 0.1218677258
H  H66  1  0.38910000  0.77680000  0.85210000  1.0 0.1218677258
H  H67  1  0.53700000  0.38910000  0.61230000  1.0 0.1218677258
H  H68  1  0.77680000  0.92470000  0.38770000  1.0 0.1218677258
H  H69  1  0.88910000  0.03700000  0.61230000  1.0 0.1218677258
H  H70  1  0.42470000  0.27680000  0.38770000  1.0 0.1218677258
H  H71  1  0.27680000  0.88910000  0.85210000  1.0 0.1218677258
H  H72  1  0.03700000  0.42470000  0.14790000  1.0 0.1218677258
H  H73  1  0.82070000  0.50360000  0.08710000  1.0 0.1099888317
H  H74  1  0.41650000  0.73360000  0.91290000  1.0 0.1099888317
H  H75  1  0.50360000  0.41650000  0.68290000  1.0 0.1099888317
H  H76  1  0.73360000  0.82070000  0.31710000  1.0 0.1099888317
H  H77  1  0.91650000  0.00360000  0.68290000  1.0 0.1099888317
H  H78  1  0.32070000  0.23360000  0.31710000  1.0 0.1099888317
H  H79  1  0.23360000  0.91650000  0.91290000  1.0 0.1099888317
H  H80  1  0.00360000  0.32070000  0.08710000  1.0 0.1099888317
H  H81  1  0.92640000  0.58400000  0.22380000  1.0 0.1099888317
H  H82  1  0.36020000  0.70260000  0.77620000  1.0 0.1099888317
H  H83  1  0.58400000  0.36020000  0.65760000  1.0 0.1099888317
H  H84  1  0.70260000  0.92640000  0.34240000  1.0 0.1099888317
H  H85  1  0.86020000  0.08400000  0.65760000  1.0 0.1099888317
H  H86  1  0.42640000  0.20260000  0.34240000  1.0 0.1099888317
H  H87  1  0.20260000  0.86020000  0.77620000  1.0 0.1099888317
H  H88  1  0.08400000  0.42640000  0.22380000  1.0 0.1099888317
H  H89  1  0.93130000  0.64740000  0.29790000  1.0 0.1099888317
H  H90  1  0.34950000  0.63340000  0.70210000  1.0 0.1099888317
H  H91  1  0.64740000  0.34950000  0.71610000  1.0 0.1099888317
H  H92  1  0.63340000  0.93130000  0.28390000  1.0 0.1099888317
H  H93  1  0.84950000  0.14740000  0.71610000  1.0 0.1099888317
H  H94  1  0.43130000  0.13340000  0.28390000  1.0 0.1099888317
H  H95  1  0.13340000  0.84950000  0.70210000  1.0 0.1099888317
H  H96  1  0.14740000  0.43130000  0.29790000  1.0 0.1099888317
H  H97  1  0.79440000  0.63320000  0.19800000  1.0 0.1099888317
H  H98  1  0.43520000  0.59640000  0.80200000  1.0 0.1099888317
H  H99  1  0.63320000  0.43520000  0.83880000  1.0 0.1099888317
H  H100  1  0.59640000  0.79440000  0.16120000  1.0 0.1099888317
H  H101  1  0.93520000  0.13320000  0.83880000  1.0 0.1099888317
H  H102  1  0.29440000  0.09640000  0.16120000  1.0 0.1099888317
H  H103  1  0.09640000  0.93520000  0.80200000  1.0 0.1099888317
H  H104  1  0.13320000  0.29440000  0.19800000  1.0 0.1099888317
H  H105  1  0.78970000  0.56990000  0.12400000  1.0 0.1099888317
H  H106  1  0.44590000  0.66570000  0.87600000  1.0 0.1099888317
H  H107  1  0.56990000  0.44590000  0.78020000  1.0 0.1099888317
H  H108  1  0.66570000  0.78970000  0.21980000  1.0 0.1099888317
H  H109  1  0.94590000  0.06990000  0.78020000  1.0 0.1099888317
H  H110  1  0.28970000  0.16570000  0.21980000  1.0 0.1099888317
H  H111  1  0.16570000  0.94590000  0.87600000  1.0 0.1099888317
H  H112  1  0.06990000  0.28970000  0.12400000  1.0 0.1099888317
H  H113  1  0.83550000  0.68550000  0.29720000  1.0 0.1218677258
H  H114  1  0.38830000  0.53830000  0.70280000  1.0 0.1218677258
H  H115  1  0.68550000  0.38830000  0.85000000  1.0 0.1218677258
H  H116  1  0.53830000  0.83550000  0.15000000  1.0 0.1218677258
H  H117  1  0.88830000  0.18550000  0.85000000  1.0 0.1218677258
H  H118  1  0.33550000  0.03830000  0.15000000  1.0 0.1218677258
H  H119  1  0.03830000  0.88830000  0.70280000  1.0 0.1218677258
H  H120  1  0.18550000  0.33550000  0.29720000  1.0 0.1218677258
H  H121  1  0.93550000  0.71380000  0.35890000  1.0 0.1218677258
H  H122  1  0.35490000  0.57660000  0.64110000  1.0 0.1218677258
H  H123  1  0.71380000  0.35490000  0.77830000  1.0 0.1218677258
H  H124  1  0.57660000  0.93550000  0.22170000  1.0 0.1218677258
H  H125  1  0.85490000  0.21380000  0.77830000  1.0 0.1218677258
H  H126  1  0.43550000  0.07660000  0.22170000  1.0 0.1218677258
H  H127  1  0.07660000  0.85490000  0.64110000  1.0 0.1218677258
H  H128  1  0.21380000  0.43550000  0.35890000  1.0 0.1218677258
H  H129  1  0.06020000  0.10780000  0.46640000  1.0 0.100955255
H  H130  1  0.64140000  0.59380000  0.53360000  1.0 0.100955255
H  H131  1  0.10780000  0.64140000  0.04760000  1.0 0.100955255
H  H132  1  0.59380000  0.06020000  0.95240000  1.0 0.100955255
H  H133  1  0.14140000  0.60780000  0.04760000  1.0 0.100955255
H  H134  1  0.56020000  0.09380000  0.95240000  1.0 0.100955255
H  H135  1  0.09380000  0.14140000  0.53360000  1.0 0.100955255
H  H136  1  0.60780000  0.56020000  0.46640000  1.0 0.100955255
H  H137  1  0.13680000  0.14870000  0.56310000  1.0 0.0894180242
H  H138  1  0.58560000  0.57370000  0.43690000  1.0 0.0894180242
H  H139  1  0.14870000  0.58560000  0.01190000  1.0 0.0894180242
H  H140  1  0.57370000  0.13680000  0.98810000  1.0 0.0894180242
H  H141  1  0.08560000  0.64870000  0.01190000  1.0 0.0894180242
H  H142  1  0.63680000  0.07370000  0.98810000  1.0 0.0894180242
H  H143  1  0.07370000  0.08560000  0.43690000  1.0 0.0894180242
H  H144  1  0.64870000  0.63680000  0.56310000  1.0 0.0894180242
H  H145  1  0.20040000  0.22110000  0.60810000  1.0 0.100955255
H  H146  1  0.61300000  0.59230000  0.39190000  1.0 0.100955255
H  H147  1  0.22110000  0.61300000  0.02070000  1.0 0.100955255
H  H148  1  0.59230000  0.20040000  0.97930000  1.0 0.100955255
H  H149  1  0.11300000  0.72110000  0.02070000  1.0 0.100955255
H  H150  1  0.70040000  0.09230000  0.97930000  1.0 0.100955255
H  H151  1  0.09230000  0.11300000  0.39190000  1.0 0.100955255
H  H152  1  0.72110000  0.70040000  0.60810000  1.0 0.100955255
H  H153  1  0.24610000  0.28890000  0.61180000  1.0 0.1218677258
H  H154  1  0.67710000  0.63430000  0.38820000  1.0 0.1218677258
H  H155  1  0.28890000  0.67710000  0.04280000  1.0 0.1218677258
H  H156  1  0.63430000  0.24610000  0.95720000  1.0 0.1218677258
H  H157  1  0.17710000  0.78890000  0.04280000  1.0 0.1218677258
H  H158  1  0.74610000  0.13430000  0.95720000  1.0 0.1218677258
H  H159  1  0.13430000  0.17710000  0.38820000  1.0 0.1218677258
H  H160  1  0.78890000  0.74610000  0.61180000  1.0 0.1218677258
H  H161  1  0.22010000  0.26300000  0.55190000  1.0 0.1099888317
H  H162  1  0.71110000  0.66820000  0.44810000  1.0 0.1099888317
H  H163  1  0.26300000  0.71110000  0.04290000  1.0 0.1099888317
H  H164  1  0.66820000  0.22010000  0.95710000  1.0 0.1099888317
H  H165  1  0.21110000  0.76300000  0.04290000  1.0 0.1099888317
H  H166  1  0.72010000  0.16820000  0.95710000  1.0 0.1099888317
H  H167  1  0.16820000  0.21110000  0.44810000  1.0 0.1099888317
H  H168  1  0.76300000  0.72010000  0.55190000  1.0 0.1099888317
H  H169  1  0.17810000  0.19890000  0.55560000  1.0 0.100955255
H  H170  1  0.64330000  0.62250000  0.44440000  1.0 0.100955255
H  H171  1  0.19890000  0.64330000  0.02080000  1.0 0.100955255
H  H172  1  0.62250000  0.17810000  0.97920000  1.0 0.100955255
H  H173  1  0.14330000  0.69890000  0.02080000  1.0 0.100955255
H  H174  1  0.67810000  0.12250000  0.97920000  1.0 0.100955255
H  H175  1  0.12250000  0.14330000  0.44440000  1.0 0.100955255
H  H176  1  0.69890000  0.67810000  0.55560000  1.0 0.100955255
H  H177  1  0.27670000  0.31460000  0.57010000  1.0 0.100955255
H  H178  1  0.74450000  0.70660000  0.42990000  1.0 0.1099888317
H  H179  1  0.31460000  0.74450000  0.03790000  1.0 0.100955255
H  H180  1  0.70660000  0.27670000  0.96210000  1.0 0.100955255
H  H181  1  0.24450000  0.81460000  0.03790000  1.0 0.100955255
H  H182  1  0.77670000  0.20660000  0.96210000  1.0 0.100955255
H  H183  1  0.20660000  0.24450000  0.42990000  1.0 0.100955255
H  H184  1  0.81460000  0.77670000  0.57010000  1.0 0.1099888317
H  H185  1  0.25080000  0.31210000  0.53330000  1.0 0.100955255
H  H186  1  0.77880000  0.71750000  0.46670000  1.0 0.100955255
H  H187  1  0.31210000  0.77880000  0.06130000  1.0 0.100955255
H  H188  1  0.71750000  0.25080000  0.93870000  1.0 0.100955255
H  H189  1  0.27880000  0.81210000  0.06130000  1.0 0.100955255
H  H190  1  0.75080000  0.21750000  0.93870000  1.0 0.100955255
H  H191  1  0.21750000  0.27880000  0.46670000  1.0 0.100955255
H  H192  1  0.81210000  0.75080000  0.53330000  1.0 0.100955255
C  C1  1  0.05097000  0.99014000  0.59883000  1.0 0.6381426387
C  C2  1  0.39131000  0.45214000  0.40117000  1.0 0.6381426387
C  C3  1  0.99014000  0.39131000  0.93917000  1.0 0.6381426387
C  C4  1  0.45214000  0.05097000  0.06083000  1.0 0.6381426387
C  C5  1  0.89131000  0.49014000  0.93917000  1.0 0.6381426387
C  C6  1  0.55097000  0.95214000  0.06083000  1.0 0.6381426387
C  C7  1  0.95214000  0.89131000  0.40117000  1.0 0.6381426387
C  C8  1  0.49014000  0.55097000  0.59883000  1.0 0.6381426387
C  C9  1  0.09388000  0.98108000  0.63060000  1.0 -0.2293409473
C  C10  1  0.35048000  0.46328000  0.36940000  1.0 -0.2293409473
C  C11  1  0.98108000  0.35048000  0.88720000  1.0 -0.2293409473
C  C12  1  0.46328000  0.09388000  0.11280000  1.0 -0.2293409473
C  C13  1  0.85048000  0.48108000  0.88720000  1.0 -0.2293409473
C  C14  1  0.59388000  0.96328000  0.11280000  1.0 -0.2293409473
C  C15  1  0.96328000  0.85048000  0.36940000  1.0 -0.2293409473
C  C16  1  0.48108000  0.59388000  0.63060000  1.0 -0.2293409473
C  C17  1  0.13838000  0.01533000  0.67025000  1.0 -0.0937147281
C  C18  1  0.34508000  0.46813000  0.32975000  1.0 -0.0937147281
C  C19  1  0.01533000  0.34508000  0.87695000  1.0 -0.0937147281
C  C20  1  0.46813000  0.13838000  0.12305000  1.0 -0.0937147281
C  C21  1  0.84508000  0.51533000  0.87695000  1.0 -0.0937147281
C  C22  1  0.63838000  0.96813000  0.12305000  1.0 -0.0937147281
C  C23  1  0.96813000  0.84508000  0.32975000  1.0 -0.0937147281
C  C24  1  0.51533000  0.63838000  0.67025000  1.0 -0.0937147281
C  C25  1  0.18103000  0.00999000  0.70468000  1.0 0.100955255
C  C26  1  0.30531000  0.47635000  0.29532000  1.0 0.100955255
C  C27  1  0.00999000  0.30531000  0.82896000  1.0 0.100955255
C  C28  1  0.47635000  0.18103000  0.17104000  1.0 0.100955255
C  C29  1  0.80531000  0.50999000  0.82896000  1.0 0.100955255
C  C30  1  0.68103000  0.97635000  0.17104000  1.0 0.100955255
C  C31  1  0.97635000  0.80531000  0.29532000  1.0 0.100955255
C  C32  1  0.50999000  0.68103000  0.70468000  1.0 0.100955255
C  C33  1  0.22195000  0.05332000  0.75227000  1.0 -0.1349712975
C  C34  1  0.30105000  0.46968000  0.24773000  1.0 -0.1425049289
C  C35  1  0.05332000  0.30105000  0.83137000  1.0 -0.1349712975
C  C36  1  0.46968000  0.22195000  0.16863000  1.0 -0.1425049289
C  C37  1  0.80105000  0.55332000  0.83137000  1.0 -0.1349712975
C  C38  1  0.72195000  0.96968000  0.16863000  1.0 -0.1425049289
C  C39  1  0.96968000  0.80105000  0.24773000  1.0 -0.1425049289
C  C40  1  0.55332000  0.72195000  0.75227000  1.0 -0.1349712975
C  C41  1  0.26215000  0.04942000  0.78783000  1.0 -0.1518278114
C  C42  1  0.26159000  0.47432000  0.21217000  1.0 -0.1518278114
C  C43  1  0.04942000  0.26159000  0.78727000  1.0 -0.1518278114
C  C44  1  0.47432000  0.26215000  0.21273000  1.0 -0.1518278114
C  C45  1  0.76159000  0.54942000  0.78727000  1.0 -0.1518278114
C  C46  1  0.76215000  0.97432000  0.21273000  1.0 -0.1518278114
C  C47  1  0.97432000  0.76159000  0.21217000  1.0 -0.1518278114
C  C48  1  0.54942000  0.76215000  0.78783000  1.0 -0.1518278114
C  C49  1  0.26144000  0.00219000  0.77579000  1.0 0.100955255
C  C50  1  0.22640000  0.48565000  0.22421000  1.0 0.100955255
C  C51  1  0.00219000  0.22640000  0.74075000  1.0 0.100955255
C  C52  1  0.48565000  0.26144000  0.25925000  1.0 0.100955255
C  C53  1  0.72640000  0.50219000  0.74075000  1.0 0.100955255
C  C54  1  0.76144000  0.98565000  0.25925000  1.0 0.100955255
C  C55  1  0.98565000  0.72640000  0.22421000  1.0 0.100955255
C  C56  1  0.50219000  0.76144000  0.77579000  1.0 0.100955255
C  C57  1  0.22053000  0.95886000  0.72819000  1.0 -0.1588580665
C  C58  1  0.23067000  0.49234000  0.27181000  1.0 -0.1588580665
C  C59  1  0.95886000  0.23067000  0.73833000  1.0 -0.1588580665
C  C60  1  0.49234000  0.22053000  0.26167000  1.0 -0.1588580665
C  C61  1  0.73067000  0.45886000  0.73833000  1.0 -0.1588580665
C  C62  1  0.72053000  0.99234000  0.26167000  1.0 -0.1588580665
C  C63  1  0.99234000  0.73067000  0.27181000  1.0 -0.1588580665
C  C64  1  0.45886000  0.72053000  0.72819000  1.0 -0.1588580665
C  C65  1  0.18033000  0.96277000  0.69264000  1.0 -0.1425049289
C  C66  1  0.27013000  0.48769000  0.30736000  1.0 -0.1425049289
C  C67  1  0.96277000  0.27013000  0.78244000  1.0 -0.1425049289
C  C68  1  0.48769000  0.18033000  0.21756000  1.0 -0.1425049289
C  C69  1  0.77013000  0.46277000  0.78244000  1.0 -0.1425049289
C  C70  1  0.68033000  0.98769000  0.21756000  1.0 -0.1425049289
C  C71  1  0.98769000  0.77013000  0.30736000  1.0 -0.1425049289
C  C72  1  0.46277000  0.68033000  0.69264000  1.0 -0.1425049289
C  C73  1  0.30095000  0.99790000  0.81685000  1.0 -0.0790059027
C  C74  1  0.18105000  0.48410000  0.18315000  1.0 -0.0790059027
C  C75  1  0.99790000  0.18105000  0.69695000  1.0 -0.0790059027
C  C76  1  0.48410000  0.30095000  0.30305000  1.0 -0.0790059027
C  C77  1  0.68105000  0.49790000  0.69695000  1.0 -0.0790059027
C  C78  1  0.80095000  0.98410000  0.30305000  1.0 -0.0790059027
C  C79  1  0.98410000  0.68105000  0.18315000  1.0 -0.0790059027
C  C80  1  0.49790000  0.80095000  0.81685000  1.0 -0.0790059027
C  C81  1  0.31288000  0.96220000  0.81408000  1.0 -0.249761901
C  C82  1  0.14812000  0.49880000  0.18592000  1.0 -0.249761901
C  C83  1  0.96220000  0.14812000  0.64932000  1.0 -0.249761901
C  C84  1  0.49880000  0.31288000  0.35068000  1.0 -0.249761901
C  C85  1  0.64812000  0.46220000  0.64932000  1.0 -0.249761901
C  C86  1  0.81288000  0.99880000  0.35068000  1.0 -0.249761901
C  C87  1  0.99880000  0.64812000  0.18592000  1.0 -0.249761901
C  C88  1  0.46220000  0.81288000  0.81408000  1.0 -0.249761901
C  C89  1  0.35521000  0.96270000  0.85511000  1.0 0.6284159753
C  C90  1  0.10759000  0.50010000  0.14489000  1.0 0.6233482891
C  C91  1  0.96270000  0.10759000  0.60749000  1.0 0.6233482891
C  C92  1  0.50010000  0.35521000  0.39251000  1.0 0.6284159753
C  C93  1  0.60759000  0.46270000  0.60749000  1.0 0.6233482891
C  C94  1  0.85521000  0.00010000  0.39251000  1.0 0.6233482891
C  C95  1  0.00010000  0.60759000  0.14489000  1.0 0.6233482891
C  C96  1  0.46270000  0.85521000  0.85511000  1.0 0.6233482891
C  C97  1  0.88367000  0.47417000  0.06610000  1.0 0.6284159753
C  C98  1  0.40807000  0.81757000  0.93390000  1.0 0.6284159753
C  C99  1  0.47417000  0.40807000  0.59050000  1.0 0.6284159753
C  C100  1  0.81757000  0.88367000  0.40950000  1.0 0.6284159753
C  C101  1  0.90807000  0.97417000  0.59050000  1.0 0.6284159753
C  C102  1  0.38367000  0.31757000  0.40950000  1.0 0.6284159753
C  C103  1  0.31757000  0.90807000  0.93390000  1.0 0.6284159753
C  C104  1  0.97417000  0.38367000  0.06610000  1.0 0.6284159753
C  C105  1  0.89220000  0.51680000  0.11700000  1.0 -0.2670016951
C  C106  1  0.39980000  0.77520000  0.88300000  1.0 -0.2670016951
C  C107  1  0.51680000  0.39980000  0.62460000  1.0 -0.2670016951
C  C108  1  0.77520000  0.89220000  0.37540000  1.0 -0.2670016951
C  C109  1  0.89980000  0.01680000  0.62460000  1.0 -0.2670016951
C  C110  1  0.39220000  0.27520000  0.37540000  1.0 -0.2670016951
C  C111  1  0.27520000  0.89980000  0.88300000  1.0 -0.2670016951
C  C112  1  0.01680000  0.39220000  0.11700000  1.0 -0.2670016951
C  C113  1  0.85290000  0.52580000  0.11790000  1.0 -0.1015875401
C  C114  1  0.40790000  0.73500000  0.88210000  1.0 -0.1015875401
C  C115  1  0.52580000  0.40790000  0.67290000  1.0 -0.1015875401
C  C116  1  0.73500000  0.85290000  0.32710000  1.0 -0.1015875401
C  C117  1  0.90790000  0.02580000  0.67290000  1.0 -0.1015875401
C  C118  1  0.35290000  0.23500000  0.32710000  1.0 -0.1015875401
C  C119  1  0.23500000  0.90790000  0.88210000  1.0 -0.1015875401
C  C120  1  0.02580000  0.35290000  0.11790000  1.0 -0.1015875401
C  C121  1  0.85758000  0.57067000  0.16653000  1.0 0.100955255
C  C122  1  0.40414000  0.69105000  0.83347000  1.0 0.100955255
C  C123  1  0.57067000  0.40414000  0.71309000  1.0 0.100955255
C  C124  1  0.69105000  0.85758000  0.28691000  1.0 0.100955255
C  C125  1  0.90414000  0.07067000  0.71309000  1.0 0.1099888317
C  C126  1  0.35758000  0.19105000  0.28691000  1.0 0.100955255
C  C127  1  0.19105000  0.90414000  0.83347000  1.0 0.100955255
C  C128  1  0.07067000  0.35758000  0.16653000  1.0 0.100955255
C  C129  1  0.89999000  0.59388000  0.21863000  1.0 -0.1518278114
C  C130  1  0.37525000  0.68136000  0.78137000  1.0 -0.1518278114
C  C131  1  0.59388000  0.37525000  0.69389000  1.0 -0.1518278114
C  C132  1  0.68136000  0.89999000  0.30611000  1.0 -0.1518278114
C  C133  1  0.87525000  0.09388000  0.69389000  1.0 -0.1518278114
C  C134  1  0.39999000  0.18136000  0.30611000  1.0 -0.1518278114
C  C135  1  0.18136000  0.87525000  0.78137000  1.0 -0.1518278114
C  C136  1  0.09388000  0.39999000  0.21863000  1.0 -0.1518278114
C  C137  1  0.90285000  0.63185000  0.26300000  1.0 -0.1425049289
C  C138  1  0.36885000  0.63985000  0.73700000  1.0 -0.1425049289
C  C139  1  0.63185000  0.36885000  0.72900000  1.0 -0.1425049289
C  C140  1  0.63985000  0.90285000  0.27100000  1.0 -0.1425049289
C  C141  1  0.86885000  0.13185000  0.72900000  1.0 -0.1425049289
C  C142  1  0.40285000  0.13985000  0.27100000  1.0 -0.1425049289
C  C143  1  0.13985000  0.86885000  0.73700000  1.0 -0.1425049289
C  C144  1  0.13185000  0.40285000  0.26300000  1.0 -0.1425049289
C  C145  1  0.86331000  0.64661000  0.25530000  1.0 0.0894180242
C  C146  1  0.39131000  0.60801000  0.74470000  1.0 0.0894180242
C  C147  1  0.64661000  0.39131000  0.78330000  1.0 0.0894180242
C  C148  1  0.60801000  0.86331000  0.21670000  1.0 0.0894180242
C  C149  1  0.89131000  0.14661000  0.78330000  1.0 0.0894180242
C  C150  1  0.36331000  0.10801000  0.21670000  1.0 0.0894180242
C  C151  1  0.10801000  0.89131000  0.74470000  1.0 0.0894180242
C  C152  1  0.14661000  0.36331000  0.25530000  1.0 0.0894180242
C  C153  1  0.82096000  0.62336000  0.20320000  1.0 -0.1518278114
C  C154  1  0.42016000  0.61776000  0.79680000  1.0 -0.1518278114
C  C155  1  0.62336000  0.42016000  0.80240000  1.0 -0.1518278114
C  C156  1  0.61776000  0.82096000  0.19760000  1.0 -0.1518278114
C  C157  1  0.92016000  0.12336000  0.80240000  1.0 -0.1518278114
C  C158  1  0.32096000  0.11776000  0.19760000  1.0 -0.1518278114
C  C159  1  0.11776000  0.92016000  0.79680000  1.0 -0.1518278114
C  C160  1  0.12336000  0.32096000  0.20320000  1.0 -0.1518278114
C  C161  1  0.81805000  0.58542000  0.15881000  1.0 -0.1518278114
C  C162  1  0.42661000  0.65924000  0.84119000  1.0 -0.1518278114
C  C163  1  0.58542000  0.42661000  0.76737000  1.0 -0.1518278114
C  C164  1  0.65924000  0.81805000  0.23263000  1.0 -0.1518278114
C  C165  1  0.92661000  0.08542000  0.76737000  1.0 -0.1518278114
C  C166  1  0.31805000  0.15924000  0.23263000  1.0 -0.1518278114
C  C167  1  0.15924000  0.92661000  0.84119000  1.0 -0.1518278114
C  C168  1  0.08542000  0.31805000  0.15881000  1.0 -0.1518278114
C  C169  1  0.86610000  0.68460000  0.30250000  1.0 -0.1015875401
C  C170  1  0.38210000  0.56360000  0.69750000  1.0 -0.1015875401
C  C171  1  0.68460000  0.38210000  0.81850000  1.0 -0.1015875401
C  C172  1  0.56360000  0.86610000  0.18150000  1.0 -0.1015875401
C  C173  1  0.88210000  0.18460000  0.81850000  1.0 -0.1015875401
C  C174  1  0.36610000  0.06360000  0.18150000  1.0 -0.1015875401
C  C175  1  0.06360000  0.88210000  0.69750000  1.0 -0.1015875401
C  C176  1  0.18460000  0.36610000  0.30250000  1.0 -0.1015875401
C  C177  1  0.90529000  0.71719000  0.35070000  1.0 -0.2230240397
C  C178  1  0.36649000  0.55459000  0.64930000  1.0 -0.2230240397
C  C179  1  0.71719000  0.36649000  0.81190000  1.0 -0.2230240397
C  C180  1  0.55459000  0.90529000  0.18810000  1.0 -0.2230240397
C  C181  1  0.86649000  0.21719000  0.81190000  1.0 -0.2230240397
C  C182  1  0.40529000  0.05459000  0.18810000  1.0 -0.2230240397
C  C183  1  0.05459000  0.86649000  0.64930000  1.0 -0.2230240397
C  C184  1  0.21719000  0.40529000  0.35070000  1.0 -0.2230240397
C  C185  1  0.90556000  0.76046000  0.39490000  1.0 0.6284159753
C  C186  1  0.36556000  0.51066000  0.60510000  1.0 0.6284159753
C  C187  1  0.76046000  0.36556000  0.85490000  1.0 0.6284159753
C  C188  1  0.51066000  0.90556000  0.14510000  1.0 0.6284159753
C  C189  1  0.86556000  0.26046000  0.85490000  1.0 0.6284159753
C  C190  1  0.40556000  0.01066000  0.14510000  1.0 0.6284159753
C  C191  1  0.01066000  0.86556000  0.60510000  1.0 0.6284159753
C  C192  1  0.26046000  0.40556000  0.39490000  1.0 0.6284159753
C  C193  1  0.03943000  0.07623000  0.50000000  1.0 0.6096066766
C  C194  1  0.57623000  0.53943000  0.50000000  1.0 0.6096066766
C  C195  1  0.07623000  0.57623000  0.03680000  1.0 0.6096066766
C  C196  1  0.53943000  0.03943000  0.96320000  1.0 0.6096066766
C  C197  1  0.07608000  0.11088000  0.50000000  1.0 -0.212264835
C  C198  1  0.61088000  0.57608000  0.50000000  1.0 -0.212264835
C  C199  1  0.11088000  0.61088000  0.03480000  1.0 -0.212264835
C  C200  1  0.57608000  0.07608000  0.96520000  1.0 -0.212264835
C  C201  1  0.12120000  0.14350000  0.52850000  1.0 -0.0790059027
C  C202  1  0.61500000  0.59270000  0.47150000  1.0 -0.0790059027
C  C203  1  0.14350000  0.61500000  0.02230000  1.0 -0.0790059027
C  C204  1  0.59270000  0.12120000  0.97770000  1.0 -0.0790059027
C  C205  1  0.11500000  0.64350000  0.02230000  1.0 -0.0790059027
C  C206  1  0.62120000  0.09270000  0.97770000  1.0 -0.0790059027
C  C207  1  0.09270000  0.11500000  0.47150000  1.0 -0.0790059027
C  C208  1  0.64350000  0.62120000  0.52850000  1.0 -0.0790059027
C  C209  1  0.15692000  0.17542000  0.52590000  1.0 -0.0104467611
C  C210  1  0.64952000  0.63102000  0.47410000  1.0 -0.0104467611
C  C211  1  0.17542000  0.64952000  0.01850000  1.0 -0.0104467611
C  C212  1  0.63102000  0.15692000  0.98150000  1.0 -0.0104467611
C  C213  1  0.14952000  0.67542000  0.01850000  1.0 -0.0104467611
C  C214  1  0.65692000  0.13102000  0.98150000  1.0 -0.0104467611
C  C215  1  0.13102000  0.14952000  0.47410000  1.0 -0.0104467611
C  C216  1  0.67542000  0.65692000  0.52590000  1.0 -0.0020160187
C  C217  1  0.19387000  0.21907000  0.57600000  1.0 -0.1588580665
C  C218  1  0.64307000  0.61787000  0.42400000  1.0 -0.1588580665
C  C219  1  0.21907000  0.64307000  0.02520000  1.0 -0.1588580665
C  C220  1  0.61787000  0.19387000  0.97480000  1.0 -0.1588580665
C  C221  1  0.14307000  0.71907000  0.02520000  1.0 -0.1588580665
C  C222  1  0.69387000  0.11787000  0.97480000  1.0 -0.1588580665
C  C223  1  0.11787000  0.14307000  0.42400000  1.0 -0.1588580665
C  C224  1  0.71907000  0.69387000  0.57600000  1.0 -0.1588580665
C  C225  1  0.22130000  0.25970000  0.57820000  1.0 -0.1151719234
C  C226  1  0.68150000  0.64310000  0.42180000  1.0 -0.1132668882
C  C227  1  0.25970000  0.68150000  0.03840000  1.0 -0.1132668882
C  C228  1  0.64310000  0.22130000  0.96160000  1.0 -0.1151719234
C  C229  1  0.18150000  0.75970000  0.03840000  1.0 -0.1132668882
C  C230  1  0.72130000  0.14310000  0.96160000  1.0 -0.1151719234
C  C231  1  0.14310000  0.18150000  0.42180000  1.0 -0.1151719234
C  C232  1  0.75970000  0.72130000  0.57820000  1.0 -0.1132668882
C  C233  1  0.21163000  0.25673000  0.53030000  1.0 -0.0189253233
C  C234  1  0.72643000  0.68133000  0.46970000  1.0 -0.0104467611
C  C235  1  0.25673000  0.72643000  0.04510000  1.0 -0.0189253233
C  C236  1  0.68133000  0.21163000  0.95490000  1.0 -0.0189253233
C  C237  1  0.22643000  0.75673000  0.04510000  1.0 -0.0104467611
C  C238  1  0.71163000  0.18133000  0.95490000  1.0 -0.0189253233
C  C239  1  0.18133000  0.22643000  0.46970000  1.0 -0.0189253233
C  C240  1  0.75673000  0.71163000  0.53030000  1.0 -0.0189253233
C  C241  1  0.19448000  0.23288000  0.51980000  1.0 0.0185415269
C  C242  1  0.71308000  0.67468000  0.48020000  1.0 0.0185415269
C  C243  1  0.23288000  0.71308000  0.03840000  1.0 0.0185415269
C  C244  1  0.67468000  0.19448000  0.96160000  1.0 0.0185415269
C  C245  1  0.21308000  0.73288000  0.03840000  1.0 0.0185415269
C  C246  1  0.69448000  0.17468000  0.96160000  1.0 0.0185415269
C  C247  1  0.17468000  0.21308000  0.48020000  1.0 0.0185415269
C  C248  1  0.73288000  0.69448000  0.51980000  1.0 0.0185415269
C  C249  1  0.14728000  0.17248000  0.47800000  1.0 0.0114055026
C  C250  1  0.69448000  0.66928000  0.52200000  1.0 0.0114055026
C  C251  1  0.17248000  0.69448000  0.02520000  1.0 0.0114055026
C  C252  1  0.66928000  0.14728000  0.97480000  1.0 0.0114055026
C  C253  1  0.19448000  0.67248000  0.02520000  1.0 0.0185415269
C  C254  1  0.64728000  0.16928000  0.97480000  1.0 0.0114055026
C  C255  1  0.16928000  0.19448000  0.52200000  1.0 0.0114055026
C  C256  1  0.67248000  0.64728000  0.47800000  1.0 0.0114055026
C  C257  1  0.24820000  0.29210000  0.53510000  1.0 -0.1132668882
C  C258  1  0.75700000  0.71310000  0.46490000  1.0 -0.1132668882
C  C259  1  0.29210000  0.75700000  0.04390000  1.0 -0.1132668882
C  C260  1  0.71310000  0.24820000  0.95610000  1.0 -0.1132668882
C  C261  1  0.25700000  0.79210000  0.04390000  1.0 -0.1132668882
C  C262  1  0.74820000  0.21310000  0.95610000  1.0 -0.1132668882
C  C263  1  0.21310000  0.25700000  0.46490000  1.0 -0.1132668882
C  C264  1  0.79210000  0.74820000  0.53510000  1.0 -0.1132668882
C  C265  1  0.24830000  0.29790000  0.50000000  1.0 -0.1826889805
C  C266  1  0.79790000  0.74830000  0.50000000  1.0 -0.1826889805
C  C267  1  0.29790000  0.79790000  0.04960000  1.0 -0.1826889805
C  C268  1  0.74830000  0.24830000  0.95040000  1.0 -0.1826889805
C  C269  1  0.28772000  0.32952000  0.50000000  1.0 0.586874836
C  C270  1  0.82952000  0.78772000  0.50000000  1.0 0.586874836
C  C271  1  0.32952000  0.82952000  0.04180000  1.0 0.5831625395
C  C272  1  0.78772000  0.28772000  0.95820000  1.0 0.586874836
O  O1  1  0.05933000  0.03291000  0.60770000  1.0 -0.4957659013
O  O2  1  0.42521000  0.45163000  0.39230000  1.0 -0.4957659013
O  O3  1  0.03291000  0.42521000  0.97358000  1.0 -0.4957659013
O  O4  1  0.45163000  0.05933000  0.02642000  1.0 -0.4957659013
O  O5  1  0.92521000  0.53291000  0.97358000  1.0 -0.4957659013
O  O6  1  0.55933000  0.95163000  0.02642000  1.0 -0.4957659013
O  O7  1  0.95163000  0.92521000  0.39230000  1.0 -0.4957659013
O  O8  1  0.53291000  0.55933000  0.60770000  1.0 -0.4957659013
O  O9  1  0.00988000  0.95142000  0.55960000  1.0 -0.6095468468
O  O10  1  0.39182000  0.45028000  0.44040000  1.0 -0.6095468468
O  O11  1  0.95142000  0.39182000  0.94154000  1.0 -0.6095468468
O  O12  1  0.45028000  0.00988000  0.05846000  1.0 -0.6095468468
O  O13  1  0.89182000  0.45142000  0.94154000  1.0 -0.6095468468
O  O14  1  0.50988000  0.95028000  0.05846000  1.0 -0.6095468468
O  O15  1  0.95028000  0.89182000  0.44040000  1.0 -0.6095468468
O  O16  1  0.45142000  0.50988000  0.55960000  1.0 -0.6095468468
O  O17  1  0.35629000  0.91970000  0.84089000  1.0 -0.5564298696
O  O18  1  0.07881000  0.51540000  0.15911000  1.0 -0.5564298696
O  O19  1  0.91970000  0.07881000  0.56341000  1.0 -0.5564298696
O  O20  1  0.51540000  0.35629000  0.43659000  1.0 -0.5564298696
O  O21  1  0.57881000  0.41970000  0.56341000  1.0 -0.5564298696
O  O22  1  0.85629000  0.01540000  0.43659000  1.0 -0.5564298696
O  O23  1  0.01540000  0.57881000  0.15911000  1.0 -0.5564298696
O  O24  1  0.41970000  0.85629000  0.84089000  1.0 -0.5564298696
O  O25  1  0.38423000  0.00063000  0.89932000  1.0 -0.4817106194
O  O26  1  0.10131000  0.48491000  0.10068000  1.0 -0.4817106194
O  O27  1  0.00063000  0.10131000  0.61640000  1.0 -0.4817106194
O  O28  1  0.48491000  0.38423000  0.38360000  1.0 -0.4817106194
O  O29  1  0.60131000  0.50063000  0.61640000  1.0 -0.4817106194
O  O30  1  0.88423000  0.98491000  0.38360000  1.0 -0.4817106194
O  O31  1  0.98491000  0.60131000  0.10068000  1.0 -0.4817106194
O  O32  1  0.50063000  0.88423000  0.89932000  1.0 -0.4817106194
O  O33  1  0.91934000  0.47275000  0.06109000  1.0 -0.5499881051
O  O34  1  0.41166000  0.85825000  0.93891000  1.0 -0.5499881051
O  O35  1  0.47275000  0.41166000  0.55341000  1.0 -0.5499881051
O  O36  1  0.85825000  0.91934000  0.44659000  1.0 -0.5499881051
O  O37  1  0.91166000  0.97275000  0.55341000  1.0 -0.5499881051
O  O38  1  0.41934000  0.35825000  0.44659000  1.0 -0.5499881051
O  O39  1  0.35825000  0.91166000  0.93891000  1.0 -0.5499881051
O  O40  1  0.97275000  0.41934000  0.06109000  1.0 -0.5499881051
O  O41  1  0.83423000  0.44135000  0.02544000  1.0 -0.5835888824
O  O42  1  0.41591000  0.80879000  0.97456000  1.0 -0.5835888824
O  O43  1  0.44135000  0.41591000  0.60712000  1.0 -0.5835888824
O  O44  1  0.80879000  0.83423000  0.39288000  1.0 -0.5835888824
O  O45  1  0.91591000  0.94135000  0.60712000  1.0 -0.5835888824
O  O46  1  0.33423000  0.30879000  0.39288000  1.0 -0.5835888824
O  O47  1  0.30879000  0.91591000  0.97456000  1.0 -0.5835888824
O  O48  1  0.94135000  0.33423000  0.02544000  1.0 -0.5835888824
O  O49  1  0.86355000  0.76439000  0.38170000  1.0 -0.5312555498
O  O50  1  0.38269000  0.48185000  0.61830000  1.0 -0.5312555498
O  O51  1  0.76439000  0.38269000  0.90084000  1.0 -0.5312555498
O  O52  1  0.48185000  0.86355000  0.09916000  1.0 -0.5312555498
O  O53  1  0.88269000  0.26439000  0.90084000  1.0 -0.5312555498
O  O54  1  0.36355000  0.98185000  0.09916000  1.0 -0.5312555498
O  O55  1  0.98185000  0.88269000  0.61830000  1.0 -0.5312555498
O  O56  1  0.26439000  0.36355000  0.38170000  1.0 -0.5312555498
O  O57  1  0.94426000  0.78707000  0.43745000  1.0 -0.5109241
O  O58  1  0.34962000  0.50681000  0.56255000  1.0 -0.5109241
O  O59  1  0.78707000  0.34962000  0.84281000  1.0 -0.5109241
O  O60  1  0.50681000  0.94426000  0.15719000  1.0 -0.5109241
O  O61  1  0.84962000  0.28707000  0.84281000  1.0 -0.5109241
O  O62  1  0.44426000  0.00681000  0.15719000  1.0 -0.5109241
O  O63  1  0.00681000  0.84962000  0.56255000  1.0 -0.5109241
O  O64  1  0.28707000  0.44426000  0.43745000  1.0 -0.5109241
O  O65  1  0.04891000  0.08652000  0.54657000  1.0 -0.5312555498
O  O66  1  0.53995000  0.50234000  0.45343000  1.0 -0.5312555498
O  O67  1  0.08652000  0.53995000  0.03761000  1.0 -0.5312555498
O  O68  1  0.50234000  0.04891000  0.96239000  1.0 -0.5312555498
O  O69  1  0.03995000  0.58652000  0.03761000  1.0 -0.5312555498
O  O70  1  0.54891000  0.00234000  0.96239000  1.0 -0.5312555498
O  O71  1  0.00234000  0.03995000  0.45343000  1.0 -0.5312555498
O  O72  1  0.58652000  0.54891000  0.54657000  1.0 -0.5312555498
O  O73  1  0.32481000  0.36522000  0.54379000  1.0 -0.4727819405
O  O74  1  0.82143000  0.78102000  0.45621000  1.0 -0.4727819405
O  O75  1  0.36522000  0.82143000  0.04041000  1.0 -0.4727819405
O  O76  1  0.78102000  0.32481000  0.95959000  1.0 -0.4727819405
O  O77  1  0.32143000  0.86522000  0.04041000  1.0 -0.4727819405
O  O78  1  0.82481000  0.28102000  0.95959000  1.0 -0.4727819405
O  O79  1  0.28102000  0.32143000  0.45621000  1.0 -0.4727819405
O  O80  1  0.86522000  0.82481000  0.54379000  1.0 -0.4727819405
O  O81  1  0.94772000  0.99428000  0.50000000  1.0 -0.9982681639
O  O82  1  0.49428000  0.44772000  0.50000000  1.0 -0.9982681639
O  O83  1  0.99428000  0.49428000  0.04656000  1.0 -0.9982681639
O  O84  1  0.44772000  0.94772000  0.95344000  1.0 -0.9982681639
O  O85  1  0.91902000  0.87130000  0.50000000  1.0 -0.9982681639
O  O86  1  0.37130000  0.41902000  0.50000000  1.0 -0.9982681639
O  O87  1  0.87130000  0.37130000  0.95228000  1.0 -0.9982681639
O  O88  1  0.41902000  0.91902000  0.04772000  1.0 -0.9982681639
