# DDEC6 charges by PACMAN v1.1 (https://github.com/mtap-research/PACMAN-charge/)
data_CEKROB_ion_pacman
_symmetry_space_group_name_H-M   'P 1'
_cell_length_a   16.29480000
_cell_length_b   16.29480000
_cell_length_c   19.36710000
_cell_angle_alpha   90.00000000
_cell_angle_beta   90.00000000
_cell_angle_gamma   120.00000000
_symmetry_Int_Tables_number   1
_chemical_formula_structural   Mn2FeH56C52N11(ClO)4
_chemical_formula_sum   'Mn6 Fe3 H168 C156 N33 Cl12 O12'
_cell_volume   4453.41631096
_cell_formula_units_Z   3
loop_
 _symmetry_equiv_pos_site_id
 _symmetry_equiv_pos_as_xyz
  1  'x, y, z'
loop_
 _atom_site_type_symbol
 _atom_site_label
 _atom_site_symmetry_multiplicity
 _atom_site_fract_x
 _atom_site_fract_y
 _atom_site_fract_z
 _atom_site_occupancy
 _atom_site_charge
Mn  Mn1  1  0.50065000  0.78404000  0.38441000  1.0 0.9785240371
Mn  Mn2  1  0.21596000  0.71661000  0.05108000  1.0 0.9785240371
Mn  Mn3  1  0.28339000  0.49935000  0.71774000  1.0 0.9785240371
Mn  Mn4  1  0.78404000  0.50065000  0.61559000  1.0 0.9785240371
Mn  Mn5  1  0.71661000  0.21596000  0.94892000  1.0 0.9785240371
Mn  Mn6  1  0.49935000  0.28339000  0.28226000  1.0 0.9785240371
Fe  Fe1  1  0.53315000  0.00000000  0.16667000  1.0 0.1407167379
Fe  Fe2  1  0.00000000  0.53315000  0.83333000  1.0 0.1407167379
Fe  Fe3  1  0.46685000  0.46685000  0.50000000  1.0 0.1407167379
H  H1  1  0.41560000  0.93520000  0.52610000  1.0 0.1407167379
H  H2  1  0.06480000  0.48040000  0.19277000  1.0 0.1407167379
H  H3  1  0.51960000  0.58440000  0.85943000  1.0 0.1407167379
H  H4  1  0.93520000  0.41560000  0.47390000  1.0 0.1407167379
H  H5  1  0.48040000  0.06480000  0.80723000  1.0 0.1407167379
H  H6  1  0.58440000  0.51960000  0.14057000  1.0 0.1407167379
H  H7  1  0.28660000  0.95850000  0.51680000  1.0 0.1279841899
H  H8  1  0.04150000  0.32810000  0.18347000  1.0 0.1279841899
H  H9  1  0.67190000  0.71340000  0.85013000  1.0 0.1279841899
H  H10  1  0.95850000  0.28660000  0.48320000  1.0 0.1279841899
H  H11  1  0.32810000  0.04150000  0.81653000  1.0 0.1279841899
H  H12  1  0.71340000  0.67190000  0.14987000  1.0 0.1279841899
H  H13  1  0.17300000  0.75890000  0.36770000  1.0 0.1407167379
H  H14  1  0.24110000  0.41410000  0.03437000  1.0 0.1407167379
H  H15  1  0.58590000  0.82700000  0.70103000  1.0 0.1407167379
H  H16  1  0.75890000  0.17300000  0.63230000  1.0 0.1407167379
H  H17  1  0.41410000  0.24110000  0.96563000  1.0 0.1407167379
H  H18  1  0.82700000  0.58590000  0.29897000  1.0 0.1407167379
H  H19  1  0.24070000  0.66350000  0.34050000  1.0 0.1085401583
H  H20  1  0.33650000  0.57720000  0.00717000  1.0 0.1085401583
H  H21  1  0.42280000  0.75930000  0.67383000  1.0 0.1085401583
H  H22  1  0.66350000  0.24070000  0.65950000  1.0 0.1085401583
H  H23  1  0.57720000  0.33650000  0.99283000  1.0 0.1085401583
H  H24  1  0.75930000  0.42280000  0.32617000  1.0 0.1085401583
H  H25  1  0.27860000  0.56480000  0.30740000  1.0 0.1085401583
H  H26  1  0.43520000  0.71380000  0.97407000  1.0 0.1085401583
H  H27  1  0.28620000  0.72140000  0.64073000  1.0 0.1085401583
H  H28  1  0.56480000  0.27860000  0.69260000  1.0 0.1085401583
H  H29  1  0.71380000  0.43520000  0.02593000  1.0 0.1085401583
H  H30  1  0.72140000  0.28620000  0.35927000  1.0 0.1085401583
H  H31  1  0.35670000  0.55940000  0.35410000  1.0 0.1279841899
H  H32  1  0.44060000  0.79730000  0.02077000  1.0 0.1279841899
H  H33  1  0.20270000  0.64330000  0.68743000  1.0 0.1279841899
H  H34  1  0.55940000  0.35670000  0.64590000  1.0 0.1279841899
H  H35  1  0.79730000  0.44060000  0.97923000  1.0 0.1279841899
H  H36  1  0.64330000  0.20270000  0.31257000  1.0 0.1279841899
H  H37  1  0.51520000  0.60910000  0.30960000  1.0 0.1206208424
H  H38  1  0.39090000  0.90610000  0.97627000  1.0 0.1206208424
H  H39  1  0.09390000  0.48480000  0.64293000  1.0 0.1206208424
H  H40  1  0.60910000  0.51520000  0.69040000  1.0 0.1206208424
H  H41  1  0.90610000  0.39090000  0.02373000  1.0 0.1206208424
H  H42  1  0.48480000  0.09390000  0.35707000  1.0 0.1206208424
H  H43  1  0.54610000  0.65220000  0.23370000  1.0 0.1085401583
H  H44  1  0.34780000  0.89390000  0.90037000  1.0 0.1085401583
H  H45  1  0.10610000  0.45390000  0.56703000  1.0 0.1085401583
H  H46  1  0.65220000  0.54610000  0.76630000  1.0 0.1085401583
H  H47  1  0.89390000  0.34780000  0.09963000  1.0 0.1085401583
H  H48  1  0.45390000  0.10610000  0.43297000  1.0 0.1085401583
H  H49  1  0.65750000  0.78990000  0.23750000  1.0 0.1085401583
H  H50  1  0.21010000  0.86760000  0.90417000  1.0 0.1085401583
H  H51  1  0.13240000  0.34250000  0.57083000  1.0 0.1085401583
H  H52  1  0.78990000  0.65750000  0.76250000  1.0 0.1085401583
H  H53  1  0.86760000  0.21010000  0.09583000  1.0 0.1085401583
H  H54  1  0.34250000  0.13240000  0.42917000  1.0 0.1085401583
H  H55  1  0.79150000  0.94070000  0.21920000  1.0 0.1206208424
H  H56  1  0.05930000  0.85080000  0.88587000  1.0 0.1206208424
H  H57  1  0.14920000  0.20850000  0.55253000  1.0 0.1206208424
H  H58  1  0.94070000  0.79150000  0.78080000  1.0 0.1206208424
H  H59  1  0.85080000  0.05930000  0.11413000  1.0 0.1206208424
H  H60  1  0.20850000  0.14920000  0.44747000  1.0 0.1206208424
H  H61  1  0.87990000  0.14720000  0.36290000  1.0 0.1206208424
H  H62  1  0.85280000  0.73270000  0.02957000  1.0 0.1206208424
H  H63  1  0.26730000  0.12010000  0.69623000  1.0 0.1206208424
H  H64  1  0.14720000  0.87990000  0.63710000  1.0 0.1206208424
H  H65  1  0.73270000  0.85280000  0.97043000  1.0 0.1206208424
H  H66  1  0.12010000  0.26730000  0.30377000  1.0 0.1206208424
H  H67  1  0.74940000  0.05150000  0.43170000  1.0 0.1279841899
H  H68  1  0.94850000  0.69790000  0.09837000  1.0 0.1279841899
H  H69  1  0.30210000  0.25060000  0.76503000  1.0 0.1279841899
H  H70  1  0.05150000  0.74940000  0.56830000  1.0 0.1279841899
H  H71  1  0.69790000  0.94850000  0.90163000  1.0 0.1279841899
H  H72  1  0.25060000  0.30210000  0.23497000  1.0 0.1279841899
H  H73  1  0.32810000  0.65090000  0.19330000  1.0 0.1407167379
H  H74  1  0.34910000  0.67720000  0.85997000  1.0 0.1407167379
H  H75  1  0.32280000  0.67190000  0.52663000  1.0 0.1407167379
H  H76  1  0.65090000  0.32810000  0.80670000  1.0 0.1407167379
H  H77  1  0.67720000  0.34910000  0.14003000  1.0 0.1495182835
H  H78  1  0.67190000  0.32280000  0.47337000  1.0 0.1407167379
H  H79  1  0.43200000  0.68530000  0.16360000  1.0 0.1495182835
H  H80  1  0.31470000  0.74670000  0.83027000  1.0 0.1495182835
H  H81  1  0.25330000  0.56800000  0.49693000  1.0 0.1495182835
H  H82  1  0.68530000  0.43200000  0.83640000  1.0 0.1495182835
H  H83  1  0.74670000  0.31470000  0.16973000  1.0 0.1495182835
H  H84  1  0.56800000  0.25330000  0.50307000  1.0 0.1495182835
H  H85  1  0.41810000  0.74100000  0.22640000  1.0 0.1495182835
H  H86  1  0.25900000  0.67710000  0.89307000  1.0 0.1495182835
H  H87  1  0.32290000  0.58190000  0.55973000  1.0 0.1495182835
H  H88  1  0.74100000  0.41810000  0.77360000  1.0 0.1495182835
H  H89  1  0.67710000  0.25900000  0.10693000  1.0 0.1495182835
H  H90  1  0.58190000  0.32290000  0.44027000  1.0 0.1495182835
H  H91  1  0.30520000  0.48630000  0.21340000  1.0 0.1407167379
H  H92  1  0.51370000  0.81890000  0.88007000  1.0 0.1407167379
H  H93  1  0.18110000  0.69480000  0.54673000  1.0 0.1407167379
H  H94  1  0.48630000  0.30520000  0.78660000  1.0 0.1407167379
H  H95  1  0.81890000  0.51370000  0.11993000  1.0 0.1407167379
H  H96  1  0.69480000  0.18110000  0.45327000  1.0 0.1407167379
H  H97  1  0.38210000  0.47590000  0.25820000  1.0 0.1495182835
H  H98  1  0.52410000  0.90620000  0.92487000  1.0 0.1495182835
H  H99  1  0.09380000  0.61790000  0.59153000  1.0 0.1495182835
H  H100  1  0.47590000  0.38210000  0.74180000  1.0 0.1495182835
H  H101  1  0.90620000  0.52410000  0.07513000  1.0 0.1495182835
H  H102  1  0.61790000  0.09380000  0.40847000  1.0 0.1495182835
H  H103  1  0.40890000  0.52220000  0.18280000  1.0 0.1407167379
H  H104  1  0.47780000  0.88670000  0.84947000  1.0 0.1407167379
H  H105  1  0.11330000  0.59110000  0.51613000  1.0 0.1407167379
H  H106  1  0.52220000  0.40890000  0.81720000  1.0 0.1407167379
H  H107  1  0.88670000  0.47780000  0.15053000  1.0 0.1407167379
H  H108  1  0.59110000  0.11330000  0.48387000  1.0 0.1407167379
H  H109  1  0.73100000  0.86120000  0.54583000  1.0 0.1085401583
H  H110  1  0.86120000  0.73100000  0.45417000  1.0 0.1085401583
H  H111  1  0.67100000  0.77340000  0.49573000  1.0 0.1206208424
H  H112  1  0.77340000  0.67100000  0.50427000  1.0 0.1206208424
H  H113  1  0.68130000  0.67310000  0.58203000  1.0 0.1407167379
H  H114  1  0.67310000  0.68130000  0.41797000  1.0 0.1407167379
H  H115  1  0.62080000  0.72120000  0.60533000  1.0 0.1495182835
H  H116  1  0.72120000  0.62080000  0.39467000  1.0 0.1495182835
H  H117  1  0.72710000  0.76280000  0.63253000  1.0 0.1206208424
H  H118  1  0.76280000  0.72710000  0.36747000  1.0 0.1279841899
H  H119  1  0.94490000  0.84610000  0.53163000  1.0 0.1017193041
H  H120  1  0.84610000  0.94490000  0.46837000  1.0 0.1017193041
H  H121  1  0.86560000  0.78870000  0.58853000  1.0 0.1017193041
H  H122  1  0.78870000  0.86560000  0.41147000  1.0 0.1017193041
H  H123  1  0.93990000  0.98380000  0.55833000  1.0 0.1279841899
H  H124  1  0.98380000  0.93990000  0.44167000  1.0 0.1279841899
H  H125  1  0.96390000  0.94310000  0.62583000  1.0 0.1279841899
H  H126  1  0.94310000  0.96390000  0.37417000  1.0 0.1279841899
H  H127  1  0.85930000  0.92640000  0.61463000  1.0 0.1279841899
H  H128  1  0.92640000  0.85930000  0.38537000  1.0 0.1279841899
H  H129  1  0.13020000  0.26900000  0.87917000  1.0 0.1085401583
H  H130  1  0.86980000  0.13880000  0.78750000  1.0 0.1085401583
H  H131  1  0.10240000  0.32900000  0.82907000  1.0 0.1206208424
H  H132  1  0.89760000  0.22660000  0.83760000  1.0 0.1206208424
H  H133  1  0.99180000  0.31870000  0.91537000  1.0 0.1407167379
H  H134  1  0.00820000  0.32690000  0.75130000  1.0 0.1407167379
H  H135  1  0.10040000  0.37920000  0.93867000  1.0 0.1495182835
H  H136  1  0.89960000  0.27880000  0.72800000  1.0 0.1495182835
H  H137  1  0.03570000  0.27290000  0.96587000  1.0 0.1279841899
H  H138  1  0.96430000  0.23720000  0.70080000  1.0 0.1279841899
H  H139  1  0.90120000  0.05510000  0.86497000  1.0 0.1017193041
H  H140  1  0.09880000  0.15390000  0.80170000  1.0 0.1017193041
H  H141  1  0.92310000  0.13440000  0.92187000  1.0 0.1017193041
H  H142  1  0.07690000  0.21130000  0.74480000  1.0 0.1017193041
H  H143  1  0.04390000  0.06010000  0.89167000  1.0 0.1279841899
H  H144  1  0.95610000  0.01620000  0.77500000  1.0 0.1279841899
H  H145  1  0.97920000  0.03610000  0.95917000  1.0 0.1279841899
H  H146  1  0.02080000  0.05690000  0.70750000  1.0 0.1279841899
H  H147  1  0.06710000  0.14070000  0.94797000  1.0 0.1279841899
H  H148  1  0.93290000  0.07360000  0.71870000  1.0 0.1279841899
H  H149  1  0.13880000  0.86980000  0.21250000  1.0 0.1085401583
H  H150  1  0.26900000  0.13020000  0.12083000  1.0 0.1085401583
H  H151  1  0.22660000  0.89760000  0.16240000  1.0 0.1206208424
H  H152  1  0.32900000  0.10240000  0.17093000  1.0 0.1206208424
H  H153  1  0.32690000  0.00820000  0.24870000  1.0 0.1407167379
H  H154  1  0.31870000  0.99180000  0.08463000  1.0 0.1407167379
H  H155  1  0.27880000  0.89960000  0.27200000  1.0 0.1495182835
H  H156  1  0.37920000  0.10040000  0.06133000  1.0 0.1495182835
H  H157  1  0.23720000  0.96430000  0.29920000  1.0 0.1279841899
H  H158  1  0.27290000  0.03570000  0.03413000  1.0 0.1206208424
H  H159  1  0.15390000  0.09880000  0.19830000  1.0 0.1017193041
H  H160  1  0.05510000  0.90120000  0.13503000  1.0 0.1017193041
H  H161  1  0.21130000  0.07690000  0.25520000  1.0 0.1017193041
H  H162  1  0.13440000  0.92310000  0.07813000  1.0 0.1017193041
H  H163  1  0.01620000  0.95610000  0.22500000  1.0 0.1279841899
H  H164  1  0.06010000  0.04390000  0.10833000  1.0 0.1279841899
H  H165  1  0.05690000  0.02080000  0.29250000  1.0 0.1279841899
H  H166  1  0.03610000  0.97920000  0.04083000  1.0 0.1279841899
H  H167  1  0.07360000  0.93290000  0.28130000  1.0 0.1279841899
H  H168  1  0.14070000  0.06710000  0.05203000  1.0 0.1279841899
C  C1  1  0.37484000  0.83401000  0.45056000  1.0 0.2803876495
C  C2  1  0.16599000  0.54083000  0.11723000  1.0 0.2803876495
C  C3  1  0.45917000  0.62516000  0.78389000  1.0 0.2803876495
C  C4  1  0.83401000  0.37484000  0.54944000  1.0 0.2803876495
C  C5  1  0.54083000  0.16599000  0.88277000  1.0 0.2803876495
C  C6  1  0.62516000  0.45917000  0.21611000  1.0 0.2803876495
C  C7  1  0.36728000  0.89984000  0.49327000  1.0 -0.1909604814
C  C8  1  0.10016000  0.46744000  0.15994000  1.0 -0.1909604814
C  C9  1  0.53256000  0.63272000  0.82660000  1.0 -0.1909604814
C  C10  1  0.89984000  0.36728000  0.50673000  1.0 -0.1909604814
C  C11  1  0.46744000  0.10016000  0.84006000  1.0 -0.1909604814
C  C12  1  0.63272000  0.53256000  0.17340000  1.0 -0.1909604814
C  C13  1  0.29073000  0.91358000  0.48794000  1.0 -0.1600531447
C  C14  1  0.08642000  0.37715000  0.15461000  1.0 -0.1600531447
C  C15  1  0.62285000  0.70927000  0.82127000  1.0 -0.1600531447
C  C16  1  0.91358000  0.29073000  0.51206000  1.0 -0.1600531447
C  C17  1  0.37715000  0.08642000  0.84539000  1.0 -0.1600531447
C  C18  1  0.70927000  0.62285000  0.17873000  1.0 -0.1600531447
C  C19  1  0.21961000  0.86173000  0.44034000  1.0 0.1206208424
C  C20  1  0.13827000  0.35788000  0.10701000  1.0 0.1206208424
C  C21  1  0.64212000  0.78039000  0.77367000  1.0 0.1206208424
C  C22  1  0.86173000  0.21961000  0.55966000  1.0 0.1206208424
C  C23  1  0.35788000  0.13827000  0.89299000  1.0 0.1206208424
C  C24  1  0.78039000  0.64212000  0.22633000  1.0 0.1206208424
C  C25  1  0.22316000  0.79533000  0.39901000  1.0 -0.2056383064
C  C26  1  0.20467000  0.42783000  0.06568000  1.0 -0.2056383064
C  C27  1  0.57217000  0.77684000  0.73234000  1.0 -0.2056383064
C  C28  1  0.79533000  0.22316000  0.60099000  1.0 -0.2056383064
C  C29  1  0.42783000  0.20467000  0.93432000  1.0 -0.2056383064
C  C30  1  0.77684000  0.57217000  0.26766000  1.0 -0.2056383064
C  C31  1  0.30166000  0.78134000  0.40322000  1.0 -0.049725003
C  C32  1  0.21866000  0.52032000  0.06989000  1.0 -0.049725003
C  C33  1  0.47968000  0.69834000  0.73655000  1.0 -0.049725003
C  C34  1  0.78134000  0.30166000  0.59678000  1.0 -0.049725003
C  C35  1  0.52032000  0.21866000  0.93011000  1.0 -0.049725003
C  C36  1  0.69834000  0.47968000  0.26345000  1.0 -0.049725003
C  C37  1  0.29870000  0.70521000  0.36305000  1.0 0.0928972094
C  C38  1  0.29479000  0.59349000  0.02972000  1.0 0.0928972094
C  C39  1  0.40651000  0.70130000  0.69638000  1.0 0.0928972094
C  C40  1  0.70521000  0.29870000  0.63695000  1.0 0.0928972094
C  C41  1  0.59349000  0.29479000  0.97028000  1.0 0.0928972094
C  C42  1  0.70130000  0.40651000  0.30362000  1.0 0.0928972094
C  C43  1  0.34631000  0.59937000  0.32082000  1.0 -0.1600531447
C  C44  1  0.40063000  0.74694000  0.98749000  1.0 -0.1600531447
C  C45  1  0.25306000  0.65369000  0.65415000  1.0 -0.1600531447
C  C46  1  0.59937000  0.34631000  0.67918000  1.0 -0.1600531447
C  C47  1  0.74694000  0.40063000  0.01251000  1.0 -0.1600531447
C  C48  1  0.65369000  0.25306000  0.34585000  1.0 -0.1600531447
C  C49  1  0.40689000  0.61404000  0.25647000  1.0 0.2803876495
C  C50  1  0.38596000  0.79285000  0.92314000  1.0 0.2803876495
C  C51  1  0.20715000  0.59311000  0.58980000  1.0 0.2803876495
C  C52  1  0.61404000  0.40689000  0.74353000  1.0 0.2803876495
C  C53  1  0.79285000  0.38596000  0.07686000  1.0 0.2803876495
C  C54  1  0.59311000  0.20715000  0.41020000  1.0 0.2803876495
C  C55  1  0.51132000  0.65235000  0.27555000  1.0 -0.1473557672
C  C56  1  0.34765000  0.85897000  0.94222000  1.0 -0.1473557672
C  C57  1  0.14103000  0.48868000  0.60888000  1.0 -0.1473557672
C  C58  1  0.65235000  0.51132000  0.72445000  1.0 -0.1473557672
C  C59  1  0.85897000  0.34765000  0.05778000  1.0 -0.1473557672
C  C60  1  0.48868000  0.14103000  0.39112000  1.0 -0.1473557672
C  C61  1  0.63844000  0.80960000  0.27766000  1.0 0.1085401583
C  C62  1  0.19040000  0.82884000  0.94433000  1.0 0.1085401583
C  C63  1  0.17116000  0.36156000  0.61099000  1.0 0.1085401583
C  C64  1  0.80960000  0.63844000  0.72234000  1.0 0.1085401583
C  C65  1  0.82884000  0.19040000  0.05567000  1.0 0.1085401583
C  C66  1  0.36156000  0.17116000  0.38901000  1.0 0.1085401583
C  C67  1  0.70185000  0.90432000  0.30241000  1.0 -0.049725003
C  C68  1  0.09568000  0.79753000  0.96908000  1.0 -0.049725003
C  C69  1  0.20247000  0.29815000  0.63574000  1.0 -0.049725003
C  C70  1  0.90432000  0.70185000  0.69759000  1.0 -0.049725003
C  C71  1  0.79753000  0.09568000  0.03092000  1.0 -0.049725003
C  C72  1  0.29815000  0.20247000  0.36426000  1.0 -0.049725003
C  C73  1  0.78237000  0.96270000  0.26239000  1.0 -0.1909604814
C  C74  1  0.03730000  0.81967000  0.92906000  1.0 -0.1909604814
C  C75  1  0.18033000  0.21763000  0.59572000  1.0 -0.1909604814
C  C76  1  0.96270000  0.78237000  0.73761000  1.0 -0.1909604814
C  C77  1  0.81967000  0.03730000  0.07094000  1.0 -0.1909604814
C  C78  1  0.21763000  0.18033000  0.40428000  1.0 -0.1909604814
C  C79  1  0.84746000  0.05093000  0.28542000  1.0 0.1407167379
C  C80  1  0.94907000  0.79653000  0.95209000  1.0 0.1407167379
C  C81  1  0.20347000  0.15254000  0.61875000  1.0 0.1407167379
C  C82  1  0.05093000  0.84746000  0.71458000  1.0 0.1407167379
C  C83  1  0.79653000  0.94907000  0.04791000  1.0 0.1407167379
C  C84  1  0.15254000  0.20347000  0.38125000  1.0 0.1407167379
C  C85  1  0.83507000  0.08497000  0.34818000  1.0 -0.1473557672
C  C86  1  0.91503000  0.75010000  0.01485000  1.0 -0.1473557672
C  C87  1  0.24990000  0.16493000  0.68151000  1.0 -0.1473557672
C  C88  1  0.08497000  0.83507000  0.65182000  1.0 -0.1473557672
C  C89  1  0.75010000  0.91503000  0.98515000  1.0 -0.1473557672
C  C90  1  0.16493000  0.24990000  0.31849000  1.0 -0.1473557672
C  C91  1  0.75752000  0.02818000  0.38889000  1.0 -0.2056383064
C  C92  1  0.97182000  0.72934000  0.05556000  1.0 -0.2056383064
C  C93  1  0.27066000  0.24248000  0.72222000  1.0 -0.2056383064
C  C94  1  0.02818000  0.75752000  0.61111000  1.0 -0.2056383064
C  C95  1  0.72934000  0.97182000  0.94444000  1.0 -0.2056383064
C  C96  1  0.24248000  0.27066000  0.27778000  1.0 -0.2056383064
C  C97  1  0.69036000  0.93598000  0.36743000  1.0 0.2803876495
C  C98  1  0.06402000  0.75438000  0.03410000  1.0 0.2803876495
C  C99  1  0.24562000  0.30964000  0.70076000  1.0 0.2803876495
C  C100  1  0.93598000  0.69036000  0.63257000  1.0 0.2803876495
C  C101  1  0.75438000  0.06402000  0.96590000  1.0 0.2803876495
C  C102  1  0.30964000  0.24562000  0.29924000  1.0 0.2803876495
C  C103  1  0.39524000  0.67854000  0.20544000  1.0 -0.4678686133
C  C104  1  0.32146000  0.71670000  0.87211000  1.0 -0.4678686133
C  C105  1  0.28330000  0.60476000  0.53877000  1.0 -0.4678686133
C  C106  1  0.67854000  0.39524000  0.79456000  1.0 -0.4678686133
C  C107  1  0.71670000  0.32146000  0.12789000  1.0 -0.4678686133
C  C108  1  0.60476000  0.28330000  0.46123000  1.0 -0.4678686133
C  C109  1  0.37270000  0.51572000  0.22489000  1.0 -0.4637844533
C  C110  1  0.48428000  0.85698000  0.89156000  1.0 -0.4637844533
C  C111  1  0.14302000  0.62730000  0.55822000  1.0 -0.4637844533
C  C112  1  0.51572000  0.37270000  0.77511000  1.0 -0.4637844533
C  C113  1  0.85698000  0.48428000  0.10844000  1.0 -0.4637844533
C  C114  1  0.62730000  0.14302000  0.44178000  1.0 -0.4637844533
C  C115  1  0.40639000  0.90251000  0.13404000  1.0 0.0481890643
C  C116  1  0.09749000  0.50388000  0.80071000  1.0 0.0481890643
C  C117  1  0.49612000  0.59361000  0.46737000  1.0 0.0481890643
C  C118  1  0.90251000  0.40639000  0.86596000  1.0 0.0481890643
C  C119  1  0.50388000  0.09749000  0.19929000  1.0 0.0481890643
C  C120  1  0.59361000  0.49612000  0.53263000  1.0 0.0481890643
C  C121  1  0.57365000  0.91231000  0.13713000  1.0 0.0356122433
C  C122  1  0.08769000  0.66134000  0.80380000  1.0 0.0349583245
C  C123  1  0.33866000  0.42635000  0.47046000  1.0 0.0349583245
C  C124  1  0.91231000  0.57365000  0.86287000  1.0 0.0349583245
C  C125  1  0.66134000  0.08769000  0.19620000  1.0 0.0356122433
C  C126  1  0.42635000  0.33866000  0.52954000  1.0 0.0349583245
C  C127  1  0.50598000  0.93670000  0.25679000  1.0 0.0577050216
C  C128  1  0.06330000  0.56928000  0.92346000  1.0 0.0577050216
C  C129  1  0.43072000  0.49402000  0.59012000  1.0 0.0577050216
C  C130  1  0.93670000  0.50598000  0.74321000  1.0 0.0577050216
C  C131  1  0.56928000  0.06330000  0.07654000  1.0 0.0577050216
C  C132  1  0.49402000  0.43072000  0.40988000  1.0 0.0577050216
C  C133  1  0.72072000  0.79834000  0.53173000  1.0 -0.049725003
C  C134  1  0.79834000  0.72072000  0.46827000  1.0 -0.049725003
C  C135  1  0.68420000  0.73310000  0.59327000  1.0 -0.4158715726
C  C136  1  0.73310000  0.68420000  0.40673000  1.0 -0.4158715726
C  C137  1  0.88756000  0.84029000  0.55402000  1.0 -0.0552206942
C  C138  1  0.84029000  0.88756000  0.44598000  1.0 -0.0552206942
C  C139  1  0.91500000  0.93130000  0.59148000  1.0 -0.4336650889
C  C140  1  0.93130000  0.91500000  0.40852000  1.0 -0.4336650889
C  C141  1  0.07762000  0.27928000  0.86507000  1.0 -0.049725003
C  C142  1  0.92238000  0.20166000  0.80160000  1.0 -0.049725003
C  C143  1  0.04890000  0.31580000  0.92661000  1.0 -0.4158715726
C  C144  1  0.95110000  0.26690000  0.74006000  1.0 -0.4158715726
C  C145  1  0.95273000  0.11244000  0.88736000  1.0 -0.0552206942
C  C146  1  0.04727000  0.15971000  0.77931000  1.0 -0.0552206942
C  C147  1  0.01630000  0.08500000  0.92482000  1.0 -0.4336650889
C  C148  1  0.98370000  0.06870000  0.74185000  1.0 -0.4336650889
C  C149  1  0.20166000  0.92238000  0.19840000  1.0 -0.049725003
C  C150  1  0.27928000  0.07762000  0.13493000  1.0 -0.049725003
C  C151  1  0.26690000  0.95110000  0.25994000  1.0 -0.4158715726
C  C152  1  0.31580000  0.04890000  0.07339000  1.0 -0.4158715726
C  C153  1  0.15971000  0.04727000  0.22069000  1.0 -0.049725003
C  C154  1  0.11244000  0.95273000  0.11264000  1.0 -0.0552206942
C  C155  1  0.06870000  0.98370000  0.25815000  1.0 -0.4336650889
C  C156  1  0.08500000  0.01630000  0.07518000  1.0 -0.4336650889
N  N1  1  0.36758000  0.68875000  0.35500000  1.0 -0.2306349696
N  N2  1  0.31125000  0.67883000  0.02167000  1.0 -0.2306349696
N  N3  1  0.32117000  0.63242000  0.68833000  1.0 -0.2306349696
N  N4  1  0.68875000  0.36758000  0.64500000  1.0 -0.2306349696
N  N5  1  0.67883000  0.31125000  0.97833000  1.0 -0.2306349696
N  N6  1  0.63242000  0.32117000  0.31167000  1.0 -0.2306349696
N  N7  1  0.55854000  0.74930000  0.30471000  1.0 -0.2306349696
N  N8  1  0.25070000  0.80924000  0.97138000  1.0 -0.2306349696
N  N9  1  0.19076000  0.44146000  0.63804000  1.0 -0.2306349696
N  N10  1  0.74930000  0.55854000  0.69529000  1.0 -0.2306349696
N  N11  1  0.80924000  0.25070000  0.02862000  1.0 -0.2306349696
N  N12  1  0.44146000  0.19076000  0.36196000  1.0 -0.2306349696
N  N13  1  0.49293000  0.89456000  0.30768000  1.0 -0.3937998236
N  N14  1  0.10544000  0.59837000  0.97435000  1.0 -0.3937998236
N  N15  1  0.40163000  0.50707000  0.64101000  1.0 -0.3937998236
N  N16  1  0.89456000  0.49293000  0.69232000  1.0 -0.3937998236
N  N17  1  0.59837000  0.10544000  0.02565000  1.0 -0.3937998236
N  N18  1  0.50707000  0.40163000  0.35899000  1.0 -0.3937998236
N  N19  1  0.33598000  0.84091000  0.11339000  1.0 -0.3937998236
N  N20  1  0.15909000  0.49507000  0.78006000  1.0 -0.3937998236
N  N21  1  0.50493000  0.66402000  0.44672000  1.0 -0.3937998236
N  N22  1  0.84091000  0.33598000  0.88661000  1.0 -0.3937998236
N  N23  1  0.49507000  0.15909000  0.21994000  1.0 -0.3937998236
N  N24  1  0.66402000  0.50493000  0.55328000  1.0 -0.3937998236
N  N25  1  0.59574000  0.85805000  0.12105000  1.0 -0.3640259574
N  N26  1  0.14195000  0.73769000  0.78772000  1.0 -0.3640259574
N  N27  1  0.26231000  0.40426000  0.45438000  1.0 -0.3640259574
N  N28  1  0.85805000  0.59574000  0.87895000  1.0 -0.3640259574
N  N29  1  0.73769000  0.14195000  0.21228000  1.0 -0.3640259574
N  N30  1  0.40426000  0.26231000  0.54562000  1.0 -0.3640259574
N  N31  1  0.81178000  0.81178000  0.50000000  1.0 0.1407167379
N  N32  1  0.00000000  0.18822000  0.83333000  1.0 0.1407167379
N  N33  1  0.18822000  0.00000000  0.16667000  1.0 0.1407167379
Cl  Cl1  1  0.12431000  0.88233000  0.43255000  1.0 -0.0913258166
Cl  Cl2  1  0.11767000  0.24198000  0.09922000  1.0 -0.0913258166
Cl  Cl3  1  0.75802000  0.87569000  0.76588000  1.0 -0.0913258166
Cl  Cl4  1  0.88233000  0.12431000  0.56745000  1.0 -0.0913258166
Cl  Cl5  1  0.24198000  0.11767000  0.90078000  1.0 -0.0913258166
Cl  Cl6  1  0.87569000  0.75802000  0.23412000  1.0 -0.0913258166
Cl  Cl7  1  0.94738000  0.12270000  0.23530000  1.0 -0.0802581356
Cl  Cl8  1  0.87730000  0.82468000  0.90197000  1.0 -0.0802581356
Cl  Cl9  1  0.17532000  0.05262000  0.56863000  1.0 -0.0802581356
Cl  Cl10  1  0.12270000  0.94738000  0.76470000  1.0 -0.0802581356
Cl  Cl11  1  0.82468000  0.87730000  0.09803000  1.0 -0.0802581356
Cl  Cl12  1  0.05262000  0.17532000  0.43137000  1.0 -0.0802581356
O  O1  1  0.44909000  0.82162000  0.45757000  1.0 -0.485114199
O  O2  1  0.17838000  0.62747000  0.12424000  1.0 -0.485114199
O  O3  1  0.37253000  0.55091000  0.79090000  1.0 -0.485114199
O  O4  1  0.82162000  0.44909000  0.54243000  1.0 -0.485114199
O  O5  1  0.62747000  0.17838000  0.87576000  1.0 -0.485114199
O  O6  1  0.55091000  0.37253000  0.20910000  1.0 -0.485114199
O  O7  1  0.62195000  0.88088000  0.41056000  1.0 -0.4678686133
O  O8  1  0.11912000  0.74107000  0.07723000  1.0 -0.4678686133
O  O9  1  0.25893000  0.37805000  0.74389000  1.0 -0.4678686133
O  O10  1  0.88088000  0.62195000  0.58944000  1.0 -0.4678686133
O  O11  1  0.74107000  0.11912000  0.92277000  1.0 -0.4678686133
O  O12  1  0.37805000  0.25893000  0.25611000  1.0 -0.4678686133
