# DDEC6 charges by PACMAN v1.1 (https://github.com/mtap-research/PACMAN-charge/)
data_CEKRUH_ion_pacman
_symmetry_space_group_name_H-M   'P 1'
_cell_length_a   28.55540000
_cell_length_b   28.55540000
_cell_length_c   19.21550000
_cell_angle_alpha   90.00000000
_cell_angle_beta   90.00000000
_cell_angle_gamma   120.00000000
_symmetry_Int_Tables_number   1
_chemical_formula_structural   Mn2FeH56C52Br4N11O4
_chemical_formula_sum   'Mn18 Fe9 H504 C468 Br36 N99 O36'
_cell_volume   13569.34290369
_cell_formula_units_Z   9
loop_
 _symmetry_equiv_pos_site_id
 _symmetry_equiv_pos_as_xyz
  1  'x, y, z'
loop_
 _atom_site_type_symbol
 _atom_site_label
 _atom_site_symmetry_multiplicity
 _atom_site_fract_x
 _atom_site_fract_y
 _atom_site_fract_z
 _atom_site_occupancy
 _atom_site_charge
Mn  Mn1  1  0.02029000  0.76417000  0.08077000  1.0 0.9799599089
Mn  Mn2  1  0.23583000  0.25612000  0.74744000  1.0 0.9799599089
Mn  Mn3  1  0.74388000  0.97971000  0.41410000  1.0 0.9799599089
Mn  Mn4  1  0.73421000  0.75516000  0.85156000  1.0 0.9799599089
Mn  Mn5  1  0.24484000  0.97905000  0.51823000  1.0 0.9799599089
Mn  Mn6  1  0.02095000  0.26579000  0.18489000  1.0 0.9799599089
Mn  Mn7  1  0.68669000  0.59049000  0.18345000  1.0 0.9799599089
Mn  Mn8  1  0.40951000  0.09620000  0.85012000  1.0 0.9799599089
Mn  Mn9  1  0.90380000  0.31331000  0.51678000  1.0 0.9799599089
Mn  Mn10  1  0.35425000  0.92626000  0.18016000  1.0 0.9799599089
Mn  Mn11  1  0.07374000  0.42799000  0.84683000  1.0 0.9799599089
Mn  Mn12  1  0.57201000  0.64575000  0.51349000  1.0 0.9799599089
Mn  Mn13  1  0.91019000  0.59804000  0.74600000  1.0 0.9799599089
Mn  Mn14  1  0.40196000  0.31215000  0.41267000  1.0 0.9799599089
Mn  Mn15  1  0.68785000  0.08981000  0.07933000  1.0 0.9799599089
Mn  Mn16  1  0.07104000  0.64635000  0.40932000  1.0 0.9799599089
Mn  Mn17  1  0.35365000  0.42469000  0.07599000  1.0 0.9799599089
Mn  Mn18  1  0.57531000  0.92896000  0.74265000  1.0 0.9799599089
Fe  Fe1  1  0.82273000  0.64379000  0.96550000  1.0 0.1417340044
Fe  Fe2  1  0.35621000  0.17894000  0.63217000  1.0 0.1417340044
Fe  Fe3  1  0.82106000  0.17727000  0.29883000  1.0 0.1417340044
Fe  Fe4  1  0.48742000  0.51027000  0.29513000  1.0 0.1417340044
Fe  Fe5  1  0.48973000  0.97715000  0.96180000  1.0 0.1417340044
Fe  Fe6  1  0.02285000  0.51258000  0.62846000  1.0 0.1417340044
Fe  Fe7  1  0.15719000  0.84669000  0.29836000  1.0 0.1294608594
Fe  Fe8  1  0.15331000  0.31050000  0.96503000  1.0 0.1417340044
Fe  Fe9  1  0.68950000  0.84281000  0.63169000  1.0 0.1294608594
H  H1  1  0.11840000  0.93330000  0.03680000  1.0 0.1294608594
H  H2  1  0.06670000  0.18510000  0.70347000  1.0 0.1294608594
H  H3  1  0.81490000  0.88160000  0.37013000  1.0 0.1294608594
H  H4  1  0.14040000  0.00770000  0.10730000  1.0 0.122014713
H  H5  1  0.99230000  0.13270000  0.77397000  1.0 0.122014713
H  H6  1  0.86730000  0.85960000  0.44063000  1.0 0.122014713
H  H7  1  0.02920000  0.91140000  0.24940000  1.0 0.122014713
H  H8  1  0.08860000  0.11780000  0.91607000  1.0 0.122014713
H  H9  1  0.88220000  0.97080000  0.58273000  1.0 0.122014713
H  H10  1  0.97240000  0.81770000  0.22880000  1.0 0.1019827577
H  H11  1  0.18230000  0.15470000  0.89547000  1.0 0.1019827577
H  H12  1  0.84530000  0.02760000  0.56213000  1.0 0.1019827577
H  H13  1  0.90080000  0.71030000  0.15660000  1.0 0.122014713
H  H14  1  0.28970000  0.19050000  0.82327000  1.0 0.122014713
H  H15  1  0.80950000  0.09920000  0.48993000  1.0 0.122014713
H  H16  1  0.91860000  0.73520000  0.23290000  1.0 0.1108843679
H  H17  1  0.26480000  0.18340000  0.89957000  1.0 0.1108843679
H  H18  1  0.81660000  0.08140000  0.56623000  1.0 0.1108843679
H  H19  1  0.95120000  0.61940000  0.15960000  1.0 0.1108843679
H  H20  1  0.38060000  0.33180000  0.82627000  1.0 0.1108843679
H  H21  1  0.66820000  0.04880000  0.49293000  1.0 0.1108843679
H  H22  1  0.92140000  0.64270000  0.11240000  1.0 0.1294608594
H  H23  1  0.35730000  0.27870000  0.77907000  1.0 0.1294608594
H  H24  1  0.72130000  0.07860000  0.44573000  1.0 0.1294608594
H  H25  1  0.03090000  0.64220000  0.12930000  1.0 0.1108843679
H  H26  1  0.35780000  0.38870000  0.79597000  1.0 0.1108843679
H  H27  1  0.61130000  0.96910000  0.46263000  1.0 0.1108843679
H  H28  1  0.11480000  0.65090000  0.09840000  1.0 0.1294608594
H  H29  1  0.34910000  0.46390000  0.76507000  1.0 0.1294608594
H  H30  1  0.53610000  0.88520000  0.43173000  1.0 0.1294608594
H  H31  1  0.20560000  0.75160000  0.94400000  1.0 0.1294608594
H  H32  1  0.24840000  0.45400000  0.61067000  1.0 0.1294608594
H  H33  1  0.54600000  0.79440000  0.27733000  1.0 0.1294608594
H  H34  1  0.14680000  0.78550000  0.93550000  1.0 0.1417340044
H  H35  1  0.21450000  0.36130000  0.60217000  1.0 0.1417340044
H  H36  1  0.63870000  0.85320000  0.26883000  1.0 0.1417340044
H  H37  1  0.88950000  0.60070000  0.25150000  1.0 0.1294608594
H  H38  1  0.39930000  0.28880000  0.91817000  1.0 0.1294608594
H  H39  1  0.71120000  0.11050000  0.58483000  1.0 0.1294608594
H  H40  1  0.85730000  0.62450000  0.21030000  1.0 0.1485384284
H  H41  1  0.37550000  0.23280000  0.87697000  1.0 0.1485384284
H  H42  1  0.76720000  0.14270000  0.54363000  1.0 0.1485384284
H  H43  1  0.88020000  0.64620000  0.28670000  1.0 0.1417340044
H  H44  1  0.35380000  0.23400000  0.95337000  1.0 0.1417340044
H  H45  1  0.76600000  0.11980000  0.62003000  1.0 0.1417340044
H  H46  1  0.01910000  0.72730000  0.24360000  1.0 0.1485384284
H  H47  1  0.27270000  0.29180000  0.91027000  1.0 0.1485384284
H  H48  1  0.70820000  0.98090000  0.57693000  1.0 0.1485384284
H  H49  1  0.99420000  0.66680000  0.27190000  1.0 0.1485384284
H  H50  1  0.33320000  0.32740000  0.93857000  1.0 0.1485384284
H  H51  1  0.67260000  0.00580000  0.60523000  1.0 0.1485384284
H  H52  1  0.97690000  0.70680000  0.30660000  1.0 0.1485384284
H  H53  1  0.29320000  0.27010000  0.97327000  1.0 0.1485384284
H  H54  1  0.72990000  0.02310000  0.63993000  1.0 0.1485384284
H  H55  1  0.80910000  0.92330000  0.90800000  1.0 0.1294608594
H  H56  1  0.07670000  0.88580000  0.57467000  1.0 0.1294608594
H  H57  1  0.11420000  0.19090000  0.24133000  1.0 0.1294608594
H  H58  1  0.86460000  0.00020000  0.84260000  1.0 0.122014713
H  H59  1  0.99980000  0.86440000  0.50927000  1.0 0.122014713
H  H60  1  0.13560000  0.13540000  0.17593000  1.0 0.122014713
H  H61  1  0.87550000  0.90760000  0.69250000  1.0 0.122014713
H  H62  1  0.09240000  0.96790000  0.35917000  1.0 0.122014713
H  H63  1  0.03210000  0.12450000  0.02583000  1.0 0.122014713
H  H64  1  0.83680000  0.81260000  0.70550000  1.0 0.1019827577
H  H65  1  0.18740000  0.02420000  0.37217000  1.0 0.1019827577
H  H66  1  0.97580000  0.16320000  0.03883000  1.0 0.1019827577
H  H67  1  0.80310000  0.70540000  0.77480000  1.0 0.122014713
H  H68  1  0.29460000  0.09770000  0.44147000  1.0 0.122014713
H  H69  1  0.90230000  0.19690000  0.10813000  1.0 0.122014713
H  H70  1  0.80880000  0.73040000  0.69880000  1.0 0.1108843679
H  H71  1  0.26960000  0.07840000  0.36547000  1.0 0.1108843679
H  H72  1  0.92160000  0.19120000  0.03213000  1.0 0.1108843679
H  H73  1  0.66260000  0.61090000  0.77160000  1.0 0.1108843679
H  H74  1  0.38910000  0.05170000  0.43827000  1.0 0.1108843679
H  H75  1  0.94830000  0.33740000  0.10493000  1.0 0.1108843679
H  H76  1  0.71580000  0.63540000  0.81890000  1.0 0.122014713
H  H77  1  0.36460000  0.08040000  0.48557000  1.0 0.122014713
H  H78  1  0.91960000  0.28420000  0.15223000  1.0 0.1294608594
H  H79  1  0.60370000  0.62740000  0.80870000  1.0 0.1108843679
H  H80  1  0.37260000  0.97630000  0.47537000  1.0 0.1108843679
H  H81  1  0.02370000  0.39630000  0.14203000  1.0 0.1108843679
H  H82  1  0.52660000  0.63760000  0.83210000  1.0 0.1417340044
H  H83  1  0.36240000  0.88900000  0.49877000  1.0 0.1417340044
H  H84  1  0.11100000  0.47340000  0.16543000  1.0 0.1417340044
H  H85  1  0.53490000  0.74480000  0.97550000  1.0 0.122014713
H  H86  1  0.25520000  0.79010000  0.64217000  1.0 0.122014713
H  H87  1  0.20990000  0.46510000  0.30883000  1.0 0.122014713
H  H88  1  0.62740000  0.77880000  0.98800000  1.0 0.1417340044
H  H89  1  0.22120000  0.84860000  0.65467000  1.0 0.1417340044
H  H90  1  0.15140000  0.37260000  0.32133000  1.0 0.1417340044
H  H91  1  0.76230000  0.64250000  0.64550000  1.0 0.1417340044
H  H92  1  0.35750000  0.11980000  0.31217000  1.0 0.1417340044
H  H93  1  0.88020000  0.23770000  0.97883000  1.0 0.1417340044
H  H94  1  0.70590000  0.59580000  0.67560000  1.0 0.1417340044
H  H95  1  0.40420000  0.11010000  0.34227000  1.0 0.1417340044
H  H96  1  0.88990000  0.29410000  0.00893000  1.0 0.1417340044
H  H97  1  0.75990000  0.61720000  0.72060000  1.0 0.1485384284
H  H98  1  0.38280000  0.14270000  0.38727000  1.0 0.1485384284
H  H99  1  0.85730000  0.24010000  0.05393000  1.0 0.1485384284
H  H100  1  0.69520000  0.71660000  0.69280000  1.0 0.1485384284
H  H101  1  0.28340000  0.97860000  0.35947000  1.0 0.1485384284
H  H102  1  0.02140000  0.30480000  0.02613000  1.0 0.1485384284
H  H103  1  0.66610000  0.65790000  0.65760000  1.0 0.1417340044
H  H104  1  0.34210000  0.00820000  0.32427000  1.0 0.1485384284
H  H105  1  0.99180000  0.33390000  0.99093000  1.0 0.1485384284
H  H106  1  0.72310000  0.70430000  0.62860000  1.0 0.1485384284
H  H107  1  0.29570000  0.01880000  0.29527000  1.0 0.1485384284
H  H108  1  0.98120000  0.27690000  0.96193000  1.0 0.1485384284
H  H109  1  0.78540000  0.51910000  0.22890000  1.0 0.1294608594
H  H110  1  0.48090000  0.26630000  0.89557000  1.0 0.1294608594
H  H111  1  0.73370000  0.21460000  0.56223000  1.0 0.1294608594
H  H112  1  0.80770000  0.46770000  0.15800000  1.0 0.122014713
H  H113  1  0.53230000  0.34000000  0.82467000  1.0 0.122014713
H  H114  1  0.66000000  0.19230000  0.49133000  1.0 0.122014713
H  H115  1  0.69620000  0.45180000  0.01620000  1.0 0.122014713
H  H116  1  0.54820000  0.24440000  0.68287000  1.0 0.122014713
H  H117  1  0.75560000  0.30380000  0.34953000  1.0 0.122014713
H  H118  1  0.63940000  0.48880000  0.03530000  1.0 0.1019827577
H  H119  1  0.51120000  0.15060000  0.70197000  1.0 0.1019827577
H  H120  1  0.84940000  0.36060000  0.36863000  1.0 0.1019827577
H  H121  1  0.56750000  0.52480000  0.10730000  1.0 0.122014713
H  H122  1  0.47520000  0.04270000  0.77397000  1.0 0.122014713
H  H123  1  0.95730000  0.43250000  0.44063000  1.0 0.122014713
H  H124  1  0.58560000  0.51800000  0.03090000  1.0 0.1108843679
H  H125  1  0.48200000  0.06760000  0.69757000  1.0 0.1108843679
H  H126  1  0.93240000  0.41440000  0.36423000  1.0 0.1108843679
H  H127  1  0.61740000  0.66610000  0.10380000  1.0 0.1108843679
H  H128  1  0.33390000  0.95130000  0.77047000  1.0 0.1108843679
H  H129  1  0.04870000  0.38260000  0.43713000  1.0 0.1108843679
H  H130  1  0.58730000  0.61310000  0.15130000  1.0 0.1294608594
H  H131  1  0.38690000  0.97420000  0.81797000  1.0 0.1294608594
H  H132  1  0.02580000  0.41270000  0.48463000  1.0 0.1294608594
H  H133  1  0.69550000  0.72290000  0.13900000  1.0 0.1108843679
H  H134  1  0.27710000  0.97260000  0.80567000  1.0 0.1108843679
H  H135  1  0.02740000  0.30450000  0.47233000  1.0 0.1108843679
H  H136  1  0.78190000  0.79780000  0.16530000  1.0 0.1294608594
H  H137  1  0.20220000  0.98410000  0.83197000  1.0 0.1294608594
H  H138  1  0.01590000  0.21810000  0.49863000  1.0 0.1294608594
H  H139  1  0.87360000  0.78670000  0.31820000  1.0 0.1294608594
H  H140  1  0.21330000  0.08690000  0.98487000  1.0 0.1294608594
H  H141  1  0.91310000  0.12640000  0.65153000  1.0 0.1294608594
H  H142  1  0.81340000  0.69480000  0.32850000  1.0 0.1417340044
H  H143  1  0.30520000  0.11860000  0.99517000  1.0 0.1417340044
H  H144  1  0.88140000  0.18660000  0.66183000  1.0 0.1417340044
H  H145  1  0.54560000  0.56660000  0.97880000  1.0 0.1417340044
H  H146  1  0.43340000  0.97900000  0.64547000  1.0 0.1417340044
H  H147  1  0.02100000  0.45440000  0.31213000  1.0 0.1417340044
H  H148  1  0.55640000  0.62280000  0.01080000  1.0 0.1417340044
H  H149  1  0.37720000  0.93360000  0.67747000  1.0 0.1417340044
H  H150  1  0.06640000  0.44360000  0.34413000  1.0 0.1417340044
H  H151  1  0.52390000  0.56830000  0.05500000  1.0 0.1485384284
H  H152  1  0.43170000  0.95560000  0.72167000  1.0 0.1485384284
H  H153  1  0.04440000  0.47610000  0.38833000  1.0 0.1485384284
H  H154  1  0.68650000  0.62790000  0.02070000  1.0 0.1485384284
H  H155  1  0.37210000  0.05860000  0.68737000  1.0 0.1485384284
H  H156  1  0.94140000  0.31350000  0.35403000  1.0 0.1485384284
H  H157  1  0.66000000  0.66200000  0.99190000  1.0 0.1485384284
H  H158  1  0.33800000  0.99800000  0.65857000  1.0 0.1485384284
H  H159  1  0.00200000  0.34000000  0.32523000  1.0 0.1485384284
H  H160  1  0.64410000  0.60480000  0.95790000  1.0 0.1485384284
H  H161  1  0.39520000  0.03930000  0.62457000  1.0 0.1485384284
H  H162  1  0.96070000  0.35590000  0.29123000  1.0 0.1485384284
H  H163  1  0.45000000  0.85210000  0.22840000  1.0 0.1294608594
H  H164  1  0.14790000  0.59790000  0.89507000  1.0 0.1294608594
H  H165  1  0.40210000  0.55000000  0.56173000  1.0 0.1294608594
H  H166  1  0.47180000  0.79990000  0.15870000  1.0 0.122014713
H  H167  1  0.20010000  0.67190000  0.82537000  1.0 0.122014713
H  H168  1  0.32810000  0.52820000  0.49203000  1.0 0.122014713
H  H169  1  0.36330000  0.78660000  0.01460000  1.0 0.122014713
H  H170  1  0.21340000  0.57670000  0.68127000  1.0 0.122014713
H  H171  1  0.42330000  0.63670000  0.34793000  1.0 0.122014713
H  H172  1  0.30700000  0.82430000  0.03270000  1.0 0.1019827577
H  H173  1  0.17570000  0.48270000  0.69937000  1.0 0.1019827577
H  H174  1  0.51730000  0.69300000  0.36603000  1.0 0.1019827577
H  H175  1  0.23450000  0.85970000  0.10500000  1.0 0.122014713
H  H176  1  0.14030000  0.37480000  0.77167000  1.0 0.122014713
H  H177  1  0.62520000  0.76550000  0.43833000  1.0 0.122014713
H  H178  1  0.25200000  0.85220000  0.02860000  1.0 0.1108843679
H  H179  1  0.14780000  0.39980000  0.69527000  1.0 0.1108843679
H  H180  1  0.60020000  0.74800000  0.36193000  1.0 0.1108843679
H  H181  1  0.28400000  0.00030000  0.09990000  1.0 0.1108843679
H  H182  1  0.99970000  0.28370000  0.76657000  1.0 0.1108843679
H  H183  1  0.71630000  0.71600000  0.43323000  1.0 0.1108843679
H  H184  1  0.25450000  0.94750000  0.14770000  1.0 0.1294608594
H  H185  1  0.05250000  0.30700000  0.81437000  1.0 0.1294608594
H  H186  1  0.69300000  0.74550000  0.48103000  1.0 0.1294608594
H  H187  1  0.36250000  0.05770000  0.13100000  1.0 0.1108843679
H  H188  1  0.94230000  0.30480000  0.79767000  1.0 0.1108843679
H  H189  1  0.69520000  0.63750000  0.46433000  1.0 0.1108843679
H  H190  1  0.44590000  0.13400000  0.16060000  1.0 0.1294608594
H  H191  1  0.86600000  0.31190000  0.82727000  1.0 0.1294608594
H  H192  1  0.68810000  0.55410000  0.49393000  1.0 0.1294608594
H  H193  1  0.53980000  0.12610000  0.31230000  1.0 0.1294608594
H  H194  1  0.87390000  0.41370000  0.97897000  1.0 0.1294608594
H  H195  1  0.58630000  0.46020000  0.64563000  1.0 0.1294608594
H  H196  1  0.48280000  0.03360000  0.32150000  1.0 0.1417340044
H  H197  1  0.96640000  0.44920000  0.98817000  1.0 0.1417340044
H  H198  1  0.55080000  0.51720000  0.65483000  1.0 0.1417340044
H  H199  1  0.21240000  0.90010000  0.97560000  1.0 0.1417340044
H  H200  1  0.09990000  0.31230000  0.64227000  1.0 0.1417340044
H  H201  1  0.68770000  0.78760000  0.30893000  1.0 0.1417340044
H  H202  1  0.22350000  0.95700000  0.00570000  1.0 0.1417340044
H  H203  1  0.04300000  0.26650000  0.67237000  1.0 0.1417340044
H  H204  1  0.73350000  0.77650000  0.33903000  1.0 0.1417340044
H  H205  1  0.19080000  0.90330000  0.05130000  1.0 0.1485384284
H  H206  1  0.09670000  0.28750000  0.71797000  1.0 0.1485384284
H  H207  1  0.71250000  0.80920000  0.38463000  1.0 0.1485384284
H  H208  1  0.35330000  0.96290000  0.01820000  1.0 0.1485384284
H  H209  1  0.03710000  0.39040000  0.68487000  1.0 0.1485384284
H  H210  1  0.60960000  0.64670000  0.35153000  1.0 0.1485384284
H  H211  1  0.32610000  0.99570000  0.98730000  1.0 0.1417340044
H  H212  1  0.00430000  0.33040000  0.65397000  1.0 0.1417340044
H  H213  1  0.66960000  0.67390000  0.32063000  1.0 0.1417340044
H  H214  1  0.31120000  0.93820000  0.95520000  1.0 0.1485384284
H  H215  1  0.06180000  0.37300000  0.62187000  1.0 0.1485384284
H  H216  1  0.62700000  0.68880000  0.28853000  1.0 0.1485384284
H  H217  1  0.74150000  0.52340000  0.69180000  1.0 0.1294608594
H  H218  1  0.47660000  0.21810000  0.35847000  1.0 0.1294608594
H  H219  1  0.78190000  0.25850000  0.02513000  1.0 0.1294608594
H  H220  1  0.66530000  0.46650000  0.75660000  1.0 0.122014713
H  H221  1  0.53350000  0.19880000  0.42327000  1.0 0.122014713
H  H222  1  0.80120000  0.33470000  0.08993000  1.0 0.122014713
H  H223  1  0.75900000  0.45710000  0.90710000  1.0 0.122014713
H  H224  1  0.54290000  0.30190000  0.57377000  1.0 0.122014713
H  H225  1  0.69810000  0.24100000  0.24043000  1.0 0.122014713
H  H226  1  0.85330000  0.49600000  0.89290000  1.0 0.1019827577
H  H227  1  0.50400000  0.35730000  0.55957000  1.0 0.1019827577
H  H228  1  0.64270000  0.14670000  0.22623000  1.0 0.1019827577
H  H229  1  0.96050000  0.52910000  0.82240000  1.0 0.122014713
H  H230  1  0.47090000  0.43140000  0.48907000  1.0 0.122014713
H  H231  1  0.56860000  0.03950000  0.15573000  1.0 0.122014713
H  H232  1  0.93510000  0.52280000  0.89830000  1.0 0.1108843679
H  H233  1  0.47720000  0.41230000  0.56497000  1.0 0.1108843679
H  H234  1  0.58770000  0.06490000  0.23163000  1.0 0.1108843679
H  H235  1  0.05450000  0.67020000  0.82640000  1.0 0.1108843679
H  H236  1  0.32980000  0.38430000  0.49307000  1.0 0.1108843679
H  H237  1  0.61570000  0.94550000  0.15973000  1.0 0.1108843679
H  H238  1  0.03040000  0.61730000  0.77860000  1.0 0.1294608594
H  H239  1  0.38270000  0.41310000  0.44527000  1.0 0.1294608594
H  H240  1  0.58690000  0.96960000  0.11193000  1.0 0.1294608594
H  H241  1  0.03640000  0.72870000  0.79200000  1.0 0.1108843679
H  H242  1  0.27130000  0.30770000  0.45867000  1.0 0.1108843679
H  H243  1  0.69230000  0.96360000  0.12533000  1.0 0.1108843679
H  H244  1  0.02930000  0.80560000  0.76600000  1.0 0.1417340044
H  H245  1  0.19440000  0.22370000  0.43267000  1.0 0.1417340044
H  H246  1  0.77630000  0.97070000  0.09933000  1.0 0.1417340044
H  H247  1  0.92360000  0.79870000  0.61970000  1.0 0.122014713
H  H248  1  0.20130000  0.12490000  0.28637000  1.0 0.122014713
H  H249  1  0.87510000  0.07640000  0.95303000  1.0 0.122014713
H  H250  1  0.88790000  0.70620000  0.60920000  1.0 0.1417340044
H  H251  1  0.29380000  0.18170000  0.27587000  1.0 0.1417340044
H  H252  1  0.81830000  0.11210000  0.94253000  1.0 0.1417340044
H  H253  1  0.06990000  0.62640000  0.92120000  1.0 0.1294608594
H  H254  1  0.37360000  0.44350000  0.58787000  1.0 0.1417340044
H  H255  1  0.55650000  0.93010000  0.25453000  1.0 0.1294608594
H  H256  1  0.04820000  0.57220000  0.87640000  1.0 0.1485384284
H  H257  1  0.42780000  0.47600000  0.54307000  1.0 0.1485384284
H  H258  1  0.52400000  0.95180000  0.20973000  1.0 0.1485384284
H  H259  1  0.02350000  0.57000000  0.95190000  1.0 0.1417340044
H  H260  1  0.43000000  0.45350000  0.61857000  1.0 0.1417340044
H  H261  1  0.54650000  0.97650000  0.28523000  1.0 0.1417340044
H  H262  1  0.94840000  0.63580000  0.90550000  1.0 0.1485384284
H  H263  1  0.36420000  0.31260000  0.57217000  1.0 0.1485384284
H  H264  1  0.68740000  0.05160000  0.23883000  1.0 0.1485384284
H  H265  1  0.00750000  0.66580000  0.93960000  1.0 0.1417340044
H  H266  1  0.33420000  0.34170000  0.60627000  1.0 0.1417340044
H  H267  1  0.65830000  0.99250000  0.27293000  1.0 0.1417340044
H  H268  1  0.96200000  0.60870000  0.96950000  1.0 0.1485384284
H  H269  1  0.39130000  0.35330000  0.63617000  1.0 0.1485384284
H  H270  1  0.64670000  0.03800000  0.30283000  1.0 0.1485384284
H  H271  1  0.14320000  0.54970000  0.35840000  1.0 0.1294608594
H  H272  1  0.45030000  0.59350000  0.02507000  1.0 0.1294608594
H  H273  1  0.40650000  0.85680000  0.69173000  1.0 0.1294608594
H  H274  1  0.19780000  0.52870000  0.42420000  1.0 0.122014713
H  H275  1  0.47130000  0.66910000  0.09087000  1.0 0.122014713
H  H276  1  0.33090000  0.80220000  0.75753000  1.0 0.122014713
H  H277  1  0.21130000  0.63580000  0.57210000  1.0 0.122014713
H  H278  1  0.36420000  0.57550000  0.23877000  1.0 0.122014713
H  H279  1  0.42450000  0.78870000  0.90543000  1.0 0.122014713
H  H280  1  0.17330000  0.69210000  0.55640000  1.0 0.1019827577
H  H281  1  0.30790000  0.48120000  0.22307000  1.0 0.1019827577
H  H282  1  0.51880000  0.82670000  0.88973000  1.0 0.1019827577
H  H283  1  0.13900000  0.76510000  0.48690000  1.0 0.122014713
H  H284  1  0.23490000  0.37390000  0.15357000  1.0 0.122014713
H  H285  1  0.62610000  0.86100000  0.82023000  1.0 0.122014713
H  H286  1  0.14430000  0.74550000  0.56290000  1.0 0.1108843679
H  H287  1  0.25450000  0.39880000  0.22957000  1.0 0.1108843679
H  H288  1  0.60120000  0.85570000  0.89623000  1.0 0.1108843679
H  H289  1  0.99770000  0.71760000  0.48860000  1.0 0.1108843679
H  H290  1  0.28240000  0.28010000  0.15527000  1.0 0.1108843679
H  H291  1  0.71990000  0.00230000  0.82193000  1.0 0.1108843679
H  H292  1  0.05100000  0.74670000  0.44160000  1.0 0.1294608594
H  H293  1  0.25330000  0.30430000  0.10827000  1.0 0.122014713
H  H294  1  0.69570000  0.94900000  0.77493000  1.0 0.1294608594
H  H295  1  0.93930000  0.64090000  0.45210000  1.0 0.1108843679
H  H296  1  0.35910000  0.29840000  0.11877000  1.0 0.1108843679
H  H297  1  0.70160000  0.06070000  0.78543000  1.0 0.1108843679
H  H298  1  0.86360000  0.55400000  0.42740000  1.0 0.1294608594
H  H299  1  0.44600000  0.30960000  0.09407000  1.0 0.1294608594
H  H300  1  0.69040000  0.13640000  0.76073000  1.0 0.1294608594
H  H301  1  0.87410000  0.45780000  0.28070000  1.0 0.1294608594
H  H302  1  0.54220000  0.41630000  0.94737000  1.0 0.1294608594
H  H303  1  0.58370000  0.12590000  0.61403000  1.0 0.1294608594
H  H304  1  0.96580000  0.51780000  0.26810000  1.0 0.1417340044
H  H305  1  0.48220000  0.44800000  0.93477000  1.0 0.1417340044
H  H306  1  0.55200000  0.03420000  0.60143000  1.0 0.1417340044
H  H307  1  0.04090000  0.77570000  0.58690000  1.0 0.1294608594
H  H308  1  0.22430000  0.26520000  0.25357000  1.0 0.1294608594
H  H309  1  0.73480000  0.95910000  0.92023000  1.0 0.1294608594
H  H310  1  0.09310000  0.80870000  0.53870000  1.0 0.1417340044
H  H311  1  0.19130000  0.28440000  0.20537000  1.0 0.1417340044
H  H312  1  0.71560000  0.90690000  0.87203000  1.0 0.1417340044
H  H313  1  0.09890000  0.78740000  0.61340000  1.0 0.1417340044
H  H314  1  0.21260000  0.31150000  0.28007000  1.0 0.1417340044
H  H315  1  0.68850000  0.90110000  0.94673000  1.0 0.1417340044
H  H316  1  0.00150000  0.67480000  0.60320000  1.0 0.1485384284
H  H317  1  0.32520000  0.32670000  0.26987000  1.0 0.1485384284
H  H318  1  0.67330000  0.99850000  0.93653000  1.0 0.1485384284
H  H319  1  0.05880000  0.68650000  0.63270000  1.0 0.1485384284
H  H320  1  0.31350000  0.37230000  0.29937000  1.0 0.1485384284
H  H321  1  0.62770000  0.94120000  0.96603000  1.0 0.1485384284
H  H322  1  0.03140000  0.64580000  0.56880000  1.0 0.1485384284
H  H323  1  0.35420000  0.38560000  0.23547000  1.0 0.1485384284
H  H324  1  0.61440000  0.96860000  0.90213000  1.0 0.1485384284
H  H325  1  0.53480000  0.19150000  0.01623000  1.0 0.1108843679
H  H326  1  0.52550000  0.14350000  0.96523000  1.0 0.122014713
H  H327  1  0.57010000  0.11730000  0.05013000  1.0 0.1417340044
H  H328  1  0.51330000  0.10980000  0.07533000  1.0 0.1417340044
H  H329  1  0.56850000  0.16040000  0.10193000  1.0 0.122014713
H  H330  1  0.66560000  0.19860000  0.91963000  1.0 0.1108843679
H  H331  1  0.63110000  0.15060000  0.97283000  1.0 0.1108843679
H  H332  1  0.56150000  0.11030000  0.89123000  1.0 0.1485384284
H  H333  1  0.61690000  0.11800000  0.86003000  1.0 0.1417340044
H  H334  1  0.59600000  0.15850000  0.83783000  1.0 0.1294608594
H  H335  1  0.57840000  0.25670000  0.93453000  1.0 0.1019827577
H  H336  1  0.56820000  0.21140000  0.87833000  1.0 0.1019827577
H  H337  1  0.66960000  0.30610000  0.90393000  1.0 0.122014713
H  H338  1  0.63370000  0.29430000  0.83533000  1.0 0.1294608594
H  H339  1  0.66230000  0.25950000  0.85133000  1.0 0.1294608594
H  H340  1  0.68070000  0.26330000  0.99703000  1.0 0.1019827577
H  H341  1  0.64860000  0.21940000  0.05603000  1.0 0.1019827577
H  H342  1  0.63330000  0.30800000  0.02213000  1.0 0.122014713
H  H343  1  0.65780000  0.30040000  0.09343000  1.0 0.1294608594
H  H344  1  0.59510000  0.26160000  0.07573000  1.0 0.1294608594
H  H345  1  0.65670000  0.46520000  0.34957000  1.0 0.1108843679
H  H346  1  0.61800000  0.47450000  0.29857000  1.0 0.122014713
H  H347  1  0.54720000  0.42990000  0.38347000  1.0 0.1417340044
H  H348  1  0.59650000  0.48670000  0.40867000  1.0 0.1417340044
H  H349  1  0.59190000  0.43150000  0.43527000  1.0 0.122014713
H  H350  1  0.53300000  0.33440000  0.25297000  1.0 0.1108843679
H  H351  1  0.51950000  0.36890000  0.30617000  1.0 0.1108843679
H  H352  1  0.54880000  0.43850000  0.22457000  1.0 0.1485384284
H  H353  1  0.50110000  0.38310000  0.19337000  1.0 0.1417340044
H  H354  1  0.56250000  0.40400000  0.17117000  1.0 0.1294608594
H  H355  1  0.67830000  0.42160000  0.26787000  1.0 0.1019827577
H  H356  1  0.64320000  0.43180000  0.21167000  1.0 0.1019827577
H  H357  1  0.63650000  0.33040000  0.23727000  1.0 0.122014713
H  H358  1  0.66060000  0.36630000  0.16867000  1.0 0.1294608594
H  H359  1  0.59720000  0.33770000  0.18467000  1.0 0.1294608594
H  H360  1  0.58260000  0.31930000  0.33037000  1.0 0.1019827577
H  H361  1  0.57080000  0.35140000  0.38937000  1.0 0.1019827577
H  H362  1  0.67470000  0.36670000  0.35547000  1.0 0.122014713
H  H363  1  0.64260000  0.34220000  0.42677000  1.0 0.1294608594
H  H364  1  0.66650000  0.40490000  0.40907000  1.0 0.1294608594
H  H365  1  0.80850000  0.34330000  0.68290000  1.0 0.1108843679
H  H366  1  0.85650000  0.38200000  0.63190000  1.0 0.122014713
H  H367  1  0.88270000  0.45280000  0.71680000  1.0 0.1417340044
H  H368  1  0.89020000  0.40350000  0.74200000  1.0 0.1485384284
H  H369  1  0.83960000  0.40810000  0.76860000  1.0 0.122014713
H  H370  1  0.80140000  0.46700000  0.58630000  1.0 0.1108843679
H  H371  1  0.84940000  0.48050000  0.63950000  1.0 0.1108843679
H  H372  1  0.88970000  0.45120000  0.55790000  1.0 0.1485384284
H  H373  1  0.88200000  0.49890000  0.52670000  1.0 0.1417340044
H  H374  1  0.84150000  0.43750000  0.50450000  1.0 0.1294608594
H  H375  1  0.74330000  0.32170000  0.60120000  1.0 0.1019827577
H  H376  1  0.78860000  0.35680000  0.54500000  1.0 0.1019827577
H  H377  1  0.69390000  0.36350000  0.57060000  1.0 0.122014713
H  H378  1  0.70570000  0.33940000  0.50200000  1.0 0.1294608594
H  H379  1  0.74050000  0.40280000  0.51800000  1.0 0.1294608594
H  H380  1  0.73670000  0.41740000  0.66370000  1.0 0.1019827577
H  H381  1  0.78060000  0.42920000  0.72270000  1.0 0.1019827577
H  H382  1  0.69200000  0.32530000  0.68880000  1.0 0.122014713
H  H383  1  0.69960000  0.35740000  0.76010000  1.0 0.1294608594
H  H384  1  0.73840000  0.33350000  0.74240000  1.0 0.1294608594
H  H385  1  0.20120000  0.66870000  0.25363000  1.0 0.1019827577
H  H386  1  0.18740000  0.70220000  0.30823000  1.0 0.1108843679
H  H387  1  0.21870000  0.77390000  0.22593000  1.0 0.1417340044
H  H388  1  0.16730000  0.71950000  0.19893000  1.0 0.1417340044
H  H389  1  0.22640000  0.73620000  0.17103000  1.0 0.1294608594
H  H390  1  0.32470000  0.80040000  0.34993000  1.0 0.1108843679
H  H391  1  0.28470000  0.80890000  0.30043000  1.0 0.122014713
H  H392  1  0.21510000  0.76470000  0.38533000  1.0 0.1417340044
H  H393  1  0.26540000  0.81930000  0.41403000  1.0 0.1417340044
H  H394  1  0.25840000  0.76200000  0.43553000  1.0 0.122014713
H  H395  1  0.25220000  0.65400000  0.32883000  1.0 0.1019827577
H  H396  1  0.24010000  0.68480000  0.38943000  1.0 0.1019827577
H  H397  1  0.34410000  0.70230000  0.35223000  1.0 0.122014713
H  H398  1  0.31310000  0.67700000  0.42383000  1.0 0.1294608594
H  H399  1  0.33580000  0.73960000  0.40713000  1.0 0.1294608594
H  H400  1  0.34630000  0.75770000  0.26653000  1.0 0.1019827577
H  H401  1  0.31000000  0.76760000  0.21183000  1.0 0.1019827577
H  H402  1  0.30500000  0.66666667  0.23473000  1.0 0.122014713
H  H403  1  0.32820000  0.70320000  0.16643000  1.0 0.1294608594
H  H404  1  0.26490000  0.67380000  0.18343000  1.0 0.1294608594
H  H405  1  0.46750000  0.79880000  0.58697000  1.0 0.1019827577
H  H406  1  0.51480000  0.81260000  0.64157000  1.0 0.1108843679
H  H407  1  0.55520000  0.78130000  0.55927000  1.0 0.1417340044
H  H408  1  0.55220000  0.83270000  0.53227000  1.0 0.1417340044
H  H409  1  0.50980000  0.77360000  0.50437000  1.0 0.1294608594
H  H410  1  0.47570000  0.67530000  0.68327000  1.0 0.1108843679
H  H411  1  0.52420000  0.71530000  0.63377000  1.0 0.122014713
H  H412  1  0.54960000  0.78490000  0.71867000  1.0 0.1417340044
H  H413  1  0.55390000  0.73460000  0.74737000  1.0 0.1417340044
H  H414  1  0.50360000  0.74160000  0.76887000  1.0 0.122014713
H  H415  1  0.40180000  0.74780000  0.66217000  1.0 0.1019827577
H  H416  1  0.44470000  0.75990000  0.72277000  1.0 0.1019827577
H  H417  1  0.35820000  0.65590000  0.68557000  1.0 0.122014713
H  H418  1  0.36390000  0.68690000  0.75717000  1.0 0.1294608594
H  H419  1  0.40380000  0.66420000  0.74047000  1.0 0.1294608594
H  H420  1  0.41140000  0.65370000  0.59987000  1.0 0.1019827577
H  H421  1  0.45760000  0.69000000  0.54517000  1.0 0.1019827577
H  H422  1  0.36160000  0.69500000  0.56807000  1.0 0.122014713
H  H423  1  0.37500000  0.67180000  0.49977000  1.0 0.1294608594
H  H424  1  0.40890000  0.73510000  0.51677000  1.0 0.1294608594
H  H425  1  0.33130000  0.53250000  0.92030000  1.0 0.1019827577
H  H426  1  0.29780000  0.48520000  0.97490000  1.0 0.1108843679
H  H427  1  0.22610000  0.44480000  0.89260000  1.0 0.1417340044
H  H428  1  0.28050000  0.44780000  0.86560000  1.0 0.1485384284
H  H429  1  0.26380000  0.49020000  0.83770000  1.0 0.1294608594
H  H430  1  0.19960000  0.52430000  0.01660000  1.0 0.1108843679
H  H431  1  0.19110000  0.47580000  0.96710000  1.0 0.122014713
H  H432  1  0.23530000  0.45040000  0.05200000  1.0 0.1417340044
H  H433  1  0.18070000  0.44610000  0.08070000  1.0 0.1417340044
H  H434  1  0.23800000  0.49640000  0.10220000  1.0 0.122014713
H  H435  1  0.34600000  0.59820000  0.99550000  1.0 0.1019827577
H  H436  1  0.31520000  0.55530000  0.05610000  1.0 0.1019827577
H  H437  1  0.29770000  0.64180000  0.01890000  1.0 0.122014713
H  H438  1  0.32300000  0.63610000  0.09050000  1.0 0.1294608594
H  H439  1  0.26040000  0.59620000  0.07380000  1.0 0.1294608594
H  H440  1  0.24230000  0.58860000  0.93320000  1.0 0.1019827577
H  H441  1  0.23240000  0.54240000  0.87850000  1.0 0.1019827577
H  H442  1  0.33340000  0.63840000  0.90140000  1.0 0.122014713
H  H443  1  0.29680000  0.62500000  0.83310000  1.0 0.1294608594
H  H444  1  0.32620000  0.59110000  0.85010000  1.0 0.1294608594
H  H445  1  0.98840000  0.85550000  0.91043000  1.0 0.1108843679
H  H446  1  0.94730000  0.80760000  0.95993000  1.0 0.1108843679
H  H447  1  0.87830000  0.78500000  0.87483000  1.0 0.1417340044
H  H448  1  0.92700000  0.77760000  0.84703000  1.0 0.1485384284
H  H449  1  0.92310000  0.82950000  0.82453000  1.0 0.122014713
H  H450  1  0.92030000  0.93370000  0.93243000  1.0 0.1019827577
H  H451  1  0.90780000  0.89180000  0.87053000  1.0 0.1019827577
H  H452  1  0.01280000  0.97620000  0.91013000  1.0 0.122014713
H  H453  1  0.98310000  0.97200000  0.83793000  1.0 0.1294608594
H  H454  1  0.00420000  0.93080000  0.85463000  1.0 0.1294608594
H  H455  1  0.01200000  0.91850000  0.99453000  1.0 0.1019827577
H  H456  1  0.97400000  0.87230000  0.04813000  1.0 0.1019827577
H  H457  1  0.97240000  0.97030000  0.02743000  1.0 0.122014713
H  H458  1  0.99700000  0.95670000  0.09423000  1.0 0.1294608594
H  H459  1  0.93320000  0.92370000  0.08013000  1.0 0.1294608594
H  H460  1  0.86700000  0.86730000  0.00683000  1.0 0.1019827577
H  H461  1  0.85180000  0.81980000  0.95213000  1.0 0.1108843679
H  H462  1  0.88480000  0.77980000  0.03583000  1.0 0.1417340044
H  H463  1  0.83080000  0.77950000  0.05863000  1.0 0.1485384284
H  H464  1  0.88780000  0.82340000  0.09073000  1.0 0.1294608594
H  H465  1  0.86710000  0.01160000  0.24377000  1.0 0.1108843679
H  H466  1  0.86030000  0.05270000  0.29327000  1.0 0.1108843679
H  H467  1  0.90670000  0.12170000  0.20817000  1.0 0.1485384284
H  H468  1  0.85060000  0.07300000  0.18037000  1.0 0.1417340044
H  H469  1  0.90640000  0.07690000  0.15787000  1.0 0.122014713
H  H470  1  0.01340000  0.07970000  0.26577000  1.0 0.1019827577
H  H471  1  0.98400000  0.09220000  0.20387000  1.0 0.1019827577
H  H472  1  0.96340000  0.98720000  0.24347000  1.0 0.1294608594
H  H473  1  0.98890000  0.01690000  0.17127000  1.0 0.1294608594
H  H474  1  0.92660000  0.99580000  0.18797000  1.0 0.1294608594
H  H475  1  0.90650000  0.98800000  0.32787000  1.0 0.1019827577
H  H476  1  0.89830000  0.02600000  0.38147000  1.0 0.1019827577
H  H477  1  0.99790000  0.02760000  0.36077000  1.0 0.122014713
H  H478  1  0.95970000  0.00300000  0.42757000  1.0 0.1294608594
H  H479  1  0.99050000  0.06680000  0.41347000  1.0 0.1294608594
H  H480  1  0.00030000  0.13300000  0.34017000  1.0 0.1019827577
H  H481  1  0.96800000  0.14820000  0.28547000  1.0 0.1108843679
H  H482  1  0.89500000  0.11520000  0.36917000  1.0 0.1417340044
H  H483  1  0.94870000  0.16920000  0.39197000  1.0 0.1485384284
H  H484  1  0.93560000  0.11220000  0.42407000  1.0 0.1294608594
H  H485  1  0.14450000  0.13290000  0.57710000  1.0 0.1108843679
H  H486  1  0.19240000  0.13970000  0.62660000  1.0 0.1108843679
H  H487  1  0.21500000  0.09330000  0.54150000  1.0 0.1485384284
H  H488  1  0.22240000  0.14940000  0.51370000  1.0 0.1485384284
H  H489  1  0.17050000  0.09360000  0.49120000  1.0 0.122014713
H  H490  1  0.06630000  0.98660000  0.59910000  1.0 0.1019827577
H  H491  1  0.10820000  0.01600000  0.53720000  1.0 0.1019827577
H  H492  1  0.02380000  0.03660000  0.57680000  1.0 0.122014713
H  H493  1  0.02800000  0.01110000  0.50460000  1.0 0.1294608594
H  H494  1  0.06920000  0.07340000  0.52130000  1.0 0.1294608594
H  H495  1  0.08150000  0.09350000  0.66120000  1.0 0.1019827577
H  H496  1  0.12770000  0.10170000  0.71480000  1.0 0.1019827577
H  H497  1  0.02970000  0.00210000  0.69410000  1.0 0.122014713
H  H498  1  0.04330000  0.04030000  0.76090000  1.0 0.1294608594
H  H499  1  0.07630000  0.00950000  0.74680000  1.0 0.1294608594
H  H500  1  0.13270000  0.99970000  0.67350000  1.0 0.1019827577
H  H501  1  0.18020000  0.03200000  0.61880000  1.0 0.1108843679
H  H502  1  0.22020000  0.10500000  0.70250000  1.0 0.1417340044
H  H503  1  0.22050000  0.05130000  0.72530000  1.0 0.1485384284
H  H504  1  0.17660000  0.06440000  0.75740000  1.0 0.1294608594
C  C1  1  0.89613000  0.69719000  0.99843000  1.0 0.0505322963
C  C2  1  0.30281000  0.19894000  0.66510000  1.0 0.0505322963
C  C3  1  0.80106000  0.10387000  0.33176000  1.0 0.0505322963
C  C4  1  0.79775000  0.69350000  0.93306000  1.0 0.0505322963
C  C5  1  0.30650000  0.10425000  0.59973000  1.0 0.0505322963
C  C6  1  0.89575000  0.20225000  0.26639000  1.0 0.0505322963
C  C7  1  0.75201000  0.58743000  0.93527000  1.0 0.0405926363
C  C8  1  0.41257000  0.16458000  0.60194000  1.0 0.0405926363
C  C9  1  0.83542000  0.24799000  0.26860000  1.0 0.0337935188
C  C10  1  0.84067000  0.58978000  0.99578000  1.0 0.0337935188
C  C11  1  0.41022000  0.25089000  0.66245000  1.0 0.0337935188
C  C12  1  0.74911000  0.15933000  0.32911000  1.0 0.0337935188
C  C13  1  0.78840000  0.63885000  0.05628000  1.0 0.0580978625
C  C14  1  0.36115000  0.14955000  0.72295000  1.0 0.0505322963
C  C15  1  0.85045000  0.21160000  0.38961000  1.0 0.0580978625
C  C16  1  0.85461000  0.64274000  0.87477000  1.0 0.0505322963
C  C17  1  0.35726000  0.21187000  0.54144000  1.0 0.0505322963
C  C18  1  0.78813000  0.14539000  0.20810000  1.0 0.0505322963
C  C19  1  0.56161000  0.53199000  0.26396000  1.0 0.0405926363
C  C20  1  0.46801000  0.02962000  0.93063000  1.0 0.0405926363
C  C21  1  0.97038000  0.43839000  0.59729000  1.0 0.0405926363
C  C22  1  0.45554000  0.97316000  0.05243000  1.0 0.0505322963
C  C23  1  0.02684000  0.48238000  0.71910000  1.0 0.0505322963
C  C24  1  0.51762000  0.54446000  0.38576000  1.0 0.0505322963
C  C25  1  0.41579000  0.49490000  0.32449000  1.0 0.0337935188
C  C26  1  0.50510000  0.92089000  0.99116000  1.0 0.0337935188
C  C27  1  0.07911000  0.58421000  0.65782000  1.0 0.0337935188
C  C28  1  0.02485000  0.54551000  0.53779000  1.0 0.0505322963
C  C29  1  0.45449000  0.47934000  0.20446000  1.0 0.0505322963
C  C30  1  0.52066000  0.97515000  0.87112000  1.0 0.0505322963
C  C31  1  0.97277000  0.53627000  0.66234000  1.0 0.0505322963
C  C32  1  0.46373000  0.43650000  0.32901000  1.0 0.0505322963
C  C33  1  0.56350000  0.02723000  0.99567000  1.0 0.0505322963
C  C34  1  0.50417000  0.58191000  0.26382000  1.0 0.0405926363
C  C35  1  0.41809000  0.92226000  0.93049000  1.0 0.0405926363
C  C36  1  0.07774000  0.49583000  0.59715000  1.0 0.0405926363
C  C37  1  0.08694000  0.83187000  0.33026000  1.0 0.0337935188
C  C38  1  0.16813000  0.25507000  0.99693000  1.0 0.0337935188
C  C39  1  0.74493000  0.91306000  0.66359000  1.0 0.0337935188
C  C40  1  0.13313000  0.77171000  0.32918000  1.0 0.0505322963
C  C41  1  0.22829000  0.36142000  0.99585000  1.0 0.0505322963
C  C42  1  0.63858000  0.86687000  0.66251000  1.0 0.0505322963
C  C43  1  0.23013000  0.86786000  0.26367000  1.0 0.0405926363
C  C44  1  0.13214000  0.36227000  0.93034000  1.0 0.0405926363
C  C45  1  0.63773000  0.76987000  0.59700000  1.0 0.0405926363
C  C46  1  0.17424000  0.91860000  0.26958000  1.0 0.0337935188
C  C47  1  0.08140000  0.25564000  0.93625000  1.0 0.0337935188
C  C48  1  0.74436000  0.82576000  0.60291000  1.0 0.0337935188
C  C49  1  0.18917000  0.87903000  0.38965000  1.0 0.0505322963
C  C50  1  0.12097000  0.31014000  0.05632000  1.0 0.0505322963
C  C51  1  0.68986000  0.81083000  0.72298000  1.0 0.0505322963
C  C52  1  0.12181000  0.81740000  0.20776000  1.0 0.0580978625
C  C53  1  0.18260000  0.30441000  0.87443000  1.0 0.0580978625
C  C54  1  0.69559000  0.87819000  0.54109000  1.0 0.0580978625
C  C55  1  0.05920000  0.87654000  0.09941000  1.0 0.2795531029
C  C56  1  0.12346000  0.18266000  0.76608000  1.0 0.2795531029
C  C57  1  0.81734000  0.94080000  0.43274000  1.0 0.2795531029
C  C58  1  0.09973000  0.92853000  0.07951000  1.0 -0.2074584931
C  C59  1  0.07147000  0.17120000  0.74618000  1.0 -0.2074584931
C  C60  1  0.82880000  0.90027000  0.41284000  1.0 -0.2074584931
C  C61  1  0.11280000  0.97271000  0.12103000  1.0 -0.1297317333
C  C62  1  0.02729000  0.14009000  0.78770000  1.0 -0.1297317333
C  C63  1  0.85991000  0.88720000  0.45436000  1.0 -0.1297317333
C  C64  1  0.08494000  0.96546000  0.18379000  1.0 0.0926038413
C  C65  1  0.03454000  0.11948000  0.85046000  1.0 0.0926038413
C  C66  1  0.88052000  0.91506000  0.51712000  1.0 0.0926038413
C  C67  1  0.04699000  0.91554000  0.20612000  1.0 -0.1706220768
C  C68  1  0.08446000  0.13145000  0.87279000  1.0 -0.1706220768
C  C69  1  0.86855000  0.95301000  0.53945000  1.0 -0.1706220768
C  C70  1  0.03408000  0.86973000  0.16478000  1.0 -0.0515058207
C  C71  1  0.13027000  0.16435000  0.83145000  1.0 -0.0515058207
C  C72  1  0.83565000  0.96592000  0.49811000  1.0 -0.0515058207
C  C73  1  0.99211000  0.81784000  0.18885000  1.0 0.1019827577
C  C74  1  0.18216000  0.17427000  0.85552000  1.0 0.1019827577
C  C75  1  0.82573000  0.00789000  0.52218000  1.0 0.1019827577
C  C76  1  0.93051000  0.72381000  0.19109000  1.0 -0.1487376923
C  C77  1  0.27619000  0.20670000  0.85776000  1.0 -0.1487376923
C  C78  1  0.79330000  0.06949000  0.52442000  1.0 -0.1487376923
C  C79  1  0.94019000  0.67723000  0.21121000  1.0 0.2795531029
C  C80  1  0.32277000  0.26296000  0.87788000  1.0 0.2795531029
C  C81  1  0.73704000  0.05981000  0.54454000  1.0 0.2795531029
C  C82  1  0.95120000  0.65282000  0.14614000  1.0 -0.1595950329
C  C83  1  0.34718000  0.29838000  0.81281000  1.0 -0.1595950329
C  C84  1  0.70162000  0.04880000  0.47947000  1.0 -0.1595950329
C  C85  1  0.03770000  0.67388000  0.10465000  1.0 0.0926038413
C  C86  1  0.32612000  0.36382000  0.77132000  1.0 0.0926038413
C  C87  1  0.63618000  0.96230000  0.43798000  1.0 0.0926038413
C  C88  1  0.08607000  0.69974000  0.06262000  1.0 -0.0515058207
C  C89  1  0.30026000  0.38633000  0.72929000  1.0 -0.0515058207
C  C90  1  0.61367000  0.91393000  0.39595000  1.0 -0.0515058207
C  C91  1  0.12145000  0.67893000  0.06630000  1.0 -0.1881522022
C  C92  1  0.32107000  0.44252000  0.73297000  1.0 -0.1881522022
C  C93  1  0.55748000  0.87855000  0.39963000  1.0 -0.1881522022
C  C94  1  0.16571000  0.69940000  0.02320000  1.0 0.0737969296
C  C95  1  0.30060000  0.46631000  0.68987000  1.0 0.0737969296
C  C96  1  0.53369000  0.83429000  0.35653000  1.0 0.0737969296
C  C97  1  0.17524000  0.73863000  0.97418000  1.0 -0.1487376923
C  C98  1  0.26137000  0.43661000  0.64085000  1.0 -0.1487376923
C  C99  1  0.56339000  0.82476000  0.30751000  1.0 -0.1487376923
C  C100  1  0.14037000  0.75874000  0.96948000  1.0 -0.197447422
C  C101  1  0.24126000  0.38163000  0.63615000  1.0 -0.197447422
C  C102  1  0.61837000  0.85963000  0.30281000  1.0 -0.197447422
C  C103  1  0.09536000  0.74041000  0.01401000  1.0 0.2900593276
C  C104  1  0.25959000  0.35495000  0.68068000  1.0 0.2900593276
C  C105  1  0.64505000  0.90464000  0.34734000  1.0 0.2900593276
C  C106  1  0.88699000  0.63318000  0.24280000  1.0 -0.4684985114
C  C107  1  0.36682000  0.25381000  0.90947000  1.0 -0.4684985114
C  C108  1  0.74619000  0.11301000  0.57613000  1.0 -0.4684985114
C  C109  1  0.98676000  0.69625000  0.26296000  1.0 -0.4638329068
C  C110  1  0.30375000  0.29051000  0.92963000  1.0 -0.4638329068
C  C111  1  0.70949000  0.01324000  0.59629000  1.0 -0.4684985114
C  C112  1  0.80839000  0.86773000  0.83869000  1.0 0.2795531029
C  C113  1  0.13227000  0.94066000  0.50536000  1.0 0.2795531029
C  C114  1  0.05934000  0.19161000  0.17202000  1.0 0.2795531029
C  C115  1  0.82247000  0.91985000  0.86422000  1.0 -0.2074584931
C  C116  1  0.08015000  0.90262000  0.53089000  1.0 -0.2074584931
C  C117  1  0.09738000  0.17753000  0.19755000  1.0 -0.2074584931
C  C118  1  0.85554000  0.96543000  0.82570000  1.0 -0.1297317333
C  C119  1  0.03457000  0.89011000  0.49237000  1.0 -0.1297317333
C  C120  1  0.10989000  0.14446000  0.15903000  1.0 -0.1297317333
C  C121  1  0.87552000  0.96014000  0.76203000  1.0 0.0926038413
C  C122  1  0.03986000  0.91538000  0.42870000  1.0 0.0926038413
C  C123  1  0.08462000  0.12448000  0.09536000  1.0 0.0926038413
C  C124  1  0.86178000  0.91042000  0.73632000  1.0 -0.1706220768
C  C125  1  0.08958000  0.95136000  0.40299000  1.0 -0.1706220768
C  C126  1  0.04864000  0.13822000  0.06965000  1.0 -0.1706220768
C  C127  1  0.82748000  0.86321000  0.77390000  1.0 -0.0515058207
C  C128  1  0.13679000  0.96427000  0.44057000  1.0 -0.0515058207
C  C129  1  0.03573000  0.17252000  0.10723000  1.0 -0.0515058207
C  C130  1  0.81726000  0.81161000  0.74601000  1.0 0.1108843679
C  C131  1  0.18839000  0.00565000  0.41268000  1.0 0.1108843679
C  C132  1  0.99435000  0.18274000  0.07934000  1.0 0.1108843679
C  C133  1  0.78581000  0.71819000  0.74100000  1.0 -0.1487376923
C  C134  1  0.28181000  0.06762000  0.40767000  1.0 -0.1487376923
C  C135  1  0.93238000  0.21419000  0.07433000  1.0 -0.1487376923
C  C136  1  0.73035000  0.67074000  0.72135000  1.0 0.2795531029
C  C137  1  0.32926000  0.05961000  0.38802000  1.0 0.2795531029
C  C138  1  0.94039000  0.26965000  0.05468000  1.0 0.2795531029
C  C139  1  0.69534000  0.64487000  0.78560000  1.0 -0.1595950329
C  C140  1  0.35513000  0.05047000  0.45227000  1.0 -0.1595950329
C  C141  1  0.94953000  0.30466000  0.11893000  1.0 -0.1595950329
C  C142  1  0.62773000  0.66128000  0.82956000  1.0 0.0926038413
C  C143  1  0.33872000  0.96645000  0.49623000  1.0 0.0926038413
C  C144  1  0.03355000  0.37227000  0.16289000  1.0 0.0926038413
C  C145  1  0.60395000  0.68745000  0.86833000  1.0 -0.0515058207
C  C146  1  0.31255000  0.91650000  0.53500000  1.0 -0.0515058207
C  C147  1  0.08350000  0.39605000  0.20166000  1.0 -0.0515058207
C  C148  1  0.54756000  0.66666667  0.86296000  1.0 -0.1881522022
C  C149  1  0.33333333  0.88089000  0.52963000  1.0 -0.1881522022
C  C150  1  0.11911000  0.45244000  0.19629000  1.0 -0.1881522022
C  C151  1  0.52321000  0.68851000  0.90242000  1.0 0.0737969296
C  C152  1  0.31149000  0.83470000  0.56909000  1.0 0.0737969296
C  C153  1  0.16530000  0.47679000  0.23575000  1.0 0.0737969296
C  C154  1  0.55253000  0.73018000  0.94864000  1.0 -0.1487376923
C  C155  1  0.26982000  0.82235000  0.61531000  1.0 -0.1487376923
C  C156  1  0.17765000  0.44747000  0.28197000  1.0 -0.1487376923
C  C157  1  0.60748000  0.75056000  0.95563000  1.0 -0.197447422
C  C158  1  0.24944000  0.85692000  0.62230000  1.0 -0.197447422
C  C159  1  0.14308000  0.39252000  0.28896000  1.0 -0.197447422
C  C160  1  0.63407000  0.73008000  0.91545000  1.0 0.2795531029
C  C161  1  0.26992000  0.90399000  0.58212000  1.0 0.2795531029
C  C162  1  0.09601000  0.36593000  0.24878000  1.0 0.2795531029
C  C163  1  0.74055000  0.62764000  0.68770000  1.0 -0.4684985114
C  C164  1  0.37236000  0.11291000  0.35437000  1.0 -0.4684985114
C  C165  1  0.88709000  0.25945000  0.02103000  1.0 -0.4684985114
C  C166  1  0.70103000  0.68903000  0.67047000  1.0 -0.4638329068
C  C167  1  0.31097000  0.01200000  0.33714000  1.0 -0.4638329068
C  C168  1  0.98800000  0.29897000  0.00380000  1.0 -0.4638329068
C  C169  1  0.72610000  0.51733000  0.16610000  1.0 0.2900593276
C  C170  1  0.48267000  0.20877000  0.83277000  1.0 0.2900593276
C  C171  1  0.79123000  0.27390000  0.49943000  1.0 0.2900593276
C  C172  1  0.76685000  0.50551000  0.18610000  1.0 -0.2074584931
C  C173  1  0.49449000  0.26134000  0.85277000  1.0 -0.2074584931
C  C174  1  0.73866000  0.23315000  0.51943000  1.0 -0.2074584931
C  C175  1  0.77987000  0.47485000  0.14450000  1.0 -0.1234118193
C  C176  1  0.52515000  0.30502000  0.81117000  1.0 -0.1234118193
C  C177  1  0.69498000  0.22013000  0.47783000  1.0 -0.1234118193
C  C178  1  0.75221000  0.45420000  0.08250000  1.0 0.0926038413
C  C179  1  0.54580000  0.29801000  0.74917000  1.0 0.0926038413
C  C180  1  0.70199000  0.24779000  0.41583000  1.0 0.0926038413
C  C181  1  0.71392000  0.46581000  0.05934000  1.0 -0.1706220768
C  C182  1  0.53419000  0.24811000  0.72601000  1.0 -0.1706220768
C  C183  1  0.75189000  0.28608000  0.39267000  1.0 -0.1706220768
C  C184  1  0.70108000  0.49881000  0.10028000  1.0 -0.0515058207
C  C185  1  0.50119000  0.20227000  0.76695000  1.0 -0.0515058207
C  C186  1  0.79773000  0.29892000  0.43361000  1.0 -0.0515058207
C  C187  1  0.65889000  0.50843000  0.07531000  1.0 0.1019827577
C  C188  1  0.49157000  0.15046000  0.74198000  1.0 0.1019827577
C  C189  1  0.84954000  0.34111000  0.40864000  1.0 0.1019827577
C  C190  1  0.59734000  0.54116000  0.07298000  1.0 -0.1487376923
C  C191  1  0.45884000  0.05618000  0.73965000  1.0 -0.1487376923
C  C192  1  0.94382000  0.40266000  0.40631000  1.0 -0.1487376923
C  C193  1  0.60723000  0.59713000  0.05349000  1.0 0.2795531029
C  C194  1  0.40287000  0.01010000  0.72016000  1.0 0.2795531029
C  C195  1  0.98990000  0.39277000  0.38682000  1.0 0.2795531029
C  C196  1  0.61730000  0.63265000  0.11785000  1.0 -0.1595950329
C  C197  1  0.36735000  0.98465000  0.78452000  1.0 -0.1595950329
C  C198  1  0.01535000  0.38270000  0.45118000  1.0 -0.1595950329
C  C199  1  0.70328000  0.69799000  0.16157000  1.0 0.0926038413
C  C200  1  0.30201000  0.00529000  0.82824000  1.0 0.0926038413
C  C201  1  0.99471000  0.29672000  0.49490000  1.0 0.0926038413
C  C202  1  0.75220000  0.72050000  0.20257000  1.0 -0.0515058207
C  C203  1  0.27950000  0.03170000  0.86924000  1.0 -0.0515058207
C  C204  1  0.96830000  0.24780000  0.53590000  1.0 -0.0515058207
C  C205  1  0.78826000  0.77649000  0.19778000  1.0 -0.1881522022
C  C206  1  0.22351000  0.01177000  0.86445000  1.0 -0.1881522022
C  C207  1  0.98823000  0.21174000  0.53111000  1.0 -0.1881522022
C  C208  1  0.83275000  0.80006000  0.24036000  1.0 0.0758204647
C  C209  1  0.19994000  0.03269000  0.90703000  1.0 0.0737969296
C  C210  1  0.96731000  0.16725000  0.57369000  1.0 0.0737969296
C  C211  1  0.84262000  0.76978000  0.28911000  1.0 -0.1487376923
C  C212  1  0.23022000  0.07284000  0.95578000  1.0 -0.1487376923
C  C213  1  0.92716000  0.15738000  0.62244000  1.0 -0.1444096379
C  C214  1  0.80707000  0.71524000  0.29466000  1.0 -0.197447422
C  C215  1  0.28476000  0.09183000  0.96133000  1.0 -0.197447422
C  C216  1  0.90817000  0.19293000  0.62799000  1.0 -0.197447422
C  C217  1  0.76157000  0.68921000  0.25117000  1.0 0.2900593276
C  C218  1  0.31079000  0.07236000  0.91784000  1.0 0.2900593276
C  C219  1  0.92764000  0.23843000  0.58450000  1.0 0.2900593276
C  C220  1  0.55335000  0.58785000  0.02160000  1.0 -0.4638329068
C  C221  1  0.41215000  0.96550000  0.68827000  1.0 -0.4638329068
C  C222  1  0.03450000  0.44665000  0.35493000  1.0 -0.4638329068
C  C223  1  0.65364000  0.62550000  0.00130000  1.0 -0.4684985114
C  C224  1  0.37450000  0.02814000  0.66797000  1.0 -0.4684985114
C  C225  1  0.97186000  0.34636000  0.33463000  1.0 -0.4684985114
C  C226  1  0.39275000  0.85241000  0.16396000  1.0 0.2795531029
C  C227  1  0.14759000  0.54034000  0.83063000  1.0 0.2795531029
C  C228  1  0.45966000  0.60725000  0.49729000  1.0 0.2795531029
C  C229  1  0.43207000  0.83910000  0.18509000  1.0 -0.2074584931
C  C230  1  0.16090000  0.59297000  0.85176000  1.0 -0.2074584931
C  C231  1  0.40703000  0.56793000  0.51842000  1.0 -0.2074584931
C  C232  1  0.44464000  0.80779000  0.14420000  1.0 -0.1234118193
C  C233  1  0.19221000  0.63685000  0.81087000  1.0 -0.1234118193
C  C234  1  0.36315000  0.55536000  0.47753000  1.0 -0.1234118193
C  C235  1  0.41796000  0.78747000  0.08135000  1.0 0.0926038413
C  C236  1  0.21253000  0.63049000  0.74802000  1.0 0.0926038413
C  C237  1  0.36951000  0.58204000  0.41468000  1.0 0.0926038413
C  C238  1  0.38082000  0.80016000  0.05798000  1.0 -0.1706220768
C  C239  1  0.19984000  0.58066000  0.72465000  1.0 -0.1706220768
C  C240  1  0.41934000  0.61918000  0.39131000  1.0 -0.1706220768
C  C241  1  0.36843000  0.83364000  0.09849000  1.0 -0.0515058207
C  C242  1  0.16636000  0.53479000  0.76516000  1.0 -0.0515058207
C  C243  1  0.46521000  0.63157000  0.43182000  1.0 -0.0515058207
C  C244  1  0.32622000  0.84382000  0.07290000  1.0 0.1108843679
C  C245  1  0.15618000  0.48240000  0.73957000  1.0 0.1108843679
C  C246  1  0.51760000  0.67378000  0.40623000  1.0 0.1108843679
C  C247  1  0.26406000  0.87575000  0.07025000  1.0 -0.1487376923
C  C248  1  0.12425000  0.38831000  0.73692000  1.0 -0.1487376923
C  C249  1  0.61169000  0.73594000  0.40358000  1.0 -0.1487376923
C  C250  1  0.27380000  0.93168000  0.05000000  1.0 0.2795531029
C  C251  1  0.06832000  0.34212000  0.71667000  1.0 0.2795531029
C  C252  1  0.65788000  0.72620000  0.38333000  1.0 0.2795531029
C  C253  1  0.28435000  0.96712000  0.11396000  1.0 -0.1595950329
C  C254  1  0.03288000  0.31723000  0.78063000  1.0 -0.1595950329
C  C255  1  0.68277000  0.71565000  0.44729000  1.0 -0.1595950329
C  C256  1  0.37015000  0.03342000  0.15557000  1.0 0.0926038413
C  C257  1  0.96658000  0.33673000  0.82224000  1.0 0.0926038413
C  C258  1  0.66327000  0.62985000  0.48890000  1.0 0.0926038413
C  C259  1  0.41902000  0.05700000  0.19705000  1.0 -0.0515058207
C  C260  1  0.94300000  0.36202000  0.86372000  1.0 -0.0515058207
C  C261  1  0.63798000  0.58098000  0.53038000  1.0 -0.0515058207
C  C262  1  0.45338000  0.11321000  0.19263000  1.0 -0.1804112083
C  C263  1  0.88679000  0.34017000  0.85930000  1.0 -0.1804112083
C  C264  1  0.65983000  0.54662000  0.52596000  1.0 -0.1804112083
C  C265  1  0.49815000  0.13793000  0.23531000  1.0 0.0737969296
C  C266  1  0.86207000  0.36022000  0.90198000  1.0 0.0737969296
C  C267  1  0.63978000  0.50185000  0.56864000  1.0 0.0737969296
C  C268  1  0.50898000  0.10844000  0.28296000  1.0 -0.1487376923
C  C269  1  0.89156000  0.40054000  0.94963000  1.0 -0.1487376923
C  C270  1  0.59946000  0.49102000  0.61629000  1.0 -0.1487376923
C  C271  1  0.47519000  0.05350000  0.28814000  1.0 -0.197447422
C  C272  1  0.94650000  0.42169000  0.95481000  1.0 -0.197447422
C  C273  1  0.57831000  0.52481000  0.62147000  1.0 -0.197447422
C  C274  1  0.42958000  0.02604000  0.24510000  1.0 0.2900593276
C  C275  1  0.97396000  0.40354000  0.91177000  1.0 0.2900593276
C  C276  1  0.59646000  0.57042000  0.57843000  1.0 0.2900593276
C  C277  1  0.22025000  0.92216000  0.01770000  1.0 -0.4638329068
C  C278  1  0.07784000  0.29809000  0.68437000  1.0 -0.4638329068
C  C279  1  0.70191000  0.77975000  0.35103000  1.0 -0.4638329068
C  C280  1  0.32027000  0.95965000  0.99800000  1.0 -0.4638329068
C  C281  1  0.04035000  0.36062000  0.66467000  1.0 -0.4638329068
C  C282  1  0.63938000  0.67973000  0.33133000  1.0 -0.4638329068
C  C283  1  0.79755000  0.52342000  0.75897000  1.0 0.2795531029
C  C284  1  0.47658000  0.27413000  0.42564000  1.0 0.2795531029
C  C285  1  0.72587000  0.20245000  0.09230000  1.0 0.2795531029
C  C286  1  0.74541000  0.50957000  0.73500000  1.0 -0.2074584931
C  C287  1  0.49043000  0.23584000  0.40167000  1.0 -0.2074584931
C  C288  1  0.76416000  0.25459000  0.06833000  1.0 -0.2074584931
C  C289  1  0.70027000  0.47623000  0.77360000  1.0 -0.1297317333
C  C290  1  0.52377000  0.22404000  0.44027000  1.0 -0.1297317333
C  C291  1  0.77596000  0.29973000  0.10693000  1.0 -0.1297317333
C  C292  1  0.70597000  0.45685000  0.83767000  1.0 0.0926038413
C  C293  1  0.54315000  0.24912000  0.50434000  1.0 0.0926038413
C  C294  1  0.75088000  0.29403000  0.17100000  1.0 0.0926038413
C  C295  1  0.75584000  0.47061000  0.86320000  1.0 -0.1706220768
C  C296  1  0.52939000  0.28523000  0.52987000  1.0 -0.1706220768
C  C297  1  0.71477000  0.24416000  0.19653000  1.0 -0.1706220768
C  C298  1  0.80260000  0.50482000  0.82468000  1.0 -0.0515058207
C  C299  1  0.49518000  0.29778000  0.49135000  1.0 -0.0515058207
C  C300  1  0.70222000  0.19740000  0.15801000  1.0 -0.0515058207
C  C301  1  0.85408000  0.51511000  0.85207000  1.0 0.1019827577
C  C302  1  0.48489000  0.33897000  0.51874000  1.0 0.1019827577
C  C303  1  0.66103000  0.14592000  0.18540000  1.0 0.1019827577
C  C304  1  0.94743000  0.54603000  0.85641000  1.0 -0.1487376923
C  C305  1  0.45397000  0.40140000  0.52308000  1.0 -0.1487376923
C  C306  1  0.59860000  0.05257000  0.18974000  1.0 -0.1487376923
C  C307  1  0.99467000  0.60164000  0.87656000  1.0 0.2795531029
C  C308  1  0.39836000  0.39303000  0.54323000  1.0 0.2795531029
C  C309  1  0.60697000  0.00533000  0.20989000  1.0 0.2795531029
C  C310  1  0.02067000  0.63732000  0.81218000  1.0 -0.1595950329
C  C311  1  0.36268000  0.38335000  0.47885000  1.0 -0.1595950329
C  C312  1  0.61665000  0.97933000  0.14551000  1.0 -0.1595950329
C  C313  1  0.00326000  0.70473000  0.76957000  1.0 0.0926038413
C  C314  1  0.29527000  0.29853000  0.43624000  1.0 0.0926038413
C  C315  1  0.70147000  0.99674000  0.10290000  1.0 0.0926038413
C  C316  1  0.97790000  0.72875000  0.73002000  1.0 -0.0515058207
C  C317  1  0.27125000  0.24915000  0.39669000  1.0 -0.0515058207
C  C318  1  0.75085000  0.02210000  0.06335000  1.0 -0.0515058207
C  C319  1  0.00005000  0.78497000  0.73528000  1.0 -0.1881522022
C  C320  1  0.21503000  0.21508000  0.40195000  1.0 -0.1881522022
C  C321  1  0.78492000  0.99995000  0.06861000  1.0 -0.1881522022
C  C322  1  0.97875000  0.80973000  0.69520000  1.0 0.0758204647
C  C323  1  0.19027000  0.16902000  0.36187000  1.0 0.0758204647
C  C324  1  0.83098000  0.02125000  0.02853000  1.0 0.0758204647
C  C325  1  0.93717000  0.78068000  0.64769000  1.0 -0.1444096379
C  C326  1  0.21932000  0.15649000  0.31436000  1.0 -0.1487376923
C  C327  1  0.84351000  0.06283000  0.98102000  1.0 -0.1444096379
C  C328  1  0.91616000  0.72596000  0.64173000  1.0 -0.197447422
C  C329  1  0.27404000  0.19020000  0.30840000  1.0 -0.197447422
C  C330  1  0.80980000  0.08384000  0.97506000  1.0 -0.197447422
C  C331  1  0.93553000  0.69837000  0.68269000  1.0 0.2900593276
C  C332  1  0.30163000  0.23716000  0.34936000  1.0 0.2900593276
C  C333  1  0.76284000  0.06447000  0.01602000  1.0 0.2900593276
C  C334  1  0.03798000  0.59165000  0.90950000  1.0 -0.4684985114
C  C335  1  0.40835000  0.44633000  0.57617000  1.0 -0.4684985114
C  C336  1  0.55367000  0.96202000  0.24283000  1.0 -0.4684985114
C  C337  1  0.97654000  0.63059000  0.92740000  1.0 -0.4638329068
C  C338  1  0.36941000  0.34595000  0.59407000  1.0 -0.4638329068
C  C339  1  0.65405000  0.02346000  0.26073000  1.0 -0.4638329068
C  C340  1  0.14475000  0.60757000  0.42361000  1.0 0.2900593276
C  C341  1  0.39243000  0.53718000  0.09028000  1.0 0.2900593276
C  C342  1  0.46282000  0.85525000  0.75694000  1.0 0.2900593276
C  C343  1  0.15739000  0.56789000  0.40130000  1.0 -0.2074584931
C  C344  1  0.43211000  0.58950000  0.06797000  1.0 -0.2074584931
C  C345  1  0.41050000  0.84261000  0.73463000  1.0 -0.2074584931
C  C346  1  0.18954000  0.55523000  0.44020000  1.0 -0.1297317333
C  C347  1  0.44477000  0.63431000  0.10687000  1.0 -0.1297317333
C  C348  1  0.36569000  0.81046000  0.77353000  1.0 -0.1297317333
C  C349  1  0.21023000  0.58156000  0.50350000  1.0 0.0926038413
C  C350  1  0.41844000  0.62867000  0.17017000  1.0 0.0926038413
C  C351  1  0.37133000  0.78977000  0.83683000  1.0 0.0926038413
C  C352  1  0.19738000  0.61870000  0.52850000  1.0 -0.1804112083
C  C353  1  0.38130000  0.57868000  0.19517000  1.0 -0.1804112083
C  C354  1  0.42132000  0.80262000  0.86183000  1.0 -0.1804112083
C  C355  1  0.16343000  0.63155000  0.48934000  1.0 -0.0515058207
C  C356  1  0.36845000  0.53188000  0.15601000  1.0 -0.0515058207
C  C357  1  0.46812000  0.83657000  0.82267000  1.0 -0.0515058207
C  C358  1  0.15367000  0.67311000  0.51611000  1.0 0.1019827577
C  C359  1  0.32689000  0.48056000  0.18278000  1.0 0.1019827577
C  C360  1  0.51944000  0.84633000  0.84944000  1.0 0.1019827577
C  C361  1  0.12160000  0.73482000  0.52041000  1.0 -0.1487376923
C  C362  1  0.26518000  0.38678000  0.18708000  1.0 -0.1487376923
C  C363  1  0.61322000  0.87840000  0.85374000  1.0 -0.1487376923
C  C364  1  0.06564000  0.72635000  0.53956000  1.0 0.2795531029
C  C365  1  0.27365000  0.33929000  0.20623000  1.0 0.2795531029
C  C366  1  0.66071000  0.93436000  0.87289000  1.0 0.2795531029
C  C367  1  0.03075000  0.71680000  0.47488000  1.0 -0.1595950329
C  C368  1  0.28320000  0.31395000  0.14155000  1.0 -0.1595950329
C  C369  1  0.68605000  0.96925000  0.80821000  1.0 -0.1595950329
C  C370  1  0.96387000  0.63198000  0.43075000  1.0 0.0926038413
C  C371  1  0.36802000  0.33189000  0.09742000  1.0 0.0926038413
C  C372  1  0.66811000  0.03613000  0.76408000  1.0 0.0926038413
C  C373  1  0.94100000  0.58235000  0.39083000  1.0 -0.0515058207
C  C374  1  0.41765000  0.35865000  0.05750000  1.0 -0.0515058207
C  C375  1  0.64135000  0.05900000  0.72416000  1.0 -0.0515058207
C  C376  1  0.88491000  0.54649000  0.39627000  1.0 -0.1881522022
C  C377  1  0.45351000  0.33842000  0.06294000  1.0 -0.1881522022
C  C378  1  0.66158000  0.11509000  0.72960000  1.0 -0.1881522022
C  C379  1  0.86140000  0.50039000  0.35586000  1.0 0.0737969296
C  C380  1  0.49961000  0.36101000  0.02253000  1.0 0.0737969296
C  C381  1  0.63899000  0.13860000  0.68919000  1.0 0.0737969296
C  C382  1  0.89128000  0.48963000  0.30843000  1.0 -0.1487376923
C  C383  1  0.51037000  0.40165000  0.97510000  1.0 -0.1487376923
C  C384  1  0.59835000  0.10872000  0.64176000  1.0 -0.1487376923
C  C385  1  0.94567000  0.52490000  0.30154000  1.0 -0.197447422
C  C386  1  0.47510000  0.42077000  0.96821000  1.0 -0.197447422
C  C387  1  0.57923000  0.05433000  0.63487000  1.0 -0.197447422
C  C388  1  0.97217000  0.57160000  0.34351000  1.0 0.2900593276
C  C389  1  0.42840000  0.40057000  0.01018000  1.0 0.2900593276
C  C390  1  0.59943000  0.02783000  0.67684000  1.0 0.2900593276
C  C391  1  0.07555000  0.77934000  0.57256000  1.0 -0.4684985114
C  C392  1  0.22066000  0.29621000  0.23923000  1.0 -0.4684985114
C  C393  1  0.70379000  0.92445000  0.90589000  1.0 -0.4684985114
C  C394  1  0.03673000  0.67912000  0.59065000  1.0 -0.4684985114
C  C395  1  0.32088000  0.35761000  0.25732000  1.0 -0.4638329068
C  C396  1  0.64239000  0.96327000  0.92398000  1.0 -0.4638329068
C  C397  1  0.55017000  0.16889000  0.00093000  1.0 -0.0515058207
C  C398  1  0.55051000  0.13621000  0.06253000  1.0 -0.418286133
C  C399  1  0.62839000  0.17304000  0.93553000  1.0 -0.0515058207
C  C400  1  0.59803000  0.13683000  0.87603000  1.0 -0.4144876264
C  C401  1  0.59491000  0.23725000  0.91203000  1.0 -0.0575998761
C  C402  1  0.64456000  0.27790000  0.87213000  1.0 -0.4361717086
C  C403  1  0.64504000  0.24218000  0.02003000  1.0 -0.0575998761
C  C404  1  0.63162000  0.28157000  0.05603000  1.0 -0.4361717086
C  C405  1  0.61872000  0.44983000  0.33427000  1.0 -0.0515058207
C  C406  1  0.58570000  0.44949000  0.39587000  1.0 -0.418286133
C  C407  1  0.54465000  0.37161000  0.26887000  1.0 -0.0515058207
C  C408  1  0.53880000  0.40197000  0.20937000  1.0 -0.4144876264
C  C409  1  0.64234000  0.40509000  0.24537000  1.0 -0.0575998761
C  C410  1  0.63334000  0.35544000  0.20547000  1.0 -0.4361717086
C  C411  1  0.59714000  0.35496000  0.35337000  1.0 -0.0575998761
C  C412  1  0.64995000  0.36838000  0.38937000  1.0 -0.4361717086
C  C413  1  0.83111000  0.38128000  0.66760000  1.0 -0.0575998761
C  C414  1  0.86379000  0.41430000  0.72920000  1.0 -0.418286133
C  C415  1  0.82696000  0.45535000  0.60220000  1.0 -0.0515058207
C  C416  1  0.86317000  0.46120000  0.54270000  1.0 -0.4144876264
C  C417  1  0.76275000  0.35766000  0.57870000  1.0 -0.0575998761
C  C418  1  0.72210000  0.36666000  0.53880000  1.0 -0.4361717086
C  C419  1  0.75782000  0.40286000  0.68670000  1.0 -0.0575998761
C  C420  1  0.71843000  0.35005000  0.72270000  1.0 -0.4361717086
C  C421  1  0.21239000  0.70568000  0.27023000  1.0 -0.0575998761
C  C422  1  0.20561000  0.73650000  0.21143000  1.0 -0.418286133
C  C423  1  0.28646000  0.78434000  0.33543000  1.0 -0.0515058207
C  C424  1  0.25343000  0.78240000  0.39813000  1.0 -0.418286133
C  C425  1  0.26633000  0.68923000  0.35267000  1.0 -0.0575998761
C  C426  1  0.31957000  0.70330000  0.38703000  1.0 -0.4361717086
C  C427  1  0.31002000  0.74093000  0.24483000  1.0 -0.0575998761
C  C428  1  0.30127000  0.69181000  0.20373000  1.0 -0.4361717086
C  C429  1  0.49329000  0.78761000  0.60357000  1.0 -0.0575998761
C  C430  1  0.53089000  0.79439000  0.54477000  1.0 -0.418286133
C  C431  1  0.49788000  0.71354000  0.66877000  1.0 -0.0515058207
C  C432  1  0.52897000  0.74657000  0.73147000  1.0 -0.418286133
C  C433  1  0.42290000  0.73367000  0.68601000  1.0 -0.0575998761
C  C434  1  0.38373000  0.68043000  0.72037000  1.0 -0.4361717086
C  C435  1  0.43091000  0.68998000  0.57817000  1.0 -0.0575998761
C  C436  1  0.39054000  0.69873000  0.53707000  1.0 -0.4361717086
C  C437  1  0.29432000  0.50671000  0.93690000  1.0 -0.0575998761
C  C438  1  0.26350000  0.46911000  0.87810000  1.0 -0.418286133
C  C439  1  0.21566000  0.50212000  0.00210000  1.0 -0.0515058207
C  C440  1  0.21760000  0.47103000  0.06480000  1.0 -0.418286133
C  C441  1  0.31077000  0.57710000  0.01934000  1.0 -0.0575998761
C  C442  1  0.29670000  0.61627000  0.05370000  1.0 -0.4361717086
C  C443  1  0.25907000  0.56909000  0.91150000  1.0 -0.0575998761
C  C444  1  0.30819000  0.60946000  0.87040000  1.0 -0.4361717086
C  C445  1  0.95004000  0.83426000  0.92487000  1.0 -0.0515058207
C  C446  1  0.91668000  0.80395000  0.86233000  1.0 -0.418286133
C  C447  1  0.93379000  0.91221000  0.90808000  1.0 -0.0575998761
C  C448  1  0.98845000  0.95136000  0.87463000  1.0 -0.4361717086
C  C449  1  0.97564000  0.90014000  0.01599000  1.0 -0.0575998761
C  C450  1  0.96899000  0.94137000  0.05823000  1.0 -0.4361717086
C  C451  1  0.87714000  0.84084000  0.98992000  1.0 -0.0575998761
C  C452  1  0.86947000  0.80250000  0.04901000  1.0 -0.418286133
C  C453  1  0.88422000  0.04996000  0.25821000  1.0 -0.0515058207
C  C454  1  0.88727000  0.08332000  0.19567000  1.0 -0.418286133
C  C455  1  0.97842000  0.06621000  0.24142000  1.0 -0.0575998761
C  C456  1  0.96291000  0.01155000  0.20797000  1.0 -0.4335749409
C  C457  1  0.92450000  0.02436000  0.34933000  1.0 -0.0575998761
C  C458  1  0.97238000  0.03101000  0.39157000  1.0 -0.4361717086
C  C459  1  0.96370000  0.12286000  0.32326000  1.0 -0.0575998761
C  C460  1  0.93303000  0.13053000  0.38235000  1.0 -0.418286133
C  C461  1  0.16574000  0.11578000  0.59154000  1.0 -0.0515058207
C  C462  1  0.19605000  0.11273000  0.52900000  1.0 -0.418286133
C  C463  1  0.08779000  0.02158000  0.57475000  1.0 -0.0575998761
C  C464  1  0.04864000  0.03709000  0.54130000  1.0 -0.4335749409
C  C465  1  0.09986000  0.07550000  0.68266000  1.0 -0.0575998761
C  C466  1  0.05863000  0.02762000  0.72490000  1.0 -0.4361717086
C  C467  1  0.15916000  0.03630000  0.65659000  1.0 -0.0575998761
C  C468  1  0.19750000  0.06697000  0.71568000  1.0 -0.418286133
Br  Br1  1  0.09985000  0.02679000  0.23870000  1.0 -0.0575998761
Br  Br2  1  0.97321000  0.07306000  0.90537000  1.0 -0.0575998761
Br  Br3  1  0.92694000  0.90015000  0.57203000  1.0 -0.0575998761
Br  Br4  1  0.21466000  0.67239000  0.03075000  1.0 -0.0575998761
Br  Br5  1  0.32761000  0.54227000  0.69742000  1.0 -0.0575998761
Br  Br6  1  0.45773000  0.78534000  0.36408000  1.0 -0.0575998761
Br  Br7  1  0.92307000  0.02320000  0.71030000  1.0 -0.0575998761
Br  Br8  1  0.97680000  0.89987000  0.37697000  1.0 -0.0575998761
Br  Br9  1  0.10013000  0.07693000  0.04363000  1.0 -0.0575998761
Br  Br10  1  0.44776000  0.66195000  0.89118000  1.0 -0.0515058207
Br  Br11  1  0.33805000  0.78581000  0.55785000  1.0 -0.0515058207
Br  Br12  1  0.21419000  0.55224000  0.22451000  1.0 -0.0515058207
Br  Br13  1  0.76744000  0.40766000  0.02765000  1.0 -0.0575998761
Br  Br14  1  0.59234000  0.35978000  0.69432000  1.0 -0.0575998761
Br  Br15  1  0.64022000  0.23256000  0.36098000  1.0 -0.0575998761
Br  Br16  1  0.88308000  0.87547000  0.23211000  1.0 -0.0575998761
Br  Br17  1  0.12453000  0.00761000  0.89878000  1.0 -0.0575998761
Br  Br18  1  0.99239000  0.11692000  0.56544000  1.0 -0.0575998761
Br  Br19  1  0.43259000  0.74026000  0.02755000  1.0 -0.0575998761
Br  Br20  1  0.25974000  0.69233000  0.69422000  1.0 -0.0575998761
Br  Br21  1  0.30767000  0.56741000  0.36088000  1.0 -0.0575998761
Br  Br22  1  0.54574000  0.21414000  0.22649000  1.0 -0.0575998761
Br  Br23  1  0.78586000  0.33160000  0.89316000  1.0 -0.0575998761
Br  Br24  1  0.66840000  0.45426000  0.55982000  1.0 -0.0575998761
Br  Br25  1  0.64310000  0.40916000  0.88945000  1.0 -0.0515058207
Br  Br26  1  0.59084000  0.23394000  0.55612000  1.0 -0.0515058207
Br  Br27  1  0.76606000  0.35690000  0.22278000  1.0 -0.0575998761
Br  Br28  1  0.00630000  0.88553000  0.70499000  1.0 -0.0515058207
Br  Br29  1  0.11447000  0.12077000  0.37166000  1.0 -0.0515058207
Br  Br30  1  0.87923000  0.99370000  0.03832000  1.0 -0.0515058207
Br  Br31  1  0.25686000  0.56579000  0.55617000  1.0 -0.0515058207
Br  Br32  1  0.43421000  0.69107000  0.22284000  1.0 -0.0515058207
Br  Br33  1  0.30893000  0.74314000  0.88950000  1.0 -0.0515058207
Br  Br34  1  0.78634000  0.45012000  0.36597000  1.0 -0.0575998761
Br  Br35  1  0.54988000  0.33622000  0.03264000  1.0 -0.0575998761
Br  Br36  1  0.66378000  0.21366000  0.69930000  1.0 -0.0575998761
N  N1  1  0.97852000  0.77141000  0.16167000  1.0 -0.2304605309
N  N2  1  0.22859000  0.20711000  0.82834000  1.0 -0.2304605309
N  N3  1  0.79289000  0.02148000  0.49500000  1.0 -0.2304605309
N  N4  1  0.00295000  0.68976000  0.11185000  1.0 -0.2304605309
N  N5  1  0.31024000  0.31319000  0.77852000  1.0 -0.2304605309
N  N6  1  0.68681000  0.99705000  0.44518000  1.0 -0.2304605309
N  N7  1  0.78410000  0.76467000  0.77133000  1.0 -0.2369810955
N  N8  1  0.23533000  0.01943000  0.43800000  1.0 -0.2369810955
N  N9  1  0.98057000  0.21590000  0.10466000  1.0 -0.2369810955
N  N10  1  0.67853000  0.67983000  0.82094000  1.0 -0.2304605309
N  N11  1  0.32017000  0.99870000  0.48761000  1.0 -0.2304605309
N  N12  1  0.00130000  0.32147000  0.15427000  1.0 -0.2304605309
N  N13  1  0.64530000  0.54149000  0.10259000  1.0 -0.2369810955
N  N14  1  0.45851000  0.10381000  0.76926000  1.0 -0.2369810955
N  N15  1  0.89619000  0.35470000  0.43592000  1.0 -0.2304605309
N  N16  1  0.66928000  0.64747000  0.15276000  1.0 -0.2304605309
N  N17  1  0.35253000  0.02181000  0.81943000  1.0 -0.2304605309
N  N18  1  0.97819000  0.33072000  0.48609000  1.0 -0.2304605309
N  N19  1  0.31235000  0.87658000  0.09953000  1.0 -0.2304605309
N  N20  1  0.12342000  0.43577000  0.76620000  1.0 -0.2304605309
N  N21  1  0.56423000  0.68765000  0.43286000  1.0 -0.2304605309
N  N22  1  0.33619000  0.98273000  0.14889000  1.0 -0.2304605309
N  N23  1  0.01727000  0.35346000  0.81556000  1.0 -0.2304605309
N  N24  1  0.64654000  0.66381000  0.48222000  1.0 -0.2304605309
N  N25  1  0.90096000  0.54791000  0.82607000  1.0 -0.2369810955
N  N26  1  0.45209000  0.35305000  0.49274000  1.0 -0.2369810955
N  N27  1  0.64695000  0.09904000  0.15940000  1.0 -0.2369810955
N  N28  1  0.98507000  0.65369000  0.77723000  1.0 -0.2304605309
N  N29  1  0.34631000  0.33138000  0.44390000  1.0 -0.2304605309
N  N30  1  0.66862000  0.01493000  0.11056000  1.0 -0.2304605309
N  N31  1  0.12034000  0.68679000  0.48986000  1.0 -0.2369810955
N  N32  1  0.31321000  0.43355000  0.15653000  1.0 -0.2369810955
N  N33  1  0.56645000  0.87966000  0.82319000  1.0 -0.2369810955
N  N34  1  0.01479000  0.66500000  0.43975000  1.0 -0.2304605309
N  N35  1  0.33500000  0.34979000  0.10642000  1.0 -0.2304605309
N  N36  1  0.65021000  0.98521000  0.77308000  1.0 -0.2304605309
N  N37  1  0.93949000  0.72441000  0.01933000  1.0 -0.3978551721
N  N38  1  0.27559000  0.21508000  0.68600000  1.0 -0.3978551721
N  N39  1  0.78492000  0.06051000  0.35266000  1.0 -0.3978551721
N  N40  1  0.77838000  0.71787000  0.91296000  1.0 -0.3923753644
N  N41  1  0.28213000  0.06051000  0.57963000  1.0 -0.3923753644
N  N42  1  0.93949000  0.22162000  0.24629000  1.0 -0.3923753644
N  N43  1  0.70927000  0.55477000  0.91854000  1.0 -0.3632336349
N  N44  1  0.44523000  0.15450000  0.58521000  1.0 -0.3632336349
N  N45  1  0.84550000  0.29073000  0.25187000  1.0 -0.3632336349
N  N46  1  0.85193000  0.55808000  0.01185000  1.0 -0.367121988
N  N47  1  0.44192000  0.29385000  0.67852000  1.0 -0.367121988
N  N48  1  0.70615000  0.14807000  0.34518000  1.0 -0.367121988
N  N49  1  0.76350000  0.63219000  0.10635000  1.0 -0.3923753644
N  N50  1  0.36781000  0.13131000  0.77302000  1.0 -0.3923753644
N  N51  1  0.86869000  0.23650000  0.43968000  1.0 -0.3923753644
N  N52  1  0.87419000  0.63874000  0.82450000  1.0 -0.3923753644
N  N53  1  0.36126000  0.23545000  0.49117000  1.0 -0.3923753644
N  N54  1  0.76455000  0.12581000  0.15783000  1.0 -0.3923753644
N  N55  1  0.60545000  0.54874000  0.24450000  1.0 -0.3978551721
N  N56  1  0.45126000  0.05671000  0.91117000  1.0 -0.3978551721
N  N57  1  0.94329000  0.39455000  0.57783000  1.0 -0.3978551721
N  N58  1  0.43078000  0.96725000  0.10238000  1.0 -0.3978551721
N  N59  1  0.03275000  0.46353000  0.76905000  1.0 -0.3978551721
N  N60  1  0.53647000  0.56922000  0.43571000  1.0 -0.3978551721
N  N61  1  0.37286000  0.48461000  0.33982000  1.0 -0.367121988
N  N62  1  0.51539000  0.88825000  0.00649000  1.0 -0.367121988
N  N63  1  0.11175000  0.62714000  0.67315000  1.0 -0.367121988
N  N64  1  0.02952000  0.56925000  0.48689000  1.0 -0.3978551721
N  N65  1  0.43075000  0.46027000  0.15356000  1.0 -0.3978551721
N  N66  1  0.53973000  0.97048000  0.82022000  1.0 -0.3978551721
N  N67  1  0.94766000  0.55478000  0.68399000  1.0 -0.3978551721
N  N68  1  0.44522000  0.39288000  0.35066000  1.0 -0.3978551721
N  N69  1  0.60712000  0.05234000  0.01732000  1.0 -0.3978551721
N  N70  1  0.51546000  0.62426000  0.24669000  1.0 -0.3632336349
N  N71  1  0.37574000  0.89120000  0.91336000  1.0 -0.3632336349
N  N72  1  0.10880000  0.48454000  0.58002000  1.0 -0.3632336349
N  N73  1  0.04375000  0.82121000  0.34708000  1.0 -0.3632336349
N  N74  1  0.17879000  0.22254000  0.01375000  1.0 -0.367121988
N  N75  1  0.77746000  0.95625000  0.68041000  1.0 -0.367121988
N  N76  1  0.11479000  0.72792000  0.34850000  1.0 -0.3923753644
N  N77  1  0.27208000  0.38687000  0.01517000  1.0 -0.3923753644
N  N78  1  0.61313000  0.88521000  0.68183000  1.0 -0.3923753644
N  N79  1  0.27372000  0.88495000  0.24217000  1.0 -0.3978551721
N  N80  1  0.11505000  0.38877000  0.90884000  1.0 -0.3978551721
N  N81  1  0.61123000  0.72628000  0.57550000  1.0 -0.3978551721
N  N82  1  0.18497000  0.96172000  0.25444000  1.0 -0.367121988
N  N83  1  0.03828000  0.22325000  0.92111000  1.0 -0.367121988
N  N84  1  0.77675000  0.81503000  0.58777000  1.0 -0.367121988
N  N85  1  0.20886000  0.90228000  0.43995000  1.0 -0.3923753644
N  N86  1  0.09772000  0.30658000  0.10662000  1.0 -0.3923753644
N  N87  1  0.69342000  0.79114000  0.77328000  1.0 -0.3923753644
N  N88  1  0.09712000  0.79901000  0.15794000  1.0 -0.3923753644
N  N89  1  0.20099000  0.29811000  0.82461000  1.0 -0.3923753644
N  N90  1  0.70189000  0.90288000  0.49127000  1.0 -0.3923753644
N  N91  1  0.60479000  0.20563000  0.96677000  1.0 0.1417340044
N  N92  1  0.60084000  0.39521000  0.30011000  1.0 0.1417340044
N  N93  1  0.79437000  0.39916000  0.63344000  1.0 0.1417340044
N  N94  1  0.26938000  0.73035000  0.30046000  1.0 0.1485384284
N  N95  1  0.46097000  0.73062000  0.63380000  1.0 0.1485384284
N  N96  1  0.26965000  0.53903000  0.96713000  1.0 0.1485384284
N  N97  1  0.93423000  0.87216000  0.95914000  1.0 0.1485384284
N  N98  1  0.93793000  0.06577000  0.29248000  1.0 0.1485384284
N  N99  1  0.12784000  0.06207000  0.62581000  1.0 0.1485384284
O  O1  1  0.04408000  0.83616000  0.05466000  1.0 -0.4684985114
O  O2  1  0.16384000  0.20792000  0.72133000  1.0 -0.4684985114
O  O3  1  0.79208000  0.95592000  0.38799000  1.0 -0.4684985114
O  O4  1  0.06243000  0.76014000  0.00698000  1.0 -0.4778121097
O  O5  1  0.23986000  0.30229000  0.67365000  1.0 -0.4778121097
O  O6  1  0.69771000  0.93757000  0.34031000  1.0 -0.4684985114
O  O7  1  0.78100000  0.82583000  0.88133000  1.0 -0.4778121097
O  O8  1  0.17417000  0.95517000  0.54800000  1.0 -0.4778121097
O  O9  1  0.04483000  0.21900000  0.21466000  1.0 -0.4778121097
O  O10  1  0.68699000  0.74974000  0.92437000  1.0 -0.4778121097
O  O11  1  0.25026000  0.93725000  0.59104000  1.0 -0.4778121097
O  O12  1  0.06275000  0.31301000  0.25770000  1.0 -0.4778121097
O  O13  1  0.71081000  0.54286000  0.21032000  1.0 -0.4684985114
O  O14  1  0.45714000  0.16795000  0.87699000  1.0 -0.4684985114
O  O15  1  0.83205000  0.28919000  0.54365000  1.0 -0.4684985114
O  O16  1  0.72791000  0.63627000  0.25780000  1.0 -0.4778121097
O  O17  1  0.36373000  0.09164000  0.92447000  1.0 -0.4778121097
O  O18  1  0.90836000  0.27209000  0.59113000  1.0 -0.4778121097
O  O19  1  0.37761000  0.87814000  0.20723000  1.0 -0.4638329068
O  O20  1  0.12186000  0.49947000  0.87390000  1.0 -0.4684985114
O  O21  1  0.50053000  0.62239000  0.54056000  1.0 -0.4638329068
O  O22  1  0.39718000  0.97335000  0.25273000  1.0 -0.4684985114
O  O23  1  0.02665000  0.42383000  0.91940000  1.0 -0.4684985114
O  O24  1  0.57617000  0.60282000  0.58606000  1.0 -0.4684985114
O  O25  1  0.83924000  0.55074000  0.71709000  1.0 -0.4684985114
O  O26  1  0.44926000  0.28850000  0.38376000  1.0 -0.4684985114
O  O27  1  0.71150000  0.16076000  0.05042000  1.0 -0.4684985114
O  O28  1  0.91489000  0.64564000  0.67413000  1.0 -0.4684985114
O  O29  1  0.35436000  0.26925000  0.34080000  1.0 -0.4684985114
O  O30  1  0.73075000  0.08511000  0.00746000  1.0 -0.4684985114
O  O31  1  0.11796000  0.62181000  0.38085000  1.0 -0.4684985114
O  O32  1  0.37819000  0.49615000  0.04752000  1.0 -0.4684985114
O  O33  1  0.50385000  0.88204000  0.71418000  1.0 -0.4684985114
O  O34  1  0.02478000  0.60534000  0.33521000  1.0 -0.4778121097
O  O35  1  0.39466000  0.41944000  0.00188000  1.0 -0.4778121097
O  O36  1  0.58056000  0.97522000  0.66854000  1.0 -0.4778121097
