# DDEC6 charges by PACMAN v1.1 (https://github.com/mtap-research/PACMAN-charge/)
data_CEMYUQ_FSR_pacman
_symmetry_space_group_name_H-M   'P 1'
_cell_length_a   7.14070000
_cell_length_b   7.14070000
_cell_length_c   20.48900000
_cell_angle_alpha   90.00000000
_cell_angle_beta   90.00000000
_cell_angle_gamma   90.00000000
_symmetry_Int_Tables_number   1
_chemical_formula_structural   FePt(C6N)6
_chemical_formula_sum   'Fe1 Pt1 C36 N6'
_cell_volume   1044.72584248
_cell_formula_units_Z   1
loop_
 _symmetry_equiv_pos_site_id
 _symmetry_equiv_pos_as_xyz
  1  'x, y, z'
loop_
 _atom_site_type_symbol
 _atom_site_label
 _atom_site_symmetry_multiplicity
 _atom_site_fract_x
 _atom_site_fract_y
 _atom_site_fract_z
 _atom_site_occupancy
 _atom_site_charge
Fe  Fe1  1  0.50000000  0.50000000  0.50000000  1.0 0.5902198943
Pt  Pt1  1  0.00000000  0.00000000  0.50000000  1.0 0.0838353427
C  C1  1  0.80800000  0.80800000  0.50000000  1.0 0.0962030234
C  C2  1  0.19200000  0.19200000  0.50000000  1.0 0.0962030234
C  C3  1  0.80800000  0.19200000  0.50000000  1.0 0.0962030234
C  C4  1  0.19200000  0.80800000  0.50000000  1.0 0.0962030234
C  C5  1  0.50000000  0.50000000  0.73290000  1.0 0.0597839857
C  C6  1  0.50000000  0.50000000  0.26710000  1.0 0.0597839857
C  C7  1  0.65800000  0.50000000  0.63080000  1.0 0.0467532368
C  C8  1  0.34200000  0.50000000  0.63080000  1.0 0.0467532368
C  C9  1  0.65800000  0.50000000  0.36920000  1.0 0.0467532368
C  C10  1  0.34200000  0.50000000  0.36920000  1.0 0.0467532368
C  C11  1  0.50000000  0.34200000  0.36920000  1.0 0.0467532368
C  C12  1  0.50000000  0.65800000  0.36920000  1.0 0.0467532368
C  C13  1  0.50000000  0.34200000  0.63080000  1.0 0.0467532368
C  C14  1  0.50000000  0.65800000  0.63080000  1.0 0.0467532368
C  C15  1  0.50000000  0.50000000  0.93100000  1.0 -0.0824781061
C  C16  1  0.50000000  0.50000000  0.06900000  1.0 -0.0824781061
C  C17  1  0.50000000  0.50000000  0.86400000  1.0 -0.103491856
C  C18  1  0.50000000  0.50000000  0.13600000  1.0 -0.1059783531
C  C19  1  0.50000000  0.50000000  0.80480000  1.0 -0.0492450298
C  C20  1  0.50000000  0.50000000  0.19520000  1.0 -0.0492450298
C  C21  1  0.66700000  0.50000000  0.69960000  1.0 0.0065567213
C  C22  1  0.33300000  0.50000000  0.69960000  1.0 0.0065567213
C  C23  1  0.66700000  0.50000000  0.30040000  1.0 0.0065567213
C  C24  1  0.33300000  0.50000000  0.30040000  1.0 0.0065567213
C  C25  1  0.50000000  0.33300000  0.30040000  1.0 0.0065567213
C  C26  1  0.50000000  0.66700000  0.30040000  1.0 0.0065567213
C  C27  1  0.50000000  0.33300000  0.69960000  1.0 0.0065567213
C  C28  1  0.50000000  0.66700000  0.69960000  1.0 0.0065567213
C  C29  1  0.63600000  0.50000000  0.96500000  1.0 0.0467532368
C  C30  1  0.36400000  0.50000000  0.96500000  1.0 0.0419841836
C  C31  1  0.63600000  0.50000000  0.03500000  1.0 0.0467532368
C  C32  1  0.36400000  0.50000000  0.03500000  1.0 0.0419841836
C  C33  1  0.50000000  0.36400000  0.03500000  1.0 0.0419841836
C  C34  1  0.50000000  0.63600000  0.03500000  1.0 0.0467532368
C  C35  1  0.50000000  0.36400000  0.96500000  1.0 0.0419841836
C  C36  1  0.50000000  0.63600000  0.96500000  1.0 0.0467532368
N  N1  1  0.50000000  0.50000000  0.59690000  1.0 -0.1375610737
N  N2  1  0.50000000  0.50000000  0.40310000  1.0 -0.1375610737
N  N3  1  0.69000000  0.69000000  0.50000000  1.0 -0.3029565049
N  N4  1  0.31000000  0.31000000  0.50000000  1.0 -0.3029565049
N  N5  1  0.69000000  0.31000000  0.50000000  1.0 -0.3029565049
N  N6  1  0.31000000  0.69000000  0.50000000  1.0 -0.3029565049
