# DDEC6 charges by PACMAN v1.1 (https://github.com/mtap-research/PACMAN-charge/)
data_CENKAJ_FSR_pacman
_symmetry_space_group_name_H-M   'P 1'
_cell_length_a   16.75850000
_cell_length_b   16.75850000
_cell_length_c   16.75850000
_cell_angle_alpha   105.19200000
_cell_angle_beta   105.19200000
_cell_angle_gamma   105.19200000
_symmetry_Int_Tables_number   1
_chemical_formula_structural   Cu3H15C13(N3O4)2
_chemical_formula_sum   'Cu18 H90 C78 N36 O48'
_cell_volume   4097.67324328
_cell_formula_units_Z   6
loop_
 _symmetry_equiv_pos_site_id
 _symmetry_equiv_pos_as_xyz
  1  'x, y, z'
loop_
 _atom_site_type_symbol
 _atom_site_label
 _atom_site_symmetry_multiplicity
 _atom_site_fract_x
 _atom_site_fract_y
 _atom_site_fract_z
 _atom_site_occupancy
 _atom_site_charge
Cu  Cu1  1  0.15252000  0.56711000  0.39115000  1.0 0.7174076726
Cu  Cu2  1  0.56711000  0.39115000  0.15252000  1.0 0.7174076726
Cu  Cu3  1  0.39115000  0.15252000  0.56711000  1.0 0.7174076726
Cu  Cu4  1  0.84748000  0.43289000  0.60885000  1.0 0.7174076726
Cu  Cu5  1  0.43289000  0.60885000  0.84748000  1.0 0.7174076726
Cu  Cu6  1  0.60885000  0.84748000  0.43289000  1.0 0.7174076726
Cu  Cu7  1  0.23579000  0.63194000  0.61217000  1.0 0.6890890886
Cu  Cu8  1  0.63194000  0.61217000  0.23579000  1.0 0.6890890886
Cu  Cu9  1  0.61217000  0.23579000  0.63194000  1.0 0.6890890886
Cu  Cu10  1  0.76421000  0.36806000  0.38783000  1.0 0.6890890886
Cu  Cu11  1  0.36806000  0.38783000  0.76421000  1.0 0.6890890886
Cu  Cu12  1  0.38783000  0.76421000  0.36806000  1.0 0.6890890886
Cu  Cu13  1  0.09171000  0.71522000  0.51532000  1.0 0.6824211766
Cu  Cu14  1  0.71522000  0.51532000  0.09171000  1.0 0.6824211766
Cu  Cu15  1  0.51532000  0.09171000  0.71522000  1.0 0.6824211766
Cu  Cu16  1  0.90829000  0.28478000  0.48468000  1.0 0.6824211766
Cu  Cu17  1  0.28478000  0.48468000  0.90829000  1.0 0.6824211766
Cu  Cu18  1  0.48468000  0.90829000  0.28478000  1.0 0.6824211766
H  H1  1  0.24210000  0.42350000  0.35650000  1.0 0.107482138
H  H2  1  0.42350000  0.35650000  0.24210000  1.0 0.107482138
H  H3  1  0.35650000  0.24210000  0.42350000  1.0 0.107482138
H  H4  1  0.75790000  0.57650000  0.64350000  1.0 0.107482138
H  H5  1  0.57650000  0.64350000  0.75790000  1.0 0.107482138
H  H6  1  0.64350000  0.75790000  0.57650000  1.0 0.107482138
H  H7  1  0.35390000  0.40920000  0.47890000  1.0 0.128363725
H  H8  1  0.40920000  0.47890000  0.35390000  1.0 0.128363725
H  H9  1  0.47890000  0.35390000  0.40920000  1.0 0.128363725
H  H10  1  0.64610000  0.59080000  0.52110000  1.0 0.128363725
H  H11  1  0.59080000  0.52110000  0.64610000  1.0 0.128363725
H  H12  1  0.52110000  0.64610000  0.59080000  1.0 0.128363725
H  H13  1  0.36210000  0.51770000  0.61660000  1.0 0.1004985312
H  H14  1  0.51770000  0.61660000  0.36210000  1.0 0.1004985312
H  H15  1  0.61660000  0.36210000  0.51770000  1.0 0.1004985312
H  H16  1  0.63790000  0.48230000  0.38340000  1.0 0.1004985312
H  H17  1  0.48230000  0.38340000  0.63790000  1.0 0.1004985312
H  H18  1  0.38340000  0.63790000  0.48230000  1.0 0.1004985312
H  H19  1  0.26060000  0.73750000  0.81270000  1.0 0.1004985312
H  H20  1  0.73750000  0.81270000  0.26060000  1.0 0.1004985312
H  H21  1  0.81270000  0.26060000  0.73750000  1.0 0.1004985312
H  H22  1  0.73940000  0.26250000  0.18730000  1.0 0.1004985312
H  H23  1  0.26250000  0.18730000  0.73940000  1.0 0.1004985312
H  H24  1  0.18730000  0.73940000  0.26250000  1.0 0.1004985312
H  H25  1  0.16580000  0.82930000  0.84300000  1.0 0.1172090491
H  H26  1  0.82930000  0.84300000  0.16580000  1.0 0.1172090491
H  H27  1  0.84300000  0.16580000  0.82930000  1.0 0.1172090491
H  H28  1  0.83420000  0.17070000  0.15700000  1.0 0.1172090491
H  H29  1  0.17070000  0.15700000  0.83420000  1.0 0.1172090491
H  H30  1  0.15700000  0.83420000  0.17070000  1.0 0.1172090491
H  H31  1  0.08270000  0.83030000  0.69620000  1.0 0.107482138
H  H32  1  0.83030000  0.69620000  0.08270000  1.0 0.107482138
H  H33  1  0.69620000  0.08270000  0.83030000  1.0 0.107482138
H  H34  1  0.91730000  0.16970000  0.30380000  1.0 0.107482138
H  H35  1  0.16970000  0.30380000  0.91730000  1.0 0.107482138
H  H36  1  0.30380000  0.91730000  0.16970000  1.0 0.107482138
H  H37  1  0.97650000  0.75270000  0.35410000  1.0 0.1172090491
H  H38  1  0.75270000  0.35410000  0.97650000  1.0 0.1172090491
H  H39  1  0.35410000  0.97650000  0.75270000  1.0 0.1172090491
H  H40  1  0.02350000  0.24730000  0.64590000  1.0 0.1172090491
H  H41  1  0.24730000  0.64590000  0.02350000  1.0 0.1172090491
H  H42  1  0.64590000  0.02350000  0.24730000  1.0 0.1172090491
H  H43  1  0.96160000  0.66930000  0.20010000  1.0 0.1415181448
H  H44  1  0.66930000  0.20010000  0.96160000  1.0 0.1415181448
H  H45  1  0.20010000  0.96160000  0.66930000  1.0 0.1415181448
H  H46  1  0.03840000  0.33070000  0.79990000  1.0 0.1415181448
H  H47  1  0.33070000  0.79990000  0.03840000  1.0 0.1415181448
H  H48  1  0.79990000  0.03840000  0.33070000  1.0 0.1415181448
H  H49  1  0.04530000  0.57110000  0.20590000  1.0 0.1172090491
H  H50  1  0.57110000  0.20590000  0.04530000  1.0 0.1172090491
H  H51  1  0.20590000  0.04530000  0.57110000  1.0 0.1172090491
H  H52  1  0.95470000  0.42890000  0.79410000  1.0 0.1172090491
H  H53  1  0.42890000  0.79410000  0.95470000  1.0 0.1172090491
H  H54  1  0.79410000  0.95470000  0.42890000  1.0 0.1172090491
H  H55  1  0.33940000  0.58660000  0.22900000  1.0 0.128363725
H  H56  1  0.58660000  0.22900000  0.33940000  1.0 0.128363725
H  H57  1  0.22900000  0.33940000  0.58660000  1.0 0.128363725
H  H58  1  0.66060000  0.41340000  0.77100000  1.0 0.128363725
H  H59  1  0.41340000  0.77100000  0.66060000  1.0 0.128363725
H  H60  1  0.77100000  0.66060000  0.41340000  1.0 0.128363725
H  H61  1  0.26570000  0.61460000  0.17840000  1.0 0.128363725
H  H62  1  0.61460000  0.17840000  0.26570000  1.0 0.128363725
H  H63  1  0.17840000  0.26570000  0.61460000  1.0 0.128363725
H  H64  1  0.73430000  0.38540000  0.82160000  1.0 0.128363725
H  H65  1  0.38540000  0.82160000  0.73430000  1.0 0.128363725
H  H66  1  0.82160000  0.73430000  0.38540000  1.0 0.128363725
H  H67  1  0.25420000  0.44560000  0.16210000  1.0 0.1172090491
H  H68  1  0.44560000  0.16210000  0.25420000  1.0 0.1172090491
H  H69  1  0.16210000  0.25420000  0.44560000  1.0 0.1172090491
H  H70  1  0.74580000  0.55440000  0.83790000  1.0 0.1172090491
H  H71  1  0.55440000  0.83790000  0.74580000  1.0 0.1172090491
H  H72  1  0.83790000  0.74580000  0.55440000  1.0 0.1172090491
H  H73  1  0.17630000  0.47120000  0.11450000  1.0 0.1172090491
H  H74  1  0.47120000  0.11450000  0.17630000  1.0 0.1172090491
H  H75  1  0.11450000  0.17630000  0.47120000  1.0 0.1172090491
H  H76  1  0.82370000  0.52880000  0.88550000  1.0 0.1172090491
H  H77  1  0.52880000  0.88550000  0.82370000  1.0 0.1172090491
H  H78  1  0.88550000  0.82370000  0.52880000  1.0 0.1172090491
H  H79  1  0.09710000  0.57620000  0.50420000  1.0 0.2899076481
H  H80  1  0.57620000  0.50420000  0.09710000  1.0 0.2899076481
H  H81  1  0.50420000  0.09710000  0.57620000  1.0 0.2899076481
H  H82  1  0.90290000  0.42380000  0.49580000  1.0 0.2899076481
H  H83  1  0.42380000  0.49580000  0.90290000  1.0 0.2899076481
H  H84  1  0.49580000  0.90290000  0.42380000  1.0 0.2899076481
H  H85  1  0.22380000  0.70070000  0.50830000  1.0 0.2681804985
H  H86  1  0.70070000  0.50830000  0.22380000  1.0 0.2681804985
H  H87  1  0.50830000  0.22380000  0.70070000  1.0 0.2681804985
H  H88  1  0.77620000  0.29930000  0.49170000  1.0 0.2681804985
H  H89  1  0.29930000  0.49170000  0.77620000  1.0 0.2681804985
H  H90  1  0.49170000  0.77620000  0.29930000  1.0 0.2681804985
C  C1  1  0.25990000  0.45630000  0.41630000  1.0 0.0228017931
C  C2  1  0.45630000  0.41630000  0.25990000  1.0 0.0228017931
C  C3  1  0.41630000  0.25990000  0.45630000  1.0 0.0228017931
C  C4  1  0.74010000  0.54370000  0.58370000  1.0 0.0228017931
C  C5  1  0.54370000  0.58370000  0.74010000  1.0 0.0228017931
C  C6  1  0.58370000  0.74010000  0.54370000  1.0 0.0228017931
C  C7  1  0.32240000  0.44720000  0.48410000  1.0 -0.2196305478
C  C8  1  0.44720000  0.48410000  0.32240000  1.0 -0.2196305478
C  C9  1  0.48410000  0.32240000  0.44720000  1.0 -0.2196305478
C  C10  1  0.67760000  0.55280000  0.51590000  1.0 -0.2196305478
C  C11  1  0.55280000  0.51590000  0.67760000  1.0 -0.2196305478
C  C12  1  0.51590000  0.67760000  0.55280000  1.0 -0.2196305478
C  C13  1  0.32640000  0.50690000  0.55930000  1.0 -0.0026558052
C  C14  1  0.50690000  0.55930000  0.32640000  1.0 -0.0026558052
C  C15  1  0.55930000  0.32640000  0.50690000  1.0 -0.0026558052
C  C16  1  0.67360000  0.49310000  0.44070000  1.0 -0.0026558052
C  C17  1  0.49310000  0.44070000  0.67360000  1.0 -0.0026558052
C  C18  1  0.44070000  0.67360000  0.49310000  1.0 -0.0026558052
C  C19  1  0.21950000  0.74770000  0.77100000  1.0 0.0074462129
C  C20  1  0.74770000  0.77100000  0.21950000  1.0 0.0074462129
C  C21  1  0.77100000  0.21950000  0.74770000  1.0 0.0074462129
C  C22  1  0.78050000  0.25230000  0.22900000  1.0 0.0074462129
C  C23  1  0.25230000  0.22900000  0.78050000  1.0 0.0074462129
C  C24  1  0.22900000  0.78050000  0.25230000  1.0 0.0074462129
C  C25  1  0.16780000  0.80020000  0.78850000  1.0 -0.2042889506
C  C26  1  0.80020000  0.78850000  0.16780000  1.0 -0.2042889506
C  C27  1  0.78850000  0.16780000  0.80020000  1.0 -0.2042889506
C  C28  1  0.83220000  0.19980000  0.21150000  1.0 -0.2042889506
C  C29  1  0.19980000  0.21150000  0.83220000  1.0 -0.2042889506
C  C30  1  0.21150000  0.83220000  0.19980000  1.0 -0.2042889506
C  C31  1  0.12030000  0.79860000  0.70500000  1.0 0.0074462129
C  C32  1  0.79860000  0.70500000  0.12030000  1.0 0.0074462129
C  C33  1  0.70500000  0.12030000  0.79860000  1.0 0.0074462129
C  C34  1  0.87970000  0.20140000  0.29500000  1.0 0.0074462129
C  C35  1  0.20140000  0.29500000  0.87970000  1.0 0.0074462129
C  C36  1  0.29500000  0.87970000  0.20140000  1.0 0.0074462129
C  C37  1  0.00160000  0.71060000  0.33780000  1.0 0.0428890092
C  C38  1  0.71060000  0.33780000  0.00160000  1.0 0.0428890092
C  C39  1  0.33780000  0.00160000  0.71060000  1.0 0.0428890092
C  C40  1  0.99840000  0.28940000  0.66220000  1.0 0.0428890092
C  C41  1  0.28940000  0.66220000  0.99840000  1.0 0.0428890092
C  C42  1  0.66220000  0.99840000  0.28940000  1.0 0.0428890092
C  C43  1  0.99370000  0.66320000  0.25120000  1.0 -0.1925087134
C  C44  1  0.66320000  0.25120000  0.99370000  1.0 -0.1925087134
C  C45  1  0.25120000  0.99370000  0.66320000  1.0 -0.1925087134
C  C46  1  0.00630000  0.33680000  0.74880000  1.0 -0.1925087134
C  C47  1  0.33680000  0.74880000  0.00630000  1.0 -0.1925087134
C  C48  1  0.74880000  0.00630000  0.33680000  1.0 -0.1925087134
C  C49  1  0.03880000  0.60870000  0.25370000  1.0 0.0306391296
C  C50  1  0.60870000  0.25370000  0.03880000  1.0 0.0306391296
C  C51  1  0.25370000  0.03880000  0.60870000  1.0 0.0306391296
C  C52  1  0.96120000  0.39130000  0.74630000  1.0 0.0306391296
C  C53  1  0.39130000  0.74630000  0.96120000  1.0 0.0306391296
C  C54  1  0.74630000  0.96120000  0.39130000  1.0 0.0306391296
C  C55  1  0.24500000  0.58800000  0.28480000  1.0 0.5967626264
C  C56  1  0.58800000  0.28480000  0.24500000  1.0 0.5967626264
C  C57  1  0.28480000  0.24500000  0.58800000  1.0 0.5967626264
C  C58  1  0.75500000  0.41200000  0.71520000  1.0 0.5967626264
C  C59  1  0.41200000  0.71520000  0.75500000  1.0 0.5967626264
C  C60  1  0.71520000  0.75500000  0.41200000  1.0 0.5967626264
C  C61  1  0.27590000  0.57200000  0.20570000  1.0 -0.3081107348
C  C62  1  0.57200000  0.20570000  0.27590000  1.0 -0.3081107348
C  C63  1  0.20570000  0.27590000  0.57200000  1.0 -0.3081107348
C  C64  1  0.72410000  0.42800000  0.79430000  1.0 -0.3081107348
C  C65  1  0.42800000  0.79430000  0.72410000  1.0 -0.3081107348
C  C66  1  0.79430000  0.72410000  0.42800000  1.0 -0.3081107348
C  C67  1  0.24020000  0.48870000  0.13750000  1.0 -0.2669194723
C  C68  1  0.48870000  0.13750000  0.24020000  1.0 -0.2669194723
C  C69  1  0.13750000  0.24020000  0.48870000  1.0 -0.2669194723
C  C70  1  0.75980000  0.51130000  0.86250000  1.0 -0.2669194723
C  C71  1  0.51130000  0.86250000  0.75980000  1.0 -0.2669194723
C  C72  1  0.86250000  0.75980000  0.51130000  1.0 -0.2669194723
C  C73  1  0.27330000  0.48640000  0.06320000  1.0 0.5671894043
C  C74  1  0.48640000  0.06320000  0.27330000  1.0 0.5671894043
C  C75  1  0.06320000  0.27330000  0.48640000  1.0 0.5671894043
C  C76  1  0.72670000  0.51360000  0.93680000  1.0 0.5671894043
C  C77  1  0.51360000  0.93680000  0.72670000  1.0 0.5671894043
C  C78  1  0.93680000  0.72670000  0.51360000  1.0 0.5671894043
N  N1  1  0.23000000  0.51690000  0.44860000  1.0 -0.2116966257
N  N2  1  0.51690000  0.44860000  0.23000000  1.0 -0.2116966257
N  N3  1  0.44860000  0.23000000  0.51690000  1.0 -0.2116966257
N  N4  1  0.77000000  0.48310000  0.55140000  1.0 -0.2116966257
N  N5  1  0.48310000  0.55140000  0.77000000  1.0 -0.2116966257
N  N6  1  0.55140000  0.77000000  0.48310000  1.0 -0.2116966257
N  N7  1  0.26940000  0.54750000  0.53580000  1.0 -0.2264744864
N  N8  1  0.54750000  0.53580000  0.26940000  1.0 -0.2264744864
N  N9  1  0.53580000  0.26940000  0.54750000  1.0 -0.2264744864
N  N10  1  0.73060000  0.45250000  0.46420000  1.0 -0.2264744864
N  N11  1  0.45250000  0.46420000  0.73060000  1.0 -0.2264744864
N  N12  1  0.46420000  0.73060000  0.45250000  1.0 -0.2264744864
N  N13  1  0.19750000  0.71530000  0.68200000  1.0 -0.2504552017
N  N14  1  0.71530000  0.68200000  0.19750000  1.0 -0.2504552017
N  N15  1  0.68200000  0.19750000  0.71530000  1.0 -0.2504552017
N  N16  1  0.80250000  0.28470000  0.31800000  1.0 -0.2504552017
N  N17  1  0.28470000  0.31800000  0.80250000  1.0 -0.2504552017
N  N18  1  0.31800000  0.80250000  0.28470000  1.0 -0.2504552017
N  N19  1  0.13580000  0.74480000  0.63770000  1.0 -0.2669194723
N  N20  1  0.74480000  0.63770000  0.13580000  1.0 -0.2669194723
N  N21  1  0.63770000  0.13580000  0.74480000  1.0 -0.2669194723
N  N22  1  0.86420000  0.25520000  0.36230000  1.0 -0.2669194723
N  N23  1  0.25520000  0.36230000  0.86420000  1.0 -0.2669194723
N  N24  1  0.36230000  0.86420000  0.25520000  1.0 -0.2669194723
N  N25  1  0.05230000  0.68320000  0.39130000  1.0 -0.2504552017
N  N26  1  0.68320000  0.39130000  0.05230000  1.0 -0.2504552017
N  N27  1  0.39130000  0.05230000  0.68320000  1.0 -0.2504552017
N  N28  1  0.94770000  0.31680000  0.60870000  1.0 -0.2504552017
N  N29  1  0.31680000  0.60870000  0.94770000  1.0 -0.2504552017
N  N30  1  0.60870000  0.94770000  0.31680000  1.0 -0.2504552017
N  N31  1  0.07180000  0.61870000  0.33640000  1.0 -0.2196305478
N  N32  1  0.61870000  0.33640000  0.07180000  1.0 -0.2196305478
N  N33  1  0.33640000  0.07180000  0.61870000  1.0 -0.2196305478
N  N34  1  0.92820000  0.38130000  0.66360000  1.0 -0.2196305478
N  N35  1  0.38130000  0.66360000  0.92820000  1.0 -0.2196305478
N  N36  1  0.66360000  0.92820000  0.38130000  1.0 -0.2196305478
O  O1  1  0.17850000  0.52760000  0.28150000  1.0 -0.5162646284
O  O2  1  0.52760000  0.28150000  0.17850000  1.0 -0.5162646284
O  O3  1  0.28150000  0.17850000  0.52760000  1.0 -0.5162646284
O  O4  1  0.82150000  0.47240000  0.71850000  1.0 -0.5162646284
O  O5  1  0.47240000  0.71850000  0.82150000  1.0 -0.5162646284
O  O6  1  0.71850000  0.82150000  0.47240000  1.0 -0.5162646284
O  O7  1  0.28110000  0.66050000  0.34630000  1.0 -0.5596758435
O  O8  1  0.66050000  0.34630000  0.28110000  1.0 -0.5596758435
O  O9  1  0.34630000  0.28110000  0.66050000  1.0 -0.5596758435
O  O10  1  0.71890000  0.33950000  0.65370000  1.0 -0.5596758435
O  O11  1  0.33950000  0.65370000  0.71890000  1.0 -0.5596758435
O  O12  1  0.65370000  0.71890000  0.33950000  1.0 -0.5596758435
O  O13  1  0.21880000  0.47650000  0.98960000  1.0 -0.5490511666
O  O14  1  0.47650000  0.98960000  0.21880000  1.0 -0.5490511666
O  O15  1  0.98960000  0.21880000  0.47650000  1.0 -0.5490511666
O  O16  1  0.78120000  0.52350000  0.01040000  1.0 -0.5490511666
O  O17  1  0.52350000  0.01040000  0.78120000  1.0 -0.5490511666
O  O18  1  0.01040000  0.78120000  0.52350000  1.0 -0.5490511666
O  O19  1  0.34790000  0.48960000  0.07360000  1.0 -0.4818890601
O  O20  1  0.48960000  0.07360000  0.34790000  1.0 -0.4818890601
O  O21  1  0.07360000  0.34790000  0.48960000  1.0 -0.4818890601
O  O22  1  0.65210000  0.51040000  0.92640000  1.0 -0.4818890601
O  O23  1  0.51040000  0.92640000  0.65210000  1.0 -0.4818890601
O  O24  1  0.92640000  0.65210000  0.51040000  1.0 -0.4818890601
O  O25  1  0.02470000  0.43230000  0.36050000  1.0 -0.1363640987
O  O26  1  0.43230000  0.36050000  0.02470000  1.0 -0.1363640987
O  O27  1  0.36050000  0.02470000  0.43230000  1.0 -0.134103221
O  O28  1  0.97530000  0.56770000  0.63950000  1.0 -0.134103221
O  O29  1  0.56770000  0.63950000  0.97530000  1.0 -0.1363640987
O  O30  1  0.63950000  0.97530000  0.56770000  1.0 -0.1363640987
O  O31  1  0.11910000  0.50560000  0.61250000  1.0 -0.1363640987
O  O32  1  0.50560000  0.61250000  0.11910000  1.0 -0.1363640987
O  O33  1  0.61250000  0.11910000  0.50560000  1.0 -0.134103221
O  O34  1  0.88090000  0.49440000  0.38750000  1.0 -0.134103221
O  O35  1  0.49440000  0.38750000  0.88090000  1.0 -0.1363640987
O  O36  1  0.38750000  0.88090000  0.49440000  1.0 -0.1363640987
O  O37  1  0.13820000  0.61670000  0.50690000  1.0 -0.2264744864
O  O38  1  0.61670000  0.50690000  0.13820000  1.0 -0.2264744864
O  O39  1  0.50690000  0.13820000  0.61670000  1.0 -0.2264744864
O  O40  1  0.86180000  0.38330000  0.49310000  1.0 -0.2264744864
O  O41  1  0.38330000  0.49310000  0.86180000  1.0 -0.2264744864
O  O42  1  0.49310000  0.86180000  0.38330000  1.0 -0.2264744864
O  O43  1  0.18190000  0.65830000  0.49930000  1.0 -0.2264744864
O  O44  1  0.65830000  0.49930000  0.18190000  1.0 -0.2264744864
O  O45  1  0.49930000  0.18190000  0.65830000  1.0 -0.2264744864
O  O46  1  0.81810000  0.34170000  0.50070000  1.0 -0.2264744864
O  O47  1  0.34170000  0.50070000  0.81810000  1.0 -0.2264744864
O  O48  1  0.50070000  0.81810000  0.34170000  1.0 -0.2264744864
