# DDEC6 charges by PACMAN v1.1 (https://github.com/mtap-research/PACMAN-charge/)
data_CERMIV_FSR_pacman
_symmetry_space_group_name_H-M   'P 1'
_cell_length_a   9.40030000
_cell_length_b   9.40030000
_cell_length_c   17.35000000
_cell_angle_alpha   90.00000000
_cell_angle_beta   90.00000000
_cell_angle_gamma   120.00000000
_symmetry_Int_Tables_number   1
_chemical_formula_structural   PrH6(C2O3)3
_chemical_formula_sum   'Pr4 H24 C24 O36'
_cell_volume   1327.74152657
_cell_formula_units_Z   4
loop_
 _symmetry_equiv_pos_site_id
 _symmetry_equiv_pos_as_xyz
  1  'x, y, z'
loop_
 _atom_site_type_symbol
 _atom_site_label
 _atom_site_symmetry_multiplicity
 _atom_site_fract_x
 _atom_site_fract_y
 _atom_site_fract_z
 _atom_site_occupancy
 _atom_site_charge
Pr  Pr1  1  0.66666667  0.33333333  0.25000000  1.0 2.110246606
Pr  Pr2  1  0.33333333  0.66666667  0.75000000  1.0 2.110246606
Pr  Pr3  1  0.00000000  0.00000000  0.00000000  1.0 1.9244788362
Pr  Pr4  1  0.00000000  0.00000000  0.50000000  1.0 1.9244788362
H  H1  1  0.49850000  0.17030000  0.02590000  1.0 0.1423540486
H  H2  1  0.82970000  0.32820000  0.02590000  1.0 0.1423540486
H  H3  1  0.67180000  0.50150000  0.02590000  1.0 0.1423540486
H  H4  1  0.49850000  0.17030000  0.47410000  1.0 0.1423540486
H  H5  1  0.82970000  0.32820000  0.47410000  1.0 0.1423540486
H  H6  1  0.67180000  0.50150000  0.47410000  1.0 0.1423540486
H  H7  1  0.17030000  0.49850000  0.97410000  1.0 0.1423540486
H  H8  1  0.32820000  0.82970000  0.97410000  1.0 0.1423540486
H  H9  1  0.50150000  0.67180000  0.97410000  1.0 0.1423540486
H  H10  1  0.17030000  0.49850000  0.52590000  1.0 0.1423540486
H  H11  1  0.32820000  0.82970000  0.52590000  1.0 0.1423540486
H  H12  1  0.50150000  0.67180000  0.52590000  1.0 0.1423540486
H  H13  1  0.42460000  0.02010000  0.08280000  1.0 0.1552609725
H  H14  1  0.97990000  0.40450000  0.08280000  1.0 0.1552609725
H  H15  1  0.59550000  0.57540000  0.08280000  1.0 0.1552609725
H  H16  1  0.42460000  0.02010000  0.41720000  1.0 0.1552609725
H  H17  1  0.97990000  0.40450000  0.41720000  1.0 0.1552609725
H  H18  1  0.59550000  0.57540000  0.41720000  1.0 0.1552609725
H  H19  1  0.02010000  0.42460000  0.91720000  1.0 0.1552609725
H  H20  1  0.40450000  0.97990000  0.91720000  1.0 0.1552609725
H  H21  1  0.57540000  0.59550000  0.91720000  1.0 0.1552609725
H  H22  1  0.02010000  0.42460000  0.58280000  1.0 0.1552609725
H  H23  1  0.40450000  0.97990000  0.58280000  1.0 0.1552609725
H  H24  1  0.57540000  0.59550000  0.58280000  1.0 0.1552609725
C  C1  1  0.34840000  0.18250000  0.10610000  1.0 0.6563513849
C  C2  1  0.81750000  0.16590000  0.10610000  1.0 0.6563513849
C  C3  1  0.83410000  0.65160000  0.10610000  1.0 0.6563513849
C  C4  1  0.34840000  0.18250000  0.39390000  1.0 0.6563513849
C  C5  1  0.81750000  0.16590000  0.39390000  1.0 0.6563513849
C  C6  1  0.83410000  0.65160000  0.39390000  1.0 0.6563513849
C  C7  1  0.18250000  0.34840000  0.89390000  1.0 0.6563513849
C  C8  1  0.16590000  0.81750000  0.89390000  1.0 0.6563513849
C  C9  1  0.65160000  0.83410000  0.89390000  1.0 0.6563513849
C  C10  1  0.18250000  0.34840000  0.60610000  1.0 0.6563513849
C  C11  1  0.16590000  0.81750000  0.60610000  1.0 0.6563513849
C  C12  1  0.65160000  0.83410000  0.60610000  1.0 0.6563513849
C  C13  1  0.40000000  0.09290000  0.05340000  1.0 -0.192403986
C  C14  1  0.90710000  0.30710000  0.05340000  1.0 -0.192403986
C  C15  1  0.69290000  0.60000000  0.05340000  1.0 -0.192403986
C  C16  1  0.40000000  0.09290000  0.44660000  1.0 -0.192403986
C  C17  1  0.90710000  0.30710000  0.44660000  1.0 -0.192403986
C  C18  1  0.69290000  0.60000000  0.44660000  1.0 -0.192403986
C  C19  1  0.09290000  0.40000000  0.94660000  1.0 -0.192403986
C  C20  1  0.30710000  0.90710000  0.94660000  1.0 -0.192403986
C  C21  1  0.60000000  0.69290000  0.94660000  1.0 -0.192403986
C  C22  1  0.09290000  0.40000000  0.55340000  1.0 -0.192403986
C  C23  1  0.30710000  0.90710000  0.55340000  1.0 -0.192403986
C  C24  1  0.60000000  0.69290000  0.55340000  1.0 -0.192403986
O  O1  1  0.21080000  0.17220000  0.09650000  1.0 -0.5927709467
O  O2  1  0.82780000  0.03860000  0.09650000  1.0 -0.5927709467
O  O3  1  0.96140000  0.78920000  0.09650000  1.0 -0.5927709467
O  O4  1  0.21080000  0.17220000  0.40350000  1.0 -0.5927709467
O  O5  1  0.82780000  0.03860000  0.40350000  1.0 -0.5927709467
O  O6  1  0.96140000  0.78920000  0.40350000  1.0 -0.5927709467
O  O7  1  0.17220000  0.21080000  0.90350000  1.0 -0.5927709467
O  O8  1  0.03860000  0.82780000  0.90350000  1.0 -0.5927709467
O  O9  1  0.78920000  0.96140000  0.90350000  1.0 -0.5927709467
O  O10  1  0.17220000  0.21080000  0.59650000  1.0 -0.5927709467
O  O11  1  0.03860000  0.82780000  0.59650000  1.0 -0.5927709467
O  O12  1  0.78920000  0.96140000  0.59650000  1.0 -0.5927709467
O  O13  1  0.44730000  0.27040000  0.15720000  1.0 -0.6117976235
O  O14  1  0.72960000  0.17690000  0.15720000  1.0 -0.6117976235
O  O15  1  0.82310000  0.55270000  0.15720000  1.0 -0.6117976235
O  O16  1  0.44730000  0.27040000  0.34280000  1.0 -0.6117976235
O  O17  1  0.72960000  0.17690000  0.34280000  1.0 -0.6117976235
O  O18  1  0.82310000  0.55270000  0.34280000  1.0 -0.6117976235
O  O19  1  0.27040000  0.44730000  0.84280000  1.0 -0.6117976235
O  O20  1  0.17690000  0.72960000  0.84280000  1.0 -0.6117976235
O  O21  1  0.55270000  0.82310000  0.84280000  1.0 -0.6117976235
O  O22  1  0.27040000  0.44730000  0.65720000  1.0 -0.6117976235
O  O23  1  0.17690000  0.72960000  0.65720000  1.0 -0.6117976235
O  O24  1  0.55270000  0.82310000  0.65720000  1.0 -0.6117976235
O  O25  1  0.27150000  0.00000000  0.00000000  1.0 -0.2394845587
O  O26  1  0.00000000  0.27150000  0.00000000  1.0 -0.2394845587
O  O27  1  0.72850000  0.72850000  0.00000000  1.0 -0.2394845587
O  O28  1  0.27150000  0.00000000  0.50000000  1.0 -0.2394845587
O  O29  1  0.00000000  0.27150000  0.50000000  1.0 -0.2394845587
O  O30  1  0.72850000  0.72850000  0.50000000  1.0 -0.2394845587
O  O31  1  0.56250000  0.55020000  0.25000000  1.0 -0.2194116217
O  O32  1  0.44980000  0.01230000  0.25000000  1.0 -0.2194116217
O  O33  1  0.98770000  0.43750000  0.25000000  1.0 -0.2194116217
O  O34  1  0.55020000  0.56250000  0.75000000  1.0 -0.2194116217
O  O35  1  0.01230000  0.44980000  0.75000000  1.0 -0.2194116217
O  O36  1  0.43750000  0.98770000  0.75000000  1.0 -0.2194116217
