# DDEC6 charges by PACMAN v1.1 (https://github.com/mtap-research/PACMAN-charge/)
data_CESPAU_FSR_pacman
_symmetry_space_group_name_H-M   'P 1'
_cell_length_a   14.53560000
_cell_length_b   15.89890000
_cell_length_c   17.25540000
_cell_angle_alpha   112.54700000
_cell_angle_beta   111.54500000
_cell_angle_gamma   95.78700000
_symmetry_Int_Tables_number   1
_chemical_formula_structural   CdH22C23N2O7
_chemical_formula_sum   'Cd4 H88 C92 N8 O28'
_cell_volume   3287.27441503
_cell_formula_units_Z   4
loop_
 _symmetry_equiv_pos_site_id
 _symmetry_equiv_pos_as_xyz
  1  'x, y, z'
loop_
 _atom_site_type_symbol
 _atom_site_label
 _atom_site_symmetry_multiplicity
 _atom_site_fract_x
 _atom_site_fract_y
 _atom_site_fract_z
 _atom_site_occupancy
 _atom_site_charge
Cd  Cd1  1  0.26221000  0.92158000  0.61119000  1.0 0.9231591229
Cd  Cd2  1  0.32938000  0.16171000  0.68668000  1.0 0.9231591229
Cd  Cd3  1  0.73779000  0.07842000  0.38881000  1.0 0.9231591229
Cd  Cd4  1  0.67062000  0.83829000  0.31332000  1.0 0.9231591229
H  H1  1  0.98110000  0.09186000  0.15248000  1.0 0.1004802187
H  H2  1  0.99739000  0.18928000  0.23530000  1.0 0.1081611388
H  H3  1  0.98810000  0.05940000  0.26684000  1.0 0.1202325685
H  H4  1  0.01626000  0.99255000  0.36634000  1.0 0.1202325685
H  H5  1  0.32028000  0.08453000  0.45744000  1.0 0.1004802187
H  H6  1  0.29015000  0.15539000  0.35978000  1.0 0.1385641952
H  H7  1  0.05191000  0.08894000  0.04225000  1.0 0.1081611388
H  H8  1  0.15967000  0.15809000  0.12303000  1.0 0.1004802187
H  H9  1  0.10363000  0.25643000  0.92013000  1.0 0.1385641952
H  H10  1  0.15178000  0.18983000  0.80130000  1.0 0.1290823156
H  H11  1  0.22179000  0.99168000  0.87846000  1.0 0.1202325685
H  H12  1  0.17106000  0.05439000  0.99591000  1.0 0.1202325685
H  H13  1  0.94251000  0.24803000  0.05313000  1.0 0.1004802187
H  H14  1  0.89660000  0.22597000  0.11499000  1.0 0.1004802187
H  H15  1  0.77475000  0.97102000  0.85593000  1.0 0.1385641952
H  H16  1  0.60483000  0.93304000  0.75243000  1.0 0.1290823156
H  H17  1  0.59818000  0.19059000  0.90351000  1.0 0.1202325685
H  H18  1  0.75972000  0.22514000  0.01165000  1.0 0.1290823156
H  H19  1  0.11415000  0.33872000  0.17133000  1.0 0.1004802187
H  H20  1  0.16793000  0.30986000  0.25097000  1.0 0.1081611388
H  H21  1  0.21498000  0.47027000  0.29485000  1.0 0.1202325685
H  H22  1  0.27521000  0.63034000  0.40023000  1.0 0.1202325685
H  H23  1  0.02750000  0.60775000  0.45087000  1.0 0.1004802187
H  H24  1  0.96727000  0.44768000  0.34548000  1.0 0.1385641952
H  H25  1  0.08099000  0.13749000  0.60037000  1.0 0.1202325685
H  H26  1  0.36674000  0.32468000  0.62241000  1.0 0.1290823156
H  H27  1  0.34588000  0.40725000  0.53623000  1.0 0.1081611388
H  H28  1  0.18519000  0.40382000  0.44432000  1.0 0.1004802187
H  H29  1  0.03907000  0.31608000  0.43237000  1.0 0.1290823156
H  H30  1  0.52271000  0.12865000  0.67616000  1.0 0.1004802187
H  H31  1  0.48341000  0.26404000  0.56246000  1.0 0.1290823156
H  H32  1  0.55181000  0.23640000  0.50968000  1.0 0.1499331784
H  H33  1  0.44038000  0.17078000  0.46800000  1.0 0.1202325685
H  H34  1  0.68627000  0.14445000  0.59114000  1.0 0.1499331784
H  H35  1  0.62100000  0.06366000  0.59617000  1.0 0.1202325685
H  H36  1  0.59761000  0.06197000  0.49928000  1.0 0.1385641952
H  H37  1  0.54787000  0.30987000  0.90061000  1.0 0.079895251
H  H38  1  0.65800000  0.55505000  0.96435000  1.0 0.1290823156
H  H39  1  0.68851000  0.45970000  0.93747000  1.0 0.1202325685
H  H40  1  0.65771000  0.49703000  0.02007000  1.0 0.1202325685
H  H41  1  0.38729000  0.45068000  0.83323000  1.0 0.1290823156
H  H42  1  0.47225000  0.54004000  0.86127000  1.0 0.1081611388
H  H43  1  0.44515000  0.44568000  0.77144000  1.0 0.1081611388
H  H44  1  0.98724000  0.20244000  0.50260000  1.0 0.3148518209
H  H45  1  0.01890000  0.90814000  0.84752000  1.0 0.1004802187
H  H46  1  0.00261000  0.81072000  0.76470000  1.0 0.1081611388
H  H47  1  0.01190000  0.94060000  0.73316000  1.0 0.1202325685
H  H48  1  0.98374000  0.00745000  0.63366000  1.0 0.1202325685
H  H49  1  0.67972000  0.91547000  0.54256000  1.0 0.1004802187
H  H50  1  0.70985000  0.84461000  0.64022000  1.0 0.1385641952
H  H51  1  0.94809000  0.91106000  0.95775000  1.0 0.1081611388
H  H52  1  0.84033000  0.84191000  0.87697000  1.0 0.1004802187
H  H53  1  0.89637000  0.74357000  0.07987000  1.0 0.1385641952
H  H54  1  0.84822000  0.81017000  0.19870000  1.0 0.1290823156
H  H55  1  0.77821000  0.00832000  0.12154000  1.0 0.1202325685
H  H56  1  0.82894000  0.94561000  0.00409000  1.0 0.1202325685
H  H57  1  0.05749000  0.75197000  0.94687000  1.0 0.1004802187
H  H58  1  0.10340000  0.77403000  0.88501000  1.0 0.1004802187
H  H59  1  0.22525000  0.02898000  0.14407000  1.0 0.1385641952
H  H60  1  0.39517000  0.06696000  0.24757000  1.0 0.1290823156
H  H61  1  0.40182000  0.80941000  0.09649000  1.0 0.1202325685
H  H62  1  0.24028000  0.77486000  0.98835000  1.0 0.1290823156
H  H63  1  0.88585000  0.66128000  0.82867000  1.0 0.1004802187
H  H64  1  0.83207000  0.69014000  0.74903000  1.0 0.1081611388
H  H65  1  0.78502000  0.52973000  0.70515000  1.0 0.1202325685
H  H66  1  0.72479000  0.36966000  0.59977000  1.0 0.1202325685
H  H67  1  0.97250000  0.39225000  0.54913000  1.0 0.1004802187
H  H68  1  0.03273000  0.55232000  0.65452000  1.0 0.1385641952
H  H69  1  0.91901000  0.86251000  0.39963000  1.0 0.1202325685
H  H70  1  0.63326000  0.67532000  0.37759000  1.0 0.1290823156
H  H71  1  0.65412000  0.59275000  0.46377000  1.0 0.1081611388
H  H72  1  0.81481000  0.59618000  0.55568000  1.0 0.1004802187
H  H73  1  0.96093000  0.68392000  0.56763000  1.0 0.1290823156
H  H74  1  0.47729000  0.87135000  0.32384000  1.0 0.1004802187
H  H75  1  0.51659000  0.73596000  0.43754000  1.0 0.1290823156
H  H76  1  0.44819000  0.76360000  0.49032000  1.0 0.1499331784
H  H77  1  0.55962000  0.82922000  0.53200000  1.0 0.1202325685
H  H78  1  0.31373000  0.85555000  0.40886000  1.0 0.1499331784
H  H79  1  0.37900000  0.93634000  0.40383000  1.0 0.1202325685
H  H80  1  0.40239000  0.93803000  0.50072000  1.0 0.1385641952
H  H81  1  0.45213000  0.69013000  0.09939000  1.0 0.079895251
H  H82  1  0.34200000  0.44495000  0.03565000  1.0 0.1290823156
H  H83  1  0.31149000  0.54030000  0.06253000  1.0 0.1202325685
H  H84  1  0.34229000  0.50297000  0.97993000  1.0 0.1202325685
H  H85  1  0.61271000  0.54932000  0.16677000  1.0 0.1202325685
H  H86  1  0.52775000  0.45996000  0.13873000  1.0 0.1081611388
H  H87  1  0.55485000  0.55432000  0.22856000  1.0 0.1081611388
H  H88  1  0.01276000  0.79756000  0.49740000  1.0 0.3148518209
C  C1  1  0.03830000  0.20510000  0.14080000  1.0 0.079895251
C  C2  1  0.02670000  0.15560000  0.19450000  1.0 -0.1283032145
C  C3  1  0.13600000  0.11300000  0.30410000  1.0 0.2667083894
C  C4  1  0.05510000  0.06500000  0.30590000  1.0 -0.2407239124
C  C5  1  0.07200000  0.02510000  0.36490000  1.0 -0.0707702167
C  C6  1  0.17150000  0.03250000  0.42300000  1.0 -0.047209191
C  C7  1  0.25310000  0.08020000  0.41990000  1.0 -0.0807109083
C  C8  1  0.23510000  0.12160000  0.36100000  1.0 -0.2407239124
C  C9  1  0.19370000  0.99210000  0.49000000  1.0 0.5246617948
C  C10  1  0.09090000  0.15510000  0.08270000  1.0 -0.0921199373
C  C11  1  0.13220000  0.16050000  0.96870000  1.0 0.2524258648
C  C12  1  0.12670000  0.20260000  0.91170000  1.0 -0.2407239124
C  C13  1  0.15630000  0.16270000  0.84120000  1.0 -0.0807109083
C  C14  1  0.19150000  0.08580000  0.82890000  1.0 -0.047209191
C  C15  1  0.19750000  0.04480000  0.88660000  1.0 -0.1043723569
C  C16  1  0.16740000  0.08240000  0.95680000  1.0 -0.2504395938
C  C17  1  0.21760000  0.03340000  0.75100000  1.0 0.5652850424
C  C18  1  0.93500000  0.20480000  0.07900000  1.0 -0.1043723569
C  C19  1  0.78750000  0.09830000  0.95120000  1.0 0.2818692182
C  C20  1  0.73770000  0.01460000  0.86910000  1.0 -0.2629186804
C  C21  1  0.63630000  0.99160000  0.80530000  1.0 -0.0807109083
C  C22  1  0.58570000  0.05530000  0.82180000  1.0 -0.047209191
C  C23  1  0.63360000  0.14470000  0.89710000  1.0 -0.0807109083
C  C24  1  0.72960000  0.16540000  0.96030000  1.0 -0.2291604946
C  C25  1  0.47590000  0.04010000  0.75360000  1.0 0.5644724522
C  C26  1  0.10190000  0.30740000  0.20650000  1.0 -0.0921199373
C  C27  1  0.08516000  0.44310000  0.30972000  1.0 0.2667083894
C  C28  1  0.17740000  0.49782000  0.32612000  1.0 -0.2504395938
C  C29  1  0.21349000  0.59373000  0.38926000  1.0 -0.0707702167
C  C30  1  0.15732000  0.63491000  0.43600000  1.0 -0.0707702167
C  C31  1  0.06507000  0.58020000  0.41960000  1.0 -0.0807109083
C  C32  1  0.02899000  0.48429000  0.35646000  1.0 -0.2504395938
C  C33  1  0.19780000  0.73610000  0.50340000  1.0 0.5388738667
C  C34  1  0.11120000  0.17930000  0.58500000  1.0 0.1772654359
C  C35  1  0.21590000  0.26710000  0.57690000  1.0 0.1004802187
C  C36  1  0.30090000  0.32180000  0.58350000  1.0 -0.1709214469
C  C37  1  0.28850000  0.37160000  0.53300000  1.0 -0.1085848536
C  C38  1  0.19230000  0.36910000  0.47790000  1.0 -0.1085848536
C  C39  1  0.10450000  0.31690000  0.47010000  1.0 -0.2024006057
C  C40  1  0.11900000  0.26460000  0.52240000  1.0 0.1614058469
C  C41  1  0.50490000  0.16250000  0.64190000  1.0 0.2524258648
C  C42  1  0.50090000  0.21220000  0.52470000  1.0 -0.3444516357
C  C43  1  0.61890000  0.10210000  0.56450000  1.0 -0.3444516357
C  C44  1  0.50250000  0.34160000  0.87850000  1.0 0.2130644102
C  C45  1  0.64450000  0.49250000  0.95960000  1.0 -0.3444516357
C  C46  1  0.45210000  0.47200000  0.83420000  1.0 -0.3270824398
C  C47  1  0.96170000  0.79490000  0.85920000  1.0 0.079895251
C  C48  1  0.97330000  0.84440000  0.80550000  1.0 -0.1283032145
C  C49  1  0.86400000  0.88700000  0.69590000  1.0 0.2667083894
C  C50  1  0.94490000  0.93500000  0.69410000  1.0 -0.2407239124
C  C51  1  0.92800000  0.97490000  0.63510000  1.0 -0.0807109083
C  C52  1  0.82850000  0.96750000  0.57700000  1.0 -0.047209191
C  C53  1  0.74690000  0.91980000  0.58010000  1.0 -0.0807109083
C  C54  1  0.76490000  0.87840000  0.63900000  1.0 -0.2407239124
C  C55  1  0.80630000  0.00790000  0.51000000  1.0 0.5246617948
C  C56  1  0.90910000  0.84490000  0.91730000  1.0 -0.0921199373
C  C57  1  0.86780000  0.83950000  0.03130000  1.0 0.2524258648
C  C58  1  0.87330000  0.79740000  0.08830000  1.0 -0.2407239124
C  C59  1  0.84370000  0.83730000  0.15880000  1.0 -0.0707702167
C  C60  1  0.80850000  0.91420000  0.17110000  1.0 -0.047209191
C  C61  1  0.80250000  0.95520000  0.11340000  1.0 -0.1043723569
C  C62  1  0.83260000  0.91760000  0.04320000  1.0 -0.2504395938
C  C63  1  0.78240000  0.96660000  0.24900000  1.0 0.5644724522
C  C64  1  0.06500000  0.79520000  0.92100000  1.0 -0.1085848536
C  C65  1  0.21250000  0.90170000  0.04880000  1.0 0.2818692182
C  C66  1  0.26230000  0.98540000  0.13090000  1.0 -0.2629186804
C  C67  1  0.36370000  0.00840000  0.19470000  1.0 -0.0807109083
C  C68  1  0.41430000  0.94470000  0.17820000  1.0 -0.047209191
C  C69  1  0.36640000  0.85530000  0.10290000  1.0 -0.0807109083
C  C70  1  0.27040000  0.83460000  0.03970000  1.0 -0.2291604946
C  C71  1  0.52410000  0.95990000  0.24640000  1.0 0.5644724522
C  C72  1  0.89810000  0.69260000  0.79350000  1.0 -0.0921199373
C  C73  1  0.91484000  0.55690000  0.69028000  1.0 0.2667083894
C  C74  1  0.82260000  0.50218000  0.67388000  1.0 -0.2504395938
C  C75  1  0.78651000  0.40627000  0.61074000  1.0 -0.0707702167
C  C76  1  0.84268000  0.36509000  0.56400000  1.0 -0.0707702167
C  C77  1  0.93493000  0.41980000  0.58040000  1.0 -0.0807109083
C  C78  1  0.97101000  0.51571000  0.64354000  1.0 -0.2504395938
C  C79  1  0.80220000  0.26390000  0.49660000  1.0 0.5388738667
C  C80  1  0.88880000  0.82070000  0.41500000  1.0 0.1772654359
C  C81  1  0.78410000  0.73290000  0.42310000  1.0 0.1004802187
C  C82  1  0.69910000  0.67820000  0.41650000  1.0 -0.1709214469
C  C83  1  0.71150000  0.62840000  0.46700000  1.0 -0.1085848536
C  C84  1  0.80770000  0.63090000  0.52210000  1.0 -0.1085848536
C  C85  1  0.89550000  0.68310000  0.52990000  1.0 -0.2024006057
C  C86  1  0.88100000  0.73540000  0.47760000  1.0 0.1614058469
C  C87  1  0.49510000  0.83750000  0.35810000  1.0 0.2524258648
C  C88  1  0.49910000  0.78780000  0.47530000  1.0 -0.3444516357
C  C89  1  0.38110000  0.89790000  0.43550000  1.0 -0.3444516357
C  C90  1  0.49750000  0.65840000  0.12150000  1.0 0.2130644102
C  C91  1  0.35550000  0.50750000  0.04040000  1.0 -0.3444516357
C  C92  1  0.54790000  0.52800000  0.16580000  1.0 -0.3270824398
N  N1  1  0.21000000  0.20770000  0.61660000  1.0 -0.361391082
N  N2  1  0.05310000  0.21340000  0.52820000  1.0 -0.2024006057
N  N3  1  0.54160000  0.16030000  0.57540000  1.0 0.0199432824
N  N4  1  0.53490000  0.43930000  0.89310000  1.0 0.0501205851
N  N5  1  0.79000000  0.79230000  0.38340000  1.0 -0.361391082
N  N6  1  0.94690000  0.78660000  0.47180000  1.0 -0.2024006057
N  N7  1  0.45840000  0.83970000  0.42460000  1.0 0.0199432824
N  N8  1  0.46510000  0.56070000  0.10690000  1.0 0.0445389305
O  O1  1  0.12745000  0.15220000  0.24901000  1.0 -0.1709214469
O  O2  1  0.09580000  0.20081000  0.02963000  1.0 -0.1511639501
O  O3  1  0.88160000  0.11305000  0.00677000  1.0 -0.1599471118
O  O4  1  0.04727000  0.35230000  0.25313000  1.0 -0.1709214469
O  O5  1  0.28090000  0.01836000  0.55038000  1.0 -0.523995861
O  O6  1  0.12310000  0.93090000  0.47620000  1.0 -0.5097013558
O  O7  1  0.23670000  0.95750000  0.73214000  1.0 -0.477527007
O  O8  1  0.20770000  0.07680000  0.70294000  1.0 -0.5604112591
O  O9  1  0.43710000  0.10730000  0.76599000  1.0 -0.551054969
O  O10  1  0.43110000  0.95670000  0.69321000  1.0 -0.5022818889
O  O11  1  0.14450000  0.77264000  0.54207000  1.0 -0.551054969
O  O12  1  0.28200000  0.77860000  0.51671000  1.0 -0.5097013558
O  O13  1  0.44990000  0.21100000  0.64930000  1.0 -0.3840938057
O  O14  1  0.39410000  0.30120000  0.82690000  1.0 -0.5865209843
O  O15  1  0.87255000  0.84780000  0.75099000  1.0 -0.1709214469
O  O16  1  0.90420000  0.79919000  0.97037000  1.0 -0.1511639501
O  O17  1  0.11840000  0.88695000  0.99323000  1.0 -0.1599471118
O  O18  1  0.95273000  0.64770000  0.74687000  1.0 -0.1709214469
O  O19  1  0.71910000  0.98164000  0.44962000  1.0 -0.523995861
O  O20  1  0.87690000  0.06910000  0.52380000  1.0 -0.5097013558
O  O21  1  0.76330000  0.04250000  0.26786000  1.0 -0.477527007
O  O22  1  0.79230000  0.92320000  0.29706000  1.0 -0.5604112591
O  O23  1  0.56290000  0.89270000  0.23401000  1.0 -0.551054969
O  O24  1  0.56890000  0.04330000  0.30679000  1.0 -0.5022818889
O  O25  1  0.85550000  0.22736000  0.45793000  1.0 -0.551054969
O  O26  1  0.71800000  0.22140000  0.48329000  1.0 -0.5097013558
O  O27  1  0.55010000  0.78900000  0.35070000  1.0 -0.3840938057
O  O28  1  0.60590000  0.69880000  0.17310000  1.0 -0.5865209843
