# DDEC6 charges by PACMAN v1.1 (https://github.com/mtap-research/PACMAN-charge/)
data_CETGOY_ASR_pacman
_symmetry_space_group_name_H-M   'P 1'
_cell_length_a   25.53100000
_cell_length_b   25.53100000
_cell_length_c   14.90700000
_cell_angle_alpha   90.00000000
_cell_angle_beta   90.00000000
_cell_angle_gamma   120.00000000
_symmetry_Int_Tables_number   1
_chemical_formula_structural   Ni2H92C78N4O5
_chemical_formula_sum   'Ni6 H276 C234 N12 O15'
_cell_volume   8415.04677591
_cell_formula_units_Z   3
loop_
 _symmetry_equiv_pos_site_id
 _symmetry_equiv_pos_as_xyz
  1  'x, y, z'
loop_
 _atom_site_type_symbol
 _atom_site_label
 _atom_site_symmetry_multiplicity
 _atom_site_fract_x
 _atom_site_fract_y
 _atom_site_fract_z
 _atom_site_occupancy
 _atom_site_charge
Ni  Ni1  1  0.51642000  0.07144000  0.88273000  1.0 0.6473745012
Ni  Ni2  1  0.92856000  0.44498000  0.21606000  1.0 0.6473745012
Ni  Ni3  1  0.55502000  0.48358000  0.54940000  1.0 0.6473745012
Ni  Ni4  1  0.44498000  0.92856000  0.78394000  1.0 0.6473745012
Ni  Ni5  1  0.48358000  0.55502000  0.45060000  1.0 0.6473745012
Ni  Ni6  1  0.07144000  0.51642000  0.11727000  1.0 0.6473745012
H  H1  1  0.41110000  0.98710000  0.87450000  1.0 0.2742011452
H  H2  1  0.01290000  0.42400000  0.20783000  1.0 0.2742011452
H  H3  1  0.57600000  0.58890000  0.54117000  1.0 0.2742011452
H  H4  1  0.42400000  0.01290000  0.79217000  1.0 0.2742011452
H  H5  1  0.58890000  0.57600000  0.45883000  1.0 0.2742011452
H  H6  1  0.98710000  0.41110000  0.12550000  1.0 0.2742011452
H  H7  1  0.61700000  0.02930000  0.03710000  1.0 0.0797904897
H  H8  1  0.97070000  0.58770000  0.37043000  1.0 0.0797904897
H  H9  1  0.41230000  0.38300000  0.70377000  1.0 0.0797904897
H  H10  1  0.58770000  0.97070000  0.62957000  1.0 0.0797904897
H  H11  1  0.38300000  0.41230000  0.29623000  1.0 0.0797904897
H  H12  1  0.02930000  0.61700000  0.96290000  1.0 0.0797904897
H  H13  1  0.50150000  0.18970000  0.62100000  1.0 0.1207619537
H  H14  1  0.81030000  0.31180000  0.95433000  1.0 0.1207619537
H  H15  1  0.68820000  0.49850000  0.28767000  1.0 0.1207619537
H  H16  1  0.31180000  0.81030000  0.04567000  1.0 0.1207619537
H  H17  1  0.49850000  0.68820000  0.71233000  1.0 0.1207619537
H  H18  1  0.18970000  0.50150000  0.37900000  1.0 0.1207619537
H  H19  1  0.51480000  0.26600000  0.86310000  1.0 0.1207619537
H  H20  1  0.73400000  0.24880000  0.19643000  1.0 0.1207619537
H  H21  1  0.75120000  0.48520000  0.52977000  1.0 0.1207619537
H  H22  1  0.24880000  0.73400000  0.80357000  1.0 0.1207619537
H  H23  1  0.48520000  0.75120000  0.47023000  1.0 0.1207619537
H  H24  1  0.26600000  0.51480000  0.13690000  1.0 0.1207619537
H  H25  1  0.49730000  0.10770000  0.69220000  1.0 0.1000062363
H  H26  1  0.89230000  0.38960000  0.02553000  1.0 0.1000062363
H  H27  1  0.61040000  0.50270000  0.35887000  1.0 0.1000062363
H  H28  1  0.38960000  0.89230000  0.97447000  1.0 0.1000062363
H  H29  1  0.50270000  0.61040000  0.64113000  1.0 0.1000062363
H  H30  1  0.10770000  0.49730000  0.30780000  1.0 0.1000062363
H  H31  1  0.51100000  0.18230000  0.92780000  1.0 0.0894468521
H  H32  1  0.81770000  0.32870000  0.26113000  1.0 0.0894468521
H  H33  1  0.67130000  0.48900000  0.59447000  1.0 0.0894468521
H  H34  1  0.32870000  0.81770000  0.73887000  1.0 0.0894468521
H  H35  1  0.48900000  0.67130000  0.40553000  1.0 0.0894468521
H  H36  1  0.18230000  0.51100000  0.07220000  1.0 0.0894468521
H  H37  1  0.50310000  0.26470000  0.56200000  1.0 0.1207619537
H  H38  1  0.73530000  0.23840000  0.89533000  1.0 0.1207619537
H  H39  1  0.76160000  0.49690000  0.22867000  1.0 0.1207619537
H  H40  1  0.23840000  0.73530000  0.10467000  1.0 0.1207619537
H  H41  1  0.49690000  0.76160000  0.77133000  1.0 0.1207619537
H  H42  1  0.26470000  0.50310000  0.43800000  1.0 0.1207619537
H  H43  1  0.66030000  0.95800000  0.95670000  1.0 0.1000062363
H  H44  1  0.04200000  0.70230000  0.29003000  1.0 0.1000062363
H  H45  1  0.29770000  0.33970000  0.62337000  1.0 0.1000062363
H  H46  1  0.70230000  0.04200000  0.70997000  1.0 0.1000062363
H  H47  1  0.33970000  0.29770000  0.37663000  1.0 0.1000062363
H  H48  1  0.95800000  0.66030000  0.04330000  1.0 0.1000062363
H  H49  1  0.62610000  0.98560000  0.90050000  1.0 0.1000062363
H  H50  1  0.01440000  0.64050000  0.23383000  1.0 0.1000062363
H  H51  1  0.35950000  0.37390000  0.56717000  1.0 0.1000062363
H  H52  1  0.64050000  0.01440000  0.76617000  1.0 0.1000062363
H  H53  1  0.37390000  0.35950000  0.43283000  1.0 0.1000062363
H  H54  1  0.98560000  0.62610000  0.09950000  1.0 0.1000062363
H  H55  1  0.52620000  0.35600000  0.49700000  1.0 0.1000062363
H  H56  1  0.64400000  0.17020000  0.83033000  1.0 0.1000062363
H  H57  1  0.82980000  0.47380000  0.16367000  1.0 0.1000062363
H  H58  1  0.17020000  0.64400000  0.16967000  1.0 0.1000062363
H  H59  1  0.47380000  0.82980000  0.83633000  1.0 0.1000062363
H  H60  1  0.35600000  0.52620000  0.50300000  1.0 0.1000062363
H  H61  1  0.63450000  0.99290000  0.25880000  1.0 0.071830738
H  H62  1  0.00710000  0.64160000  0.59213000  1.0 0.071830738
H  H63  1  0.35840000  0.36550000  0.92547000  1.0 0.071830738
H  H64  1  0.64160000  0.00710000  0.40787000  1.0 0.071830738
H  H65  1  0.36550000  0.35840000  0.07453000  1.0 0.071830738
H  H66  1  0.99290000  0.63450000  0.74120000  1.0 0.071830738
H  H67  1  0.61610000  0.03430000  0.20190000  1.0 0.0894468521
H  H68  1  0.96570000  0.58180000  0.53523000  1.0 0.0894468521
H  H69  1  0.41820000  0.38390000  0.86857000  1.0 0.0894468521
H  H70  1  0.58180000  0.96570000  0.46477000  1.0 0.0894468521
H  H71  1  0.38390000  0.41820000  0.13143000  1.0 0.0894468521
H  H72  1  0.03430000  0.61610000  0.79810000  1.0 0.0894468521
H  H73  1  0.52870000  0.34260000  0.80180000  1.0 0.1207619537
H  H74  1  0.65740000  0.18610000  0.13513000  1.0 0.1207619537
H  H75  1  0.81390000  0.47130000  0.46847000  1.0 0.1207619537
H  H76  1  0.18610000  0.65740000  0.86487000  1.0 0.1207619537
H  H77  1  0.47130000  0.81390000  0.53153000  1.0 0.1207619537
H  H78  1  0.34260000  0.52870000  0.19820000  1.0 0.1207619537
H  H79  1  0.55500000  0.87600000  0.96090000  1.0 0.1207619537
H  H80  1  0.12400000  0.67900000  0.29423000  1.0 0.1207619537
H  H81  1  0.32100000  0.44500000  0.62757000  1.0 0.1207619537
H  H82  1  0.67900000  0.12400000  0.70577000  1.0 0.1207619537
H  H83  1  0.44500000  0.32100000  0.37243000  1.0 0.1207619537
H  H84  1  0.87600000  0.55500000  0.03910000  1.0 0.1207619537
H  H85  1  0.49090000  0.85010000  0.00970000  1.0 0.1207619537
H  H86  1  0.14990000  0.64080000  0.34303000  1.0 0.1207619537
H  H87  1  0.35920000  0.50910000  0.67637000  1.0 0.1207619537
H  H88  1  0.64080000  0.14990000  0.65697000  1.0 0.1207619537
H  H89  1  0.50910000  0.35920000  0.32363000  1.0 0.1207619537
H  H90  1  0.85010000  0.49090000  0.99030000  1.0 0.1207619537
H  H91  1  0.54960000  0.86420000  0.06680000  1.0 0.1207619537
H  H92  1  0.13580000  0.68540000  0.40013000  1.0 0.1207619537
H  H93  1  0.31460000  0.45040000  0.73347000  1.0 0.1207619537
H  H94  1  0.68540000  0.13580000  0.59987000  1.0 0.1207619537
H  H95  1  0.45040000  0.31460000  0.26653000  1.0 0.1207619537
H  H96  1  0.86420000  0.54960000  0.93320000  1.0 0.1207619537
H  H97  1  0.51470000  0.98400000  0.11790000  1.0 0.0894468521
H  H98  1  0.01600000  0.53070000  0.45123000  1.0 0.0894468521
H  H99  1  0.46930000  0.48530000  0.78457000  1.0 0.0894468521
H  H100  1  0.53070000  0.01600000  0.54877000  1.0 0.0894468521
H  H101  1  0.48530000  0.46930000  0.21543000  1.0 0.0894468521
H  H102  1  0.98400000  0.51470000  0.88210000  1.0 0.0894468521
H  H103  1  0.47460000  0.91170000  0.12060000  1.0 0.0894468521
H  H104  1  0.08830000  0.56290000  0.45393000  1.0 0.0894468521
H  H105  1  0.43710000  0.52540000  0.78727000  1.0 0.0894468521
H  H106  1  0.56290000  0.08830000  0.54607000  1.0 0.0894468521
H  H107  1  0.52540000  0.43710000  0.21273000  1.0 0.0894468521
H  H108  1  0.91170000  0.47460000  0.87940000  1.0 0.0894468521
H  H109  1  0.52990000  0.94870000  0.25620000  1.0 0.0797904897
H  H110  1  0.05130000  0.58120000  0.58953000  1.0 0.0797904897
H  H111  1  0.41880000  0.47010000  0.92287000  1.0 0.0797904897
H  H112  1  0.58120000  0.05130000  0.41047000  1.0 0.0797904897
H  H113  1  0.47010000  0.41880000  0.07713000  1.0 0.0797904897
H  H114  1  0.94870000  0.52990000  0.74380000  1.0 0.0797904897
H  H115  1  0.54920000  0.90570000  0.20570000  1.0 0.0894468521
H  H116  1  0.09430000  0.64350000  0.53903000  1.0 0.0894468521
H  H117  1  0.35650000  0.45080000  0.87237000  1.0 0.0894468521
H  H118  1  0.64350000  0.09430000  0.46097000  1.0 0.0894468521
H  H119  1  0.45080000  0.35650000  0.12763000  1.0 0.0894468521
H  H120  1  0.90570000  0.54920000  0.79430000  1.0 0.0894468521
H  H121  1  0.68480000  0.93670000  0.08500000  1.0 0.1207619537
H  H122  1  0.06330000  0.74810000  0.41833000  1.0 0.1207619537
H  H123  1  0.25190000  0.31520000  0.75167000  1.0 0.1207619537
H  H124  1  0.74810000  0.06330000  0.58167000  1.0 0.1207619537
H  H125  1  0.31520000  0.25190000  0.24833000  1.0 0.1207619537
H  H126  1  0.93670000  0.68480000  0.91500000  1.0 0.1207619537
H  H127  1  0.62240000  0.90130000  0.13890000  1.0 0.1308911224
H  H128  1  0.09870000  0.72110000  0.47223000  1.0 0.1308911224
H  H129  1  0.27890000  0.37760000  0.80557000  1.0 0.1308911224
H  H130  1  0.72110000  0.09870000  0.52777000  1.0 0.1308911224
H  H131  1  0.37760000  0.27890000  0.19443000  1.0 0.1308911224
H  H132  1  0.90130000  0.62240000  0.86110000  1.0 0.1308911224
H  H133  1  0.68400000  0.94350000  0.19160000  1.0 0.1000062363
H  H134  1  0.05650000  0.74050000  0.52493000  1.0 0.1000062363
H  H135  1  0.25950000  0.31600000  0.85827000  1.0 0.1000062363
H  H136  1  0.74050000  0.05650000  0.47507000  1.0 0.1000062363
H  H137  1  0.31600000  0.25950000  0.14173000  1.0 0.1000062363
H  H138  1  0.94350000  0.68400000  0.80840000  1.0 0.1000062363
H  H139  1  0.70040000  0.08250000  0.92620000  1.0 0.0894468521
H  H140  1  0.91750000  0.61790000  0.25953000  1.0 0.0894468521
H  H141  1  0.38210000  0.29960000  0.59287000  1.0 0.0894468521
H  H142  1  0.61790000  0.91750000  0.74047000  1.0 0.0894468521
H  H143  1  0.29960000  0.38210000  0.40713000  1.0 0.0894468521
H  H144  1  0.08250000  0.70040000  0.07380000  1.0 0.0894468521
H  H145  1  0.73740000  0.04810000  0.90750000  1.0 0.0894468521
H  H146  1  0.95190000  0.68930000  0.24083000  1.0 0.0894468521
H  H147  1  0.31070000  0.26260000  0.57417000  1.0 0.0894468521
H  H148  1  0.68930000  0.95190000  0.75917000  1.0 0.0894468521
H  H149  1  0.26260000  0.31070000  0.42583000  1.0 0.0894468521
H  H150  1  0.04810000  0.73740000  0.09250000  1.0 0.0894468521
H  H151  1  0.54720000  0.43040000  0.73110000  1.0 0.1000062363
H  H152  1  0.56960000  0.11680000  0.06443000  1.0 0.1000062363
H  H153  1  0.88320000  0.45280000  0.39777000  1.0 0.1000062363
H  H154  1  0.11680000  0.56960000  0.93557000  1.0 0.1000062363
H  H155  1  0.45280000  0.88320000  0.60223000  1.0 0.1000062363
H  H156  1  0.43040000  0.54720000  0.26890000  1.0 0.1000062363
H  H157  1  0.73680000  0.06650000  0.23930000  1.0 0.0797904897
H  H158  1  0.93350000  0.67030000  0.57263000  1.0 0.0797904897
H  H159  1  0.32970000  0.26320000  0.90597000  1.0 0.0797904897
H  H160  1  0.67030000  0.93350000  0.42737000  1.0 0.0797904897
H  H161  1  0.26320000  0.32970000  0.09403000  1.0 0.0797904897
H  H162  1  0.06650000  0.73680000  0.76070000  1.0 0.0797904897
H  H163  1  0.83220000  0.15310000  0.22550000  1.0 0.071830738
H  H164  1  0.84690000  0.67910000  0.55883000  1.0 0.071830738
H  H165  1  0.32090000  0.16780000  0.89217000  1.0 0.071830738
H  H166  1  0.67910000  0.84690000  0.44117000  1.0 0.071830738
H  H167  1  0.16780000  0.32090000  0.10783000  1.0 0.071830738
H  H168  1  0.15310000  0.83220000  0.77450000  1.0 0.071830738
H  H169  1  0.81250000  0.14680000  0.95530000  1.0 0.0797904897
H  H170  1  0.85320000  0.66570000  0.28863000  1.0 0.0797904897
H  H171  1  0.33430000  0.18750000  0.62197000  1.0 0.0797904897
H  H172  1  0.66570000  0.85320000  0.71137000  1.0 0.0797904897
H  H173  1  0.18750000  0.33430000  0.37803000  1.0 0.0797904897
H  H174  1  0.14680000  0.81250000  0.04470000  1.0 0.0797904897
H  H175  1  0.89070000  0.24110000  0.02500000  1.0 0.071830738
H  H176  1  0.75890000  0.64960000  0.35833000  1.0 0.071830738
H  H177  1  0.35040000  0.10930000  0.69167000  1.0 0.071830738
H  H178  1  0.64960000  0.75890000  0.64167000  1.0 0.071830738
H  H179  1  0.10930000  0.35040000  0.30833000  1.0 0.071830738
H  H180  1  0.24110000  0.89070000  0.97500000  1.0 0.071830738
H  H181  1  0.92360000  0.17300000  0.98770000  1.0 0.0797904897
H  H182  1  0.82700000  0.75060000  0.32103000  1.0 0.0797904897
H  H183  1  0.24940000  0.07640000  0.65437000  1.0 0.0797904897
H  H184  1  0.75060000  0.82700000  0.67897000  1.0 0.0797904897
H  H185  1  0.07640000  0.24940000  0.34563000  1.0 0.0797904897
H  H186  1  0.17300000  0.92360000  0.01230000  1.0 0.0797904897
H  H187  1  0.94710000  0.17650000  0.08820000  1.0 0.0294934936
H  H188  1  0.82350000  0.77060000  0.42153000  1.0 0.0294934936
H  H189  1  0.22940000  0.05290000  0.75487000  1.0 0.0294934936
H  H190  1  0.77060000  0.82350000  0.57847000  1.0 0.0294934936
H  H191  1  0.05290000  0.22940000  0.24513000  1.0 0.0184691209
H  H192  1  0.17650000  0.94710000  0.91180000  1.0 0.0294934936
H  H193  1  0.97800000  0.23520000  0.02530000  1.0 0.0525179429
H  H194  1  0.76480000  0.74280000  0.35863000  1.0 0.0525179429
H  H195  1  0.25720000  0.02200000  0.69197000  1.0 0.0525179429
H  H196  1  0.74280000  0.76480000  0.64137000  1.0 0.0525179429
H  H197  1  0.02200000  0.25720000  0.30803000  1.0 0.0525179429
H  H198  1  0.23520000  0.97800000  0.97470000  1.0 0.0525179429
H  H199  1  0.89050000  0.26930000  0.17310000  1.0 0.0604620597
H  H200  1  0.73070000  0.62120000  0.50643000  1.0 0.0604620597
H  H201  1  0.37880000  0.10950000  0.83977000  1.0 0.0604620597
H  H202  1  0.62120000  0.73070000  0.49357000  1.0 0.0604620597
H  H203  1  0.10950000  0.37880000  0.16023000  1.0 0.0604620597
H  H204  1  0.26930000  0.89050000  0.82690000  1.0 0.0604620597
H  H205  1  0.95850000  0.29060000  0.14340000  1.0 0.071830738
H  H206  1  0.70940000  0.66790000  0.47673000  1.0 0.071830738
H  H207  1  0.33210000  0.04150000  0.81007000  1.0 0.071830738
H  H208  1  0.66790000  0.70940000  0.52327000  1.0 0.071830738
H  H209  1  0.04150000  0.33210000  0.18993000  1.0 0.071830738
H  H210  1  0.29060000  0.95850000  0.85660000  1.0 0.071830738
H  H211  1  0.92210000  0.23190000  0.20510000  1.0 0.0525179429
H  H212  1  0.76810000  0.69020000  0.53843000  1.0 0.0525179429
H  H213  1  0.30980000  0.07790000  0.87177000  1.0 0.0525179429
H  H214  1  0.69020000  0.76810000  0.46157000  1.0 0.0525179429
H  H215  1  0.07790000  0.30980000  0.12823000  1.0 0.0525179429
H  H216  1  0.23190000  0.92210000  0.79490000  1.0 0.0525179429
H  H217  1  0.71840000  0.04780000  0.26680000  1.0 0.0604620597
H  H218  1  0.95220000  0.67060000  0.60013000  1.0 0.0604620597
H  H219  1  0.32940000  0.28160000  0.93347000  1.0 0.0604620597
H  H220  1  0.67060000  0.95220000  0.39987000  1.0 0.0604620597
H  H221  1  0.28160000  0.32940000  0.06653000  1.0 0.0604620597
H  H222  1  0.04780000  0.71840000  0.73320000  1.0 0.0604620597
H  H223  1  0.81780000  0.12890000  0.27050000  1.0 0.0797904897
H  H224  1  0.87110000  0.68890000  0.60383000  1.0 0.0797904897
H  H225  1  0.31110000  0.18220000  0.93717000  1.0 0.0797904897
H  H226  1  0.68890000  0.87110000  0.39617000  1.0 0.0797904897
H  H227  1  0.18220000  0.31110000  0.06283000  1.0 0.0797904897
H  H228  1  0.12890000  0.81780000  0.72950000  1.0 0.0797904897
H  H229  1  0.81950000  0.13690000  0.99890000  1.0 0.0797904897
H  H230  1  0.86310000  0.68260000  0.33223000  1.0 0.0797904897
H  H231  1  0.31740000  0.18050000  0.66557000  1.0 0.0797904897
H  H232  1  0.68260000  0.86310000  0.66777000  1.0 0.0797904897
H  H233  1  0.18050000  0.31740000  0.33443000  1.0 0.0797904897
H  H234  1  0.13690000  0.81950000  0.00110000  1.0 0.0797904897
H  H235  1  0.91060000  0.19450000  0.19920000  1.0 0.0604620597
H  H236  1  0.80550000  0.71610000  0.53253000  1.0 0.0604620597
H  H237  1  0.28390000  0.08940000  0.86587000  1.0 0.0604620597
H  H238  1  0.71610000  0.80550000  0.46747000  1.0 0.0604620597
H  H239  1  0.08940000  0.28390000  0.13413000  1.0 0.0604620597
H  H240  1  0.19450000  0.91060000  0.80080000  1.0 0.0604620597
H  H241  1  0.93760000  0.14300000  0.09380000  1.0 0.071830738
H  H242  1  0.85700000  0.79460000  0.42713000  1.0 0.071830738
H  H243  1  0.20540000  0.06240000  0.76047000  1.0 0.071830738
H  H244  1  0.79460000  0.85700000  0.57287000  1.0 0.071830738
H  H245  1  0.06240000  0.20540000  0.23953000  1.0 0.071830738
H  H246  1  0.14300000  0.93760000  0.90620000  1.0 0.071830738
H  H247  1  0.98200000  0.21470000  0.09080000  1.0 0.0604620597
H  H248  1  0.78530000  0.76730000  0.42413000  1.0 0.0604620597
H  H249  1  0.23270000  0.01800000  0.75747000  1.0 0.0604620597
H  H250  1  0.76730000  0.78530000  0.57587000  1.0 0.0604620597
H  H251  1  0.01800000  0.23270000  0.24253000  1.0 0.0604620597
H  H252  1  0.21470000  0.98200000  0.90920000  1.0 0.0604620597
H  H253  1  0.93120000  0.18220000  0.01530000  1.0 0.0604620597
H  H254  1  0.81780000  0.74900000  0.34863000  1.0 0.0604620597
H  H255  1  0.25100000  0.06880000  0.68197000  1.0 0.0604620597
H  H256  1  0.74900000  0.81780000  0.65137000  1.0 0.0604620597
H  H257  1  0.06880000  0.25100000  0.31803000  1.0 0.0604620597
H  H258  1  0.18220000  0.93120000  0.98470000  1.0 0.0604620597
H  H259  1  0.87560000  0.25880000  0.14370000  1.0 0.0604620597
H  H260  1  0.74120000  0.61680000  0.47703000  1.0 0.0604620597
H  H261  1  0.38320000  0.12440000  0.81037000  1.0 0.0604620597
H  H262  1  0.61680000  0.74120000  0.52297000  1.0 0.0604620597
H  H263  1  0.12440000  0.38320000  0.18963000  1.0 0.0604620597
H  H264  1  0.25880000  0.87560000  0.85630000  1.0 0.0604620597
H  H265  1  0.89610000  0.25160000  0.04520000  1.0 0.0894468521
H  H266  1  0.74840000  0.64450000  0.37853000  1.0 0.0894468521
H  H267  1  0.35550000  0.10390000  0.71187000  1.0 0.0894468521
H  H268  1  0.64450000  0.74840000  0.62147000  1.0 0.0894468521
H  H269  1  0.10390000  0.35550000  0.28813000  1.0 0.0894468521
H  H270  1  0.25160000  0.89610000  0.95480000  1.0 0.0894468521
H  H271  1  0.94560000  0.28350000  0.12260000  1.0 0.0797904897
H  H272  1  0.71650000  0.66210000  0.45593000  1.0 0.0797904897
H  H273  1  0.33790000  0.05440000  0.78927000  1.0 0.0797904897
H  H274  1  0.66210000  0.71650000  0.54407000  1.0 0.0797904897
H  H275  1  0.05440000  0.33790000  0.21073000  1.0 0.0797904897
H  H276  1  0.28350000  0.94560000  0.87740000  1.0 0.0797904897
C  C1  1  0.61600000  0.98960000  0.03830000  1.0 -0.0701470191
C  C2  1  0.01040000  0.62640000  0.37163000  1.0 -0.0701470191
C  C3  1  0.37360000  0.38400000  0.70497000  1.0 -0.0701470191
C  C4  1  0.62640000  0.01040000  0.62837000  1.0 -0.0701470191
C  C5  1  0.38400000  0.37360000  0.29503000  1.0 -0.0701470191
C  C6  1  0.98960000  0.61600000  0.96170000  1.0 -0.0701470191
C  C7  1  0.50950000  0.23840000  0.73230000  1.0 0.1000062363
C  C8  1  0.76160000  0.27110000  0.06563000  1.0 0.1000062363
C  C9  1  0.72890000  0.49050000  0.39897000  1.0 0.1000062363
C  C10  1  0.27110000  0.76160000  0.93437000  1.0 0.1000062363
C  C11  1  0.49050000  0.72890000  0.60103000  1.0 0.1000062363
C  C12  1  0.23840000  0.50950000  0.26770000  1.0 0.1000062363
C  C13  1  0.54760000  0.94230000  0.03210000  1.0 0.0797904897
C  C14  1  0.05770000  0.60530000  0.36543000  1.0 0.0797904897
C  C15  1  0.39470000  0.45240000  0.69877000  1.0 0.0797904897
C  C16  1  0.60530000  0.05770000  0.63457000  1.0 0.0797904897
C  C17  1  0.45240000  0.39470000  0.30123000  1.0 0.0797904897
C  C18  1  0.94230000  0.54760000  0.96790000  1.0 0.0797904897
C  C19  1  0.52180000  0.96230000  0.95310000  1.0 0.5529861454
C  C20  1  0.03770000  0.55950000  0.28643000  1.0 0.5529861454
C  C21  1  0.44050000  0.47820000  0.61977000  1.0 0.5529861454
C  C22  1  0.55950000  0.03770000  0.71357000  1.0 0.5529861454
C  C23  1  0.47820000  0.44050000  0.38023000  1.0 0.5529861454
C  C24  1  0.96230000  0.52180000  0.04690000  1.0 0.5529861454
C  C25  1  0.50390000  0.18960000  0.68460000  1.0 -0.2027801072
C  C26  1  0.81040000  0.31430000  0.01793000  1.0 -0.2027801072
C  C27  1  0.68570000  0.49610000  0.35127000  1.0 -0.2027801072
C  C28  1  0.31430000  0.81040000  0.98207000  1.0 -0.2027801072
C  C29  1  0.49610000  0.68570000  0.64873000  1.0 -0.2027801072
C  C30  1  0.18960000  0.50390000  0.31540000  1.0 -0.2027801072
C  C31  1  0.51170000  0.23420000  0.82620000  1.0 -0.2099616684
C  C32  1  0.76580000  0.27750000  0.15953000  1.0 -0.2099616684
C  C33  1  0.72250000  0.48830000  0.49287000  1.0 -0.2099616684
C  C34  1  0.27750000  0.76580000  0.84047000  1.0 -0.2099616684
C  C35  1  0.48830000  0.72250000  0.50713000  1.0 -0.2099616684
C  C36  1  0.23420000  0.51170000  0.17380000  1.0 -0.2099616684
C  C37  1  0.50170000  0.14060000  0.72740000  1.0 0.0428256105
C  C38  1  0.85940000  0.36110000  0.06073000  1.0 0.0428256105
C  C39  1  0.63890000  0.49830000  0.39407000  1.0 0.0428256105
C  C40  1  0.36110000  0.85940000  0.93927000  1.0 0.0428256105
C  C41  1  0.49830000  0.63890000  0.60593000  1.0 0.0428256105
C  C42  1  0.14060000  0.50170000  0.27260000  1.0 0.0428256105
C  C43  1  0.50950000  0.18420000  0.86430000  1.0 0.0294934936
C  C44  1  0.81580000  0.32530000  0.19763000  1.0 0.0294934936
C  C45  1  0.67470000  0.49050000  0.53097000  1.0 0.0294934936
C  C46  1  0.32530000  0.81580000  0.80237000  1.0 0.0294934936
C  C47  1  0.49050000  0.67470000  0.46903000  1.0 0.0294934936
C  C48  1  0.18420000  0.50950000  0.13570000  1.0 0.0294934936
C  C49  1  0.51380000  0.29880000  0.59920000  1.0 -0.2160483528
C  C50  1  0.70120000  0.21500000  0.93253000  1.0 -0.2160483528
C  C51  1  0.78500000  0.48620000  0.26587000  1.0 -0.2160483528
C  C52  1  0.21500000  0.70120000  0.06747000  1.0 -0.2160483528
C  C53  1  0.48620000  0.78500000  0.73413000  1.0 -0.2160483528
C  C54  1  0.29880000  0.51380000  0.40080000  1.0 -0.2160483528
C  C55  1  0.65160000  0.99320000  0.12420000  1.0 0.136576951
C  C56  1  0.00680000  0.65840000  0.45753000  1.0 0.136576951
C  C57  1  0.34160000  0.34840000  0.79087000  1.0 0.136576951
C  C58  1  0.65840000  0.00680000  0.54247000  1.0 0.136576951
C  C59  1  0.34840000  0.34160000  0.20913000  1.0 0.136576951
C  C60  1  0.99320000  0.65160000  0.87580000  1.0 0.136576951
C  C61  1  0.65100000  0.99130000  0.95450000  1.0 -0.2276618191
C  C62  1  0.00870000  0.65970000  0.28783000  1.0 -0.2276618191
C  C63  1  0.34030000  0.34900000  0.62117000  1.0 -0.2276618191
C  C64  1  0.65970000  0.00870000  0.71217000  1.0 -0.2276618191
C  C65  1  0.34900000  0.34030000  0.37883000  1.0 -0.2276618191
C  C66  1  0.99130000  0.65100000  0.04550000  1.0 -0.2276618191
C  C67  1  0.52700000  0.35370000  0.56050000  1.0 0.0797904897
C  C68  1  0.64630000  0.17330000  0.89383000  1.0 0.0797904897
C  C69  1  0.82670000  0.47300000  0.22717000  1.0 0.0797904897
C  C70  1  0.17330000  0.64630000  0.10617000  1.0 0.0797904897
C  C71  1  0.47300000  0.82670000  0.77283000  1.0 0.0797904897
C  C72  1  0.35370000  0.52700000  0.43950000  1.0 0.0797904897
C  C73  1  0.61510000  0.99510000  0.20250000  1.0 -0.2762118673
C  C74  1  0.00490000  0.62000000  0.53583000  1.0 -0.2762118673
C  C75  1  0.38000000  0.38490000  0.86917000  1.0 -0.2762118673
C  C76  1  0.62000000  0.00490000  0.46417000  1.0 -0.2762118673
C  C77  1  0.38490000  0.38000000  0.13083000  1.0 -0.2762118673
C  C78  1  0.99510000  0.61510000  0.79750000  1.0 -0.2762118673
C  C79  1  0.52820000  0.34390000  0.73820000  1.0 -0.2160483528
C  C80  1  0.65610000  0.18430000  0.07153000  1.0 -0.2160483528
C  C81  1  0.81570000  0.47180000  0.40487000  1.0 -0.2160483528
C  C82  1  0.18430000  0.65610000  0.92847000  1.0 -0.2160483528
C  C83  1  0.47180000  0.81570000  0.59513000  1.0 -0.2160483528
C  C84  1  0.34390000  0.52820000  0.26180000  1.0 -0.2160483528
C  C85  1  0.53460000  0.87720000  0.01590000  1.0 -0.4579041447
C  C86  1  0.12280000  0.65740000  0.34923000  1.0 -0.4579041447
C  C87  1  0.34260000  0.46540000  0.68257000  1.0 -0.4579041447
C  C88  1  0.65740000  0.12280000  0.65077000  1.0 -0.4579041447
C  C89  1  0.46540000  0.34260000  0.31743000  1.0 -0.4579041447
C  C90  1  0.87720000  0.53460000  0.98410000  1.0 -0.4579041447
C  C91  1  0.51660000  0.94620000  0.11860000  1.0 -0.2276618191
C  C92  1  0.05380000  0.57040000  0.45193000  1.0 -0.2276618191
C  C93  1  0.42960000  0.48340000  0.78527000  1.0 -0.2276618191
C  C94  1  0.57040000  0.05380000  0.54807000  1.0 -0.2276618191
C  C95  1  0.48340000  0.42960000  0.21473000  1.0 -0.2276618191
C  C96  1  0.94620000  0.51660000  0.88140000  1.0 -0.2276618191
C  C97  1  0.55050000  0.94500000  0.20240000  1.0 -0.138184619
C  C98  1  0.05500000  0.60550000  0.53573000  1.0 -0.138184619
C  C99  1  0.39450000  0.44950000  0.86907000  1.0 -0.138184619
C  C100  1  0.60550000  0.05500000  0.46427000  1.0 -0.138184619
C  C101  1  0.44950000  0.39450000  0.13093000  1.0 -0.138184619
C  C102  1  0.94500000  0.55050000  0.79760000  1.0 -0.138184619
C  C103  1  0.66160000  0.93870000  0.13600000  1.0 -0.5035851445
C  C104  1  0.06130000  0.72290000  0.46933000  1.0 -0.5035851445
C  C105  1  0.27710000  0.33840000  0.80267000  1.0 -0.5035851445
C  C106  1  0.72290000  0.06130000  0.53067000  1.0 -0.5035851445
C  C107  1  0.33840000  0.27710000  0.19733000  1.0 -0.5035851445
C  C108  1  0.93870000  0.66160000  0.86400000  1.0 -0.5035851445
C  C109  1  0.70890000  0.05120000  0.94920000  1.0 -0.1578536973
C  C110  1  0.94880000  0.65770000  0.28253000  1.0 -0.1578536973
C  C111  1  0.34230000  0.29110000  0.61587000  1.0 -0.1578536973
C  C112  1  0.65770000  0.94880000  0.71747000  1.0 -0.1578536973
C  C113  1  0.29110000  0.34230000  0.38413000  1.0 -0.1578536973
C  C114  1  0.05120000  0.70890000  0.05080000  1.0 -0.1578536973
C  C115  1  0.53960000  0.39660000  0.69520000  1.0 0.0525179429
C  C116  1  0.60340000  0.14300000  0.02853000  1.0 0.0525179429
C  C117  1  0.85700000  0.46040000  0.36187000  1.0 0.0525179429
C  C118  1  0.14300000  0.60340000  0.97147000  1.0 0.0525179429
C  C119  1  0.46040000  0.85700000  0.63813000  1.0 0.0525179429
C  C120  1  0.39660000  0.53960000  0.30480000  1.0 0.0525179429
C  C121  1  0.51620000  0.29360000  0.68960000  1.0 0.0894468521
C  C122  1  0.70640000  0.22260000  0.02293000  1.0 0.0894468521
C  C123  1  0.77740000  0.48380000  0.35627000  1.0 0.0894468521
C  C124  1  0.22260000  0.70640000  0.97707000  1.0 0.0894468521
C  C125  1  0.48380000  0.77740000  0.64373000  1.0 0.0894468521
C  C126  1  0.29360000  0.51620000  0.31040000  1.0 0.0894468521
C  C127  1  0.74050000  0.07910000  0.02110000  1.0 -0.008727362
C  C128  1  0.92090000  0.66140000  0.35443000  1.0 -0.008727362
C  C129  1  0.33860000  0.25950000  0.68777000  1.0 -0.008727362
C  C130  1  0.66140000  0.92090000  0.64557000  1.0 -0.008727362
C  C131  1  0.25950000  0.33860000  0.31223000  1.0 -0.008727362
C  C132  1  0.07910000  0.74050000  0.97890000  1.0 -0.008727362
C  C133  1  0.71800000  0.05530000  0.10550000  1.0 0.0184691209
C  C134  1  0.94470000  0.66270000  0.43883000  1.0 0.0184691209
C  C135  1  0.33730000  0.28200000  0.77217000  1.0 0.0184691209
C  C136  1  0.66270000  0.94470000  0.56117000  1.0 0.0184691209
C  C137  1  0.28200000  0.33730000  0.22783000  1.0 0.0184691209
C  C138  1  0.05530000  0.71800000  0.89450000  1.0 0.0184691209
C  C139  1  0.75220000  0.08280000  0.18170000  1.0 -0.0484598728
C  C140  1  0.91720000  0.66940000  0.51503000  1.0 -0.0484598728
C  C141  1  0.33060000  0.24780000  0.84837000  1.0 -0.0484598728
C  C142  1  0.66940000  0.91720000  0.48497000  1.0 -0.0484598728
C  C143  1  0.24780000  0.33060000  0.15163000  1.0 -0.0484598728
C  C144  1  0.08280000  0.75220000  0.81830000  1.0 -0.0484598728
C  C145  1  0.80890000  0.13420000  0.17350000  1.0 -0.0596829189
C  C146  1  0.86580000  0.67470000  0.50683000  1.0 -0.0596829189
C  C147  1  0.32530000  0.19110000  0.84017000  1.0 -0.0596829189
C  C148  1  0.67470000  0.86580000  0.49317000  1.0 -0.0596829189
C  C149  1  0.19110000  0.32530000  0.15983000  1.0 -0.0596829189
C  C150  1  0.13420000  0.80890000  0.82650000  1.0 -0.0596829189
C  C151  1  0.83140000  0.15810000  0.08910000  1.0 -0.008727362
C  C152  1  0.84190000  0.67330000  0.42243000  1.0 -0.008727362
C  C153  1  0.32670000  0.16860000  0.75577000  1.0 -0.008727362
C  C154  1  0.67330000  0.84190000  0.57757000  1.0 -0.008727362
C  C155  1  0.16860000  0.32670000  0.24423000  1.0 -0.008727362
C  C156  1  0.15810000  0.83140000  0.91090000  1.0 -0.008727362
C  C157  1  0.79720000  0.13050000  0.01290000  1.0 -0.1155655777
C  C158  1  0.86950000  0.66666667  0.34623000  1.0 -0.1155655777
C  C159  1  0.33333333  0.20280000  0.67957000  1.0 -0.1155655777
C  C160  1  0.66666667  0.86950000  0.65377000  1.0 -0.1155655777
C  C161  1  0.20280000  0.33333333  0.32043000  1.0 -0.1155655777
C  C162  1  0.13050000  0.79720000  0.98710000  1.0 -0.1155655777
C  C163  1  0.89540000  0.21650000  0.07320000  1.0 -0.0253046975
C  C164  1  0.78350000  0.67890000  0.40653000  1.0 -0.0253046975
C  C165  1  0.32110000  0.10460000  0.73987000  1.0 -0.0253046975
C  C166  1  0.67890000  0.78350000  0.59347000  1.0 -0.0253046975
C  C167  1  0.10460000  0.32110000  0.26013000  1.0 -0.0253046975
C  C168  1  0.21650000  0.89540000  0.92680000  1.0 -0.0253046975
C  C169  1  0.93990000  0.19880000  0.04080000  1.0 -0.1779286952
C  C170  1  0.80120000  0.74110000  0.37413000  1.0 -0.1779286952
C  C171  1  0.25890000  0.06010000  0.70747000  1.0 -0.1779286952
C  C172  1  0.74110000  0.80120000  0.62587000  1.0 -0.1779286952
C  C173  1  0.06010000  0.25890000  0.29253000  1.0 -0.1779286952
C  C174  1  0.19880000  0.93990000  0.95920000  1.0 -0.1779286952
C  C175  1  0.91870000  0.25550000  0.15600000  1.0 -0.2099616684
C  C176  1  0.74450000  0.66320000  0.48933000  1.0 -0.2099616684
C  C177  1  0.33680000  0.08130000  0.82267000  1.0 -0.2099616684
C  C178  1  0.66320000  0.74450000  0.51067000  1.0 -0.2099616684
C  C179  1  0.08130000  0.33680000  0.17733000  1.0 -0.2099616684
C  C180  1  0.25550000  0.91870000  0.84400000  1.0 -0.2099616684
C  C181  1  0.73990000  0.07070000  0.05110000  1.0 0.0525179429
C  C182  1  0.92930000  0.66920000  0.38443000  1.0 0.0525179429
C  C183  1  0.33080000  0.26010000  0.71777000  1.0 0.0525179429
C  C184  1  0.66920000  0.92930000  0.61557000  1.0 0.0525179429
C  C185  1  0.26010000  0.33080000  0.28223000  1.0 0.0525179429
C  C186  1  0.07070000  0.73990000  0.94890000  1.0 0.0525179429
C  C187  1  0.70990000  0.04420000  0.13060000  1.0 -0.0253046975
C  C188  1  0.95580000  0.66570000  0.46393000  1.0 -0.0253046975
C  C189  1  0.33430000  0.29010000  0.79727000  1.0 -0.0253046975
C  C190  1  0.66570000  0.95580000  0.53607000  1.0 -0.0253046975
C  C191  1  0.29010000  0.33430000  0.20273000  1.0 -0.0253046975
C  C192  1  0.04420000  0.70990000  0.86940000  1.0 -0.0253046975
C  C193  1  0.73890000  0.06590000  0.21240000  1.0 -0.0484598728
C  C194  1  0.93410000  0.67300000  0.54573000  1.0 -0.0484598728
C  C195  1  0.32700000  0.26110000  0.87907000  1.0 -0.0484598728
C  C196  1  0.67300000  0.93410000  0.45427000  1.0 -0.0484598728
C  C197  1  0.26110000  0.32700000  0.12093000  1.0 -0.0484598728
C  C198  1  0.06590000  0.73890000  0.78760000  1.0 -0.0484598728
C  C199  1  0.79800000  0.11400000  0.21460000  1.0 -0.1096970832
C  C200  1  0.88600000  0.68400000  0.54793000  1.0 -0.1096970832
C  C201  1  0.31600000  0.20200000  0.88127000  1.0 -0.1096970832
C  C202  1  0.68400000  0.88600000  0.45207000  1.0 -0.1096970832
C  C203  1  0.20200000  0.31600000  0.11873000  1.0 -0.1096970832
C  C204  1  0.11400000  0.79800000  0.78540000  1.0 -0.1096970832
C  C205  1  0.82800000  0.14050000  0.13510000  1.0 0.0101756917
C  C206  1  0.85950000  0.68750000  0.46843000  1.0 0.0101756917
C  C207  1  0.31250000  0.17200000  0.80177000  1.0 0.0101756917
C  C208  1  0.68750000  0.85950000  0.53157000  1.0 0.0101756917
C  C209  1  0.17200000  0.31250000  0.19823000  1.0 0.0101756917
C  C210  1  0.14050000  0.82800000  0.86490000  1.0 0.0101756917
C  C211  1  0.79900000  0.11880000  0.05330000  1.0 -0.0596829189
C  C212  1  0.88120000  0.68020000  0.38663000  1.0 -0.0596829189
C  C213  1  0.31980000  0.20100000  0.71997000  1.0 -0.0596829189
C  C214  1  0.68020000  0.88120000  0.61337000  1.0 -0.0596829189
C  C215  1  0.20100000  0.31980000  0.28003000  1.0 -0.0596829189
C  C216  1  0.11880000  0.79900000  0.94670000  1.0 -0.0596829189
C  C217  1  0.89650000  0.19060000  0.13570000  1.0 0.0184691209
C  C218  1  0.80940000  0.70590000  0.46903000  1.0 0.0184691209
C  C219  1  0.29410000  0.10350000  0.80237000  1.0 0.0184691209
C  C220  1  0.70590000  0.80940000  0.53097000  1.0 0.0184691209
C  C221  1  0.10350000  0.29410000  0.19763000  1.0 0.0184691209
C  C222  1  0.19060000  0.89650000  0.86430000  1.0 0.0184691209
C  C223  1  0.94070000  0.18190000  0.07890000  1.0 -0.1689468043
C  C224  1  0.81810000  0.75880000  0.41223000  1.0 -0.1689468043
C  C225  1  0.24120000  0.05930000  0.74557000  1.0 -0.1689468043
C  C226  1  0.75880000  0.81810000  0.58777000  1.0 -0.1689468043
C  C227  1  0.05930000  0.24120000  0.25443000  1.0 -0.1689468043
C  C228  1  0.18190000  0.94070000  0.92110000  1.0 -0.1689468043
C  C229  1  0.90410000  0.25150000  0.10950000  1.0 -0.1779286952
C  C230  1  0.74850000  0.65260000  0.44283000  1.0 -0.1779286952
C  C231  1  0.34740000  0.09590000  0.77617000  1.0 -0.1779286952
C  C232  1  0.65260000  0.74850000  0.55717000  1.0 -0.1779286952
C  C233  1  0.09590000  0.34740000  0.22383000  1.0 -0.1689468043
C  C234  1  0.25150000  0.90410000  0.89050000  1.0 -0.1779286952
N  N1  1  0.50540000  0.13783000  0.81610000  1.0 -0.2702720757
N  N2  1  0.86217000  0.36757000  0.14943000  1.0 -0.2702720757
N  N3  1  0.63243000  0.49460000  0.48277000  1.0 -0.2702720757
N  N4  1  0.36757000  0.86217000  0.85057000  1.0 -0.2702720757
N  N5  1  0.49460000  0.63243000  0.51723000  1.0 -0.2702720757
N  N6  1  0.13783000  0.50540000  0.18390000  1.0 -0.2702720757
N  N7  1  0.54070000  0.40270000  0.60730000  1.0 -0.2160483528
N  N8  1  0.59730000  0.13800000  0.94063000  1.0 -0.2160483528
N  N9  1  0.86200000  0.45930000  0.27397000  1.0 -0.2160483528
N  N10  1  0.13800000  0.59730000  0.05937000  1.0 -0.2160483528
N  N11  1  0.45930000  0.86200000  0.72603000  1.0 -0.2160483528
N  N12  1  0.40270000  0.54070000  0.39270000  1.0 -0.2160483528
O  O1  1  0.43701000  0.00000000  0.83333000  1.0 -0.6598627563
O  O2  1  0.00000000  0.43701000  0.16667000  1.0 -0.6598627563
O  O3  1  0.56299000  0.56299000  0.50000000  1.0 -0.6598627563
O  O4  1  0.52965000  0.01479000  0.95990000  1.0 -0.5635005033
O  O5  1  0.98521000  0.51486000  0.29323000  1.0 -0.5635005033
O  O6  1  0.48514000  0.47035000  0.62657000  1.0 -0.5635005033
O  O7  1  0.51486000  0.98521000  0.70677000  1.0 -0.5635005033
O  O8  1  0.47035000  0.48514000  0.37343000  1.0 -0.5635005033
O  O9  1  0.01479000  0.52965000  0.04010000  1.0 -0.5635005033
O  O10  1  0.49386000  0.92581000  0.89050000  1.0 -0.5635005033
O  O11  1  0.07419000  0.56805000  0.22383000  1.0 -0.5635005033
O  O12  1  0.43195000  0.50614000  0.55717000  1.0 -0.5635005033
O  O13  1  0.56805000  0.07419000  0.77617000  1.0 -0.5635005033
O  O14  1  0.50614000  0.43195000  0.44283000  1.0 -0.5635005033
O  O15  1  0.92581000  0.49386000  0.10950000  1.0 -0.5635005033
