# DDEC6 charges by PACMAN v1.1 (https://github.com/mtap-research/PACMAN-charge/)
data_CETHEQ_FSR_pacman
_symmetry_space_group_name_H-M   'P 1'
_cell_length_a   14.83220000
_cell_length_b   14.83220000
_cell_length_c   14.83220000
_cell_angle_alpha   114.24500000
_cell_angle_beta   114.24500000
_cell_angle_gamma   114.24500000
_symmetry_Int_Tables_number   1
_chemical_formula_structural   Cu3H20C9N6O7
_chemical_formula_sum   'Cu9 H60 C27 N18 O21'
_cell_volume   1945.90219957
_cell_formula_units_Z   3
loop_
 _symmetry_equiv_pos_site_id
 _symmetry_equiv_pos_as_xyz
  1  'x, y, z'
loop_
 _atom_site_type_symbol
 _atom_site_label
 _atom_site_symmetry_multiplicity
 _atom_site_fract_x
 _atom_site_fract_y
 _atom_site_fract_z
 _atom_site_occupancy
 _atom_site_charge
Cu  Cu1  1  0.67009000  0.26459000  0.26459000  1.0 0.7639768896
Cu  Cu2  1  0.26459000  0.26459000  0.67009000  1.0 0.7639768896
Cu  Cu3  1  0.26459000  0.67009000  0.26459000  1.0 0.7639768896
Cu  Cu4  1  0.96939000  0.44826000  0.56279000  1.0 0.7825321731
Cu  Cu5  1  0.44826000  0.56279000  0.96939000  1.0 0.7825321731
Cu  Cu6  1  0.56279000  0.96939000  0.44826000  1.0 0.7825321731
Cu  Cu7  1  0.96939000  0.56279000  0.44826000  1.0 0.7825321731
Cu  Cu8  1  0.44826000  0.96939000  0.56279000  1.0 0.7825321731
Cu  Cu9  1  0.56279000  0.44826000  0.96939000  1.0 0.7825321731
H  H1  1  0.80960000  0.47820000  0.47820000  1.0 0.3526706474
H  H2  1  0.47820000  0.47820000  0.80960000  1.0 0.3526706474
H  H3  1  0.47820000  0.80960000  0.47820000  1.0 0.3526706474
H  H4  1  0.42510000  0.99700000  0.14030000  1.0 0.1457503266
H  H5  1  0.99700000  0.14030000  0.42510000  1.0 0.1457503266
H  H6  1  0.14030000  0.42510000  0.99700000  1.0 0.1457503266
H  H7  1  0.42510000  0.14030000  0.99700000  1.0 0.1457503266
H  H8  1  0.99700000  0.42510000  0.14030000  1.0 0.1457503266
H  H9  1  0.14030000  0.99700000  0.42510000  1.0 0.1457503266
H  H10  1  0.41280000  0.89160000  0.15360000  1.0 0.1574329016
H  H11  1  0.89160000  0.15360000  0.41280000  1.0 0.1574329016
H  H12  1  0.15360000  0.41280000  0.89160000  1.0 0.1574329016
H  H13  1  0.41280000  0.15360000  0.89160000  1.0 0.1574329016
H  H14  1  0.89160000  0.41280000  0.15360000  1.0 0.1574329016
H  H15  1  0.15360000  0.89160000  0.41280000  1.0 0.1574329016
H  H16  1  0.38870000  0.98190000  0.22390000  1.0 0.1574329016
H  H17  1  0.98190000  0.22390000  0.38870000  1.0 0.1574329016
H  H18  1  0.22390000  0.38870000  0.98190000  1.0 0.1574329016
H  H19  1  0.38870000  0.22390000  0.98190000  1.0 0.1574329016
H  H20  1  0.98190000  0.38870000  0.22390000  1.0 0.1574329016
H  H21  1  0.22390000  0.98190000  0.38870000  1.0 0.1574329016
H  H22  1  0.98060000  0.36160000  0.71630000  1.0 0.1405582853
H  H23  1  0.36160000  0.71630000  0.98060000  1.0 0.1405582853
H  H24  1  0.71630000  0.98060000  0.36160000  1.0 0.1405582853
H  H25  1  0.98060000  0.71630000  0.36160000  1.0 0.1405582853
H  H26  1  0.36160000  0.98060000  0.71630000  1.0 0.1405582853
H  H27  1  0.71630000  0.36160000  0.98060000  1.0 0.1405582853
H  H28  1  0.86832000  0.29478000  0.72110000  1.0 0.1574329016
H  H29  1  0.29478000  0.72110000  0.86832000  1.0 0.1574329016
H  H30  1  0.72110000  0.86832000  0.29478000  1.0 0.1574329016
H  H31  1  0.86832000  0.72110000  0.29478000  1.0 0.1574329016
H  H32  1  0.29478000  0.86832000  0.72110000  1.0 0.1574329016
H  H33  1  0.72110000  0.29478000  0.86832000  1.0 0.1574329016
H  H34  1  0.89750000  0.20890000  0.65450000  1.0 0.1457503266
H  H35  1  0.20890000  0.65450000  0.89750000  1.0 0.1457503266
H  H36  1  0.65450000  0.89750000  0.20890000  1.0 0.1457503266
H  H37  1  0.89750000  0.65450000  0.20890000  1.0 0.1457503266
H  H38  1  0.20890000  0.89750000  0.65450000  1.0 0.1457503266
H  H39  1  0.65450000  0.20890000  0.89750000  1.0 0.1457503266
H  H40  1  0.48680000  0.28160000  0.21970000  1.0 0.3920188424
H  H41  1  0.28160000  0.21970000  0.48680000  1.0 0.3920188424
H  H42  1  0.21970000  0.48680000  0.28160000  1.0 0.3920188424
H  H43  1  0.48680000  0.21970000  0.28160000  1.0 0.3920188424
H  H44  1  0.28160000  0.48680000  0.21970000  1.0 0.3920188424
H  H45  1  0.21970000  0.28160000  0.48680000  1.0 0.3920188424
H  H46  1  0.52800000  0.95360000  0.95360000  1.0 0.0973189277
H  H47  1  0.95360000  0.95360000  0.52800000  1.0 0.0973189277
H  H48  1  0.95360000  0.52800000  0.95360000  1.0 0.0973189277
H  H49  1  0.00870000  0.61310000  0.82970000  1.0 0.3204553105
H  H50  1  0.61310000  0.82970000  0.00870000  1.0 0.3204553105
H  H51  1  0.82970000  0.00870000  0.61310000  1.0 0.3204553105
H  H52  1  0.00870000  0.82970000  0.61310000  1.0 0.3204553105
H  H53  1  0.61310000  0.00870000  0.82970000  1.0 0.3204553105
H  H54  1  0.82970000  0.61310000  0.00870000  1.0 0.3204553105
H  H55  1  0.93920000  0.58390000  0.71060000  1.0 0.3028697548
H  H56  1  0.58390000  0.71060000  0.93920000  1.0 0.3028697548
H  H57  1  0.71060000  0.93920000  0.58390000  1.0 0.3028697548
H  H58  1  0.93920000  0.71060000  0.58390000  1.0 0.3028697548
H  H59  1  0.58390000  0.93920000  0.71060000  1.0 0.3028697548
H  H60  1  0.71060000  0.58390000  0.93920000  1.0 0.3028697548
C  C1  1  0.58750000  0.08950000  0.32640000  1.0 0.3983279047
C  C2  1  0.08950000  0.32640000  0.58750000  1.0 0.3983279047
C  C3  1  0.32640000  0.58750000  0.08950000  1.0 0.3983279047
C  C4  1  0.58750000  0.32640000  0.08950000  1.0 0.3983279047
C  C5  1  0.08950000  0.58750000  0.32640000  1.0 0.3983279047
C  C6  1  0.32640000  0.08950000  0.58750000  1.0 0.3983279047
C  C7  1  0.44160000  0.98120000  0.20080000  1.0 -0.5490220609
C  C8  1  0.98120000  0.20080000  0.44160000  1.0 -0.5490220609
C  C9  1  0.20080000  0.44160000  0.98120000  1.0 -0.5490220609
C  C10  1  0.44160000  0.20080000  0.98120000  1.0 -0.5490220609
C  C11  1  0.98120000  0.44160000  0.20080000  1.0 -0.5490220609
C  C12  1  0.20080000  0.98120000  0.44160000  1.0 -0.5490220609
C  C13  1  0.78110000  0.21760000  0.52790000  1.0 0.4262545136
C  C14  1  0.21760000  0.52790000  0.78110000  1.0 0.4262545136
C  C15  1  0.52790000  0.78110000  0.21760000  1.0 0.4262545136
C  C16  1  0.78110000  0.52790000  0.21760000  1.0 0.4262545136
C  C17  1  0.21760000  0.78110000  0.52790000  1.0 0.4262545136
C  C18  1  0.52790000  0.21760000  0.78110000  1.0 0.4262545136
C  C19  1  0.89170000  0.27580000  0.66720000  1.0 -0.5490220609
C  C20  1  0.27580000  0.66720000  0.89170000  1.0 -0.5490220609
C  C21  1  0.66720000  0.89170000  0.27580000  1.0 -0.5490220609
C  C22  1  0.89170000  0.66720000  0.27580000  1.0 -0.5490220609
C  C23  1  0.27580000  0.89170000  0.66720000  1.0 -0.5490220609
C  C24  1  0.66720000  0.27580000  0.89170000  1.0 -0.5490220609
C  C25  1  0.59160000  0.04270000  0.04270000  1.0 0.4217977402
C  C26  1  0.04270000  0.04270000  0.59160000  1.0 0.4217977402
C  C27  1  0.04270000  0.59160000  0.04270000  1.0 0.4217977402
N  N1  1  0.68100000  0.19490000  0.35490000  1.0 -0.3087693475
N  N2  1  0.19490000  0.35490000  0.68100000  1.0 -0.3087693475
N  N3  1  0.35490000  0.68100000  0.19490000  1.0 -0.3087693475
N  N4  1  0.68100000  0.35490000  0.19490000  1.0 -0.3087693475
N  N5  1  0.19490000  0.68100000  0.35490000  1.0 -0.3087693475
N  N6  1  0.35490000  0.19490000  0.68100000  1.0 -0.3087693475
N  N7  1  0.80850000  0.27900000  0.48620000  1.0 -0.3087693475
N  N8  1  0.27900000  0.48620000  0.80850000  1.0 -0.3087693475
N  N9  1  0.48620000  0.80850000  0.27900000  1.0 -0.3087693475
N  N10  1  0.80850000  0.48620000  0.27900000  1.0 -0.3087693475
N  N11  1  0.27900000  0.80850000  0.48620000  1.0 -0.3087693475
N  N12  1  0.48620000  0.27900000  0.80850000  1.0 -0.3087693475
N  N13  1  0.64760000  0.10020000  0.43440000  1.0 -0.4207250101
N  N14  1  0.10020000  0.43440000  0.64760000  1.0 -0.4207250101
N  N15  1  0.43440000  0.64760000  0.10020000  1.0 -0.4207250101
N  N16  1  0.64760000  0.43440000  0.10020000  1.0 -0.4207250101
N  N17  1  0.10020000  0.64760000  0.43440000  1.0 -0.4207250101
N  N18  1  0.43440000  0.10020000  0.64760000  1.0 -0.4207250101
O  O1  1  0.98780000  0.57490000  0.75440000  1.0 -0.6512616697
O  O2  1  0.57490000  0.75440000  0.98780000  1.0 -0.6512616697
O  O3  1  0.75440000  0.98780000  0.57490000  1.0 -0.6512616697
O  O4  1  0.98780000  0.75440000  0.57490000  1.0 -0.6512616697
O  O5  1  0.57490000  0.98780000  0.75440000  1.0 -0.6512616697
O  O6  1  0.75440000  0.57490000  0.98780000  1.0 -0.6512616697
O  O7  1  0.83800000  0.45050000  0.45050000  1.0 -0.7452089014
O  O8  1  0.45050000  0.45050000  0.83800000  1.0 -0.74444626
O  O9  1  0.45050000  0.83800000  0.45050000  1.0 -0.7452089014
O  O10  1  0.10250000  0.61690000  0.61690000  1.0 -0.6648032489
O  O11  1  0.61690000  0.61690000  0.10250000  1.0 -0.6648032489
O  O12  1  0.61690000  0.10250000  0.61690000  1.0 -0.6648032489
O  O13  1  0.50930000  0.25590000  0.25590000  1.0 -0.670410536
O  O14  1  0.25590000  0.25590000  0.50930000  1.0 -0.670410536
O  O15  1  0.25590000  0.50930000  0.25590000  1.0 -0.670410536
O  O16  1  0.54310000  0.08150000  0.08150000  1.0 -0.4931241992
O  O17  1  0.08150000  0.08150000  0.54310000  1.0 -0.4931241992
O  O18  1  0.08150000  0.54310000  0.08150000  1.0 -0.4931241992
O  O19  1  0.72020000  0.11340000  0.11340000  1.0 -0.5409648242
O  O20  1  0.11340000  0.11340000  0.72020000  1.0 -0.5409648242
O  O21  1  0.11340000  0.72020000  0.11340000  1.0 -0.5409648242
