# DDEC6 charges by PACMAN v1.1 (https://github.com/mtap-research/PACMAN-charge/)
data_CETKIY_ASR_pacman
_symmetry_space_group_name_H-M   'P 1'
_cell_length_a   15.51900000
_cell_length_b   20.91200000
_cell_length_c   30.04100000
_cell_angle_alpha   90.00000000
_cell_angle_beta   90.00000000
_cell_angle_gamma   90.00000000
_symmetry_Int_Tables_number   1
_chemical_formula_structural   Cd3H9C21S3(NO2)5
_chemical_formula_sum   'Cd24 H72 C168 S24 N40 O80'
_cell_volume   9749.30570645
_cell_formula_units_Z   8
loop_
 _symmetry_equiv_pos_site_id
 _symmetry_equiv_pos_as_xyz
  1  'x, y, z'
loop_
 _atom_site_type_symbol
 _atom_site_label
 _atom_site_symmetry_multiplicity
 _atom_site_fract_x
 _atom_site_fract_y
 _atom_site_fract_z
 _atom_site_occupancy
 _atom_site_charge
Cd  Cd1  1  0.49586000  0.84098000  0.58463000  1.0 0.9264211979
Cd  Cd2  1  0.48443000  0.67325000  0.61353000  1.0 0.9209360804
Cd  Cd3  1  0.50175000  0.63559000  0.73976000  1.0 0.8522027086
Cd  Cd4  1  0.99586000  0.65902000  0.91537000  1.0 0.9264211979
Cd  Cd5  1  0.98443000  0.82675000  0.88647000  1.0 0.9209360804
Cd  Cd6  1  0.00175000  0.86441000  0.76024000  1.0 0.8522027086
Cd  Cd7  1  0.00414000  0.15902000  0.58463000  1.0 0.9264211979
Cd  Cd8  1  0.01557000  0.32675000  0.61353000  1.0 0.9209360804
Cd  Cd9  1  0.99825000  0.36441000  0.73976000  1.0 0.8522027086
Cd  Cd10  1  0.50414000  0.34098000  0.91537000  1.0 0.9264211979
Cd  Cd11  1  0.51557000  0.17325000  0.88647000  1.0 0.9209360804
Cd  Cd12  1  0.49825000  0.13559000  0.76024000  1.0 0.8522027086
Cd  Cd13  1  0.50414000  0.15902000  0.41537000  1.0 0.9264211979
Cd  Cd14  1  0.51557000  0.32675000  0.38647000  1.0 0.9209360804
Cd  Cd15  1  0.49825000  0.36441000  0.26024000  1.0 0.8522027086
Cd  Cd16  1  0.00414000  0.34098000  0.08463000  1.0 0.9264211979
Cd  Cd17  1  0.01557000  0.17325000  0.11353000  1.0 0.9209360804
Cd  Cd18  1  0.99825000  0.13559000  0.23976000  1.0 0.8522027086
Cd  Cd19  1  0.99586000  0.84098000  0.41537000  1.0 0.9264211979
Cd  Cd20  1  0.98443000  0.67325000  0.38647000  1.0 0.9209360804
Cd  Cd21  1  0.00175000  0.63559000  0.26024000  1.0 0.8522027086
Cd  Cd22  1  0.49586000  0.65902000  0.08463000  1.0 0.9264211979
Cd  Cd23  1  0.48443000  0.82675000  0.11353000  1.0 0.9209360804
Cd  Cd24  1  0.50175000  0.86441000  0.23976000  1.0 0.8522027086
H  H1  1  0.64090000  0.62930000  0.47630000  1.0 0.1293494723
H  H2  1  0.76680000  0.65570000  0.42960000  1.0 0.1293494723
H  H3  1  0.69020000  0.96380000  0.47480000  1.0 0.1293494723
H  H4  1  0.69520000  0.54220000  0.58520000  1.0 0.1397960642
H  H5  1  0.30560000  0.53920000  0.73270000  1.0 0.1293494723
H  H6  1  0.54990000  0.04320000  0.67970000  1.0 0.1080837202
H  H7  1  0.54900000  0.94010000  0.65680000  1.0 0.1466646682
H  H8  1  0.47450000  0.89140000  0.77990000  1.0 0.1397960642
H  H9  1  0.48080000  0.99860000  0.79910000  1.0 0.0960329285
H  H10  1  0.14090000  0.87070000  0.02370000  1.0 0.1293494723
H  H11  1  0.26680000  0.84430000  0.07040000  1.0 0.1293494723
H  H12  1  0.19020000  0.53620000  0.02520000  1.0 0.1293494723
H  H13  1  0.19520000  0.95780000  0.91480000  1.0 0.1397960642
H  H14  1  0.80560000  0.96080000  0.76730000  1.0 0.1293494723
H  H15  1  0.04990000  0.45680000  0.82030000  1.0 0.1080837202
H  H16  1  0.04900000  0.55990000  0.84320000  1.0 0.1466646682
H  H17  1  0.97450000  0.60860000  0.72010000  1.0 0.1397960642
H  H18  1  0.98080000  0.50140000  0.70090000  1.0 0.0960329285
H  H19  1  0.85910000  0.37070000  0.47630000  1.0 0.1293494723
H  H20  1  0.73320000  0.34430000  0.42960000  1.0 0.1293494723
H  H21  1  0.80980000  0.03620000  0.47480000  1.0 0.1293494723
H  H22  1  0.80480000  0.45780000  0.58520000  1.0 0.1397960642
H  H23  1  0.19440000  0.46080000  0.73270000  1.0 0.1293494723
H  H24  1  0.95010000  0.95680000  0.67970000  1.0 0.1080837202
H  H25  1  0.95100000  0.05990000  0.65680000  1.0 0.1466646682
H  H26  1  0.02550000  0.10860000  0.77990000  1.0 0.1397960642
H  H27  1  0.01920000  0.00140000  0.79910000  1.0 0.0960329285
H  H28  1  0.35910000  0.12930000  0.02370000  1.0 0.1293494723
H  H29  1  0.23320000  0.15570000  0.07040000  1.0 0.1293494723
H  H30  1  0.30980000  0.46380000  0.02520000  1.0 0.1293494723
H  H31  1  0.30480000  0.04220000  0.91480000  1.0 0.1397960642
H  H32  1  0.69440000  0.03920000  0.76730000  1.0 0.1293494723
H  H33  1  0.45010000  0.54320000  0.82030000  1.0 0.1080837202
H  H34  1  0.45100000  0.44010000  0.84320000  1.0 0.1466646682
H  H35  1  0.52550000  0.39140000  0.72010000  1.0 0.1397960642
H  H36  1  0.51920000  0.49860000  0.70090000  1.0 0.0960329285
H  H37  1  0.35910000  0.37070000  0.52370000  1.0 0.1293494723
H  H38  1  0.23320000  0.34430000  0.57040000  1.0 0.1293494723
H  H39  1  0.30980000  0.03620000  0.52520000  1.0 0.1293494723
H  H40  1  0.30480000  0.45780000  0.41480000  1.0 0.1397960642
H  H41  1  0.69440000  0.46080000  0.26730000  1.0 0.1293494723
H  H42  1  0.45010000  0.95680000  0.32030000  1.0 0.1080837202
H  H43  1  0.45100000  0.05990000  0.34320000  1.0 0.1397960642
H  H44  1  0.52550000  0.10860000  0.22010000  1.0 0.1397960642
H  H45  1  0.51920000  0.00140000  0.20090000  1.0 0.0960329285
H  H46  1  0.85910000  0.12930000  0.97630000  1.0 0.1293494723
H  H47  1  0.73320000  0.15570000  0.92960000  1.0 0.1293494723
H  H48  1  0.80980000  0.46380000  0.97480000  1.0 0.1293494723
H  H49  1  0.80480000  0.04220000  0.08520000  1.0 0.1397960642
H  H50  1  0.19440000  0.03920000  0.23270000  1.0 0.1293494723
H  H51  1  0.95010000  0.54320000  0.17970000  1.0 0.1080837202
H  H52  1  0.95100000  0.44010000  0.15680000  1.0 0.1397960642
H  H53  1  0.02550000  0.39140000  0.27990000  1.0 0.1397960642
H  H54  1  0.01920000  0.49860000  0.29910000  1.0 0.0960329285
H  H55  1  0.14090000  0.62930000  0.52370000  1.0 0.1293494723
H  H56  1  0.26680000  0.65570000  0.57040000  1.0 0.1293494723
H  H57  1  0.19020000  0.96380000  0.52520000  1.0 0.1293494723
H  H58  1  0.19520000  0.54220000  0.41480000  1.0 0.1397960642
H  H59  1  0.80560000  0.53920000  0.26730000  1.0 0.1293494723
H  H60  1  0.04990000  0.04320000  0.32030000  1.0 0.1080837202
H  H61  1  0.04900000  0.94010000  0.34320000  1.0 0.1466646682
H  H62  1  0.97450000  0.89140000  0.22010000  1.0 0.1397960642
H  H63  1  0.98080000  0.99860000  0.20090000  1.0 0.0960329285
H  H64  1  0.64090000  0.87070000  0.97630000  1.0 0.1293494723
H  H65  1  0.76680000  0.84430000  0.92960000  1.0 0.1293494723
H  H66  1  0.69020000  0.53620000  0.97480000  1.0 0.1293494723
H  H67  1  0.69520000  0.95780000  0.08520000  1.0 0.1397960642
H  H68  1  0.30560000  0.96080000  0.23270000  1.0 0.1293494723
H  H69  1  0.54990000  0.45680000  0.17970000  1.0 0.1080837202
H  H70  1  0.54900000  0.55990000  0.15680000  1.0 0.1466646682
H  H71  1  0.47450000  0.60860000  0.27990000  1.0 0.1397960642
H  H72  1  0.48080000  0.50140000  0.29910000  1.0 0.0960329285
C  C1  1  0.59080000  0.70820000  0.54600000  1.0 0.5668406077
C  C2  1  0.65920000  0.71030000  0.51230000  1.0 -0.1120953841
C  C3  1  0.67450000  0.66570000  0.48020000  1.0 -0.1263944651
C  C4  1  0.74760000  0.68070000  0.45330000  1.0 -0.1120953841
C  C5  1  0.78460000  0.73430000  0.46620000  1.0 -0.1024148526
C  C6  1  0.86210000  0.76570000  0.44600000  1.0 0.5814251367
C  C7  1  0.62020000  0.91770000  0.55540000  1.0 0.5432780858
C  C8  1  0.68950000  0.96190000  0.54270000  1.0 -0.1424780201
C  C9  1  0.71590000  0.97900000  0.50060000  1.0 -0.1024148526
C  C10  1  0.63250000  0.59270000  0.66350000  1.0 0.5814251367
C  C11  1  0.69560000  0.54290000  0.65210000  1.0 -0.1624822335
C  C12  1  0.71840000  0.52460000  0.61100000  1.0 -0.1120953841
C  C13  1  0.37170000  0.58770000  0.65130000  1.0 0.5647065368
C  C14  1  0.30610000  0.53980000  0.66610000  1.0 -0.1120953841
C  C15  1  0.28170000  0.52240000  0.70680000  1.0 -0.1658894642
C  C16  1  0.53320000  0.01200000  0.70010000  1.0 0.0412269074
C  C17  1  0.53350000  0.95030000  0.68580000  1.0 -0.1784033041
C  C18  1  0.51020000  0.90360000  0.71560000  1.0 0.0727707596
C  C19  1  0.48980000  0.92190000  0.75880000  1.0 -0.1624822335
C  C20  1  0.49250000  0.98660000  0.76990000  1.0 0.0727707596
C  C21  1  0.50700000  0.83700000  0.70430000  1.0 0.2277138315
C  C22  1  0.09080000  0.79180000  0.95400000  1.0 0.5668406077
C  C23  1  0.15920000  0.78970000  0.98770000  1.0 -0.1120953841
C  C24  1  0.17450000  0.83430000  0.01980000  1.0 -0.1263944651
C  C25  1  0.24760000  0.81930000  0.04670000  1.0 -0.1120953841
C  C26  1  0.28460000  0.76570000  0.03380000  1.0 -0.1024148526
C  C27  1  0.36210000  0.73430000  0.05400000  1.0 0.5814251367
C  C28  1  0.12020000  0.58230000  0.94460000  1.0 0.5432780858
C  C29  1  0.18950000  0.53810000  0.95730000  1.0 -0.1424780201
C  C30  1  0.21590000  0.52100000  0.99940000  1.0 -0.1024148526
C  C31  1  0.13250000  0.90730000  0.83650000  1.0 0.5814251367
C  C32  1  0.19560000  0.95710000  0.84790000  1.0 -0.1624822335
C  C33  1  0.21840000  0.97540000  0.88900000  1.0 -0.1120953841
C  C34  1  0.87170000  0.91230000  0.84870000  1.0 0.5668406077
C  C35  1  0.80610000  0.96020000  0.83390000  1.0 -0.1169859415
C  C36  1  0.78170000  0.97760000  0.79320000  1.0 -0.1624822335
C  C37  1  0.03320000  0.48800000  0.79990000  1.0 0.0412269074
C  C38  1  0.03350000  0.54970000  0.81420000  1.0 -0.1784033041
C  C39  1  0.01020000  0.59640000  0.78440000  1.0 0.0752929773
C  C40  1  0.98980000  0.57810000  0.74120000  1.0 -0.1624822335
C  C41  1  0.99250000  0.51340000  0.73010000  1.0 0.0727707596
C  C42  1  0.00700000  0.66300000  0.79570000  1.0 0.2277138315
C  C43  1  0.90920000  0.29180000  0.54600000  1.0 0.5668406077
C  C44  1  0.84080000  0.28970000  0.51230000  1.0 -0.1169859415
C  C45  1  0.82550000  0.33430000  0.48020000  1.0 -0.1169859415
C  C46  1  0.75240000  0.31930000  0.45330000  1.0 -0.1120953841
C  C47  1  0.71540000  0.26570000  0.46620000  1.0 -0.1024148526
C  C48  1  0.63790000  0.23430000  0.44600000  1.0 0.5814251367
C  C49  1  0.87980000  0.08230000  0.55540000  1.0 0.5432780858
C  C50  1  0.81050000  0.03810000  0.54270000  1.0 -0.1424780201
C  C51  1  0.78410000  0.02100000  0.50060000  1.0 -0.1024148526
C  C52  1  0.86750000  0.40730000  0.66350000  1.0 0.5814251367
C  C53  1  0.80440000  0.45710000  0.65210000  1.0 -0.1624822335
C  C54  1  0.78160000  0.47540000  0.61100000  1.0 -0.1120953841
C  C55  1  0.12830000  0.41230000  0.65130000  1.0 0.5668406077
C  C56  1  0.19390000  0.46020000  0.66610000  1.0 -0.1169859415
C  C57  1  0.21830000  0.47760000  0.70680000  1.0 -0.1624822335
C  C58  1  0.96680000  0.98800000  0.70010000  1.0 0.0412269074
C  C59  1  0.96650000  0.04970000  0.68580000  1.0 -0.1784033041
C  C60  1  0.98980000  0.09640000  0.71560000  1.0 0.0752929773
C  C61  1  0.01020000  0.07810000  0.75880000  1.0 -0.1624822335
C  C62  1  0.00750000  0.01340000  0.76990000  1.0 0.0727707596
C  C63  1  0.99300000  0.16300000  0.70430000  1.0 0.2277138315
C  C64  1  0.40920000  0.20820000  0.95400000  1.0 0.5668406077
C  C65  1  0.34080000  0.21030000  0.98770000  1.0 -0.1169859415
C  C66  1  0.32550000  0.16570000  0.01980000  1.0 -0.1263944651
C  C67  1  0.25240000  0.18070000  0.04670000  1.0 -0.1120953841
C  C68  1  0.21540000  0.23430000  0.03380000  1.0 -0.1024148526
C  C69  1  0.13790000  0.26570000  0.05400000  1.0 0.5814251367
C  C70  1  0.37980000  0.41770000  0.94460000  1.0 0.5432780858
C  C71  1  0.31050000  0.46190000  0.95730000  1.0 -0.1424780201
C  C72  1  0.28410000  0.47900000  0.99940000  1.0 -0.1024148526
C  C73  1  0.36750000  0.09270000  0.83650000  1.0 0.5814251367
C  C74  1  0.30440000  0.04290000  0.84790000  1.0 -0.1624822335
C  C75  1  0.28160000  0.02460000  0.88900000  1.0 -0.1120953841
C  C76  1  0.62830000  0.08770000  0.84870000  1.0 0.5668406077
C  C77  1  0.69390000  0.03980000  0.83390000  1.0 -0.1120953841
C  C78  1  0.71830000  0.02240000  0.79320000  1.0 -0.1658894642
C  C79  1  0.46680000  0.51200000  0.79990000  1.0 0.0412269074
C  C80  1  0.46650000  0.45030000  0.81420000  1.0 -0.1784033041
C  C81  1  0.48980000  0.40360000  0.78440000  1.0 0.0727707596
C  C82  1  0.51020000  0.42190000  0.74120000  1.0 -0.1624822335
C  C83  1  0.50750000  0.48660000  0.73010000  1.0 0.0727707596
C  C84  1  0.49300000  0.33700000  0.79570000  1.0 0.2277138315
C  C85  1  0.40920000  0.29180000  0.45400000  1.0 0.5668406077
C  C86  1  0.34080000  0.28970000  0.48770000  1.0 -0.1169859415
C  C87  1  0.32550000  0.33430000  0.51980000  1.0 -0.1263944651
C  C88  1  0.25240000  0.31930000  0.54670000  1.0 -0.1120953841
C  C89  1  0.21540000  0.26570000  0.53380000  1.0 -0.1024148526
C  C90  1  0.13790000  0.23430000  0.55400000  1.0 0.5814251367
C  C91  1  0.37980000  0.08230000  0.44460000  1.0 0.5432780858
C  C92  1  0.31050000  0.03810000  0.45730000  1.0 -0.1424780201
C  C93  1  0.28410000  0.02100000  0.49940000  1.0 -0.1024148526
C  C94  1  0.36750000  0.40730000  0.33650000  1.0 0.5814251367
C  C95  1  0.30440000  0.45710000  0.34790000  1.0 -0.1624822335
C  C96  1  0.28160000  0.47540000  0.38900000  1.0 -0.1120953841
C  C97  1  0.62830000  0.41230000  0.34870000  1.0 0.5668406077
C  C98  1  0.69390000  0.46020000  0.33390000  1.0 -0.1169859415
C  C99  1  0.71830000  0.47760000  0.29320000  1.0 -0.1624822335
C  C100  1  0.46680000  0.98800000  0.29990000  1.0 0.0412269074
C  C101  1  0.46650000  0.04970000  0.31420000  1.0 -0.1784033041
C  C102  1  0.48980000  0.09640000  0.28440000  1.0 0.0752929773
C  C103  1  0.51020000  0.07810000  0.24120000  1.0 -0.1624822335
C  C104  1  0.50750000  0.01340000  0.23010000  1.0 0.0727707596
C  C105  1  0.49300000  0.16300000  0.29570000  1.0 0.2277138315
C  C106  1  0.90920000  0.20820000  0.04600000  1.0 0.5668406077
C  C107  1  0.84080000  0.21030000  0.01230000  1.0 -0.1169859415
C  C108  1  0.82550000  0.16570000  0.98020000  1.0 -0.1263944651
C  C109  1  0.75240000  0.18070000  0.95330000  1.0 -0.1120953841
C  C110  1  0.71540000  0.23430000  0.96620000  1.0 -0.1024148526
C  C111  1  0.63790000  0.26570000  0.94600000  1.0 0.5814251367
C  C112  1  0.87980000  0.41770000  0.05540000  1.0 0.5432780858
C  C113  1  0.81050000  0.46190000  0.04270000  1.0 -0.1424780201
C  C114  1  0.78410000  0.47900000  0.00060000  1.0 -0.1024148526
C  C115  1  0.86750000  0.09270000  0.16350000  1.0 0.5814251367
C  C116  1  0.80440000  0.04290000  0.15210000  1.0 -0.1624822335
C  C117  1  0.78160000  0.02460000  0.11100000  1.0 -0.1120953841
C  C118  1  0.12830000  0.08770000  0.15130000  1.0 0.5647065368
C  C119  1  0.19390000  0.03980000  0.16610000  1.0 -0.1120953841
C  C120  1  0.21830000  0.02240000  0.20680000  1.0 -0.1658894642
C  C121  1  0.96680000  0.51200000  0.20010000  1.0 0.0412269074
C  C122  1  0.96650000  0.45030000  0.18580000  1.0 -0.1784033041
C  C123  1  0.98980000  0.40360000  0.21560000  1.0 0.0727707596
C  C124  1  0.01020000  0.42190000  0.25880000  1.0 -0.1624822335
C  C125  1  0.00750000  0.48660000  0.26990000  1.0 0.0727707596
C  C126  1  0.99300000  0.33700000  0.20430000  1.0 0.2277138315
C  C127  1  0.09080000  0.70820000  0.45400000  1.0 0.5668406077
C  C128  1  0.15920000  0.71030000  0.48770000  1.0 -0.1120953841
C  C129  1  0.17450000  0.66570000  0.51980000  1.0 -0.1263944651
C  C130  1  0.24760000  0.68070000  0.54670000  1.0 -0.1120953841
C  C131  1  0.28460000  0.73430000  0.53380000  1.0 -0.1024148526
C  C132  1  0.36210000  0.76570000  0.55400000  1.0 0.5814251367
C  C133  1  0.12020000  0.91770000  0.44460000  1.0 0.5432780858
C  C134  1  0.18950000  0.96190000  0.45730000  1.0 -0.1424780201
C  C135  1  0.21590000  0.97900000  0.49940000  1.0 -0.1024148526
C  C136  1  0.13250000  0.59270000  0.33650000  1.0 0.5814251367
C  C137  1  0.19560000  0.54290000  0.34790000  1.0 -0.1624822335
C  C138  1  0.21840000  0.52460000  0.38900000  1.0 -0.1120953841
C  C139  1  0.87170000  0.58770000  0.34870000  1.0 0.5647065368
C  C140  1  0.80610000  0.53980000  0.33390000  1.0 -0.1120953841
C  C141  1  0.78170000  0.52240000  0.29320000  1.0 -0.1624822335
C  C142  1  0.03320000  0.01200000  0.29990000  1.0 0.0412269074
C  C143  1  0.03350000  0.95030000  0.31420000  1.0 -0.1784033041
C  C144  1  0.01020000  0.90360000  0.28440000  1.0 0.0727707596
C  C145  1  0.98980000  0.92190000  0.24120000  1.0 -0.1624822335
C  C146  1  0.99250000  0.98660000  0.23010000  1.0 0.0727707596
C  C147  1  0.00700000  0.83700000  0.29570000  1.0 0.2277138315
C  C148  1  0.59080000  0.79180000  0.04600000  1.0 0.5668406077
C  C149  1  0.65920000  0.78970000  0.01230000  1.0 -0.1120953841
C  C150  1  0.67450000  0.83430000  0.98020000  1.0 -0.1263944651
C  C151  1  0.74760000  0.81930000  0.95330000  1.0 -0.1120953841
C  C152  1  0.78460000  0.76570000  0.96620000  1.0 -0.1024148526
C  C153  1  0.86210000  0.73430000  0.94600000  1.0 0.5814251367
C  C154  1  0.62020000  0.58230000  0.05540000  1.0 0.5432780858
C  C155  1  0.68950000  0.53810000  0.04270000  1.0 -0.1424780201
C  C156  1  0.71590000  0.52100000  0.00060000  1.0 -0.1024148526
C  C157  1  0.63250000  0.90730000  0.16350000  1.0 0.5814251367
C  C158  1  0.69560000  0.95710000  0.15210000  1.0 -0.1624822335
C  C159  1  0.71840000  0.97540000  0.11100000  1.0 -0.1120953841
C  C160  1  0.37170000  0.91230000  0.15130000  1.0 0.5668406077
C  C161  1  0.30610000  0.96020000  0.16610000  1.0 -0.1120953841
C  C162  1  0.28170000  0.97760000  0.20680000  1.0 -0.1624822335
C  C163  1  0.53320000  0.48800000  0.20010000  1.0 0.0412269074
C  C164  1  0.53350000  0.54970000  0.18580000  1.0 -0.1784033041
C  C165  1  0.51020000  0.59640000  0.21560000  1.0 0.0752929773
C  C166  1  0.48980000  0.57810000  0.25880000  1.0 -0.1624822335
C  C167  1  0.49250000  0.51340000  0.26990000  1.0 0.0727707596
C  C168  1  0.50700000  0.66300000  0.20430000  1.0 0.2277138315
S  S1  1  0.73501000  0.76720000  0.51161000  1.0 0.2061055904
S  S2  1  0.24160000  0.50510000  0.62651000  1.0 0.1713141806
S  S3  1  0.23501000  0.73280000  0.98839000  1.0 0.2061055904
S  S4  1  0.74160000  0.99490000  0.87349000  1.0 0.1713141806
S  S5  1  0.76499000  0.23280000  0.51161000  1.0 0.2061055904
S  S6  1  0.25840000  0.49490000  0.62651000  1.0 0.1713141806
S  S7  1  0.26499000  0.26720000  0.98839000  1.0 0.2061055904
S  S8  1  0.75840000  0.00510000  0.87349000  1.0 0.1713141806
S  S9  1  0.26499000  0.23280000  0.48839000  1.0 0.2061055904
S  S10  1  0.75840000  0.49490000  0.37349000  1.0 0.1713141806
S  S11  1  0.76499000  0.26720000  0.01161000  1.0 0.2061055904
S  S12  1  0.25840000  0.00510000  0.12651000  1.0 0.1713141806
S  S13  1  0.23501000  0.76720000  0.48839000  1.0 0.2046609845
S  S14  1  0.74160000  0.50510000  0.37349000  1.0 0.1713141806
S  S15  1  0.73501000  0.73280000  0.01161000  1.0 0.2061055904
S  S16  1  0.24160000  0.99490000  0.12651000  1.0 0.1713141806
S  S17  1  0.75000000  0.00000000  0.58085000  1.0 0.1466646682
S  S18  1  0.25000000  0.50000000  0.91915000  1.0 0.1466646682
S  S19  1  0.25000000  0.00000000  0.41915000  1.0 0.1466646682
S  S20  1  0.75000000  0.50000000  0.08085000  1.0 0.1466646682
S  S21  1  0.75000000  0.50000000  0.69071000  1.0 0.1558893349
S  S22  1  0.25000000  0.00000000  0.80929000  1.0 0.1558893349
S  S23  1  0.25000000  0.50000000  0.30929000  1.0 0.1558893349
S  S24  1  0.75000000  0.00000000  0.19071000  1.0 0.1558893349
N  N1  1  0.51100000  0.03150000  0.74060000  1.0 -0.2403418031
N  N2  1  0.50500000  0.81270000  0.66271000  1.0 -0.2403418031
N  N3  1  0.50200000  0.74990000  0.66879000  1.0 -0.0601876128
N  N4  1  0.50170000  0.73770000  0.71137000  1.0 -0.0725060927
N  N5  1  0.50500000  0.79090000  0.73407000  1.0 -0.2477363198
N  N6  1  0.01100000  0.46850000  0.75940000  1.0 -0.2403418031
N  N7  1  0.00500000  0.68730000  0.83729000  1.0 -0.2403418031
N  N8  1  0.00200000  0.75010000  0.83121000  1.0 -0.0601876128
N  N9  1  0.00170000  0.76230000  0.78863000  1.0 -0.0725060927
N  N10  1  0.00500000  0.70910000  0.76593000  1.0 -0.2403418031
N  N11  1  0.98900000  0.96850000  0.74060000  1.0 -0.2403418031
N  N12  1  0.99500000  0.18730000  0.66271000  1.0 -0.2403418031
N  N13  1  0.99800000  0.25010000  0.66879000  1.0 -0.0601876128
N  N14  1  0.99830000  0.26230000  0.71137000  1.0 -0.0725060927
N  N15  1  0.99500000  0.20910000  0.73407000  1.0 -0.2477363198
N  N16  1  0.48900000  0.53150000  0.75940000  1.0 -0.2403418031
N  N17  1  0.49500000  0.31270000  0.83729000  1.0 -0.2403418031
N  N18  1  0.49800000  0.24990000  0.83121000  1.0 -0.0601876128
N  N19  1  0.49830000  0.23770000  0.78863000  1.0 -0.0725060927
N  N20  1  0.49500000  0.29090000  0.76593000  1.0 -0.2477363198
N  N21  1  0.48900000  0.96850000  0.25940000  1.0 -0.2403418031
N  N22  1  0.49500000  0.18730000  0.33729000  1.0 -0.2403418031
N  N23  1  0.49800000  0.25010000  0.33121000  1.0 -0.0601876128
N  N24  1  0.49830000  0.26230000  0.28863000  1.0 -0.0725060927
N  N25  1  0.49500000  0.20910000  0.26593000  1.0 -0.2477363198
N  N26  1  0.98900000  0.53150000  0.24060000  1.0 -0.2403418031
N  N27  1  0.99500000  0.31270000  0.16271000  1.0 -0.2403418031
N  N28  1  0.99800000  0.24990000  0.16879000  1.0 -0.0601876128
N  N29  1  0.99830000  0.23770000  0.21137000  1.0 -0.0725060927
N  N30  1  0.99500000  0.29090000  0.23407000  1.0 -0.2477363198
N  N31  1  0.01100000  0.03150000  0.25940000  1.0 -0.2403418031
N  N32  1  0.00500000  0.81270000  0.33729000  1.0 -0.2403418031
N  N33  1  0.00200000  0.74990000  0.33121000  1.0 -0.0601876128
N  N34  1  0.00170000  0.73770000  0.28863000  1.0 -0.0725060927
N  N35  1  0.00500000  0.79090000  0.26593000  1.0 -0.2477363198
N  N36  1  0.51100000  0.46850000  0.24060000  1.0 -0.2403418031
N  N37  1  0.50500000  0.68730000  0.16271000  1.0 -0.2403418031
N  N38  1  0.50200000  0.75010000  0.16879000  1.0 -0.0601876128
N  N39  1  0.50170000  0.76230000  0.21137000  1.0 -0.0725060927
N  N40  1  0.50500000  0.70910000  0.23407000  1.0 -0.2403418031
O  O1  1  0.53450000  0.66420000  0.54330000  1.0 -0.4970429556
O  O2  1  0.58890000  0.75010000  0.57476000  1.0 -0.5522428576
O  O3  1  0.88690000  0.74950000  0.40917000  1.0 -0.5402556419
O  O4  1  0.89780000  0.81030000  0.46780000  1.0 -0.5108800505
O  O5  1  0.57670000  0.89230000  0.52600000  1.0 -0.4941150878
O  O6  1  0.60870000  0.90820000  0.59550000  1.0 -0.5402556419
O  O7  1  0.62050000  0.60330000  0.70220000  1.0 -0.5292425845
O  O8  1  0.59930000  0.61770000  0.63090000  1.0 -0.4970429556
O  O9  1  0.40830000  0.62060000  0.68056000  1.0 -0.5522428576
O  O10  1  0.38520000  0.59350000  0.61111000  1.0 -0.4674680132
O  O11  1  0.03450000  0.83580000  0.95670000  1.0 -0.4941150878
O  O12  1  0.08890000  0.74990000  0.92524000  1.0 -0.5522428576
O  O13  1  0.38690000  0.75050000  0.09083000  1.0 -0.5402556419
O  O14  1  0.39780000  0.68970000  0.03220000  1.0 -0.5108800505
O  O15  1  0.07670000  0.60770000  0.97400000  1.0 -0.4941150878
O  O16  1  0.10870000  0.59180000  0.90450000  1.0 -0.5402556419
O  O17  1  0.12050000  0.89670000  0.79780000  1.0 -0.5292425845
O  O18  1  0.09930000  0.88230000  0.86910000  1.0 -0.4970429556
O  O19  1  0.90830000  0.87940000  0.81944000  1.0 -0.5522428576
O  O20  1  0.88520000  0.90650000  0.88889000  1.0 -0.4674680132
O  O21  1  0.96550000  0.33580000  0.54330000  1.0 -0.4970429556
O  O22  1  0.91110000  0.24990000  0.57476000  1.0 -0.5522428576
O  O23  1  0.61310000  0.25050000  0.40917000  1.0 -0.5402556419
O  O24  1  0.60220000  0.18970000  0.46780000  1.0 -0.5108800505
O  O25  1  0.92330000  0.10770000  0.52600000  1.0 -0.4941150878
O  O26  1  0.89130000  0.09180000  0.59550000  1.0 -0.5402556419
O  O27  1  0.87950000  0.39670000  0.70220000  1.0 -0.5292425845
O  O28  1  0.90070000  0.38230000  0.63090000  1.0 -0.4970429556
O  O29  1  0.09170000  0.37940000  0.68056000  1.0 -0.5522428576
O  O30  1  0.11480000  0.40650000  0.61111000  1.0 -0.4674680132
O  O31  1  0.46550000  0.16420000  0.95670000  1.0 -0.4970429556
O  O32  1  0.41110000  0.25010000  0.92524000  1.0 -0.5522428576
O  O33  1  0.11310000  0.24950000  0.09083000  1.0 -0.5292425845
O  O34  1  0.10220000  0.31030000  0.03220000  1.0 -0.5108800505
O  O35  1  0.42330000  0.39230000  0.97400000  1.0 -0.4941150878
O  O36  1  0.39130000  0.40820000  0.90450000  1.0 -0.5402556419
O  O37  1  0.37950000  0.10330000  0.79780000  1.0 -0.5292425845
O  O38  1  0.40070000  0.11770000  0.86910000  1.0 -0.4970429556
O  O39  1  0.59170000  0.12060000  0.81944000  1.0 -0.5522428576
O  O40  1  0.61480000  0.09350000  0.88889000  1.0 -0.4674680132
O  O41  1  0.46550000  0.33580000  0.45670000  1.0 -0.4970429556
O  O42  1  0.41110000  0.24990000  0.42524000  1.0 -0.5522428576
O  O43  1  0.11310000  0.25050000  0.59083000  1.0 -0.5402556419
O  O44  1  0.10220000  0.18970000  0.53220000  1.0 -0.5108800505
O  O45  1  0.42330000  0.10770000  0.47400000  1.0 -0.4941150878
O  O46  1  0.39130000  0.09180000  0.40450000  1.0 -0.5402556419
O  O47  1  0.37950000  0.39670000  0.29780000  1.0 -0.5292425845
O  O48  1  0.40070000  0.38230000  0.36910000  1.0 -0.4970429556
O  O49  1  0.59170000  0.37940000  0.31944000  1.0 -0.5522428576
O  O50  1  0.61480000  0.40650000  0.38889000  1.0 -0.4674680132
O  O51  1  0.96550000  0.16420000  0.04330000  1.0 -0.4970429556
O  O52  1  0.91110000  0.25010000  0.07476000  1.0 -0.5522428576
O  O53  1  0.61310000  0.24950000  0.90917000  1.0 -0.5292425845
O  O54  1  0.60220000  0.31030000  0.96780000  1.0 -0.5108800505
O  O55  1  0.92330000  0.39230000  0.02600000  1.0 -0.4941150878
O  O56  1  0.89130000  0.40820000  0.09550000  1.0 -0.5402556419
O  O57  1  0.87950000  0.10330000  0.20220000  1.0 -0.5292425845
O  O58  1  0.90070000  0.11770000  0.13090000  1.0 -0.4970429556
O  O59  1  0.09170000  0.12060000  0.18056000  1.0 -0.5522428576
O  O60  1  0.11480000  0.09350000  0.11111000  1.0 -0.4674680132
O  O61  1  0.03450000  0.66420000  0.45670000  1.0 -0.4970429556
O  O62  1  0.08890000  0.75010000  0.42524000  1.0 -0.5522428576
O  O63  1  0.38690000  0.74950000  0.59083000  1.0 -0.5402556419
O  O64  1  0.39780000  0.81030000  0.53220000  1.0 -0.5108800505
O  O65  1  0.07670000  0.89230000  0.47400000  1.0 -0.4941150878
O  O66  1  0.10870000  0.90820000  0.40450000  1.0 -0.5402556419
O  O67  1  0.12050000  0.60330000  0.29780000  1.0 -0.5292425845
O  O68  1  0.09930000  0.61770000  0.36910000  1.0 -0.4970429556
O  O69  1  0.90830000  0.62060000  0.31944000  1.0 -0.5522428576
O  O70  1  0.88520000  0.59350000  0.38889000  1.0 -0.4674680132
O  O71  1  0.53450000  0.83580000  0.04330000  1.0 -0.4941150878
O  O72  1  0.58890000  0.74990000  0.07476000  1.0 -0.5522428576
O  O73  1  0.88690000  0.75050000  0.90917000  1.0 -0.5402556419
O  O74  1  0.89780000  0.68970000  0.96780000  1.0 -0.5108800505
O  O75  1  0.57670000  0.60770000  0.02600000  1.0 -0.4941150878
O  O76  1  0.60870000  0.59180000  0.09550000  1.0 -0.5402556419
O  O77  1  0.62050000  0.89670000  0.20220000  1.0 -0.5292425845
O  O78  1  0.59930000  0.88230000  0.13090000  1.0 -0.4970429556
O  O79  1  0.40830000  0.87940000  0.18056000  1.0 -0.5522428576
O  O80  1  0.38520000  0.90650000  0.11111000  1.0 -0.4674680132
