# DDEC6 charges by PACMAN v1.1 (https://github.com/mtap-research/PACMAN-charge/)
data_CEVBOX_ASR_pacman
_symmetry_space_group_name_H-M   'P 1'
_cell_length_a   12.35960000
_cell_length_b   18.68030000
_cell_length_c   23.93010000
_cell_angle_alpha   101.18100000
_cell_angle_beta   100.76600000
_cell_angle_gamma   89.60100000
_symmetry_Int_Tables_number   1
_chemical_formula_structural   Co3H46C78(NO6)2
_chemical_formula_sum   'Co6 H92 C156 N4 O24'
_cell_volume   5322.28083928
_cell_formula_units_Z   2
loop_
 _symmetry_equiv_pos_site_id
 _symmetry_equiv_pos_as_xyz
  1  'x, y, z'
loop_
 _atom_site_type_symbol
 _atom_site_label
 _atom_site_symmetry_multiplicity
 _atom_site_fract_x
 _atom_site_fract_y
 _atom_site_fract_z
 _atom_site_occupancy
 _atom_site_charge
Co  Co1  1  0.68541000  0.54184000  0.41487000  1.0 0.9954843423
Co  Co2  1  0.91833000  0.50933000  0.12097000  1.0 0.9324225089
Co  Co3  1  0.31459000  0.45816000  0.58513000  1.0 0.9954843423
Co  Co4  1  0.08167000  0.49067000  0.87903000  1.0 0.9324225089
Co  Co5  1  0.50000000  0.50000000  0.50000000  1.0 1.080071201
Co  Co6  1  0.00000000  0.50000000  0.00000000  1.0 1.0412343642
H  H1  1  0.00690000  0.68710000  0.79860000  1.0 0.1196307878
H  H2  1  0.14970000  0.61800000  0.36360000  1.0 0.1196307878
H  H3  1  0.92080000  0.30930000  0.98010000  1.0 0.1286956987
H  H4  1  0.86960000  0.74140000  0.28050000  1.0 0.1286956987
H  H5  1  0.14870000  0.29870000  0.12010000  1.0 0.1196307878
H  H6  1  0.47420000  0.75480000  0.41840000  1.0 0.1196307878
H  H7  1  0.31250000  0.56290000  0.38770000  1.0 0.1286956987
H  H8  1  0.99330000  0.94950000  0.89640000  1.0 0.1286956987
H  H9  1  0.14080000  0.84600000  0.43260000  1.0 0.1196307878
H  H10  1  0.59170000  0.28080000  0.47580000  1.0 0.1196307878
H  H11  1  0.31010000  0.81130000  0.39890000  1.0 0.1123270629
H  H12  1  0.83260000  0.65990000  0.73790000  1.0 0.1196307878
H  H13  1  0.95160000  0.06570000  0.93720000  1.0 0.1123270629
H  H14  1  0.19810000  0.62180000  0.23870000  1.0 0.1123270629
H  H15  1  0.03100000  0.68390000  0.30010000  1.0 0.1286956987
H  H16  1  0.95790000  0.19140000  0.93940000  1.0 0.1123270629
H  H17  1  0.97710000  0.90190000  0.41540000  1.0 0.1196307878
H  H18  1  0.92260000  0.97340000  0.33040000  1.0 0.1286956987
H  H19  1  0.78240000  0.32240000  0.36960000  1.0 0.1196307878
H  H20  1  0.09480000  0.92540000  0.79940000  1.0 0.1402587917
H  H21  1  0.41960000  0.71500000  0.13460000  1.0 0.1123270629
H  H22  1  0.71880000  0.61430000  0.93480000  1.0 0.1286956987
H  H23  1  0.18740000  0.18220000  0.07820000  1.0 0.1123270629
H  H24  1  0.38540000  0.78620000  0.03230000  1.0 0.1196307878
H  H25  1  0.82100000  0.19990000  0.34880000  1.0 0.1123270629
H  H26  1  0.58330000  0.68910000  0.90600000  1.0 0.1123270629
H  H27  1  0.50580000  0.78990000  0.89080000  1.0 0.1123270629
H  H28  1  0.70520000  0.75020000  0.35660000  1.0 0.1402587917
H  H29  1  0.54340000  0.69030000  0.30990000  1.0 0.1196307878
H  H30  1  0.11310000  0.75680000  0.87930000  1.0 0.1286956987
H  H31  1  0.23740000  0.85050000  0.99830000  1.0 0.1286956987
H  H32  1  0.26320000  0.10700000  0.01010000  1.0 0.1196307878
H  H33  1  0.98260000  0.75380000  0.63790000  1.0 0.1123270629
H  H34  1  0.63000000  0.16080000  0.45680000  1.0 0.1123270629
H  H35  1  0.30870000  0.99390000  0.96560000  1.0 0.1286956987
H  H36  1  0.69240000  0.68440000  0.09790000  1.0 0.1402587917
H  H37  1  0.35190000  0.84990000  0.85560000  1.0 0.1286956987
H  H38  1  0.72520000  0.59230000  0.65830000  1.0 0.1286956987
H  H39  1  0.65280000  0.92810000  0.38570000  1.0 0.1286956987
H  H40  1  0.51430000  0.81760000  0.19340000  1.0 0.1196307878
H  H41  1  0.87730000  0.68450000  0.55850000  1.0 0.1286956987
H  H42  1  0.35850000  0.68340000  0.28510000  1.0 0.1042150012
H  H43  1  0.26000000  0.65160000  0.08750000  1.0 0.1196307878
H  H44  1  0.67320000  0.87930000  0.24170000  1.0 0.1286956987
H  H45  1  0.89660000  0.09630000  0.35970000  1.0 0.1123270629
H  H46  1  0.62050000  0.05020000  0.40950000  1.0 0.1123270629
H  H47  1  0.99310000  0.31290000  0.20140000  1.0 0.1196307878
H  H48  1  0.85030000  0.38200000  0.63640000  1.0 0.1196307878
H  H49  1  0.07920000  0.69070000  0.01990000  1.0 0.1286956987
H  H50  1  0.13040000  0.25860000  0.71950000  1.0 0.1286956987
H  H51  1  0.85130000  0.70130000  0.87990000  1.0 0.1196307878
H  H52  1  0.52580000  0.24520000  0.58160000  1.0 0.1196307878
H  H53  1  0.68750000  0.43710000  0.61230000  1.0 0.1286956987
H  H54  1  0.00670000  0.05050000  0.10360000  1.0 0.1286956987
H  H55  1  0.85920000  0.15400000  0.56740000  1.0 0.1196307878
H  H56  1  0.40830000  0.71920000  0.52420000  1.0 0.1196307878
H  H57  1  0.68990000  0.18870000  0.60110000  1.0 0.1123270629
H  H58  1  0.16740000  0.34010000  0.26210000  1.0 0.1196307878
H  H59  1  0.04840000  0.93430000  0.06280000  1.0 0.1123270629
H  H60  1  0.80190000  0.37820000  0.76130000  1.0 0.1123270629
H  H61  1  0.96900000  0.31610000  0.69990000  1.0 0.1286956987
H  H62  1  0.04210000  0.80860000  0.06060000  1.0 0.1123270629
H  H63  1  0.02290000  0.09810000  0.58460000  1.0 0.1196307878
H  H64  1  0.07740000  0.02660000  0.66960000  1.0 0.1286956987
H  H65  1  0.21760000  0.67760000  0.63040000  1.0 0.1196307878
H  H66  1  0.90520000  0.07460000  0.20060000  1.0 0.1402587917
H  H67  1  0.58040000  0.28500000  0.86540000  1.0 0.1123270629
H  H68  1  0.28120000  0.38570000  0.06520000  1.0 0.1286956987
H  H69  1  0.81260000  0.81780000  0.92180000  1.0 0.1123270629
H  H70  1  0.61460000  0.21380000  0.96770000  1.0 0.1196307878
H  H71  1  0.17900000  0.80010000  0.65120000  1.0 0.1123270629
H  H72  1  0.41670000  0.31090000  0.09400000  1.0 0.1123270629
H  H73  1  0.49420000  0.21010000  0.10920000  1.0 0.1123270629
H  H74  1  0.29480000  0.24980000  0.64340000  1.0 0.1402587917
H  H75  1  0.45660000  0.30970000  0.69010000  1.0 0.1196307878
H  H76  1  0.88690000  0.24320000  0.12070000  1.0 0.1286956987
H  H77  1  0.76260000  0.14950000  0.00170000  1.0 0.1286956987
H  H78  1  0.73680000  0.89300000  0.98990000  1.0 0.1196307878
H  H79  1  0.01740000  0.24620000  0.36210000  1.0 0.1123270629
H  H80  1  0.37000000  0.83920000  0.54320000  1.0 0.1123270629
H  H81  1  0.69130000  0.00610000  0.03440000  1.0 0.1286956987
H  H82  1  0.30760000  0.31560000  0.90210000  1.0 0.1402587917
H  H83  1  0.64810000  0.15010000  0.14440000  1.0 0.1286956987
H  H84  1  0.27480000  0.40770000  0.34170000  1.0 0.1286956987
H  H85  1  0.34720000  0.07190000  0.61430000  1.0 0.1286956987
H  H86  1  0.48570000  0.18240000  0.80660000  1.0 0.1196307878
H  H87  1  0.12270000  0.31550000  0.44150000  1.0 0.1286956987
H  H88  1  0.64150000  0.31660000  0.71490000  1.0 0.1042150012
H  H89  1  0.74000000  0.34840000  0.91250000  1.0 0.1196307878
H  H90  1  0.32680000  0.12070000  0.75830000  1.0 0.1286956987
H  H91  1  0.10340000  0.90370000  0.64030000  1.0 0.1123270629
H  H92  1  0.37950000  0.94980000  0.59050000  1.0 0.1123270629
C  C1  1  0.51630000  0.61550000  0.41630000  1.0 0.556369116
C  C2  1  0.41050000  0.65260000  0.40560000  1.0 -0.0296256063
C  C3  1  0.10570000  0.75840000  0.36680000  1.0 0.0579506458
C  C4  1  0.72100000  0.64110000  0.01960000  1.0 -0.0198406209
C  C5  1  0.78920000  0.63000000  0.59910000  1.0 -0.0354779666
C  C6  1  0.21180000  0.72210000  0.38010000  1.0 0.0728052859
C  C7  1  0.68240000  0.31470000  0.42500000  1.0 -0.0198406209
C  C8  1  0.98560000  0.76350000  0.74950000  1.0 0.0359267867
C  C9  1  0.02430000  0.73530000  0.79840000  1.0 -0.1208169633
C  C10  1  0.91810000  0.71750000  0.69750000  1.0 0.0777471992
C  C11  1  0.21480000  0.64610000  0.37580000  1.0 -0.1411948269
C  C12  1  0.97410000  0.28380000  0.00040000  1.0 -0.096689109
C  C13  1  0.72060000  0.58490000  0.54670000  1.0 0.6014118891
C  C14  1  0.02950000  0.31620000  0.05460000  1.0 -0.0198406209
C  C15  1  0.92350000  0.76270000  0.31180000  1.0 -0.1708877642
C  C16  1  0.11000000  0.27750000  0.08350000  1.0 -0.096689109
C  C17  1  0.15580000  0.95930000  0.92500000  1.0 0.1714908144
C  C18  1  0.21050000  0.62930000  0.15760000  1.0 -0.0296256063
C  C19  1  0.73240000  0.16600000  0.40310000  1.0 0.0728052859
C  C20  1  0.40860000  0.72720000  0.40830000  1.0 -0.1060473272
C  C21  1  0.31240000  0.61310000  0.38940000  1.0 -0.0913872393
C  C22  1  0.90330000  0.82840000  0.34640000  1.0 0.1714908144
C  C23  1  0.79090000  0.93810000  0.35560000  1.0 0.1605569249
C  C24  1  0.46100000  0.77920000  0.96490000  1.0 0.0728052859
C  C25  1  0.04960000  0.98160000  0.91820000  1.0 -0.1791267129
C  C26  1  0.08610000  0.82450000  0.40180000  1.0 -0.1411948269
C  C27  1  0.27810000  0.85530000  0.92300000  1.0 0.1473358682
C  C28  1  0.80850000  0.58990000  0.03630000  1.0 0.6014118891
C  C29  1  0.65380000  0.39380000  0.43730000  1.0 0.6014118891
C  C30  1  0.11530000  0.84860000  0.84790000  1.0 0.1714908144
C  C31  1  0.07700000  0.17500000  0.00410000  1.0 0.0728052859
C  C32  1  0.63900000  0.26500000  0.45020000  1.0 -0.0913872393
C  C33  1  0.31010000  0.76100000  0.39620000  1.0 -0.1592727576
C  C34  1  0.84120000  0.66630000  0.70140000  1.0 -0.1497640489
C  C35  1  0.02430000  0.05140000  0.94360000  1.0 -0.1411948269
C  C36  1  0.70670000  0.82210000  0.30540000  1.0 0.1473358682
C  C37  1  0.24250000  0.64020000  0.21720000  1.0 -0.0913872393
C  C38  1  0.55420000  0.73340000  0.98460000  1.0 0.0506404493
C  C39  1  0.02150000  0.72880000  0.32310000  1.0 -0.1208169633
C  C40  1  0.99730000  0.21310000  0.97580000  1.0 -0.1497640489
C  C41  1  0.40660000  0.70680000  0.21470000  1.0 0.0777471992
C  C42  1  0.01360000  0.83640000  0.75050000  1.0 -0.0913872393
C  C43  1  0.98760000  0.85790000  0.39140000  1.0 -0.1708877642
C  C44  1  0.86240000  0.98860000  0.34740000  1.0 -0.1791267129
C  C45  1  0.10950000  0.58630000  0.12880000  1.0 0.5805840394
C  C46  1  0.51100000  0.74630000  0.24510000  1.0 0.0579506458
C  C47  1  0.75140000  0.28970000  0.38740000  1.0 -0.096689109
C  C48  1  0.07700000  0.87700000  0.79920000  1.0 -0.1919815788
C  C49  1  0.37520000  0.69610000  0.15610000  1.0 -0.1497640489
C  C50  1  0.68610000  0.64390000  0.96260000  1.0 -0.096689109
C  C51  1  0.13320000  0.20760000  0.05830000  1.0 -0.1497640489
C  C52  1  0.37990000  0.79890000  0.99620000  1.0 -0.1319084657
C  C53  1  0.00180000  0.39000000  0.08330000  1.0 0.556369116
C  C54  1  0.10340000  0.09950000  0.97750000  1.0 0.0579506458
C  C55  1  0.77570000  0.21620000  0.37540000  1.0 -0.1592727576
C  C56  1  0.60500000  0.68870000  0.94530000  1.0 -0.1497640489
C  C57  1  0.45080000  0.80030000  0.91260000  1.0 -0.1411948269
C  C58  1  0.66620000  0.76480000  0.32380000  1.0 -0.1708877642
C  C59  1  0.56960000  0.72800000  0.29530000  1.0 -0.1208169633
C  C60  1  0.08810000  0.77720000  0.84690000  1.0 -0.1791267129
C  C61  1  0.29030000  0.83710000  0.97560000  1.0 -0.1708877642
C  C62  1  0.20800000  0.07600000  0.98590000  1.0 -0.1319084657
C  C63  1  0.93000000  0.72150000  0.64280000  1.0 -0.1497640489
C  C64  1  0.59030000  0.73270000  0.04230000  1.0 -0.1319084657
C  C65  1  0.66270000  0.19270000  0.43910000  1.0 -0.1497640489
C  C66  1  0.23550000  0.00750000  0.95970000  1.0 -0.1791267129
C  C67  1  0.67110000  0.68570000  0.05870000  1.0 -0.1208169633
C  C68  1  0.35850000  0.83730000  0.89180000  1.0 -0.1592727576
C  C69  1  0.77770000  0.62490000  0.65360000  1.0 -0.0913872393
C  C70  1  0.70180000  0.96200000  0.37950000  1.0 -0.1791267129
C  C71  1  0.55230000  0.80350000  0.22670000  1.0 -0.1319084657
C  C72  1  0.86700000  0.67940000  0.59500000  1.0 -0.0913872393
C  C73  1  0.33850000  0.67750000  0.24500000  1.0 -0.1497640489
C  C74  1  0.27900000  0.65810000  0.12770000  1.0 -0.0913872393
C  C75  1  0.64780000  0.84080000  0.25570000  1.0 -0.1708877642
C  C76  1  0.84560000  0.06270000  0.36440000  1.0 -0.1319084657
C  C77  1  0.75520000  0.08800000  0.38830000  1.0 0.0506404493
C  C78  1  0.68330000  0.03560000  0.39460000  1.0 -0.1319084657
C  C79  1  0.48370000  0.38450000  0.58370000  1.0 0.556369116
C  C80  1  0.58950000  0.34740000  0.59440000  1.0 -0.0296256063
C  C81  1  0.89430000  0.24160000  0.63320000  1.0 0.0579506458
C  C82  1  0.27900000  0.35890000  0.98040000  1.0 -0.0198406209
C  C83  1  0.21080000  0.37000000  0.40090000  1.0 -0.0354779666
C  C84  1  0.78820000  0.27790000  0.61990000  1.0 0.0728052859
C  C85  1  0.31760000  0.68530000  0.57500000  1.0 -0.0198406209
C  C86  1  0.01440000  0.23650000  0.25050000  1.0 0.0359267867
C  C87  1  0.97570000  0.26470000  0.20160000  1.0 -0.1208169633
C  C88  1  0.08190000  0.28250000  0.30250000  1.0 0.0777471992
C  C89  1  0.78520000  0.35390000  0.62420000  1.0 -0.1411948269
C  C90  1  0.02590000  0.71620000  0.99960000  1.0 -0.096689109
C  C91  1  0.27940000  0.41510000  0.45330000  1.0 0.6014118891
C  C92  1  0.97050000  0.68380000  0.94540000  1.0 -0.0198406209
C  C93  1  0.07650000  0.23730000  0.68820000  1.0 -0.1708877642
C  C94  1  0.89000000  0.72250000  0.91650000  1.0 -0.096689109
C  C95  1  0.84420000  0.04070000  0.07500000  1.0 0.1714908144
C  C96  1  0.78950000  0.37070000  0.84240000  1.0 -0.0296256063
C  C97  1  0.26760000  0.83400000  0.59690000  1.0 0.0728052859
C  C98  1  0.59140000  0.27280000  0.59170000  1.0 -0.1060473272
C  C99  1  0.68760000  0.38690000  0.61060000  1.0 -0.0913872393
C  C100  1  0.09670000  0.17160000  0.65360000  1.0 0.1714908144
C  C101  1  0.20910000  0.06190000  0.64440000  1.0 0.1473358682
C  C102  1  0.53900000  0.22080000  0.03510000  1.0 0.0728052859
C  C103  1  0.95040000  0.01840000  0.08180000  1.0 -0.1791267129
C  C104  1  0.91390000  0.17550000  0.59820000  1.0 -0.1319084657
C  C105  1  0.72190000  0.14470000  0.07700000  1.0 0.1473358682
C  C106  1  0.19150000  0.41010000  0.96370000  1.0 0.6014118891
C  C107  1  0.34620000  0.60620000  0.56270000  1.0 0.6014118891
C  C108  1  0.88470000  0.15140000  0.15210000  1.0 0.1605569249
C  C109  1  0.92300000  0.82500000  0.99590000  1.0 0.0728052859
C  C110  1  0.36100000  0.73500000  0.54980000  1.0 -0.0913872393
C  C111  1  0.68990000  0.23900000  0.60380000  1.0 -0.1592727576
C  C112  1  0.15880000  0.33370000  0.29860000  1.0 -0.1411948269
C  C113  1  0.97570000  0.94860000  0.05640000  1.0 -0.1411948269
C  C114  1  0.29330000  0.17790000  0.69460000  1.0 0.1473358682
C  C115  1  0.75750000  0.35980000  0.78280000  1.0 -0.0913872393
C  C116  1  0.44580000  0.26660000  0.01540000  1.0 0.0506404493
C  C117  1  0.97850000  0.27120000  0.67690000  1.0 -0.1208169633
C  C118  1  0.00270000  0.78690000  0.02420000  1.0 -0.1497640489
C  C119  1  0.59340000  0.29320000  0.78530000  1.0 0.0777471992
C  C120  1  0.98640000  0.16360000  0.24950000  1.0 -0.0913872393
C  C121  1  0.01240000  0.14210000  0.60860000  1.0 -0.1708877642
C  C122  1  0.13760000  0.01140000  0.65260000  1.0 -0.1708877642
C  C123  1  0.89050000  0.41370000  0.87120000  1.0 0.5805840394
C  C124  1  0.48900000  0.25370000  0.75490000  1.0 0.0579506458
C  C125  1  0.24860000  0.71030000  0.61260000  1.0 -0.096689109
C  C126  1  0.92300000  0.12300000  0.20080000  1.0 -0.1919815788
C  C127  1  0.62480000  0.30390000  0.84390000  1.0 -0.1497640489
C  C128  1  0.31390000  0.35610000  0.03740000  1.0 -0.096689109
C  C129  1  0.86680000  0.79240000  0.94170000  1.0 -0.1497640489
C  C130  1  0.62010000  0.20110000  0.00380000  1.0 -0.1319084657
C  C131  1  0.99820000  0.61000000  0.91670000  1.0 0.556369116
C  C132  1  0.89660000  0.90050000  0.02250000  1.0 0.0579506458
C  C133  1  0.22430000  0.78380000  0.62460000  1.0 -0.1592727576
C  C134  1  0.39500000  0.31130000  0.05470000  1.0 -0.1497640489
C  C135  1  0.54920000  0.19970000  0.08740000  1.0 -0.1411948269
C  C136  1  0.33380000  0.23520000  0.67620000  1.0 -0.1708877642
C  C137  1  0.43040000  0.27200000  0.70470000  1.0 -0.1208169633
C  C138  1  0.91190000  0.22280000  0.15310000  1.0 -0.1791267129
C  C139  1  0.70970000  0.16290000  0.02440000  1.0 -0.1708877642
C  C140  1  0.79200000  0.92400000  0.01410000  1.0 -0.1319084657
C  C141  1  0.07000000  0.27850000  0.35720000  1.0 -0.1497640489
C  C142  1  0.40970000  0.26730000  0.95770000  1.0 -0.1319084657
C  C143  1  0.33730000  0.80730000  0.56090000  1.0 -0.1497640489
C  C144  1  0.76450000  0.99250000  0.04030000  1.0 -0.1791267129
C  C145  1  0.32890000  0.31430000  0.94130000  1.0 -0.1208169633
C  C146  1  0.64150000  0.16270000  0.10820000  1.0 -0.1592727576
C  C147  1  0.22230000  0.37510000  0.34640000  1.0 -0.0913872393
C  C148  1  0.29820000  0.03800000  0.62050000  1.0 -0.1791267129
C  C149  1  0.44770000  0.19650000  0.77330000  1.0 -0.1319084657
C  C150  1  0.13300000  0.32060000  0.40500000  1.0 -0.096689109
C  C151  1  0.66150000  0.32250000  0.75500000  1.0 -0.1497640489
C  C152  1  0.72100000  0.34190000  0.87230000  1.0 -0.0913872393
C  C153  1  0.35220000  0.15920000  0.74430000  1.0 -0.1708877642
C  C154  1  0.15440000  0.93730000  0.63560000  1.0 -0.1411948269
C  C155  1  0.24480000  0.91200000  0.61170000  1.0 0.0506404493
C  C156  1  0.31670000  0.96440000  0.60540000  1.0 -0.1319084657
N  N1  1  0.18280000  0.89030000  0.89803000  1.0 -0.1708877642
N  N2  1  0.80320000  0.86290000  0.33560000  1.0 -0.1708877642
N  N3  1  0.81720000  0.10970000  0.10197000  1.0 -0.1708877642
N  N4  1  0.19680000  0.13710000  0.66440000  1.0 -0.1708877642
O  O1  1  0.51860000  0.55151000  0.42804000  1.0 -0.5953151682
O  O2  1  0.60340000  0.64492000  0.41051000  1.0 -0.5431271989
O  O3  1  0.75350000  0.58242000  0.49952000  1.0 -0.5714980959
O  O4  1  0.70330000  0.43545000  0.41408000  1.0 -0.5822795728
O  O5  1  0.94420000  0.43180000  0.05331000  1.0 -0.5864251354
O  O6  1  0.81790000  0.57908000  0.08842000  1.0 -0.5714980959
O  O7  1  0.04720000  0.57100000  0.16095000  1.0 -0.5431271989
O  O8  1  0.02880000  0.41002000  0.13670000  1.0 -0.5246038535
O  O9  1  0.63810000  0.55153000  0.55298000  1.0 -0.5470256308
O  O10  1  0.58600000  0.41152000  0.46890000  1.0 -0.5431271989
O  O11  1  0.86260000  0.56042000  0.00106000  1.0 -0.532230387
O  O12  1  0.09010000  0.56940000  0.07460000  1.0 -0.5714980959
O  O13  1  0.48140000  0.44849000  0.57196000  1.0 -0.5953151682
O  O14  1  0.39660000  0.35508000  0.58949000  1.0 -0.5431271989
O  O15  1  0.24650000  0.41758000  0.50048000  1.0 -0.5714980959
O  O16  1  0.29670000  0.56455000  0.58592000  1.0 -0.5822795728
O  O17  1  0.05580000  0.56820000  0.94669000  1.0 -0.5864251354
O  O18  1  0.18210000  0.42092000  0.91158000  1.0 -0.5714980959
O  O19  1  0.95280000  0.42900000  0.83905000  1.0 -0.5431271989
O  O20  1  0.97120000  0.58998000  0.86330000  1.0 -0.5246038535
O  O21  1  0.36190000  0.44847000  0.44702000  1.0 -0.5470256308
O  O22  1  0.41400000  0.58848000  0.53110000  1.0 -0.5431271989
O  O23  1  0.13740000  0.43958000  0.99894000  1.0 -0.532230387
O  O24  1  0.90990000  0.43060000  0.92540000  1.0 -0.5714980959
