# DDEC6 charges by PACMAN v1.1 (https://github.com/mtap-research/PACMAN-charge/)
data_CEVFIV_ASR_pacman
_symmetry_space_group_name_H-M   'P 1'
_cell_length_a   14.58590000
_cell_length_b   21.38300000
_cell_length_c   25.70430000
_cell_angle_alpha   90.00000000
_cell_angle_beta   90.00000000
_cell_angle_gamma   90.00000000
_symmetry_Int_Tables_number   1
_chemical_formula_structural   LiZnH30C29NO7
_chemical_formula_sum   'Li8 Zn8 H240 C232 N8 O56'
_cell_volume   8016.92183058
_cell_formula_units_Z   8
loop_
 _symmetry_equiv_pos_site_id
 _symmetry_equiv_pos_as_xyz
  1  'x, y, z'
loop_
 _atom_site_type_symbol
 _atom_site_label
 _atom_site_symmetry_multiplicity
 _atom_site_fract_x
 _atom_site_fract_y
 _atom_site_fract_z
 _atom_site_occupancy
 _atom_site_charge
Li  Li1  1  0.71300000  0.10280000  0.17580000  1.0 0.7808581283
Li  Li2  1  0.78700000  0.39720000  0.17580000  1.0 0.7808581283
Li  Li3  1  0.71300000  0.39720000  0.67580000  1.0 0.7808581283
Li  Li4  1  0.78700000  0.10280000  0.67580000  1.0 0.7808581283
Li  Li5  1  0.28700000  0.60280000  0.32420000  1.0 0.7808581283
Li  Li6  1  0.21300000  0.89720000  0.32420000  1.0 0.7808581283
Li  Li7  1  0.28700000  0.89720000  0.82420000  1.0 0.7808581283
Li  Li8  1  0.21300000  0.60280000  0.82420000  1.0 0.7808581283
Zn  Zn1  1  0.50086000  0.06336000  0.17796000  1.0 0.9143516039
Zn  Zn2  1  0.99914000  0.43664000  0.17796000  1.0 0.9158870196
Zn  Zn3  1  0.50086000  0.43664000  0.67796000  1.0 0.9158870196
Zn  Zn4  1  0.99914000  0.06336000  0.67796000  1.0 0.9143516039
Zn  Zn5  1  0.49914000  0.56336000  0.32204000  1.0 0.9143516039
Zn  Zn6  1  0.00086000  0.93664000  0.32204000  1.0 0.9158870196
Zn  Zn7  1  0.49914000  0.93664000  0.82204000  1.0 0.9143516039
Zn  Zn8  1  0.00086000  0.56336000  0.82204000  1.0 0.9143516039
H  H1  1  0.55960000  0.87120000  0.16250000  1.0 0.1219022455
H  H2  1  0.60590000  0.76660000  0.16610000  1.0 0.1091899993
H  H3  1  0.85380000  0.82140000  0.22090000  1.0 0.1219022455
H  H4  1  0.80450000  0.92520000  0.21700000  1.0 0.1278999003
H  H5  1  0.44320000  0.17820000  0.04230000  1.0 0.1278999003
H  H6  1  0.44210000  0.23230000  0.96420000  1.0 0.1219022455
H  H7  1  0.70910000  0.19230000  0.94260000  1.0 0.1091899993
H  H8  1  0.71170000  0.14100000  0.02290000  1.0 0.1278999003
H  H9  1  0.48440000  0.37740000  0.84060000  1.0 0.1278999003
H  H10  1  0.49060000  0.32400000  0.91930000  1.0 0.1219022455
H  H11  1  0.65940000  0.19620000  0.85580000  1.0 0.1219022455
H  H12  1  0.66020000  0.25170000  0.77840000  1.0 0.140978328
H  H13  1  0.87840000  0.25810000  0.12200000  1.0 0.0790201749
H  H14  1  0.81980000  0.20290000  0.09610000  1.0 0.1091899993
H  H15  1  0.77960000  0.24060000  0.14480000  1.0 0.0790201749
H  H16  1  0.08400000  0.22920000  0.17070000  1.0 0.0890446505
H  H17  1  0.01880000  0.24010000  0.12140000  1.0 0.0519642226
H  H18  1  0.99620000  0.27360000  0.17560000  1.0 0.0727564474
H  H19  1  0.07260000  0.15080000  0.21350000  1.0 0.0599881148
H  H20  1  0.97860000  0.14590000  0.24530000  1.0 0.0790201749
H  H21  1  0.99970000  0.09760000  0.19930000  1.0 0.0447470579
H  H22  1  0.97560000  0.09660000  0.24910000  1.0 0.0727564474
H  H23  1  0.96160000  0.04790000  0.20250000  1.0 0.0790201749
H  H24  1  0.87690000  0.06620000  0.23900000  1.0 0.1278999003
H  H25  1  0.08230000  0.22770000  0.17980000  1.0 0.0956947012
H  H26  1  0.05490000  0.19130000  0.23200000  1.0 0.0599881148
H  H27  1  0.09310000  0.15330000  0.18290000  1.0 0.0790201749
H  H28  1  0.99040000  0.25530000  0.12880000  1.0 0.0519642226
H  H29  1  0.93970000  0.19900000  0.09960000  1.0 0.0790201749
H  H30  1  0.88340000  0.24330000  0.13830000  1.0 0.0790201749
H  H31  1  0.94040000  0.62880000  0.16250000  1.0 0.1219022455
H  H32  1  0.89410000  0.73340000  0.16610000  1.0 0.1091899993
H  H33  1  0.64620000  0.67860000  0.22090000  1.0 0.1219022455
H  H34  1  0.69550000  0.57480000  0.21700000  1.0 0.1278999003
H  H35  1  0.05680000  0.32180000  0.04230000  1.0 0.1278999003
H  H36  1  0.05790000  0.26770000  0.96420000  1.0 0.1219022455
H  H37  1  0.79090000  0.30770000  0.94260000  1.0 0.1091899993
H  H38  1  0.78830000  0.35900000  0.02290000  1.0 0.1278999003
H  H39  1  0.01560000  0.12260000  0.84060000  1.0 0.1278999003
H  H40  1  0.00940000  0.17600000  0.91930000  1.0 0.1219022455
H  H41  1  0.84060000  0.30380000  0.85580000  1.0 0.1219022455
H  H42  1  0.83980000  0.24830000  0.77840000  1.0 0.140978328
H  H43  1  0.62160000  0.24190000  0.12200000  1.0 0.0790201749
H  H44  1  0.68020000  0.29710000  0.09610000  1.0 0.1091899993
H  H45  1  0.72040000  0.25940000  0.14480000  1.0 0.0790201749
H  H46  1  0.41600000  0.27080000  0.17070000  1.0 0.0890446505
H  H47  1  0.48120000  0.25990000  0.12140000  1.0 0.0519642226
H  H48  1  0.50380000  0.22640000  0.17560000  1.0 0.0727564474
H  H49  1  0.42740000  0.34920000  0.21350000  1.0 0.0599881148
H  H50  1  0.52140000  0.35410000  0.24530000  1.0 0.0790201749
H  H51  1  0.50030000  0.40240000  0.19930000  1.0 0.0447470579
H  H52  1  0.52440000  0.40340000  0.24910000  1.0 0.0727564474
H  H53  1  0.53840000  0.45210000  0.20250000  1.0 0.0790201749
H  H54  1  0.62310000  0.43380000  0.23900000  1.0 0.1278999003
H  H55  1  0.41770000  0.27230000  0.17980000  1.0 0.0956947012
H  H56  1  0.44510000  0.30870000  0.23200000  1.0 0.0599881148
H  H57  1  0.40690000  0.34670000  0.18290000  1.0 0.0790201749
H  H58  1  0.50960000  0.24470000  0.12880000  1.0 0.0519642226
H  H59  1  0.56030000  0.30100000  0.09960000  1.0 0.0790201749
H  H60  1  0.61660000  0.25670000  0.13830000  1.0 0.0790201749
H  H61  1  0.55960000  0.62880000  0.66250000  1.0 0.1219022455
H  H62  1  0.60590000  0.73340000  0.66610000  1.0 0.1091899993
H  H63  1  0.85380000  0.67860000  0.72090000  1.0 0.1219022455
H  H64  1  0.80450000  0.57480000  0.71700000  1.0 0.1278999003
H  H65  1  0.44320000  0.32180000  0.54230000  1.0 0.1278999003
H  H66  1  0.44210000  0.26770000  0.46420000  1.0 0.1219022455
H  H67  1  0.70910000  0.30770000  0.44260000  1.0 0.1091899993
H  H68  1  0.71170000  0.35900000  0.52290000  1.0 0.1278999003
H  H69  1  0.48440000  0.12260000  0.34060000  1.0 0.1278999003
H  H70  1  0.49060000  0.17600000  0.41930000  1.0 0.1219022455
H  H71  1  0.65940000  0.30380000  0.35580000  1.0 0.1219022455
H  H72  1  0.66020000  0.24830000  0.27840000  1.0 0.140978328
H  H73  1  0.87840000  0.24190000  0.62200000  1.0 0.0790201749
H  H74  1  0.81980000  0.29710000  0.59610000  1.0 0.1091899993
H  H75  1  0.77960000  0.25940000  0.64480000  1.0 0.0790201749
H  H76  1  0.08400000  0.27080000  0.67070000  1.0 0.0890446505
H  H77  1  0.01880000  0.25990000  0.62140000  1.0 0.0519642226
H  H78  1  0.99620000  0.22640000  0.67560000  1.0 0.0727564474
H  H79  1  0.07260000  0.34920000  0.71350000  1.0 0.0599881148
H  H80  1  0.97860000  0.35410000  0.74530000  1.0 0.0790201749
H  H81  1  0.99970000  0.40240000  0.69930000  1.0 0.0447470579
H  H82  1  0.97560000  0.40340000  0.74910000  1.0 0.0727564474
H  H83  1  0.96160000  0.45210000  0.70250000  1.0 0.0790201749
H  H84  1  0.87690000  0.43380000  0.73900000  1.0 0.1278999003
H  H85  1  0.08230000  0.27230000  0.67980000  1.0 0.0956947012
H  H86  1  0.05490000  0.30870000  0.73200000  1.0 0.0599881148
H  H87  1  0.09310000  0.34670000  0.68290000  1.0 0.0790201749
H  H88  1  0.99040000  0.24470000  0.62880000  1.0 0.0519642226
H  H89  1  0.93970000  0.30100000  0.59960000  1.0 0.0790201749
H  H90  1  0.88340000  0.25670000  0.63830000  1.0 0.0790201749
H  H91  1  0.94040000  0.87120000  0.66250000  1.0 0.1219022455
H  H92  1  0.89410000  0.76660000  0.66610000  1.0 0.1091899993
H  H93  1  0.64620000  0.82140000  0.72090000  1.0 0.1219022455
H  H94  1  0.69550000  0.92520000  0.71700000  1.0 0.1278999003
H  H95  1  0.05680000  0.17820000  0.54230000  1.0 0.1278999003
H  H96  1  0.05790000  0.23230000  0.46420000  1.0 0.1219022455
H  H97  1  0.79090000  0.19230000  0.44260000  1.0 0.1091899993
H  H98  1  0.78830000  0.14100000  0.52290000  1.0 0.1278999003
H  H99  1  0.01560000  0.37740000  0.34060000  1.0 0.1278999003
H  H100  1  0.00940000  0.32400000  0.41930000  1.0 0.1219022455
H  H101  1  0.84060000  0.19620000  0.35580000  1.0 0.1219022455
H  H102  1  0.83980000  0.25170000  0.27840000  1.0 0.140978328
H  H103  1  0.62160000  0.25810000  0.62200000  1.0 0.0790201749
H  H104  1  0.68020000  0.20290000  0.59610000  1.0 0.1091899993
H  H105  1  0.72040000  0.24060000  0.64480000  1.0 0.0790201749
H  H106  1  0.41600000  0.22920000  0.67070000  1.0 0.0890446505
H  H107  1  0.48120000  0.24010000  0.62140000  1.0 0.0519642226
H  H108  1  0.50380000  0.27360000  0.67560000  1.0 0.0727564474
H  H109  1  0.42740000  0.15080000  0.71350000  1.0 0.0599881148
H  H110  1  0.52140000  0.14590000  0.74530000  1.0 0.0790201749
H  H111  1  0.50030000  0.09760000  0.69930000  1.0 0.0447470579
H  H112  1  0.52440000  0.09660000  0.74910000  1.0 0.0727564474
H  H113  1  0.53840000  0.04790000  0.70250000  1.0 0.0790201749
H  H114  1  0.62310000  0.06620000  0.73900000  1.0 0.1278999003
H  H115  1  0.41770000  0.22770000  0.67980000  1.0 0.0956947012
H  H116  1  0.44510000  0.19130000  0.73200000  1.0 0.0599881148
H  H117  1  0.40690000  0.15330000  0.68290000  1.0 0.0790201749
H  H118  1  0.50960000  0.25530000  0.62880000  1.0 0.0519642226
H  H119  1  0.56030000  0.19900000  0.59960000  1.0 0.0790201749
H  H120  1  0.61660000  0.24330000  0.63830000  1.0 0.0790201749
H  H121  1  0.44040000  0.37120000  0.33750000  1.0 0.1219022455
H  H122  1  0.39410000  0.26660000  0.33390000  1.0 0.1091899993
H  H123  1  0.14620000  0.32140000  0.27910000  1.0 0.1219022455
H  H124  1  0.19550000  0.42520000  0.28300000  1.0 0.1278999003
H  H125  1  0.55680000  0.67820000  0.45770000  1.0 0.1278999003
H  H126  1  0.55790000  0.73230000  0.53580000  1.0 0.1219022455
H  H127  1  0.29090000  0.69230000  0.55740000  1.0 0.1091899993
H  H128  1  0.28830000  0.64100000  0.47710000  1.0 0.1278999003
H  H129  1  0.51560000  0.87740000  0.65940000  1.0 0.1278999003
H  H130  1  0.50940000  0.82400000  0.58070000  1.0 0.1219022455
H  H131  1  0.34060000  0.69620000  0.64420000  1.0 0.1219022455
H  H132  1  0.33980000  0.75170000  0.72160000  1.0 0.140978328
H  H133  1  0.12160000  0.75810000  0.37800000  1.0 0.0790201749
H  H134  1  0.18020000  0.70290000  0.40390000  1.0 0.1091899993
H  H135  1  0.22040000  0.74060000  0.35520000  1.0 0.0790201749
H  H136  1  0.91600000  0.72920000  0.32930000  1.0 0.0890446505
H  H137  1  0.98120000  0.74010000  0.37860000  1.0 0.0519642226
H  H138  1  0.00380000  0.77360000  0.32440000  1.0 0.0727564474
H  H139  1  0.92740000  0.65080000  0.28650000  1.0 0.0599881148
H  H140  1  0.02140000  0.64590000  0.25470000  1.0 0.0790201749
H  H141  1  0.00030000  0.59760000  0.30070000  1.0 0.0447470579
H  H142  1  0.02440000  0.59660000  0.25090000  1.0 0.0727564474
H  H143  1  0.03840000  0.54790000  0.29750000  1.0 0.0790201749
H  H144  1  0.12310000  0.56620000  0.26100000  1.0 0.1278999003
H  H145  1  0.91770000  0.72770000  0.32020000  1.0 0.0956947012
H  H146  1  0.94510000  0.69130000  0.26800000  1.0 0.0599881148
H  H147  1  0.90690000  0.65330000  0.31710000  1.0 0.0790201749
H  H148  1  0.00960000  0.75530000  0.37120000  1.0 0.0519642226
H  H149  1  0.06030000  0.69900000  0.40040000  1.0 0.0790201749
H  H150  1  0.11660000  0.74330000  0.36170000  1.0 0.0790201749
H  H151  1  0.05960000  0.12880000  0.33750000  1.0 0.1219022455
H  H152  1  0.10590000  0.23340000  0.33390000  1.0 0.1091899993
H  H153  1  0.35380000  0.17860000  0.27910000  1.0 0.1219022455
H  H154  1  0.30450000  0.07480000  0.28300000  1.0 0.1278999003
H  H155  1  0.94320000  0.82180000  0.45770000  1.0 0.1278999003
H  H156  1  0.94210000  0.76770000  0.53580000  1.0 0.1219022455
H  H157  1  0.20910000  0.80770000  0.55740000  1.0 0.1091899993
H  H158  1  0.21170000  0.85900000  0.47710000  1.0 0.1278999003
H  H159  1  0.98440000  0.62260000  0.65940000  1.0 0.1278999003
H  H160  1  0.99060000  0.67600000  0.58070000  1.0 0.1219022455
H  H161  1  0.15940000  0.80380000  0.64420000  1.0 0.1219022455
H  H162  1  0.16020000  0.74830000  0.72160000  1.0 0.140978328
H  H163  1  0.37840000  0.74190000  0.37800000  1.0 0.0790201749
H  H164  1  0.31980000  0.79710000  0.40390000  1.0 0.1091899993
H  H165  1  0.27960000  0.75940000  0.35520000  1.0 0.0790201749
H  H166  1  0.58400000  0.77080000  0.32930000  1.0 0.0890446505
H  H167  1  0.51880000  0.75990000  0.37860000  1.0 0.0519642226
H  H168  1  0.49620000  0.72640000  0.32440000  1.0 0.0727564474
H  H169  1  0.57260000  0.84920000  0.28650000  1.0 0.0599881148
H  H170  1  0.47860000  0.85410000  0.25470000  1.0 0.0790201749
H  H171  1  0.49970000  0.90240000  0.30070000  1.0 0.0447470579
H  H172  1  0.47560000  0.90340000  0.25090000  1.0 0.0727564474
H  H173  1  0.46160000  0.95210000  0.29750000  1.0 0.0890446505
H  H174  1  0.37690000  0.93380000  0.26100000  1.0 0.1278999003
H  H175  1  0.58230000  0.77230000  0.32020000  1.0 0.0956947012
H  H176  1  0.55490000  0.80870000  0.26800000  1.0 0.0599881148
H  H177  1  0.59310000  0.84670000  0.31710000  1.0 0.0790201749
H  H178  1  0.49040000  0.74470000  0.37120000  1.0 0.0519642226
H  H179  1  0.43970000  0.80100000  0.40040000  1.0 0.0790201749
H  H180  1  0.38340000  0.75670000  0.36170000  1.0 0.0790201749
H  H181  1  0.44040000  0.12880000  0.83750000  1.0 0.1219022455
H  H182  1  0.39410000  0.23340000  0.83390000  1.0 0.1091899993
H  H183  1  0.14620000  0.17860000  0.77910000  1.0 0.1219022455
H  H184  1  0.19550000  0.07480000  0.78300000  1.0 0.1278999003
H  H185  1  0.55680000  0.82180000  0.95770000  1.0 0.1278999003
H  H186  1  0.55790000  0.76770000  0.03580000  1.0 0.1219022455
H  H187  1  0.29090000  0.80770000  0.05740000  1.0 0.1091899993
H  H188  1  0.28830000  0.85900000  0.97710000  1.0 0.1278999003
H  H189  1  0.51560000  0.62260000  0.15940000  1.0 0.1278999003
H  H190  1  0.50940000  0.67600000  0.08070000  1.0 0.1219022455
H  H191  1  0.34060000  0.80380000  0.14420000  1.0 0.1219022455
H  H192  1  0.33980000  0.74830000  0.22160000  1.0 0.140978328
H  H193  1  0.12160000  0.74190000  0.87800000  1.0 0.0790201749
H  H194  1  0.18020000  0.79710000  0.90390000  1.0 0.1091899993
H  H195  1  0.22040000  0.75940000  0.85520000  1.0 0.0790201749
H  H196  1  0.91600000  0.77080000  0.82930000  1.0 0.0890446505
H  H197  1  0.98120000  0.75990000  0.87860000  1.0 0.0519642226
H  H198  1  0.00380000  0.72640000  0.82440000  1.0 0.0727564474
H  H199  1  0.92740000  0.84920000  0.78650000  1.0 0.0599881148
H  H200  1  0.02140000  0.85410000  0.75470000  1.0 0.0790201749
H  H201  1  0.00030000  0.90240000  0.80070000  1.0 0.0447470579
H  H202  1  0.02440000  0.90340000  0.75090000  1.0 0.0727564474
H  H203  1  0.03840000  0.95210000  0.79750000  1.0 0.0890446505
H  H204  1  0.12310000  0.93380000  0.76100000  1.0 0.1278999003
H  H205  1  0.91770000  0.77230000  0.82020000  1.0 0.0956947012
H  H206  1  0.94510000  0.80870000  0.76800000  1.0 0.0599881148
H  H207  1  0.90690000  0.84670000  0.81710000  1.0 0.0790201749
H  H208  1  0.00960000  0.74470000  0.87120000  1.0 0.0519642226
H  H209  1  0.06030000  0.80100000  0.90040000  1.0 0.0790201749
H  H210  1  0.11660000  0.75670000  0.86170000  1.0 0.0790201749
H  H211  1  0.05960000  0.37120000  0.83750000  1.0 0.1219022455
H  H212  1  0.10590000  0.26660000  0.83390000  1.0 0.1091899993
H  H213  1  0.35380000  0.32140000  0.77910000  1.0 0.1219022455
H  H214  1  0.30450000  0.42520000  0.78300000  1.0 0.1278999003
H  H215  1  0.94320000  0.67820000  0.95770000  1.0 0.1278999003
H  H216  1  0.94210000  0.73230000  0.03580000  1.0 0.1219022455
H  H217  1  0.20910000  0.69230000  0.05740000  1.0 0.1091899993
H  H218  1  0.21170000  0.64100000  0.97710000  1.0 0.1278999003
H  H219  1  0.98440000  0.87740000  0.15940000  1.0 0.1278999003
H  H220  1  0.99060000  0.82400000  0.08070000  1.0 0.1219022455
H  H221  1  0.15940000  0.69620000  0.14420000  1.0 0.1219022455
H  H222  1  0.16020000  0.75170000  0.22160000  1.0 0.140978328
H  H223  1  0.37840000  0.75810000  0.87800000  1.0 0.0790201749
H  H224  1  0.31980000  0.70290000  0.90390000  1.0 0.1091899993
H  H225  1  0.27960000  0.74060000  0.85520000  1.0 0.0790201749
H  H226  1  0.58400000  0.72920000  0.82930000  1.0 0.0890446505
H  H227  1  0.51880000  0.74010000  0.87860000  1.0 0.0519642226
H  H228  1  0.49620000  0.77360000  0.82440000  1.0 0.0727564474
H  H229  1  0.57260000  0.65080000  0.78650000  1.0 0.0599881148
H  H230  1  0.47860000  0.64590000  0.75470000  1.0 0.0790201749
H  H231  1  0.49970000  0.59760000  0.80070000  1.0 0.0447470579
H  H232  1  0.47560000  0.59660000  0.75090000  1.0 0.0727564474
H  H233  1  0.46160000  0.54790000  0.79750000  1.0 0.0790201749
H  H234  1  0.37690000  0.56620000  0.76100000  1.0 0.1278999003
H  H235  1  0.58230000  0.72770000  0.82020000  1.0 0.0956947012
H  H236  1  0.55490000  0.69130000  0.76800000  1.0 0.0599881148
H  H237  1  0.59310000  0.65330000  0.81710000  1.0 0.0790201749
H  H238  1  0.49040000  0.75530000  0.87120000  1.0 0.0519642226
H  H239  1  0.43970000  0.69900000  0.90040000  1.0 0.0790201749
H  H240  1  0.38340000  0.74330000  0.86170000  1.0 0.0790201749
C  C1  1  0.64610000  0.97544000  0.18938000  1.0 0.5888862899
C  C2  1  0.67810000  0.90782000  0.19012000  1.0 -0.0324065832
C  C3  1  0.61940000  0.86100000  0.17450000  1.0 -0.1122797238
C  C4  1  0.64720000  0.79870000  0.17630000  1.0 -0.1591909284
C  C5  1  0.73540000  0.78311000  0.19300000  1.0 0.0599881148
C  C6  1  0.79390000  0.83089000  0.20877000  1.0 -0.1428478741
C  C7  1  0.76390000  0.89274000  0.20664000  1.0 -0.0921998639
C  C8  1  0.58160000  0.12010000  0.09112000  1.0 0.574490278
C  C9  1  0.57800000  0.15410000  0.04028000  1.0 -0.0324065832
C  C10  1  0.49790000  0.18160000  0.02250000  1.0 -0.0921998639
C  C11  1  0.49750000  0.21380000  0.97600000  1.0 -0.1591909284
C  C12  1  0.57600000  0.21980000  0.94600000  1.0 0.0599881148
C  C13  1  0.65510000  0.19070000  0.96330000  1.0 -0.1591909284
C  C14  1  0.65620000  0.15920000  0.01080000  1.0 -0.0921998639
C  C15  1  0.57030000  0.35540000  0.75110000  1.0 0.552855364
C  C16  1  0.57060000  0.32004000  0.80160000  1.0 -0.0082148349
C  C17  1  0.52100000  0.34080000  0.84360000  1.0 -0.103854754
C  C18  1  0.52410000  0.30860000  0.89020000  1.0 -0.1591909284
C  C19  1  0.57500000  0.25440000  0.89531000  1.0 0.0519642226
C  C20  1  0.62450000  0.23360000  0.85300000  1.0 -0.154774077
C  C21  1  0.62410000  0.26600000  0.80680000  1.0 -0.1176194623
C  C22  1  0.87890000  0.17790000  0.16510000  1.0 0.188072782
C  C23  1  0.83540000  0.22380000  0.12890000  1.0 -0.3431290807
C  C24  1  0.02060000  0.23560000  0.15940000  1.0 -0.2036095122
C  C25  1  0.00720000  0.14090000  0.21110000  1.0 -0.0921998639
C  C26  1  0.90930000  0.13480000  0.18630000  1.0 0.188072782
C  C27  1  0.93290000  0.08170000  0.22230000  1.0 -0.3115684362
C  C28  1  0.05590000  0.18910000  0.19390000  1.0 -0.1884666541
C  C29  1  0.94280000  0.22320000  0.13190000  1.0 -0.1122797238
C  C30  1  0.85390000  0.52456000  0.18938000  1.0 0.5888862899
C  C31  1  0.82190000  0.59218000  0.19012000  1.0 -0.0324065832
C  C32  1  0.88060000  0.63900000  0.17450000  1.0 -0.1122797238
C  C33  1  0.85280000  0.70130000  0.17630000  1.0 -0.1591909284
C  C34  1  0.76460000  0.71689000  0.19300000  1.0 0.0599881148
C  C35  1  0.70610000  0.66911000  0.20877000  1.0 -0.1428478741
C  C36  1  0.73610000  0.60726000  0.20664000  1.0 -0.0921998639
C  C37  1  0.91840000  0.37990000  0.09112000  1.0 0.574490278
C  C38  1  0.92200000  0.34590000  0.04028000  1.0 -0.0324065832
C  C39  1  0.00210000  0.31840000  0.02250000  1.0 -0.0921998639
C  C40  1  0.00250000  0.28620000  0.97600000  1.0 -0.1591909284
C  C41  1  0.92400000  0.28020000  0.94600000  1.0 0.0599881148
C  C42  1  0.84490000  0.30930000  0.96330000  1.0 -0.1591909284
C  C43  1  0.84380000  0.34080000  0.01080000  1.0 -0.0921998639
C  C44  1  0.92970000  0.14460000  0.75110000  1.0 0.552855364
C  C45  1  0.92940000  0.17996000  0.80160000  1.0 -0.0082148349
C  C46  1  0.97900000  0.15920000  0.84360000  1.0 -0.103854754
C  C47  1  0.97590000  0.19140000  0.89020000  1.0 -0.1591909284
C  C48  1  0.92500000  0.24560000  0.89531000  1.0 0.0519642226
C  C49  1  0.87550000  0.26640000  0.85300000  1.0 -0.154774077
C  C50  1  0.87590000  0.23400000  0.80680000  1.0 -0.1176194623
C  C51  1  0.62110000  0.32210000  0.16510000  1.0 0.188072782
C  C52  1  0.66460000  0.27620000  0.12890000  1.0 -0.3431290807
C  C53  1  0.47940000  0.26440000  0.15940000  1.0 -0.2036095122
C  C54  1  0.49280000  0.35910000  0.21110000  1.0 -0.0921998639
C  C55  1  0.59070000  0.36520000  0.18630000  1.0 0.188072782
C  C56  1  0.56710000  0.41830000  0.22230000  1.0 -0.3115684362
C  C57  1  0.44410000  0.31090000  0.19390000  1.0 -0.1884666541
C  C58  1  0.55720000  0.27680000  0.13190000  1.0 -0.1122797238
C  C59  1  0.64610000  0.52456000  0.68938000  1.0 0.5888862899
C  C60  1  0.67810000  0.59218000  0.69012000  1.0 -0.0324065832
C  C61  1  0.61940000  0.63900000  0.67450000  1.0 -0.1122797238
C  C62  1  0.64720000  0.70130000  0.67630000  1.0 -0.1591909284
C  C63  1  0.73540000  0.71689000  0.69300000  1.0 0.0599881148
C  C64  1  0.79390000  0.66911000  0.70877000  1.0 -0.1428478741
C  C65  1  0.76390000  0.60726000  0.70664000  1.0 -0.0921998639
C  C66  1  0.58160000  0.37990000  0.59112000  1.0 0.574490278
C  C67  1  0.57800000  0.34590000  0.54028000  1.0 -0.0324065832
C  C68  1  0.49790000  0.31840000  0.52250000  1.0 -0.0921998639
C  C69  1  0.49750000  0.28620000  0.47600000  1.0 -0.1591909284
C  C70  1  0.57600000  0.28020000  0.44600000  1.0 0.0599881148
C  C71  1  0.65510000  0.30930000  0.46330000  1.0 -0.1591909284
C  C72  1  0.65620000  0.34080000  0.51080000  1.0 -0.0921998639
C  C73  1  0.57030000  0.14460000  0.25110000  1.0 0.552855364
C  C74  1  0.57060000  0.17996000  0.30160000  1.0 -0.0082148349
C  C75  1  0.52100000  0.15920000  0.34360000  1.0 -0.103854754
C  C76  1  0.52410000  0.19140000  0.39020000  1.0 -0.154774077
C  C77  1  0.57500000  0.24560000  0.39531000  1.0 0.0519642226
C  C78  1  0.62450000  0.26640000  0.35300000  1.0 -0.154774077
C  C79  1  0.62410000  0.23400000  0.30680000  1.0 -0.1176194623
C  C80  1  0.87890000  0.32210000  0.66510000  1.0 0.188072782
C  C81  1  0.83540000  0.27620000  0.62890000  1.0 -0.3431290807
C  C82  1  0.02060000  0.26440000  0.65940000  1.0 -0.2036095122
C  C83  1  0.00720000  0.35910000  0.71110000  1.0 -0.0921998639
C  C84  1  0.90930000  0.36520000  0.68630000  1.0 0.188072782
C  C85  1  0.93290000  0.41830000  0.72230000  1.0 -0.3115684362
C  C86  1  0.05590000  0.31090000  0.69390000  1.0 -0.1884666541
C  C87  1  0.94280000  0.27680000  0.63190000  1.0 -0.1122797238
C  C88  1  0.85390000  0.97544000  0.68938000  1.0 0.5888862899
C  C89  1  0.82190000  0.90782000  0.69012000  1.0 -0.0324065832
C  C90  1  0.88060000  0.86100000  0.67450000  1.0 -0.1122797238
C  C91  1  0.85280000  0.79870000  0.67630000  1.0 -0.1656465316
C  C92  1  0.76460000  0.78311000  0.69300000  1.0 0.0599881148
C  C93  1  0.70610000  0.83089000  0.70877000  1.0 -0.1428478741
C  C94  1  0.73610000  0.89274000  0.70664000  1.0 -0.0921998639
C  C95  1  0.91840000  0.12010000  0.59112000  1.0 0.574490278
C  C96  1  0.92200000  0.15410000  0.54028000  1.0 -0.0324065832
C  C97  1  0.00210000  0.18160000  0.52250000  1.0 -0.0921998639
C  C98  1  0.00250000  0.21380000  0.47600000  1.0 -0.1591909284
C  C99  1  0.92400000  0.21980000  0.44600000  1.0 0.0599881148
C  C100  1  0.84490000  0.19070000  0.46330000  1.0 -0.1591909284
C  C101  1  0.84380000  0.15920000  0.51080000  1.0 -0.0921998639
C  C102  1  0.92970000  0.35540000  0.25110000  1.0 0.552855364
C  C103  1  0.92940000  0.32004000  0.30160000  1.0 -0.0082148349
C  C104  1  0.97900000  0.34080000  0.34360000  1.0 -0.103854754
C  C105  1  0.97590000  0.30860000  0.39020000  1.0 -0.1591909284
C  C106  1  0.92500000  0.25440000  0.39531000  1.0 0.0519642226
C  C107  1  0.87550000  0.23360000  0.35300000  1.0 -0.154774077
C  C108  1  0.87590000  0.26600000  0.30680000  1.0 -0.1176194623
C  C109  1  0.62110000  0.17790000  0.66510000  1.0 0.188072782
C  C110  1  0.66460000  0.22380000  0.62890000  1.0 -0.3431290807
C  C111  1  0.47940000  0.23560000  0.65940000  1.0 -0.2036095122
C  C112  1  0.49280000  0.14090000  0.71110000  1.0 -0.0921998639
C  C113  1  0.59070000  0.13480000  0.68630000  1.0 0.188072782
C  C114  1  0.56710000  0.08170000  0.72230000  1.0 -0.3115684362
C  C115  1  0.44410000  0.18910000  0.69390000  1.0 -0.1884666541
C  C116  1  0.55720000  0.22320000  0.63190000  1.0 -0.1122797238
C  C117  1  0.35390000  0.47544000  0.31062000  1.0 0.5888862899
C  C118  1  0.32190000  0.40782000  0.30988000  1.0 -0.0324065832
C  C119  1  0.38060000  0.36100000  0.32550000  1.0 -0.1122797238
C  C120  1  0.35280000  0.29870000  0.32370000  1.0 -0.1591909284
C  C121  1  0.26460000  0.28311000  0.30700000  1.0 0.0599881148
C  C122  1  0.20610000  0.33089000  0.29123000  1.0 -0.1428478741
C  C123  1  0.23610000  0.39274000  0.29336000  1.0 -0.0921998639
C  C124  1  0.41840000  0.62010000  0.40888000  1.0 0.574490278
C  C125  1  0.42200000  0.65410000  0.45972000  1.0 -0.0324065832
C  C126  1  0.50210000  0.68160000  0.47750000  1.0 -0.0921998639
C  C127  1  0.50250000  0.71380000  0.52400000  1.0 -0.1591909284
C  C128  1  0.42400000  0.71980000  0.55400000  1.0 0.0599881148
C  C129  1  0.34490000  0.69070000  0.53670000  1.0 -0.1591909284
C  C130  1  0.34380000  0.65920000  0.48920000  1.0 -0.0921998639
C  C131  1  0.42970000  0.85540000  0.74890000  1.0 0.552855364
C  C132  1  0.42940000  0.82004000  0.69840000  1.0 -0.0082148349
C  C133  1  0.47900000  0.84080000  0.65640000  1.0 -0.103854754
C  C134  1  0.47590000  0.80860000  0.60980000  1.0 -0.154774077
C  C135  1  0.42500000  0.75440000  0.60469000  1.0 0.0519642226
C  C136  1  0.37550000  0.73360000  0.64700000  1.0 -0.154774077
C  C137  1  0.37590000  0.76600000  0.69320000  1.0 -0.1176194623
C  C138  1  0.12110000  0.67790000  0.33490000  1.0 0.188072782
C  C139  1  0.16460000  0.72380000  0.37110000  1.0 -0.3431290807
C  C140  1  0.97940000  0.73560000  0.34060000  1.0 -0.2036095122
C  C141  1  0.99280000  0.64090000  0.28890000  1.0 -0.0921998639
C  C142  1  0.09070000  0.63480000  0.31370000  1.0 0.188072782
C  C143  1  0.06710000  0.58170000  0.27770000  1.0 -0.3115684362
C  C144  1  0.94410000  0.68910000  0.30610000  1.0 -0.1884666541
C  C145  1  0.05720000  0.72320000  0.36810000  1.0 -0.1122797238
C  C146  1  0.14610000  0.02456000  0.31062000  1.0 0.5888862899
C  C147  1  0.17810000  0.09218000  0.30988000  1.0 -0.0324065832
C  C148  1  0.11940000  0.13900000  0.32550000  1.0 -0.1122797238
C  C149  1  0.14720000  0.20130000  0.32370000  1.0 -0.1591909284
C  C150  1  0.23540000  0.21689000  0.30700000  1.0 0.0599881148
C  C151  1  0.29390000  0.16911000  0.29123000  1.0 -0.1428478741
C  C152  1  0.26390000  0.10726000  0.29336000  1.0 -0.0921998639
C  C153  1  0.08160000  0.87990000  0.40888000  1.0 0.574490278
C  C154  1  0.07800000  0.84590000  0.45972000  1.0 -0.0324065832
C  C155  1  0.99790000  0.81840000  0.47750000  1.0 -0.0921998639
C  C156  1  0.99750000  0.78620000  0.52400000  1.0 -0.1591909284
C  C157  1  0.07600000  0.78020000  0.55400000  1.0 0.0599881148
C  C158  1  0.15510000  0.80930000  0.53670000  1.0 -0.1591909284
C  C159  1  0.15620000  0.84080000  0.48920000  1.0 -0.0921998639
C  C160  1  0.07030000  0.64460000  0.74890000  1.0 0.552855364
C  C161  1  0.07060000  0.67996000  0.69840000  1.0 -0.0082148349
C  C162  1  0.02100000  0.65920000  0.65640000  1.0 -0.103854754
C  C163  1  0.02410000  0.69140000  0.60980000  1.0 -0.154774077
C  C164  1  0.07500000  0.74560000  0.60469000  1.0 0.0519642226
C  C165  1  0.12450000  0.76640000  0.64700000  1.0 -0.154774077
C  C166  1  0.12410000  0.73400000  0.69320000  1.0 -0.1176194623
C  C167  1  0.37890000  0.82210000  0.33490000  1.0 0.188072782
C  C168  1  0.33540000  0.77620000  0.37110000  1.0 -0.3431290807
C  C169  1  0.52060000  0.76440000  0.34060000  1.0 -0.2036095122
C  C170  1  0.50720000  0.85910000  0.28890000  1.0 -0.0921998639
C  C171  1  0.40930000  0.86520000  0.31370000  1.0 0.188072782
C  C172  1  0.43290000  0.91830000  0.27770000  1.0 -0.3115684362
C  C173  1  0.55590000  0.81090000  0.30610000  1.0 -0.1884666541
C  C174  1  0.44280000  0.77680000  0.36810000  1.0 -0.1122797238
C  C175  1  0.35390000  0.02456000  0.81062000  1.0 0.5888862899
C  C176  1  0.32190000  0.09218000  0.80988000  1.0 -0.0324065832
C  C177  1  0.38060000  0.13900000  0.82550000  1.0 -0.1122797238
C  C178  1  0.35280000  0.20130000  0.82370000  1.0 -0.1656465316
C  C179  1  0.26460000  0.21689000  0.80700000  1.0 0.0599881148
C  C180  1  0.20610000  0.16911000  0.79123000  1.0 -0.1428478741
C  C181  1  0.23610000  0.10726000  0.79336000  1.0 -0.0921998639
C  C182  1  0.41840000  0.87990000  0.90888000  1.0 0.574490278
C  C183  1  0.42200000  0.84590000  0.95972000  1.0 -0.0324065832
C  C184  1  0.50210000  0.81840000  0.97750000  1.0 -0.0921998639
C  C185  1  0.50250000  0.78620000  0.02400000  1.0 -0.1591909284
C  C186  1  0.42400000  0.78020000  0.05400000  1.0 0.0599881148
C  C187  1  0.34490000  0.80930000  0.03670000  1.0 -0.1591909284
C  C188  1  0.34380000  0.84080000  0.98920000  1.0 -0.0921998639
C  C189  1  0.42970000  0.64460000  0.24890000  1.0 0.552855364
C  C190  1  0.42940000  0.67996000  0.19840000  1.0 -0.0082148349
C  C191  1  0.47900000  0.65920000  0.15640000  1.0 -0.103854754
C  C192  1  0.47590000  0.69140000  0.10980000  1.0 -0.154774077
C  C193  1  0.42500000  0.74560000  0.10469000  1.0 0.0519642226
C  C194  1  0.37550000  0.76640000  0.14700000  1.0 -0.154774077
C  C195  1  0.37590000  0.73400000  0.19320000  1.0 -0.1176194623
C  C196  1  0.12110000  0.82210000  0.83490000  1.0 0.188072782
C  C197  1  0.16460000  0.77620000  0.87110000  1.0 -0.3431290807
C  C198  1  0.97940000  0.76440000  0.84060000  1.0 -0.2036095122
C  C199  1  0.99280000  0.85910000  0.78890000  1.0 -0.0921998639
C  C200  1  0.09070000  0.86520000  0.81370000  1.0 0.188072782
C  C201  1  0.06710000  0.91830000  0.77770000  1.0 -0.3115684362
C  C202  1  0.94410000  0.81090000  0.80610000  1.0 -0.1884666541
C  C203  1  0.05720000  0.77680000  0.86810000  1.0 -0.1122797238
C  C204  1  0.14610000  0.47544000  0.81062000  1.0 0.5888862899
C  C205  1  0.17810000  0.40782000  0.80988000  1.0 -0.0324065832
C  C206  1  0.11940000  0.36100000  0.82550000  1.0 -0.1122797238
C  C207  1  0.14720000  0.29870000  0.82370000  1.0 -0.1591909284
C  C208  1  0.23540000  0.28311000  0.80700000  1.0 0.0599881148
C  C209  1  0.29390000  0.33089000  0.79123000  1.0 -0.1428478741
C  C210  1  0.26390000  0.39274000  0.79336000  1.0 -0.0921998639
C  C211  1  0.08160000  0.62010000  0.90888000  1.0 0.574490278
C  C212  1  0.07800000  0.65410000  0.95972000  1.0 -0.0324065832
C  C213  1  0.99790000  0.68160000  0.97750000  1.0 -0.0921998639
C  C214  1  0.99750000  0.71380000  0.02400000  1.0 -0.1591909284
C  C215  1  0.07600000  0.71980000  0.05400000  1.0 0.0599881148
C  C216  1  0.15510000  0.69070000  0.03670000  1.0 -0.1591909284
C  C217  1  0.15620000  0.65920000  0.98920000  1.0 -0.0921998639
C  C218  1  0.07030000  0.85540000  0.24890000  1.0 0.552855364
C  C219  1  0.07060000  0.82004000  0.19840000  1.0 -0.0082148349
C  C220  1  0.02100000  0.84080000  0.15640000  1.0 -0.103854754
C  C221  1  0.02410000  0.80860000  0.10980000  1.0 -0.154774077
C  C222  1  0.07500000  0.75440000  0.10469000  1.0 0.0519642226
C  C223  1  0.12450000  0.73360000  0.14700000  1.0 -0.154774077
C  C224  1  0.12410000  0.76600000  0.19320000  1.0 -0.1176194623
C  C225  1  0.37890000  0.67790000  0.83490000  1.0 0.188072782
C  C226  1  0.33540000  0.72380000  0.87110000  1.0 -0.3431290807
C  C227  1  0.52060000  0.73560000  0.84060000  1.0 -0.2036095122
C  C228  1  0.50720000  0.64090000  0.78890000  1.0 -0.0921998639
C  C229  1  0.40930000  0.63480000  0.81370000  1.0 0.188072782
C  C230  1  0.43290000  0.58170000  0.77770000  1.0 -0.3115684362
C  C231  1  0.55590000  0.68910000  0.80610000  1.0 -0.1884666541
C  C232  1  0.44280000  0.72320000  0.86810000  1.0 -0.1122797238
N  N1  1  0.96470000  0.18180000  0.17500000  1.0 -0.0671196217
N  N2  1  0.53530000  0.31820000  0.17500000  1.0 -0.0671196217
N  N3  1  0.96470000  0.31820000  0.67500000  1.0 -0.0671196217
N  N4  1  0.53530000  0.18180000  0.67500000  1.0 -0.0671196217
N  N5  1  0.03530000  0.68180000  0.32500000  1.0 -0.0671196217
N  N6  1  0.46470000  0.81820000  0.32500000  1.0 -0.0671196217
N  N7  1  0.03530000  0.81820000  0.82500000  1.0 -0.0671196217
N  N8  1  0.46470000  0.68180000  0.82500000  1.0 -0.0671196217
O  O1  1  0.56300000  0.98354000  0.17858000  1.0 -0.5680243755
O  O2  1  0.70310000  0.01705000  0.19982000  1.0 -0.6338469768
O  O3  1  0.50370000  0.11212000  0.11438000  1.0 -0.5831586951
O  O4  1  0.65650000  0.10261000  0.10795000  1.0 -0.6040089959
O  O5  1  0.63350000  0.34744000  0.72030000  1.0 -0.592883856
O  O6  1  0.50270000  0.39203000  0.74389000  1.0 -0.5680243755
O  O7  1  0.83100000  0.13376000  0.17599000  1.0 -0.3472731048
O  O8  1  0.93700000  0.51646000  0.17858000  1.0 -0.5680243755
O  O9  1  0.79690000  0.48295000  0.19982000  1.0 -0.6338469768
O  O10  1  0.99630000  0.38788000  0.11438000  1.0 -0.5831586951
O  O11  1  0.84350000  0.39739000  0.10795000  1.0 -0.6040089959
O  O12  1  0.86650000  0.15256000  0.72030000  1.0 -0.592883856
O  O13  1  0.99730000  0.10797000  0.74389000  1.0 -0.5680243755
O  O14  1  0.66900000  0.36624000  0.17599000  1.0 -0.3472731048
O  O15  1  0.56300000  0.51646000  0.67858000  1.0 -0.5680243755
O  O16  1  0.70310000  0.48295000  0.69982000  1.0 -0.6338469768
O  O17  1  0.50370000  0.38788000  0.61438000  1.0 -0.5831586951
O  O18  1  0.65650000  0.39739000  0.60795000  1.0 -0.6040089959
O  O19  1  0.63350000  0.15256000  0.22030000  1.0 -0.592883856
O  O20  1  0.50270000  0.10797000  0.24389000  1.0 -0.5680243755
O  O21  1  0.83100000  0.36624000  0.67599000  1.0 -0.3472731048
O  O22  1  0.93700000  0.98354000  0.67858000  1.0 -0.5680243755
O  O23  1  0.79690000  0.01705000  0.69982000  1.0 -0.6338469768
O  O24  1  0.99630000  0.11212000  0.61438000  1.0 -0.5831586951
O  O25  1  0.84350000  0.10261000  0.60795000  1.0 -0.6040089959
O  O26  1  0.86650000  0.34744000  0.22030000  1.0 -0.592883856
O  O27  1  0.99730000  0.39203000  0.24389000  1.0 -0.5680243755
O  O28  1  0.66900000  0.13376000  0.67599000  1.0 -0.3472731048
O  O29  1  0.43700000  0.48354000  0.32142000  1.0 -0.5680243755
O  O30  1  0.29690000  0.51705000  0.30018000  1.0 -0.6338469768
O  O31  1  0.49630000  0.61212000  0.38562000  1.0 -0.5831586951
O  O32  1  0.34350000  0.60261000  0.39205000  1.0 -0.6040089959
O  O33  1  0.36650000  0.84744000  0.77970000  1.0 -0.592883856
O  O34  1  0.49730000  0.89203000  0.75611000  1.0 -0.5680243755
O  O35  1  0.16900000  0.63376000  0.32401000  1.0 -0.3472731048
O  O36  1  0.06300000  0.01646000  0.32142000  1.0 -0.5680243755
O  O37  1  0.20310000  0.98295000  0.30018000  1.0 -0.6338469768
O  O38  1  0.00370000  0.88788000  0.38562000  1.0 -0.5831586951
O  O39  1  0.15650000  0.89739000  0.39205000  1.0 -0.6040089959
O  O40  1  0.13350000  0.65256000  0.77970000  1.0 -0.592883856
O  O41  1  0.00270000  0.60797000  0.75611000  1.0 -0.5680243755
O  O42  1  0.33100000  0.86624000  0.32401000  1.0 -0.3472731048
O  O43  1  0.43700000  0.01646000  0.82142000  1.0 -0.5680243755
O  O44  1  0.29690000  0.98295000  0.80018000  1.0 -0.6338469768
O  O45  1  0.49630000  0.88788000  0.88562000  1.0 -0.5831586951
O  O46  1  0.34350000  0.89739000  0.89205000  1.0 -0.6040089959
O  O47  1  0.36650000  0.65256000  0.27970000  1.0 -0.592883856
O  O48  1  0.49730000  0.60797000  0.25611000  1.0 -0.5680243755
O  O49  1  0.16900000  0.86624000  0.82401000  1.0 -0.3472731048
O  O50  1  0.06300000  0.48354000  0.82142000  1.0 -0.5680243755
O  O51  1  0.20310000  0.51705000  0.80018000  1.0 -0.6338469768
O  O52  1  0.00370000  0.61212000  0.88562000  1.0 -0.5831586951
O  O53  1  0.15650000  0.60261000  0.89205000  1.0 -0.6040089959
O  O54  1  0.13350000  0.84744000  0.27970000  1.0 -0.592883856
O  O55  1  0.00270000  0.89203000  0.25611000  1.0 -0.5680243755
O  O56  1  0.33100000  0.63376000  0.82401000  1.0 -0.3472731048
