# DDEC6 charges by PACMAN v1.1 (https://github.com/mtap-research/PACMAN-charge/)
data_CEVFER_ASR_pacman
_symmetry_space_group_name_H-M   'P 1'
_cell_length_a   14.82900000
_cell_length_b   21.62120000
_cell_length_c   25.38950000
_cell_angle_alpha   90.00000000
_cell_angle_beta   90.00000000
_cell_angle_gamma   90.00000000
_symmetry_Int_Tables_number   1
_chemical_formula_structural   LiZnH30C30(NO4)2
_chemical_formula_sum   'Li8 Zn8 H240 C240 N16 O64'
_cell_volume   8140.40116178
_cell_formula_units_Z   8
loop_
 _symmetry_equiv_pos_site_id
 _symmetry_equiv_pos_as_xyz
  1  'x, y, z'
loop_
 _atom_site_type_symbol
 _atom_site_label
 _atom_site_symmetry_multiplicity
 _atom_site_fract_x
 _atom_site_fract_y
 _atom_site_fract_z
 _atom_site_occupancy
 _atom_site_charge
Li  Li1  1  0.28760000  0.09890000  0.31650000  1.0 0.7842319642
Li  Li2  1  0.21240000  0.40110000  0.31650000  1.0 0.7842319642
Li  Li3  1  0.28760000  0.40110000  0.81650000  1.0 0.7842319642
Li  Li4  1  0.21240000  0.09890000  0.81650000  1.0 0.7842319642
Li  Li5  1  0.71240000  0.59890000  0.18350000  1.0 0.7842319642
Li  Li6  1  0.78760000  0.90110000  0.18350000  1.0 0.7842319642
Li  Li7  1  0.71240000  0.90110000  0.68350000  1.0 0.7842319642
Li  Li8  1  0.78760000  0.59890000  0.68350000  1.0 0.7842319642
Zn  Zn1  1  0.49368000  0.06040000  0.31561000  1.0 0.8501812923
Zn  Zn2  1  0.00632000  0.43960000  0.31561000  1.0 0.8501812923
Zn  Zn3  1  0.49368000  0.43960000  0.81561000  1.0 0.8501812923
Zn  Zn4  1  0.00632000  0.06040000  0.81561000  1.0 0.8501812923
Zn  Zn5  1  0.50632000  0.56040000  0.18439000  1.0 0.8501812923
Zn  Zn6  1  0.99368000  0.93960000  0.18439000  1.0 0.8501812923
Zn  Zn7  1  0.50632000  0.93960000  0.68439000  1.0 0.8501812923
Zn  Zn8  1  0.99368000  0.56040000  0.68439000  1.0 0.8501812923
H  H1  1  0.19270000  0.92230000  0.28200000  1.0 0.1110595075
H  H2  1  0.14600000  0.81940000  0.28280000  1.0 0.1181012491
H  H3  1  0.39150000  0.76830000  0.33700000  1.0 0.1110595075
H  H4  1  0.43620000  0.87150000  0.33750000  1.0 0.1181012491
H  H5  1  0.33720000  0.24330000  0.21690000  1.0 0.1181012491
H  H6  1  0.33400000  0.29890000  0.13900000  1.0 0.1044920428
H  H7  1  0.51530000  0.18150000  0.07550000  1.0 0.1110595075
H  H8  1  0.52090000  0.12720000  0.15350000  1.0 0.1110595075
H  H9  1  0.28800000  0.30590000  0.05190000  1.0 0.1110595075
H  H10  1  0.28430000  0.36060000  0.97370000  1.0 0.1110595075
H  H11  1  0.54990000  0.32840000  0.95250000  1.0 0.1181012491
H  H12  1  0.55310000  0.27060000  0.02910000  1.0 0.1110595075
H  H13  1  0.60900000  0.93200000  0.34030000  1.0 0.0791500102
H  H14  1  0.66070000  0.93330000  0.28430000  1.0 0.0694443903
H  H15  1  0.76470000  0.87790000  0.33000000  1.0 0.0694443903
H  H16  1  0.73640000  0.90860000  0.38540000  1.0 0.0631481098
H  H17  1  0.86370000  0.96570000  0.37110000  1.0 0.0492564892
H  H18  1  0.85540000  0.95970000  0.30780000  1.0 0.0631481098
H  H19  1  0.87430000  0.07640000  0.34740000  1.0 0.0694443903
H  H20  1  0.80500000  0.09900000  0.30310000  1.0 0.0694443903
H  H21  1  0.78140000  0.10870000  0.36400000  1.0 0.0492564892
H  H22  1  0.70600000  0.11510000  0.31720000  1.0 0.0791500102
H  H23  1  0.67950000  0.09980000  0.37730000  1.0 0.0694443903
H  H24  1  0.85030000  0.10220000  0.33420000  1.0 0.0694443903
H  H25  1  0.82450000  0.09710000  0.39570000  1.0 0.0631481098
H  H26  1  0.88550000  0.00360000  0.33680000  1.0 0.0306490771
H  H27  1  0.84360000  0.99650000  0.39490000  1.0 0.0631481098
H  H28  1  0.79580000  0.89700000  0.33180000  1.0 0.0791500102
H  H29  1  0.69140000  0.90330000  0.34690000  1.0 0.0631481098
H  H30  1  0.72380000  0.91570000  0.28770000  1.0 0.0694443903
H  H31  1  0.30730000  0.57770000  0.28200000  1.0 0.1110595075
H  H32  1  0.35400000  0.68060000  0.28280000  1.0 0.1181012491
H  H33  1  0.10850000  0.73170000  0.33700000  1.0 0.1110595075
H  H34  1  0.06380000  0.62850000  0.33750000  1.0 0.1181012491
H  H35  1  0.16280000  0.25670000  0.21690000  1.0 0.1181012491
H  H36  1  0.16600000  0.20110000  0.13900000  1.0 0.1044920428
H  H37  1  0.98470000  0.31850000  0.07550000  1.0 0.1110595075
H  H38  1  0.97910000  0.37280000  0.15350000  1.0 0.1110595075
H  H39  1  0.21200000  0.19410000  0.05190000  1.0 0.1110595075
H  H40  1  0.21570000  0.13940000  0.97370000  1.0 0.1110595075
H  H41  1  0.95010000  0.17160000  0.95250000  1.0 0.1181012491
H  H42  1  0.94690000  0.22940000  0.02910000  1.0 0.1110595075
H  H43  1  0.89100000  0.56800000  0.34030000  1.0 0.0791500102
H  H44  1  0.83930000  0.56670000  0.28430000  1.0 0.0694443903
H  H45  1  0.73530000  0.62210000  0.33000000  1.0 0.0694443903
H  H46  1  0.76360000  0.59140000  0.38540000  1.0 0.0631481098
H  H47  1  0.63630000  0.53430000  0.37110000  1.0 0.0492564892
H  H48  1  0.64460000  0.54030000  0.30780000  1.0 0.0631481098
H  H49  1  0.62570000  0.42360000  0.34740000  1.0 0.0694443903
H  H50  1  0.69500000  0.40100000  0.30310000  1.0 0.0694443903
H  H51  1  0.71860000  0.39130000  0.36400000  1.0 0.0492564892
H  H52  1  0.79400000  0.38490000  0.31720000  1.0 0.0791500102
H  H53  1  0.82050000  0.40020000  0.37730000  1.0 0.0694443903
H  H54  1  0.64970000  0.39780000  0.33420000  1.0 0.0694443903
H  H55  1  0.67550000  0.40290000  0.39570000  1.0 0.0631481098
H  H56  1  0.61450000  0.49640000  0.33680000  1.0 0.0306490771
H  H57  1  0.65640000  0.50350000  0.39490000  1.0 0.0631481098
H  H58  1  0.70420000  0.60300000  0.33180000  1.0 0.0791500102
H  H59  1  0.80860000  0.59670000  0.34690000  1.0 0.0631481098
H  H60  1  0.77620000  0.58430000  0.28770000  1.0 0.0694443903
H  H61  1  0.19270000  0.57770000  0.78200000  1.0 0.1110595075
H  H62  1  0.14600000  0.68060000  0.78280000  1.0 0.1181012491
H  H63  1  0.39150000  0.73170000  0.83700000  1.0 0.1110595075
H  H64  1  0.43620000  0.62850000  0.83750000  1.0 0.1181012491
H  H65  1  0.33720000  0.25670000  0.71690000  1.0 0.1181012491
H  H66  1  0.33400000  0.20110000  0.63900000  1.0 0.1044920428
H  H67  1  0.51530000  0.31850000  0.57550000  1.0 0.1110595075
H  H68  1  0.52090000  0.37280000  0.65350000  1.0 0.1110595075
H  H69  1  0.28800000  0.19410000  0.55190000  1.0 0.1110595075
H  H70  1  0.28430000  0.13940000  0.47370000  1.0 0.1110595075
H  H71  1  0.54990000  0.17160000  0.45250000  1.0 0.1181012491
H  H72  1  0.55310000  0.22940000  0.52910000  1.0 0.1110595075
H  H73  1  0.60900000  0.56800000  0.84030000  1.0 0.0791500102
H  H74  1  0.66070000  0.56670000  0.78430000  1.0 0.0694443903
H  H75  1  0.76470000  0.62210000  0.83000000  1.0 0.0694443903
H  H76  1  0.73640000  0.59140000  0.88540000  1.0 0.0631481098
H  H77  1  0.86370000  0.53430000  0.87110000  1.0 0.0492564892
H  H78  1  0.85540000  0.54030000  0.80780000  1.0 0.0631481098
H  H79  1  0.87430000  0.42360000  0.84740000  1.0 0.0694443903
H  H80  1  0.80500000  0.40100000  0.80310000  1.0 0.0694443903
H  H81  1  0.78140000  0.39130000  0.86400000  1.0 0.0492564892
H  H82  1  0.70600000  0.38490000  0.81720000  1.0 0.0791500102
H  H83  1  0.67950000  0.40020000  0.87730000  1.0 0.0694443903
H  H84  1  0.85030000  0.39780000  0.83420000  1.0 0.0694443903
H  H85  1  0.82450000  0.40290000  0.89570000  1.0 0.0694443903
H  H86  1  0.88550000  0.49640000  0.83680000  1.0 0.0350274999
H  H87  1  0.84360000  0.50350000  0.89490000  1.0 0.0631481098
H  H88  1  0.79580000  0.60300000  0.83180000  1.0 0.0791500102
H  H89  1  0.69140000  0.59670000  0.84690000  1.0 0.0631481098
H  H90  1  0.72380000  0.58430000  0.78770000  1.0 0.0694443903
H  H91  1  0.30730000  0.92230000  0.78200000  1.0 0.1110595075
H  H92  1  0.35400000  0.81940000  0.78280000  1.0 0.1181012491
H  H93  1  0.10850000  0.76830000  0.83700000  1.0 0.1110595075
H  H94  1  0.06380000  0.87150000  0.83750000  1.0 0.1181012491
H  H95  1  0.16280000  0.24330000  0.71690000  1.0 0.1181012491
H  H96  1  0.16600000  0.29890000  0.63900000  1.0 0.1044920428
H  H97  1  0.98470000  0.18150000  0.57550000  1.0 0.1110595075
H  H98  1  0.97910000  0.12720000  0.65350000  1.0 0.1110595075
H  H99  1  0.21200000  0.30590000  0.55190000  1.0 0.1110595075
H  H100  1  0.21570000  0.36060000  0.47370000  1.0 0.1110595075
H  H101  1  0.95010000  0.32840000  0.45250000  1.0 0.1181012491
H  H102  1  0.94690000  0.27060000  0.52910000  1.0 0.1110595075
H  H103  1  0.89100000  0.93200000  0.84030000  1.0 0.0791500102
H  H104  1  0.83930000  0.93330000  0.78430000  1.0 0.0694443903
H  H105  1  0.73530000  0.87790000  0.83000000  1.0 0.0694443903
H  H106  1  0.76360000  0.90860000  0.88540000  1.0 0.0631481098
H  H107  1  0.63630000  0.96570000  0.87110000  1.0 0.0492564892
H  H108  1  0.64460000  0.95970000  0.80780000  1.0 0.0631481098
H  H109  1  0.62570000  0.07640000  0.84740000  1.0 0.0694443903
H  H110  1  0.69500000  0.09900000  0.80310000  1.0 0.0694443903
H  H111  1  0.71860000  0.10870000  0.86400000  1.0 0.0492564892
H  H112  1  0.79400000  0.11510000  0.81720000  1.0 0.0791500102
H  H113  1  0.82050000  0.09980000  0.87730000  1.0 0.0694443903
H  H114  1  0.64970000  0.10220000  0.83420000  1.0 0.0694443903
H  H115  1  0.67550000  0.09710000  0.89570000  1.0 0.0694443903
H  H116  1  0.61450000  0.00360000  0.83680000  1.0 0.0350274999
H  H117  1  0.65640000  0.99650000  0.89490000  1.0 0.0631481098
H  H118  1  0.70420000  0.89700000  0.83180000  1.0 0.0791500102
H  H119  1  0.80860000  0.90330000  0.84690000  1.0 0.0631481098
H  H120  1  0.77620000  0.91570000  0.78770000  1.0 0.0694443903
H  H121  1  0.80730000  0.42230000  0.21800000  1.0 0.1110595075
H  H122  1  0.85400000  0.31940000  0.21720000  1.0 0.1181012491
H  H123  1  0.60850000  0.26830000  0.16300000  1.0 0.1110595075
H  H124  1  0.56380000  0.37150000  0.16250000  1.0 0.1181012491
H  H125  1  0.66280000  0.74330000  0.28310000  1.0 0.1181012491
H  H126  1  0.66600000  0.79890000  0.36100000  1.0 0.1044920428
H  H127  1  0.48470000  0.68150000  0.42450000  1.0 0.1110595075
H  H128  1  0.47910000  0.62720000  0.34650000  1.0 0.1110595075
H  H129  1  0.71200000  0.80590000  0.44810000  1.0 0.1110595075
H  H130  1  0.71570000  0.86060000  0.52630000  1.0 0.1110595075
H  H131  1  0.45010000  0.82840000  0.54750000  1.0 0.1181012491
H  H132  1  0.44690000  0.77060000  0.47090000  1.0 0.1110595075
H  H133  1  0.39100000  0.43200000  0.15970000  1.0 0.0791500102
H  H134  1  0.33930000  0.43330000  0.21570000  1.0 0.0694443903
H  H135  1  0.23530000  0.37790000  0.17000000  1.0 0.0694443903
H  H136  1  0.26360000  0.40860000  0.11460000  1.0 0.0631481098
H  H137  1  0.13630000  0.46570000  0.12890000  1.0 0.0492564892
H  H138  1  0.14460000  0.45970000  0.19220000  1.0 0.0631481098
H  H139  1  0.12570000  0.57640000  0.15260000  1.0 0.0694443903
H  H140  1  0.19500000  0.59900000  0.19690000  1.0 0.0694443903
H  H141  1  0.21860000  0.60870000  0.13600000  1.0 0.0492564892
H  H142  1  0.29400000  0.61510000  0.18280000  1.0 0.0791500102
H  H143  1  0.32050000  0.59980000  0.12270000  1.0 0.0694443903
H  H144  1  0.14970000  0.60220000  0.16580000  1.0 0.0694443903
H  H145  1  0.17550000  0.59710000  0.10430000  1.0 0.0631481098
H  H146  1  0.11450000  0.50360000  0.16320000  1.0 0.0306490771
H  H147  1  0.15640000  0.49650000  0.10510000  1.0 0.0631481098
H  H148  1  0.20420000  0.39700000  0.16820000  1.0 0.0791500102
H  H149  1  0.30860000  0.40330000  0.15310000  1.0 0.0631481098
H  H150  1  0.27620000  0.41570000  0.21230000  1.0 0.0694443903
H  H151  1  0.69270000  0.07770000  0.21800000  1.0 0.1110595075
H  H152  1  0.64600000  0.18060000  0.21720000  1.0 0.1181012491
H  H153  1  0.89150000  0.23170000  0.16300000  1.0 0.1110595075
H  H154  1  0.93620000  0.12850000  0.16250000  1.0 0.1181012491
H  H155  1  0.83720000  0.75670000  0.28310000  1.0 0.1181012491
H  H156  1  0.83400000  0.70110000  0.36100000  1.0 0.1044920428
H  H157  1  0.01530000  0.81850000  0.42450000  1.0 0.1110595075
H  H158  1  0.02090000  0.87280000  0.34650000  1.0 0.1110595075
H  H159  1  0.78800000  0.69410000  0.44810000  1.0 0.1110595075
H  H160  1  0.78430000  0.63940000  0.52630000  1.0 0.1110595075
H  H161  1  0.04990000  0.67160000  0.54750000  1.0 0.1181012491
H  H162  1  0.05310000  0.72940000  0.47090000  1.0 0.1110595075
H  H163  1  0.10900000  0.06800000  0.15970000  1.0 0.0791500102
H  H164  1  0.16070000  0.06670000  0.21570000  1.0 0.0694443903
H  H165  1  0.26470000  0.12210000  0.17000000  1.0 0.0694443903
H  H166  1  0.23640000  0.09140000  0.11460000  1.0 0.0631481098
H  H167  1  0.36370000  0.03430000  0.12890000  1.0 0.0492564892
H  H168  1  0.35540000  0.04030000  0.19220000  1.0 0.0631481098
H  H169  1  0.37430000  0.92360000  0.15260000  1.0 0.0694443903
H  H170  1  0.30500000  0.90100000  0.19690000  1.0 0.0694443903
H  H171  1  0.28140000  0.89130000  0.13600000  1.0 0.0492564892
H  H172  1  0.20600000  0.88490000  0.18280000  1.0 0.0791500102
H  H173  1  0.17950000  0.90020000  0.12270000  1.0 0.0694443903
H  H174  1  0.35030000  0.89780000  0.16580000  1.0 0.0694443903
H  H175  1  0.32450000  0.90290000  0.10430000  1.0 0.0631481098
H  H176  1  0.38550000  0.99640000  0.16320000  1.0 0.0306490771
H  H177  1  0.34360000  0.00350000  0.10510000  1.0 0.0631481098
H  H178  1  0.29580000  0.10300000  0.16820000  1.0 0.0791500102
H  H179  1  0.19140000  0.09670000  0.15310000  1.0 0.0631481098
H  H180  1  0.22380000  0.08430000  0.21230000  1.0 0.0694443903
H  H181  1  0.80730000  0.07770000  0.71800000  1.0 0.1110595075
H  H182  1  0.85400000  0.18060000  0.71720000  1.0 0.1181012491
H  H183  1  0.60850000  0.23170000  0.66300000  1.0 0.1110595075
H  H184  1  0.56380000  0.12850000  0.66250000  1.0 0.1181012491
H  H185  1  0.66280000  0.75670000  0.78310000  1.0 0.1181012491
H  H186  1  0.66600000  0.70110000  0.86100000  1.0 0.1044920428
H  H187  1  0.48470000  0.81850000  0.92450000  1.0 0.1110595075
H  H188  1  0.47910000  0.87280000  0.84650000  1.0 0.1110595075
H  H189  1  0.71200000  0.69410000  0.94810000  1.0 0.1110595075
H  H190  1  0.71570000  0.63940000  0.02630000  1.0 0.1110595075
H  H191  1  0.45010000  0.67160000  0.04750000  1.0 0.1181012491
H  H192  1  0.44690000  0.72940000  0.97090000  1.0 0.1110595075
H  H193  1  0.39100000  0.06800000  0.65970000  1.0 0.0791500102
H  H194  1  0.33930000  0.06670000  0.71570000  1.0 0.0694443903
H  H195  1  0.23530000  0.12210000  0.67000000  1.0 0.0694443903
H  H196  1  0.26360000  0.09140000  0.61460000  1.0 0.0631481098
H  H197  1  0.13630000  0.03430000  0.62890000  1.0 0.0492564892
H  H198  1  0.14460000  0.04030000  0.69220000  1.0 0.0631481098
H  H199  1  0.12570000  0.92360000  0.65260000  1.0 0.0694443903
H  H200  1  0.19500000  0.90100000  0.69690000  1.0 0.0694443903
H  H201  1  0.21860000  0.89130000  0.63600000  1.0 0.0492564892
H  H202  1  0.29400000  0.88490000  0.68280000  1.0 0.0791500102
H  H203  1  0.32050000  0.90020000  0.62270000  1.0 0.0694443903
H  H204  1  0.14970000  0.89780000  0.66580000  1.0 0.0694443903
H  H205  1  0.17550000  0.90290000  0.60430000  1.0 0.0631481098
H  H206  1  0.11450000  0.99640000  0.66320000  1.0 0.0306490771
H  H207  1  0.15640000  0.00350000  0.60510000  1.0 0.0631481098
H  H208  1  0.20420000  0.10300000  0.66820000  1.0 0.0791500102
H  H209  1  0.30860000  0.09670000  0.65310000  1.0 0.0631481098
H  H210  1  0.27620000  0.08430000  0.71230000  1.0 0.0694443903
H  H211  1  0.69270000  0.42230000  0.71800000  1.0 0.1110595075
H  H212  1  0.64600000  0.31940000  0.71720000  1.0 0.1181012491
H  H213  1  0.89150000  0.26830000  0.66300000  1.0 0.1110595075
H  H214  1  0.93620000  0.37150000  0.66250000  1.0 0.1181012491
H  H215  1  0.83720000  0.74330000  0.78310000  1.0 0.1181012491
H  H216  1  0.83400000  0.79890000  0.86100000  1.0 0.1044920428
H  H217  1  0.01530000  0.68150000  0.92450000  1.0 0.1110595075
H  H218  1  0.02090000  0.62720000  0.84650000  1.0 0.1110595075
H  H219  1  0.78800000  0.80590000  0.94810000  1.0 0.1110595075
H  H220  1  0.78430000  0.86060000  0.02630000  1.0 0.1110595075
H  H221  1  0.04990000  0.82840000  0.04750000  1.0 0.1181012491
H  H222  1  0.05310000  0.77060000  0.97090000  1.0 0.1110595075
H  H223  1  0.10900000  0.43200000  0.65970000  1.0 0.0791500102
H  H224  1  0.16070000  0.43330000  0.71570000  1.0 0.0694443903
H  H225  1  0.26470000  0.37790000  0.67000000  1.0 0.0694443903
H  H226  1  0.23640000  0.40860000  0.61460000  1.0 0.0631481098
H  H227  1  0.36370000  0.46570000  0.62890000  1.0 0.0492564892
H  H228  1  0.35540000  0.45970000  0.69220000  1.0 0.0631481098
H  H229  1  0.37430000  0.57640000  0.65260000  1.0 0.0694443903
H  H230  1  0.30500000  0.59900000  0.69690000  1.0 0.0694443903
H  H231  1  0.28140000  0.60870000  0.63600000  1.0 0.0492564892
H  H232  1  0.20600000  0.61510000  0.68280000  1.0 0.0791500102
H  H233  1  0.17950000  0.59980000  0.62270000  1.0 0.0694443903
H  H234  1  0.35030000  0.60220000  0.66580000  1.0 0.0694443903
H  H235  1  0.32450000  0.59710000  0.60430000  1.0 0.0631481098
H  H236  1  0.38550000  0.50360000  0.66320000  1.0 0.0306490771
H  H237  1  0.34360000  0.49650000  0.60510000  1.0 0.0631481098
H  H238  1  0.29580000  0.39700000  0.66820000  1.0 0.0791500102
H  H239  1  0.19140000  0.40330000  0.65310000  1.0 0.0631481098
H  H240  1  0.22380000  0.41570000  0.71230000  1.0 0.0694443903
C  C1  1  0.35040000  0.97310000  0.30569000  1.0 0.5517610122
C  C2  1  0.31960000  0.90677000  0.30820000  1.0 -0.0155617041
C  C3  1  0.23350000  0.89090000  0.29296000  1.0 -0.140598996
C  C4  1  0.20570000  0.82959000  0.29339000  1.0 -0.1581855979
C  C5  1  0.26440000  0.78291000  0.30923000  1.0 0.0631481098
C  C6  1  0.35070000  0.79943000  0.32566000  1.0 -0.1581855979
C  C7  1  0.37750000  0.86081000  0.32557000  1.0 -0.1167511906
C  C8  1  0.42950000  0.14274000  0.24315000  1.0 0.5517610122
C  C9  1  0.42900000  0.17920000  0.19329000  1.0 -0.0379460588
C  C10  1  0.37390000  0.23067000  0.18820000  1.0 -0.1581855979
C  C11  1  0.37190000  0.26364000  0.14169000  1.0 -0.2309035606
C  C12  1  0.42390000  0.24629000  0.09895000  1.0 0.0631481098
C  C13  1  0.47910000  0.19445000  0.10437000  1.0 -0.1581855979
C  C14  1  0.48210000  0.16198000  0.15058000  1.0 -0.140598996
C  C15  1  0.42110000  0.28216000  0.04913000  1.0 0.0694443903
C  C16  1  0.34150000  0.30983000  0.03155000  1.0 -0.1763781946
C  C17  1  0.33940000  0.34267000  0.98518000  1.0 -0.0926287252
C  C18  1  0.41630000  0.34998000  0.95506000  1.0 -0.0379460588
C  C19  1  0.49620000  0.32322000  0.97243000  1.0 -0.1009096596
C  C20  1  0.49820000  0.28938000  0.01828000  1.0 -0.1581855979
C  C21  1  0.41180000  0.38433000  0.90398000  1.0 0.5969137657
C  C22  1  0.68330000  0.01660000  0.32908000  1.0 0.212405752
C  C23  1  0.66490000  0.94480000  0.32200000  1.0 -0.070533507
C  C24  1  0.74750000  0.91710000  0.34760000  1.0 -0.1073835533
C  C25  1  0.82140000  0.96560000  0.34090000  1.0 0.0030219584
C  C26  1  0.81040000  0.08120000  0.33840000  1.0 -0.1009096596
C  C27  1  0.71470000  0.08550000  0.34650000  1.0 -0.070533507
C  C28  1  0.81260000  0.07990000  0.36020000  1.0 -0.0926287252
C  C29  1  0.83200000  0.01220000  0.35900000  1.0 -0.0003025557
C  C30  1  0.74000000  0.91990000  0.32490000  1.0 -0.1073835533
C  C31  1  0.14960000  0.52690000  0.30569000  1.0 0.5517610122
C  C32  1  0.18040000  0.59323000  0.30820000  1.0 -0.0155617041
C  C33  1  0.26650000  0.60910000  0.29296000  1.0 -0.140598996
C  C34  1  0.29430000  0.67041000  0.29339000  1.0 -0.1581855979
C  C35  1  0.23560000  0.71709000  0.30923000  1.0 0.0631481098
C  C36  1  0.14930000  0.70057000  0.32566000  1.0 -0.1581855979
C  C37  1  0.12250000  0.63919000  0.32557000  1.0 -0.1167511906
C  C38  1  0.07050000  0.35726000  0.24315000  1.0 0.5517610122
C  C39  1  0.07100000  0.32080000  0.19329000  1.0 -0.0379460588
C  C40  1  0.12610000  0.26933000  0.18820000  1.0 -0.1581855979
C  C41  1  0.12810000  0.23636000  0.14169000  1.0 -0.2309035606
C  C42  1  0.07610000  0.25371000  0.09895000  1.0 0.0631481098
C  C43  1  0.02090000  0.30555000  0.10437000  1.0 -0.1581855979
C  C44  1  0.01790000  0.33802000  0.15058000  1.0 -0.140598996
C  C45  1  0.07890000  0.21784000  0.04913000  1.0 0.0694443903
C  C46  1  0.15850000  0.19017000  0.03155000  1.0 -0.1763781946
C  C47  1  0.16060000  0.15733000  0.98518000  1.0 -0.0926287252
C  C48  1  0.08370000  0.15002000  0.95506000  1.0 -0.0379460588
C  C49  1  0.00380000  0.17678000  0.97243000  1.0 -0.1009096596
C  C50  1  0.00180000  0.21062000  0.01828000  1.0 -0.1581855979
C  C51  1  0.08820000  0.11567000  0.90398000  1.0 0.5969137657
C  C52  1  0.81670000  0.48340000  0.32908000  1.0 0.212405752
C  C53  1  0.83510000  0.55520000  0.32200000  1.0 -0.070533507
C  C54  1  0.75250000  0.58290000  0.34760000  1.0 -0.1073835533
C  C55  1  0.67860000  0.53440000  0.34090000  1.0 0.0030219584
C  C56  1  0.68960000  0.41880000  0.33840000  1.0 -0.1009096596
C  C57  1  0.78530000  0.41450000  0.34650000  1.0 -0.070533507
C  C58  1  0.68740000  0.42010000  0.36020000  1.0 -0.0926287252
C  C59  1  0.66800000  0.48780000  0.35900000  1.0 -0.0003025557
C  C60  1  0.76000000  0.58010000  0.32490000  1.0 -0.1073835533
C  C61  1  0.35040000  0.52690000  0.80569000  1.0 0.5517610122
C  C62  1  0.31960000  0.59323000  0.80820000  1.0 -0.0155617041
C  C63  1  0.23350000  0.60910000  0.79296000  1.0 -0.140598996
C  C64  1  0.20570000  0.67041000  0.79339000  1.0 -0.1581855979
C  C65  1  0.26440000  0.71709000  0.80923000  1.0 0.0631481098
C  C66  1  0.35070000  0.70057000  0.82566000  1.0 -0.1581855979
C  C67  1  0.37750000  0.63919000  0.82557000  1.0 -0.1167511906
C  C68  1  0.42950000  0.35726000  0.74315000  1.0 0.5517610122
C  C69  1  0.42900000  0.32080000  0.69329000  1.0 -0.0379460588
C  C70  1  0.37390000  0.26933000  0.68820000  1.0 -0.1581855979
C  C71  1  0.37190000  0.23636000  0.64169000  1.0 -0.2309035606
C  C72  1  0.42390000  0.25371000  0.59895000  1.0 0.0631481098
C  C73  1  0.47910000  0.30555000  0.60437000  1.0 -0.1581855979
C  C74  1  0.48210000  0.33802000  0.65058000  1.0 -0.140598996
C  C75  1  0.42110000  0.21784000  0.54913000  1.0 0.0694443903
C  C76  1  0.34150000  0.19017000  0.53155000  1.0 -0.1763781946
C  C77  1  0.33940000  0.15733000  0.48518000  1.0 -0.0926287252
C  C78  1  0.41630000  0.15002000  0.45506000  1.0 -0.0379460588
C  C79  1  0.49620000  0.17678000  0.47243000  1.0 -0.1009096596
C  C80  1  0.49820000  0.21062000  0.51828000  1.0 -0.1581855979
C  C81  1  0.41180000  0.11567000  0.40398000  1.0 0.5969137657
C  C82  1  0.68330000  0.48340000  0.82908000  1.0 0.212405752
C  C83  1  0.66490000  0.55520000  0.82200000  1.0 -0.070533507
C  C84  1  0.74750000  0.58290000  0.84760000  1.0 -0.1073835533
C  C85  1  0.82140000  0.53440000  0.84090000  1.0 0.0030219584
C  C86  1  0.81040000  0.41880000  0.83840000  1.0 -0.1009096596
C  C87  1  0.71470000  0.41450000  0.84650000  1.0 -0.070533507
C  C88  1  0.81260000  0.42010000  0.86020000  1.0 -0.0926287252
C  C89  1  0.83200000  0.48780000  0.85900000  1.0 -0.0003025557
C  C90  1  0.74000000  0.58010000  0.82490000  1.0 -0.1073835533
C  C91  1  0.14960000  0.97310000  0.80569000  1.0 0.5517610122
C  C92  1  0.18040000  0.90677000  0.80820000  1.0 -0.0155617041
C  C93  1  0.26650000  0.89090000  0.79296000  1.0 -0.140598996
C  C94  1  0.29430000  0.82959000  0.79339000  1.0 -0.1581855979
C  C95  1  0.23560000  0.78291000  0.80923000  1.0 0.0631481098
C  C96  1  0.14930000  0.79943000  0.82566000  1.0 -0.1581855979
C  C97  1  0.12250000  0.86081000  0.82557000  1.0 -0.1167511906
C  C98  1  0.07050000  0.14274000  0.74315000  1.0 0.5517610122
C  C99  1  0.07100000  0.17920000  0.69329000  1.0 -0.0379460588
C  C100  1  0.12610000  0.23067000  0.68820000  1.0 -0.1581855979
C  C101  1  0.12810000  0.26364000  0.64169000  1.0 -0.2309035606
C  C102  1  0.07610000  0.24629000  0.59895000  1.0 0.0631481098
C  C103  1  0.02090000  0.19445000  0.60437000  1.0 -0.1581855979
C  C104  1  0.01790000  0.16198000  0.65058000  1.0 -0.140598996
C  C105  1  0.07890000  0.28216000  0.54913000  1.0 0.0694443903
C  C106  1  0.15850000  0.30983000  0.53155000  1.0 -0.1763781946
C  C107  1  0.16060000  0.34267000  0.48518000  1.0 -0.0926287252
C  C108  1  0.08370000  0.34998000  0.45506000  1.0 -0.0379460588
C  C109  1  0.00380000  0.32322000  0.47243000  1.0 -0.1009096596
C  C110  1  0.00180000  0.28938000  0.51828000  1.0 -0.1581855979
C  C111  1  0.08820000  0.38433000  0.40398000  1.0 0.5969137657
C  C112  1  0.81670000  0.01660000  0.82908000  1.0 0.212405752
C  C113  1  0.83510000  0.94480000  0.82200000  1.0 -0.070533507
C  C114  1  0.75250000  0.91710000  0.84760000  1.0 -0.1073835533
C  C115  1  0.67860000  0.96560000  0.84090000  1.0 0.0030219584
C  C116  1  0.68960000  0.08120000  0.83840000  1.0 -0.1009096596
C  C117  1  0.78530000  0.08550000  0.84650000  1.0 -0.070533507
C  C118  1  0.68740000  0.07990000  0.86020000  1.0 -0.0926287252
C  C119  1  0.66800000  0.01220000  0.85900000  1.0 -0.0003025557
C  C120  1  0.76000000  0.91990000  0.82490000  1.0 -0.1073835533
C  C121  1  0.64960000  0.47310000  0.19431000  1.0 0.5517610122
C  C122  1  0.68040000  0.40677000  0.19180000  1.0 -0.0155617041
C  C123  1  0.76650000  0.39090000  0.20704000  1.0 -0.140598996
C  C124  1  0.79430000  0.32959000  0.20661000  1.0 -0.1581855979
C  C125  1  0.73560000  0.28291000  0.19077000  1.0 0.0631481098
C  C126  1  0.64930000  0.29943000  0.17434000  1.0 -0.1581855979
C  C127  1  0.62250000  0.36081000  0.17443000  1.0 -0.1167511906
C  C128  1  0.57050000  0.64274000  0.25685000  1.0 0.5517610122
C  C129  1  0.57100000  0.67920000  0.30671000  1.0 -0.0379460588
C  C130  1  0.62610000  0.73067000  0.31180000  1.0 -0.1581855979
C  C131  1  0.62810000  0.76364000  0.35831000  1.0 -0.2309035606
C  C132  1  0.57610000  0.74629000  0.40105000  1.0 0.0631481098
C  C133  1  0.52090000  0.69445000  0.39563000  1.0 -0.1581855979
C  C134  1  0.51790000  0.66198000  0.34942000  1.0 -0.140598996
C  C135  1  0.57890000  0.78216000  0.45087000  1.0 0.0694443903
C  C136  1  0.65850000  0.80983000  0.46845000  1.0 -0.1763781946
C  C137  1  0.66060000  0.84267000  0.51482000  1.0 -0.0926287252
C  C138  1  0.58370000  0.84998000  0.54494000  1.0 -0.0379460588
C  C139  1  0.50380000  0.82322000  0.52757000  1.0 -0.1009096596
C  C140  1  0.50180000  0.78938000  0.48172000  1.0 -0.1581855979
C  C141  1  0.58820000  0.88433000  0.59602000  1.0 0.5969137657
C  C142  1  0.31670000  0.51660000  0.17092000  1.0 0.212405752
C  C143  1  0.33510000  0.44480000  0.17800000  1.0 -0.070533507
C  C144  1  0.25250000  0.41710000  0.15240000  1.0 -0.1073835533
C  C145  1  0.17860000  0.46560000  0.15910000  1.0 0.0030219584
C  C146  1  0.18960000  0.58120000  0.16160000  1.0 -0.1009096596
C  C147  1  0.28530000  0.58550000  0.15350000  1.0 -0.070533507
C  C148  1  0.18740000  0.57990000  0.13980000  1.0 -0.0926287252
C  C149  1  0.16800000  0.51220000  0.14100000  1.0 -0.0003025557
C  C150  1  0.26000000  0.41990000  0.17510000  1.0 -0.1073835533
C  C151  1  0.85040000  0.02690000  0.19431000  1.0 0.5517610122
C  C152  1  0.81960000  0.09323000  0.19180000  1.0 -0.0155617041
C  C153  1  0.73350000  0.10910000  0.20704000  1.0 -0.140598996
C  C154  1  0.70570000  0.17041000  0.20661000  1.0 -0.1581855979
C  C155  1  0.76440000  0.21709000  0.19077000  1.0 0.0631481098
C  C156  1  0.85070000  0.20057000  0.17434000  1.0 -0.1581855979
C  C157  1  0.87750000  0.13919000  0.17443000  1.0 -0.1167511906
C  C158  1  0.92950000  0.85726000  0.25685000  1.0 0.5517610122
C  C159  1  0.92900000  0.82080000  0.30671000  1.0 -0.0379460588
C  C160  1  0.87390000  0.76933000  0.31180000  1.0 -0.1581855979
C  C161  1  0.87190000  0.73636000  0.35831000  1.0 -0.2309035606
C  C162  1  0.92390000  0.75371000  0.40105000  1.0 0.0631481098
C  C163  1  0.97910000  0.80555000  0.39563000  1.0 -0.1581855979
C  C164  1  0.98210000  0.83802000  0.34942000  1.0 -0.140598996
C  C165  1  0.92110000  0.71784000  0.45087000  1.0 0.0694443903
C  C166  1  0.84150000  0.69017000  0.46845000  1.0 -0.1763781946
C  C167  1  0.83940000  0.65733000  0.51482000  1.0 -0.0926287252
C  C168  1  0.91630000  0.65002000  0.54494000  1.0 -0.0379460588
C  C169  1  0.99620000  0.67678000  0.52757000  1.0 -0.1009096596
C  C170  1  0.99820000  0.71062000  0.48172000  1.0 -0.1581855979
C  C171  1  0.91180000  0.61567000  0.59602000  1.0 0.5969137657
C  C172  1  0.18330000  0.98340000  0.17092000  1.0 0.212405752
C  C173  1  0.16490000  0.05520000  0.17800000  1.0 -0.070533507
C  C174  1  0.24750000  0.08290000  0.15240000  1.0 -0.1073835533
C  C175  1  0.32140000  0.03440000  0.15910000  1.0 0.0030219584
C  C176  1  0.31040000  0.91880000  0.16160000  1.0 -0.1009096596
C  C177  1  0.21470000  0.91450000  0.15350000  1.0 -0.070533507
C  C178  1  0.31260000  0.92010000  0.13980000  1.0 -0.0926287252
C  C179  1  0.33200000  0.98780000  0.14100000  1.0 -0.0003025557
C  C180  1  0.24000000  0.08010000  0.17510000  1.0 -0.1073835533
C  C181  1  0.64960000  0.02690000  0.69431000  1.0 0.5517610122
C  C182  1  0.68040000  0.09323000  0.69180000  1.0 -0.0155617041
C  C183  1  0.76650000  0.10910000  0.70704000  1.0 -0.140598996
C  C184  1  0.79430000  0.17041000  0.70661000  1.0 -0.1581855979
C  C185  1  0.73560000  0.21709000  0.69077000  1.0 0.0631481098
C  C186  1  0.64930000  0.20057000  0.67434000  1.0 -0.1581855979
C  C187  1  0.62250000  0.13919000  0.67443000  1.0 -0.1167511906
C  C188  1  0.57050000  0.85726000  0.75685000  1.0 0.5517610122
C  C189  1  0.57100000  0.82080000  0.80671000  1.0 -0.0379460588
C  C190  1  0.62610000  0.76933000  0.81180000  1.0 -0.1581855979
C  C191  1  0.62810000  0.73636000  0.85831000  1.0 -0.2309035606
C  C192  1  0.57610000  0.75371000  0.90105000  1.0 0.0631481098
C  C193  1  0.52090000  0.80555000  0.89563000  1.0 -0.1581855979
C  C194  1  0.51790000  0.83802000  0.84942000  1.0 -0.140598996
C  C195  1  0.57890000  0.71784000  0.95087000  1.0 0.0694443903
C  C196  1  0.65850000  0.69017000  0.96845000  1.0 -0.1763781946
C  C197  1  0.66060000  0.65733000  0.01482000  1.0 -0.0926287252
C  C198  1  0.58370000  0.65002000  0.04494000  1.0 -0.0379460588
C  C199  1  0.50380000  0.67678000  0.02757000  1.0 -0.1009096596
C  C200  1  0.50180000  0.71062000  0.98172000  1.0 -0.1581855979
C  C201  1  0.58820000  0.61567000  0.09602000  1.0 0.5969137657
C  C202  1  0.31670000  0.98340000  0.67092000  1.0 0.212405752
C  C203  1  0.33510000  0.05520000  0.67800000  1.0 -0.070533507
C  C204  1  0.25250000  0.08290000  0.65240000  1.0 -0.1073835533
C  C205  1  0.17860000  0.03440000  0.65910000  1.0 0.0030219584
C  C206  1  0.18960000  0.91880000  0.66160000  1.0 -0.1009096596
C  C207  1  0.28530000  0.91450000  0.65350000  1.0 -0.070533507
C  C208  1  0.18740000  0.92010000  0.63980000  1.0 -0.0926287252
C  C209  1  0.16800000  0.98780000  0.64100000  1.0 -0.0003025557
C  C210  1  0.26000000  0.08010000  0.67510000  1.0 -0.1073835533
C  C211  1  0.85040000  0.47310000  0.69431000  1.0 0.5517610122
C  C212  1  0.81960000  0.40677000  0.69180000  1.0 -0.0155617041
C  C213  1  0.73350000  0.39090000  0.70704000  1.0 -0.140598996
C  C214  1  0.70570000  0.32959000  0.70661000  1.0 -0.1581855979
C  C215  1  0.76440000  0.28291000  0.69077000  1.0 0.0631481098
C  C216  1  0.85070000  0.29943000  0.67434000  1.0 -0.1581855979
C  C217  1  0.87750000  0.36081000  0.67443000  1.0 -0.1167511906
C  C218  1  0.92950000  0.64274000  0.75685000  1.0 0.5517610122
C  C219  1  0.92900000  0.67920000  0.80671000  1.0 -0.0379460588
C  C220  1  0.87390000  0.73067000  0.81180000  1.0 -0.1581855979
C  C221  1  0.87190000  0.76364000  0.85831000  1.0 -0.2309035606
C  C222  1  0.92390000  0.74629000  0.90105000  1.0 0.0631481098
C  C223  1  0.97910000  0.69445000  0.89563000  1.0 -0.1581855979
C  C224  1  0.98210000  0.66198000  0.84942000  1.0 -0.140598996
C  C225  1  0.92110000  0.78216000  0.95087000  1.0 0.0694443903
C  C226  1  0.84150000  0.80983000  0.96845000  1.0 -0.1763781946
C  C227  1  0.83940000  0.84267000  0.01482000  1.0 -0.0926287252
C  C228  1  0.91630000  0.84998000  0.04494000  1.0 -0.0379460588
C  C229  1  0.99620000  0.82322000  0.02757000  1.0 -0.1009096596
C  C230  1  0.99820000  0.78938000  0.98172000  1.0 -0.1581855979
C  C231  1  0.91180000  0.88433000  0.09602000  1.0 0.5969137657
C  C232  1  0.18330000  0.51660000  0.67092000  1.0 0.212405752
C  C233  1  0.16490000  0.44480000  0.67800000  1.0 -0.070533507
C  C234  1  0.24750000  0.41710000  0.65240000  1.0 -0.1073835533
C  C235  1  0.32140000  0.46560000  0.65910000  1.0 0.0030219584
C  C236  1  0.31040000  0.58120000  0.66160000  1.0 -0.1009096596
C  C237  1  0.21470000  0.58550000  0.65350000  1.0 -0.070533507
C  C238  1  0.31260000  0.57990000  0.63980000  1.0 -0.0926287252
C  C239  1  0.33200000  0.51220000  0.64100000  1.0 -0.0003025557
C  C240  1  0.24000000  0.41990000  0.67510000  1.0 -0.1073835533
N  N1  1  0.76670000  0.02100000  0.33960000  1.0 0.0306490771
N  N2  1  0.75330000  0.98370000  0.33710000  1.0 0.0203064935
N  N3  1  0.73330000  0.47900000  0.33960000  1.0 0.0306490771
N  N4  1  0.74670000  0.51630000  0.33710000  1.0 0.0203064935
N  N5  1  0.76670000  0.47900000  0.83960000  1.0 0.0306490771
N  N6  1  0.75330000  0.51630000  0.83710000  1.0 0.0203064935
N  N7  1  0.73330000  0.02100000  0.83960000  1.0 0.0306490771
N  N8  1  0.74670000  0.98370000  0.83710000  1.0 0.0203064935
N  N9  1  0.23330000  0.52100000  0.16040000  1.0 0.0306490771
N  N10  1  0.24670000  0.48370000  0.16290000  1.0 0.0203064935
N  N11  1  0.26670000  0.97900000  0.16040000  1.0 0.0306490771
N  N12  1  0.25330000  0.01630000  0.16290000  1.0 0.0203064935
N  N13  1  0.23330000  0.97900000  0.66040000  1.0 0.0306490771
N  N14  1  0.24670000  0.01630000  0.66290000  1.0 0.0203064935
N  N15  1  0.26670000  0.52100000  0.66040000  1.0 0.0306490771
N  N16  1  0.25330000  0.48370000  0.66290000  1.0 0.0203064935
O  O1  1  0.43470000  0.98125000  0.31449000  1.0 -0.5910159241
O  O2  1  0.29600000  0.01407000  0.29513000  1.0 -0.6386263412
O  O3  1  0.49572000  0.10598000  0.24970000  1.0 -0.5824783336
O  O4  1  0.36695000  0.14951000  0.27479000  1.0 -0.6349202286
O  O5  1  0.33694000  0.40057000  0.88690000  1.0 -0.6557609927
O  O6  1  0.48725000  0.39334000  0.88098000  1.0 -0.5910159241
O  O7  1  0.62670000  0.05300000  0.32014000  1.0 -0.070533507
O  O8  1  0.60540000  0.01200000  0.31580000  1.0 -0.1272411257
O  O9  1  0.06530000  0.51875000  0.31449000  1.0 -0.5910159241
O  O10  1  0.20400000  0.48593000  0.29513000  1.0 -0.6386263412
O  O11  1  0.00428000  0.39402000  0.24970000  1.0 -0.5824783336
O  O12  1  0.13305000  0.35049000  0.27479000  1.0 -0.6349202286
O  O13  1  0.16306000  0.09943000  0.88690000  1.0 -0.6557609927
O  O14  1  0.01275000  0.10666000  0.88098000  1.0 -0.5910159241
O  O15  1  0.87330000  0.44700000  0.32014000  1.0 -0.070533507
O  O16  1  0.89460000  0.48800000  0.31580000  1.0 -0.1272411257
O  O17  1  0.43470000  0.51875000  0.81449000  1.0 -0.5910159241
O  O18  1  0.29600000  0.48593000  0.79513000  1.0 -0.6386263412
O  O19  1  0.49572000  0.39402000  0.74970000  1.0 -0.5824783336
O  O20  1  0.36695000  0.35049000  0.77479000  1.0 -0.6349202286
O  O21  1  0.33694000  0.09943000  0.38690000  1.0 -0.6557609927
O  O22  1  0.48725000  0.10666000  0.38098000  1.0 -0.5910159241
O  O23  1  0.62670000  0.44700000  0.82014000  1.0 -0.070533507
O  O24  1  0.60540000  0.48800000  0.81580000  1.0 -0.1272411257
O  O25  1  0.06530000  0.98125000  0.81449000  1.0 -0.5910159241
O  O26  1  0.20400000  0.01407000  0.79513000  1.0 -0.6386263412
O  O27  1  0.00428000  0.10598000  0.74970000  1.0 -0.5824783336
O  O28  1  0.13305000  0.14951000  0.77479000  1.0 -0.6349202286
O  O29  1  0.16306000  0.40057000  0.38690000  1.0 -0.6557609927
O  O30  1  0.01275000  0.39334000  0.38098000  1.0 -0.5910159241
O  O31  1  0.87330000  0.05300000  0.82014000  1.0 -0.070533507
O  O32  1  0.89460000  0.01200000  0.81580000  1.0 -0.1272411257
O  O33  1  0.56530000  0.48125000  0.18551000  1.0 -0.5910159241
O  O34  1  0.70400000  0.51407000  0.20487000  1.0 -0.6386263412
O  O35  1  0.50428000  0.60598000  0.25030000  1.0 -0.5824783336
O  O36  1  0.63305000  0.64951000  0.22521000  1.0 -0.6349202286
O  O37  1  0.66306000  0.90057000  0.61310000  1.0 -0.6557609927
O  O38  1  0.51275000  0.89334000  0.61902000  1.0 -0.5910159241
O  O39  1  0.37330000  0.55300000  0.17986000  1.0 -0.070533507
O  O40  1  0.39460000  0.51200000  0.18420000  1.0 -0.1272411257
O  O41  1  0.93470000  0.01875000  0.18551000  1.0 -0.5910159241
O  O42  1  0.79600000  0.98593000  0.20487000  1.0 -0.6386263412
O  O43  1  0.99572000  0.89402000  0.25030000  1.0 -0.5824783336
O  O44  1  0.86695000  0.85049000  0.22521000  1.0 -0.6349202286
O  O45  1  0.83694000  0.59943000  0.61310000  1.0 -0.6557609927
O  O46  1  0.98725000  0.60666000  0.61902000  1.0 -0.5910159241
O  O47  1  0.12670000  0.94700000  0.17986000  1.0 -0.070533507
O  O48  1  0.10540000  0.98800000  0.18420000  1.0 -0.1272411257
O  O49  1  0.56530000  0.01875000  0.68551000  1.0 -0.5910159241
O  O50  1  0.70400000  0.98593000  0.70487000  1.0 -0.6386263412
O  O51  1  0.50428000  0.89402000  0.75030000  1.0 -0.5824783336
O  O52  1  0.63305000  0.85049000  0.72521000  1.0 -0.6349202286
O  O53  1  0.66306000  0.59943000  0.11310000  1.0 -0.6557609927
O  O54  1  0.51275000  0.60666000  0.11902000  1.0 -0.5910159241
O  O55  1  0.37330000  0.94700000  0.67986000  1.0 -0.070533507
O  O56  1  0.39460000  0.98800000  0.68420000  1.0 -0.1272411257
O  O57  1  0.93470000  0.48125000  0.68551000  1.0 -0.5910159241
O  O58  1  0.79600000  0.51407000  0.70487000  1.0 -0.6386263412
O  O59  1  0.99572000  0.60598000  0.75030000  1.0 -0.5824783336
O  O60  1  0.86695000  0.64951000  0.72521000  1.0 -0.6349202286
O  O61  1  0.83694000  0.90057000  0.11310000  1.0 -0.6557609927
O  O62  1  0.98725000  0.89334000  0.11902000  1.0 -0.5910159241
O  O63  1  0.12670000  0.55300000  0.67986000  1.0 -0.070533507
O  O64  1  0.10540000  0.51200000  0.68420000  1.0 -0.1272411257
