# DDEC6 charges by PACMAN v1.1 (https://github.com/mtap-research/PACMAN-charge/)
data_CEWRUV_ASR_pacman
_symmetry_space_group_name_H-M   'P 1'
_cell_length_a   18.75820000
_cell_length_b   18.75820000
_cell_length_c   18.75820000
_cell_angle_alpha   107.05300000
_cell_angle_beta   107.05300000
_cell_angle_gamma   107.05300000
_symmetry_Int_Tables_number   1
_chemical_formula_structural   CdH6C5NO6
_chemical_formula_sum   'Cd24 H144 C120 N24 O144'
_cell_volume   5488.95045874
_cell_formula_units_Z   24
loop_
 _symmetry_equiv_pos_site_id
 _symmetry_equiv_pos_as_xyz
  1  'x, y, z'
loop_
 _atom_site_type_symbol
 _atom_site_label
 _atom_site_symmetry_multiplicity
 _atom_site_fract_x
 _atom_site_fract_y
 _atom_site_fract_z
 _atom_site_occupancy
 _atom_site_charge
Cd  Cd1  1  0.95357000  0.44960000  0.83943000  1.0 0.5082152315
Cd  Cd2  1  0.96878000  0.49045000  0.89287000  1.0 0.5294577308
Cd  Cd3  1  0.83943000  0.95357000  0.44960000  1.0 0.5082152315
Cd  Cd4  1  0.89287000  0.96878000  0.49045000  1.0 0.5294577308
Cd  Cd5  1  0.44960000  0.83943000  0.95357000  1.0 0.5082152315
Cd  Cd6  1  0.49045000  0.89287000  0.96878000  1.0 0.5294577308
Cd  Cd7  1  0.54643000  0.66057000  0.05040000  1.0 0.5082152315
Cd  Cd8  1  0.53122000  0.60713000  0.00955000  1.0 0.5294577308
Cd  Cd9  1  0.66057000  0.05040000  0.54643000  1.0 0.5082152315
Cd  Cd10  1  0.60713000  0.00955000  0.53122000  1.0 0.5294577308
Cd  Cd11  1  0.05040000  0.54643000  0.66057000  1.0 0.5082152315
Cd  Cd12  1  0.00955000  0.53122000  0.60713000  1.0 0.5294577308
Cd  Cd13  1  0.04643000  0.55040000  0.16057000  1.0 0.5082152315
Cd  Cd14  1  0.03122000  0.50955000  0.10713000  1.0 0.5294577308
Cd  Cd15  1  0.16057000  0.04643000  0.55040000  1.0 0.5082152315
Cd  Cd16  1  0.10713000  0.03122000  0.50955000  1.0 0.5294577308
Cd  Cd17  1  0.55040000  0.16057000  0.04643000  1.0 0.5082152315
Cd  Cd18  1  0.50955000  0.10713000  0.03122000  1.0 0.5294577308
Cd  Cd19  1  0.45357000  0.33943000  0.94960000  1.0 0.5082152315
Cd  Cd20  1  0.46878000  0.39287000  0.99045000  1.0 0.5294577308
Cd  Cd21  1  0.33943000  0.94960000  0.45357000  1.0 0.5082152315
Cd  Cd22  1  0.39287000  0.99045000  0.46878000  1.0 0.5294577308
Cd  Cd23  1  0.94960000  0.45357000  0.33943000  1.0 0.5082152315
Cd  Cd24  1  0.99045000  0.46878000  0.39287000  1.0 0.5294577308
H  H1  1  0.08889000  0.27845000  0.11623000  1.0 0.2943376479
H  H2  1  0.20012000  0.38880000  0.91113000  1.0 0.1076212441
H  H3  1  0.24883000  0.27375000  0.05795000  1.0 0.1076212441
H  H4  1  0.04869000  0.32208000  0.01606000  1.0 0.0629506574
H  H5  1  0.84869000  0.30308000  0.70441000  1.0 0.1669493258
H  H6  1  0.90773000  0.33625000  0.68216000  1.0 0.2123835321
H  H7  1  0.02071000  0.61419000  0.91769000  1.0 0.1391017166
H  H8  1  0.02050000  0.58716000  0.97661000  1.0 0.1669493258
H  H9  1  0.90742000  0.38960000  0.25491000  1.0 0.2123835321
H  H10  1  0.97391000  0.39158000  0.24047000  1.0 0.2123835321
H  H11  1  0.93870000  0.38622000  0.97693000  1.0 0.1842885566
H  H12  1  0.97616000  0.42640000  0.94036000  1.0 0.2123835321
H  H13  1  0.11623000  0.08889000  0.27845000  1.0 0.2943376479
H  H14  1  0.91113000  0.20012000  0.38880000  1.0 0.1076212441
H  H15  1  0.05795000  0.24883000  0.27375000  1.0 0.1076212441
H  H16  1  0.01606000  0.04869000  0.32208000  1.0 0.0629506574
H  H17  1  0.70441000  0.84869000  0.30308000  1.0 0.1669493258
H  H18  1  0.68216000  0.90773000  0.33625000  1.0 0.2123835321
H  H19  1  0.91769000  0.02071000  0.61419000  1.0 0.1391017166
H  H20  1  0.97661000  0.02050000  0.58716000  1.0 0.1669493258
H  H21  1  0.25491000  0.90742000  0.38960000  1.0 0.2123835321
H  H22  1  0.24047000  0.97391000  0.39158000  1.0 0.2123835321
H  H23  1  0.97693000  0.93870000  0.38622000  1.0 0.1842885566
H  H24  1  0.94036000  0.97616000  0.42640000  1.0 0.2152179358
H  H25  1  0.27845000  0.11623000  0.08889000  1.0 0.2943376479
H  H26  1  0.38880000  0.91113000  0.20012000  1.0 0.1076212441
H  H27  1  0.27375000  0.05795000  0.24883000  1.0 0.1076212441
H  H28  1  0.32208000  0.01606000  0.04869000  1.0 0.0629506574
H  H29  1  0.30308000  0.70441000  0.84869000  1.0 0.1669493258
H  H30  1  0.33625000  0.68216000  0.90773000  1.0 0.2123835321
H  H31  1  0.61419000  0.91769000  0.02071000  1.0 0.1391017166
H  H32  1  0.58716000  0.97661000  0.02050000  1.0 0.1669493258
H  H33  1  0.38960000  0.25491000  0.90742000  1.0 0.2123835321
H  H34  1  0.39158000  0.24047000  0.97391000  1.0 0.2123835321
H  H35  1  0.38622000  0.97693000  0.93870000  1.0 0.1842885566
H  H36  1  0.42640000  0.94036000  0.97616000  1.0 0.2152179358
H  H37  1  0.41111000  0.38377000  0.22155000  1.0 0.2943376479
H  H38  1  0.29988000  0.58887000  0.11120000  1.0 0.1076212441
H  H39  1  0.25117000  0.44205000  0.22625000  1.0 0.1076212441
H  H40  1  0.45131000  0.48394000  0.17792000  1.0 0.0629506574
H  H41  1  0.65131000  0.79559000  0.19692000  1.0 0.1647736756
H  H42  1  0.59227000  0.81784000  0.16375000  1.0 0.2123835321
H  H43  1  0.47929000  0.58231000  0.88581000  1.0 0.1391017166
H  H44  1  0.47950000  0.52339000  0.91284000  1.0 0.1669493258
H  H45  1  0.59258000  0.24509000  0.11040000  1.0 0.2123835321
H  H46  1  0.52609000  0.25953000  0.10842000  1.0 0.2123835321
H  H47  1  0.56130000  0.52307000  0.11378000  1.0 0.1842885566
H  H48  1  0.52384000  0.55964000  0.07360000  1.0 0.2152179358
H  H49  1  0.38377000  0.22155000  0.41111000  1.0 0.2943376479
H  H50  1  0.58887000  0.11120000  0.29988000  1.0 0.1076212441
H  H51  1  0.44205000  0.22625000  0.25117000  1.0 0.1076212441
H  H52  1  0.48394000  0.17792000  0.45131000  1.0 0.0629506574
H  H53  1  0.79559000  0.19692000  0.65131000  1.0 0.1669493258
H  H54  1  0.81784000  0.16375000  0.59227000  1.0 0.2123835321
H  H55  1  0.58231000  0.88581000  0.47929000  1.0 0.1391017166
H  H56  1  0.52339000  0.91284000  0.47950000  1.0 0.1669493258
H  H57  1  0.24509000  0.11040000  0.59258000  1.0 0.2123835321
H  H58  1  0.25953000  0.10842000  0.52609000  1.0 0.2123835321
H  H59  1  0.52307000  0.11378000  0.56130000  1.0 0.1842885566
H  H60  1  0.55964000  0.07360000  0.52384000  1.0 0.2123835321
H  H61  1  0.22155000  0.41111000  0.38377000  1.0 0.2943376479
H  H62  1  0.11120000  0.29988000  0.58887000  1.0 0.1076212441
H  H63  1  0.22625000  0.25117000  0.44205000  1.0 0.1076212441
H  H64  1  0.17792000  0.45131000  0.48394000  1.0 0.0629506574
H  H65  1  0.19692000  0.65131000  0.79559000  1.0 0.1669493258
H  H66  1  0.16375000  0.59227000  0.81784000  1.0 0.2123835321
H  H67  1  0.88581000  0.47929000  0.58231000  1.0 0.1391017166
H  H68  1  0.91284000  0.47950000  0.52339000  1.0 0.1669493258
H  H69  1  0.11040000  0.59258000  0.24509000  1.0 0.2123835321
H  H70  1  0.10842000  0.52609000  0.25953000  1.0 0.2123835321
H  H71  1  0.11378000  0.56130000  0.52307000  1.0 0.1842885566
H  H72  1  0.07360000  0.52384000  0.55964000  1.0 0.2123835321
H  H73  1  0.91111000  0.72155000  0.88377000  1.0 0.2943376479
H  H74  1  0.79988000  0.61120000  0.08887000  1.0 0.1076212441
H  H75  1  0.75117000  0.72625000  0.94205000  1.0 0.1076212441
H  H76  1  0.95131000  0.67792000  0.98394000  1.0 0.0629506574
H  H77  1  0.15131000  0.69692000  0.29559000  1.0 0.1647736756
H  H78  1  0.09227000  0.66375000  0.31784000  1.0 0.2123835321
H  H79  1  0.97929000  0.38581000  0.08231000  1.0 0.1391017166
H  H80  1  0.97950000  0.41284000  0.02339000  1.0 0.1669493258
H  H81  1  0.09258000  0.61040000  0.74509000  1.0 0.2123835321
H  H82  1  0.02609000  0.60842000  0.75953000  1.0 0.2123835321
H  H83  1  0.06130000  0.61378000  0.02307000  1.0 0.1842885566
H  H84  1  0.02384000  0.57360000  0.05964000  1.0 0.2152179358
H  H85  1  0.88377000  0.91111000  0.72155000  1.0 0.2943376479
H  H86  1  0.08887000  0.79988000  0.61120000  1.0 0.1076212441
H  H87  1  0.94205000  0.75117000  0.72625000  1.0 0.1076212441
H  H88  1  0.98394000  0.95131000  0.67792000  1.0 0.0629506574
H  H89  1  0.29559000  0.15131000  0.69692000  1.0 0.1647736756
H  H90  1  0.31784000  0.09227000  0.66375000  1.0 0.2123835321
H  H91  1  0.08231000  0.97929000  0.38581000  1.0 0.1391017166
H  H92  1  0.02339000  0.97950000  0.41284000  1.0 0.1669493258
H  H93  1  0.74509000  0.09258000  0.61040000  1.0 0.2123835321
H  H94  1  0.75953000  0.02609000  0.60842000  1.0 0.2123835321
H  H95  1  0.02307000  0.06130000  0.61378000  1.0 0.1842885566
H  H96  1  0.05964000  0.02384000  0.57360000  1.0 0.2123835321
H  H97  1  0.72155000  0.88377000  0.91111000  1.0 0.2943376479
H  H98  1  0.61120000  0.08887000  0.79988000  1.0 0.1076212441
H  H99  1  0.72625000  0.94205000  0.75117000  1.0 0.1076212441
H  H100  1  0.67792000  0.98394000  0.95131000  1.0 0.0629506574
H  H101  1  0.69692000  0.29559000  0.15131000  1.0 0.1647736756
H  H102  1  0.66375000  0.31784000  0.09227000  1.0 0.2123835321
H  H103  1  0.38581000  0.08231000  0.97929000  1.0 0.1391017166
H  H104  1  0.41284000  0.02339000  0.97950000  1.0 0.1669493258
H  H105  1  0.61040000  0.74509000  0.09258000  1.0 0.2123835321
H  H106  1  0.60842000  0.75953000  0.02609000  1.0 0.2152179358
H  H107  1  0.61378000  0.02307000  0.06130000  1.0 0.1842885566
H  H108  1  0.57360000  0.05964000  0.02384000  1.0 0.2123835321
H  H109  1  0.58889000  0.61623000  0.77845000  1.0 0.2943376479
H  H110  1  0.70012000  0.41113000  0.88880000  1.0 0.1076212441
H  H111  1  0.74883000  0.55795000  0.77375000  1.0 0.1076212441
H  H112  1  0.54869000  0.51606000  0.82208000  1.0 0.0629506574
H  H113  1  0.34869000  0.20441000  0.80308000  1.0 0.1647736756
H  H114  1  0.40773000  0.18216000  0.83625000  1.0 0.2123835321
H  H115  1  0.52071000  0.41769000  0.11419000  1.0 0.1391017166
H  H116  1  0.52050000  0.47661000  0.08716000  1.0 0.1669493258
H  H117  1  0.40742000  0.75491000  0.88960000  1.0 0.2123835321
H  H118  1  0.47391000  0.74047000  0.89158000  1.0 0.2123835321
H  H119  1  0.43870000  0.47693000  0.88622000  1.0 0.1842885566
H  H120  1  0.47616000  0.44036000  0.92640000  1.0 0.2123835321
H  H121  1  0.61623000  0.77845000  0.58889000  1.0 0.2943376479
H  H122  1  0.41113000  0.88880000  0.70012000  1.0 0.1076212441
H  H123  1  0.55795000  0.77375000  0.74883000  1.0 0.1076212441
H  H124  1  0.51606000  0.82208000  0.54869000  1.0 0.0629506574
H  H125  1  0.20441000  0.80308000  0.34869000  1.0 0.1647736756
H  H126  1  0.18216000  0.83625000  0.40773000  1.0 0.2123835321
H  H127  1  0.41769000  0.11419000  0.52071000  1.0 0.1391017166
H  H128  1  0.47661000  0.08716000  0.52050000  1.0 0.1669493258
H  H129  1  0.75491000  0.88960000  0.40742000  1.0 0.2123835321
H  H130  1  0.74047000  0.89158000  0.47391000  1.0 0.2123835321
H  H131  1  0.47693000  0.88622000  0.43870000  1.0 0.1842885566
H  H132  1  0.44036000  0.92640000  0.47616000  1.0 0.2152179358
H  H133  1  0.77845000  0.58889000  0.61623000  1.0 0.2943376479
H  H134  1  0.88880000  0.70012000  0.41113000  1.0 0.1076212441
H  H135  1  0.77375000  0.74883000  0.55795000  1.0 0.1076212441
H  H136  1  0.82208000  0.54869000  0.51606000  1.0 0.0629506574
H  H137  1  0.80308000  0.34869000  0.20441000  1.0 0.1647736756
H  H138  1  0.83625000  0.40773000  0.18216000  1.0 0.2123835321
H  H139  1  0.11419000  0.52071000  0.41769000  1.0 0.1391017166
H  H140  1  0.08716000  0.52050000  0.47661000  1.0 0.1669493258
H  H141  1  0.88960000  0.40742000  0.75491000  1.0 0.2123835321
H  H142  1  0.89158000  0.47391000  0.74047000  1.0 0.2123835321
H  H143  1  0.88622000  0.43870000  0.47693000  1.0 0.1842885566
H  H144  1  0.92640000  0.47616000  0.44036000  1.0 0.2152179358
C  C1  1  0.11602000  0.36078000  0.95780000  1.0 -0.074633591
C  C2  1  0.18635000  0.36466000  0.94479000  1.0 -0.193124972
C  C3  1  0.23591000  0.33194000  0.98285000  1.0 0.0051026912
C  C4  1  0.21593000  0.29610000  0.03357000  1.0 -0.2125088284
C  C5  1  0.14645000  0.29356000  0.04784000  1.0 0.2463594702
C  C6  1  0.09605000  0.32516000  0.00829000  1.0 -0.2907689641
C  C7  1  0.05968000  0.39222000  0.91490000  1.0 0.4641698825
C  C8  1  0.31279000  0.33716000  0.97125000  1.0 0.4309581446
C  C9  1  0.14658000  0.21296000  0.13278000  1.0 0.5161596415
C  C10  1  0.06440000  0.40540000  0.93120000  1.0 0.342683169
C  C11  1  0.95780000  0.11602000  0.36078000  1.0 -0.074633591
C  C12  1  0.94479000  0.18635000  0.36466000  1.0 -0.193124972
C  C13  1  0.98285000  0.23591000  0.33194000  1.0 0.0046941367
C  C14  1  0.03357000  0.21593000  0.29610000  1.0 -0.2125088284
C  C15  1  0.04784000  0.14645000  0.29356000  1.0 0.2463594702
C  C16  1  0.00829000  0.09605000  0.32516000  1.0 -0.2907689641
C  C17  1  0.91490000  0.05968000  0.39222000  1.0 0.4660160072
C  C18  1  0.97125000  0.31279000  0.33716000  1.0 0.4309581446
C  C19  1  0.13278000  0.14658000  0.21296000  1.0 0.5161596415
C  C20  1  0.93120000  0.06440000  0.40540000  1.0 0.342683169
C  C21  1  0.36078000  0.95780000  0.11602000  1.0 -0.074633591
C  C22  1  0.36466000  0.94479000  0.18635000  1.0 -0.193124972
C  C23  1  0.33194000  0.98285000  0.23591000  1.0 0.0046941367
C  C24  1  0.29610000  0.03357000  0.21593000  1.0 -0.2125088284
C  C25  1  0.29356000  0.04784000  0.14645000  1.0 0.2463594702
C  C26  1  0.32516000  0.00829000  0.09605000  1.0 -0.2907689641
C  C27  1  0.39222000  0.91490000  0.05968000  1.0 0.4641698825
C  C28  1  0.33716000  0.97125000  0.31279000  1.0 0.4309581446
C  C29  1  0.21296000  0.13278000  0.14658000  1.0 0.5161596415
C  C30  1  0.40540000  0.93120000  0.06440000  1.0 0.342683169
C  C31  1  0.38398000  0.54220000  0.13922000  1.0 -0.074633591
C  C32  1  0.31365000  0.55521000  0.13534000  1.0 -0.193124972
C  C33  1  0.26409000  0.51715000  0.16806000  1.0 0.0046941367
C  C34  1  0.28407000  0.46643000  0.20390000  1.0 -0.2125088284
C  C35  1  0.35355000  0.45216000  0.20644000  1.0 0.2463594702
C  C36  1  0.40395000  0.49171000  0.17484000  1.0 -0.2907689641
C  C37  1  0.44032000  0.58510000  0.10778000  1.0 0.4641698825
C  C38  1  0.18721000  0.52875000  0.16284000  1.0 0.4309581446
C  C39  1  0.35342000  0.36722000  0.28704000  1.0 0.5161596415
C  C40  1  0.43560000  0.56880000  0.09460000  1.0 0.342683169
C  C41  1  0.54220000  0.13922000  0.38398000  1.0 -0.074633591
C  C42  1  0.55521000  0.13534000  0.31365000  1.0 -0.193124972
C  C43  1  0.51715000  0.16806000  0.26409000  1.0 0.0046941367
C  C44  1  0.46643000  0.20390000  0.28407000  1.0 -0.2125088284
C  C45  1  0.45216000  0.20644000  0.35355000  1.0 0.2463594702
C  C46  1  0.49171000  0.17484000  0.40395000  1.0 -0.2907689641
C  C47  1  0.58510000  0.10778000  0.44032000  1.0 0.4641698825
C  C48  1  0.52875000  0.16284000  0.18721000  1.0 0.4309581446
C  C49  1  0.36722000  0.28704000  0.35342000  1.0 0.5161596415
C  C50  1  0.56880000  0.09460000  0.43560000  1.0 0.342683169
C  C51  1  0.13922000  0.38398000  0.54220000  1.0 -0.074633591
C  C52  1  0.13534000  0.31365000  0.55521000  1.0 -0.193124972
C  C53  1  0.16806000  0.26409000  0.51715000  1.0 0.0046941367
C  C54  1  0.20390000  0.28407000  0.46643000  1.0 -0.2125088284
C  C55  1  0.20644000  0.35355000  0.45216000  1.0 0.2463594702
C  C56  1  0.17484000  0.40395000  0.49171000  1.0 -0.2907689641
C  C57  1  0.10778000  0.44032000  0.58510000  1.0 0.4641698825
C  C58  1  0.16284000  0.18721000  0.52875000  1.0 0.4309581446
C  C59  1  0.28704000  0.35342000  0.36722000  1.0 0.5161596415
C  C60  1  0.09460000  0.43560000  0.56880000  1.0 0.342683169
C  C61  1  0.88398000  0.63922000  0.04220000  1.0 -0.074633591
C  C62  1  0.81365000  0.63534000  0.05521000  1.0 -0.193124972
C  C63  1  0.76409000  0.66806000  0.01715000  1.0 0.0046941367
C  C64  1  0.78407000  0.70390000  0.96643000  1.0 -0.2125088284
C  C65  1  0.85355000  0.70644000  0.95216000  1.0 0.2463594702
C  C66  1  0.90395000  0.67484000  0.99171000  1.0 -0.2907689641
C  C67  1  0.94032000  0.60778000  0.08510000  1.0 0.4660160072
C  C68  1  0.68721000  0.66284000  0.02875000  1.0 0.4309581446
C  C69  1  0.85342000  0.78704000  0.86722000  1.0 0.5161596415
C  C70  1  0.93560000  0.59460000  0.06880000  1.0 0.342683169
C  C71  1  0.04220000  0.88398000  0.63922000  1.0 -0.074633591
C  C72  1  0.05521000  0.81365000  0.63534000  1.0 -0.193124972
C  C73  1  0.01715000  0.76409000  0.66806000  1.0 0.0046941367
C  C74  1  0.96643000  0.78407000  0.70390000  1.0 -0.2125088284
C  C75  1  0.95216000  0.85355000  0.70644000  1.0 0.2463594702
C  C76  1  0.99171000  0.90395000  0.67484000  1.0 -0.2907689641
C  C77  1  0.08510000  0.94032000  0.60778000  1.0 0.4641698825
C  C78  1  0.02875000  0.68721000  0.66284000  1.0 0.4309581446
C  C79  1  0.86722000  0.85342000  0.78704000  1.0 0.5161596415
C  C80  1  0.06880000  0.93560000  0.59460000  1.0 0.342683169
C  C81  1  0.63922000  0.04220000  0.88398000  1.0 -0.074633591
C  C82  1  0.63534000  0.05521000  0.81365000  1.0 -0.193124972
C  C83  1  0.66806000  0.01715000  0.76409000  1.0 0.0046941367
C  C84  1  0.70390000  0.96643000  0.78407000  1.0 -0.2125088284
C  C85  1  0.70644000  0.95216000  0.85355000  1.0 0.2463594702
C  C86  1  0.67484000  0.99171000  0.90395000  1.0 -0.2907689641
C  C87  1  0.60778000  0.08510000  0.94032000  1.0 0.4660160072
C  C88  1  0.66284000  0.02875000  0.68721000  1.0 0.4309581446
C  C89  1  0.78704000  0.86722000  0.85342000  1.0 0.5161596415
C  C90  1  0.59460000  0.06880000  0.93560000  1.0 0.342683169
C  C91  1  0.61602000  0.45780000  0.86078000  1.0 -0.074633591
C  C92  1  0.68635000  0.44479000  0.86466000  1.0 -0.193124972
C  C93  1  0.73591000  0.48285000  0.83194000  1.0 0.0046941367
C  C94  1  0.71593000  0.53357000  0.79610000  1.0 -0.2125088284
C  C95  1  0.64645000  0.54784000  0.79356000  1.0 0.2463594702
C  C96  1  0.59605000  0.50829000  0.82516000  1.0 -0.2907689641
C  C97  1  0.55968000  0.41490000  0.89222000  1.0 0.4660160072
C  C98  1  0.81279000  0.47125000  0.83716000  1.0 0.4309581446
C  C99  1  0.64658000  0.63278000  0.71296000  1.0 0.5161596415
C  C100  1  0.56440000  0.43120000  0.90540000  1.0 0.342683169
C  C101  1  0.45780000  0.86078000  0.61602000  1.0 -0.074633591
C  C102  1  0.44479000  0.86466000  0.68635000  1.0 -0.193124972
C  C103  1  0.48285000  0.83194000  0.73591000  1.0 0.0046941367
C  C104  1  0.53357000  0.79610000  0.71593000  1.0 -0.2125088284
C  C105  1  0.54784000  0.79356000  0.64645000  1.0 0.2463594702
C  C106  1  0.50829000  0.82516000  0.59605000  1.0 -0.2907689641
C  C107  1  0.41490000  0.89222000  0.55968000  1.0 0.4660160072
C  C108  1  0.47125000  0.83716000  0.81279000  1.0 0.4309581446
C  C109  1  0.63278000  0.71296000  0.64658000  1.0 0.5161596415
C  C110  1  0.43120000  0.90540000  0.56440000  1.0 0.342683169
C  C111  1  0.86078000  0.61602000  0.45780000  1.0 -0.074633591
C  C112  1  0.86466000  0.68635000  0.44479000  1.0 -0.193124972
C  C113  1  0.83194000  0.73591000  0.48285000  1.0 0.0046941367
C  C114  1  0.79610000  0.71593000  0.53357000  1.0 -0.2125088284
C  C115  1  0.79356000  0.64645000  0.54784000  1.0 0.2463594702
C  C116  1  0.82516000  0.59605000  0.50829000  1.0 -0.2907689641
C  C117  1  0.89222000  0.55968000  0.41490000  1.0 0.4660160072
C  C118  1  0.83716000  0.81279000  0.47125000  1.0 0.4309581446
C  C119  1  0.71296000  0.64658000  0.63278000  1.0 0.5161596415
C  C120  1  0.90540000  0.56440000  0.43120000  1.0 0.345653179
N  N1  1  0.12309000  0.26312000  0.10125000  1.0 -0.3802217714
N  N2  1  0.19742000  0.18377000  0.11215000  1.0 -0.5551020178
N  N3  1  0.10125000  0.12309000  0.26312000  1.0 -0.3802217714
N  N4  1  0.11215000  0.19742000  0.18377000  1.0 -0.5551020178
N  N5  1  0.26312000  0.10125000  0.12309000  1.0 -0.3802217714
N  N6  1  0.18377000  0.11215000  0.19742000  1.0 -0.5551020178
N  N7  1  0.37691000  0.39875000  0.23688000  1.0 -0.3802217714
N  N8  1  0.30258000  0.38785000  0.31623000  1.0 -0.5551020178
N  N9  1  0.39875000  0.23688000  0.37691000  1.0 -0.3802217714
N  N10  1  0.38785000  0.31623000  0.30258000  1.0 -0.5551020178
N  N11  1  0.23688000  0.37691000  0.39875000  1.0 -0.3802217714
N  N12  1  0.31623000  0.30258000  0.38785000  1.0 -0.5551020178
N  N13  1  0.87691000  0.73688000  0.89875000  1.0 -0.3802217714
N  N14  1  0.80258000  0.81623000  0.88785000  1.0 -0.5548010739
N  N15  1  0.89875000  0.87691000  0.73688000  1.0 -0.3802217714
N  N16  1  0.88785000  0.80258000  0.81623000  1.0 -0.5548010739
N  N17  1  0.73688000  0.89875000  0.87691000  1.0 -0.3802217714
N  N18  1  0.81623000  0.88785000  0.80258000  1.0 -0.5548010739
N  N19  1  0.62309000  0.60125000  0.76312000  1.0 -0.3802217714
N  N20  1  0.69742000  0.61215000  0.68377000  1.0 -0.5548010739
N  N21  1  0.60125000  0.76312000  0.62309000  1.0 -0.3802217714
N  N22  1  0.61215000  0.68377000  0.69742000  1.0 -0.5551020178
N  N23  1  0.76312000  0.62309000  0.60125000  1.0 -0.3802217714
N  N24  1  0.68377000  0.69742000  0.61215000  1.0 -0.5551020178
O  O1  1  0.00046000  0.39405000  0.93239000  1.0 -0.2907689641
O  O2  1  0.07609000  0.42000000  0.86471000  1.0 -0.2464140824
O  O3  1  0.33678000  0.37642000  0.93350000  1.0 -0.4971447957
O  O4  1  0.35313000  0.30137000  0.00150000  1.0 -0.4457167955
O  O5  1  0.89280000  0.34500000  0.72130000  1.0 -0.4048157605
O  O6  1  0.03330000  0.58110000  0.93600000  1.0 -0.2125088284
O  O7  1  0.03830000  0.57870000  0.84400000  1.0 -0.4348536106
O  O8  1  0.07960000  0.44350000  0.88690000  1.0 -0.2205703814
O  O9  1  0.98910000  0.37690000  0.91500000  1.0 -0.3485597046
O  O10  1  0.94840000  0.42970000  0.96890000  1.0 -0.2205703814
O  O11  1  0.03720000  0.52310000  0.77350000  1.0 -0.0359093371
O  O12  1  0.92240000  0.45430000  0.76330000  1.0 -0.0565840248
O  O13  1  0.93239000  0.00046000  0.39405000  1.0 -0.2952702018
O  O14  1  0.86471000  0.07609000  0.42000000  1.0 -0.2464140824
O  O15  1  0.93350000  0.33678000  0.37642000  1.0 -0.4971447957
O  O16  1  0.00150000  0.35313000  0.30137000  1.0 -0.4457167955
O  O17  1  0.72130000  0.89280000  0.34500000  1.0 -0.4055939103
O  O18  1  0.93600000  0.03330000  0.58110000  1.0 -0.2125088284
O  O19  1  0.84400000  0.03830000  0.57870000  1.0 -0.4355368533
O  O20  1  0.88690000  0.07960000  0.44350000  1.0 -0.2205703814
O  O21  1  0.91500000  0.98910000  0.37690000  1.0 -0.3485597046
O  O22  1  0.96890000  0.94840000  0.42970000  1.0 -0.2205703814
O  O23  1  0.77350000  0.03720000  0.52310000  1.0 -0.0345915473
O  O24  1  0.76330000  0.92240000  0.45430000  1.0 -0.0565840248
O  O25  1  0.39405000  0.93239000  0.00046000  1.0 -0.2907689641
O  O26  1  0.42000000  0.86471000  0.07609000  1.0 -0.2464140824
O  O27  1  0.37642000  0.93350000  0.33678000  1.0 -0.4971447957
O  O28  1  0.30137000  0.00150000  0.35313000  1.0 -0.4457167955
O  O29  1  0.34500000  0.72130000  0.89280000  1.0 -0.4055939103
O  O30  1  0.58110000  0.93600000  0.03330000  1.0 -0.2125088284
O  O31  1  0.57870000  0.84400000  0.03830000  1.0 -0.4355368533
O  O32  1  0.44350000  0.88690000  0.07960000  1.0 -0.2205703814
O  O33  1  0.37690000  0.91500000  0.98910000  1.0 -0.3485597046
O  O34  1  0.42970000  0.96890000  0.94840000  1.0 -0.2205703814
O  O35  1  0.52310000  0.77350000  0.03720000  1.0 -0.0359093371
O  O36  1  0.45430000  0.76330000  0.92240000  1.0 -0.0565840248
O  O37  1  0.49954000  0.56761000  0.10595000  1.0 -0.2907689641
O  O38  1  0.42391000  0.63529000  0.08000000  1.0 -0.2464140824
O  O39  1  0.16322000  0.56650000  0.12358000  1.0 -0.4971447957
O  O40  1  0.14687000  0.49850000  0.19863000  1.0 -0.4457167955
O  O41  1  0.60720000  0.77870000  0.15500000  1.0 -0.4055939103
O  O42  1  0.46670000  0.56400000  0.91890000  1.0 -0.2125088284
O  O43  1  0.46170000  0.65600000  0.92130000  1.0 -0.4355368533
O  O44  1  0.42040000  0.61310000  0.05650000  1.0 -0.2205703814
O  O45  1  0.51090000  0.58500000  0.12310000  1.0 -0.3485597046
O  O46  1  0.55160000  0.53110000  0.07030000  1.0 -0.2205703814
O  O47  1  0.46280000  0.72650000  0.97690000  1.0 -0.0359093371
O  O48  1  0.57760000  0.73670000  0.04570000  1.0 -0.0565840248
O  O49  1  0.56761000  0.10595000  0.49954000  1.0 -0.2907689641
O  O50  1  0.63529000  0.08000000  0.42391000  1.0 -0.2464140824
O  O51  1  0.56650000  0.12358000  0.16322000  1.0 -0.4971447957
O  O52  1  0.49850000  0.19863000  0.14687000  1.0 -0.4457167955
O  O53  1  0.77870000  0.15500000  0.60720000  1.0 -0.4048157605
O  O54  1  0.56400000  0.91890000  0.46670000  1.0 -0.2125088284
O  O55  1  0.65600000  0.92130000  0.46170000  1.0 -0.4355368533
O  O56  1  0.61310000  0.05650000  0.42040000  1.0 -0.2205703814
O  O57  1  0.58500000  0.12310000  0.51090000  1.0 -0.3485597046
O  O58  1  0.53110000  0.07030000  0.55160000  1.0 -0.2205703814
O  O59  1  0.72650000  0.97690000  0.46280000  1.0 -0.0359093371
O  O60  1  0.73670000  0.04570000  0.57760000  1.0 -0.0565840248
O  O61  1  0.10595000  0.49954000  0.56761000  1.0 -0.2907689641
O  O62  1  0.08000000  0.42391000  0.63529000  1.0 -0.2464140824
O  O63  1  0.12358000  0.16322000  0.56650000  1.0 -0.4971447957
O  O64  1  0.19863000  0.14687000  0.49850000  1.0 -0.4457167955
O  O65  1  0.15500000  0.60720000  0.77870000  1.0 -0.4055939103
O  O66  1  0.91890000  0.46670000  0.56400000  1.0 -0.2125088284
O  O67  1  0.92130000  0.46170000  0.65600000  1.0 -0.4355368533
O  O68  1  0.05650000  0.42040000  0.61310000  1.0 -0.2205703814
O  O69  1  0.12310000  0.51090000  0.58500000  1.0 -0.3485597046
O  O70  1  0.07030000  0.55160000  0.53110000  1.0 -0.2205703814
O  O71  1  0.97690000  0.46280000  0.72650000  1.0 -0.0345915473
O  O72  1  0.04570000  0.57760000  0.73670000  1.0 -0.0565840248
O  O73  1  0.99954000  0.60595000  0.06761000  1.0 -0.2907689641
O  O74  1  0.92391000  0.58000000  0.13529000  1.0 -0.2464140824
O  O75  1  0.66322000  0.62358000  0.06650000  1.0 -0.4971447957
O  O76  1  0.64687000  0.69863000  0.99850000  1.0 -0.4457167955
O  O77  1  0.10720000  0.65500000  0.27870000  1.0 -0.4055939103
O  O78  1  0.96670000  0.41890000  0.06400000  1.0 -0.2125088284
O  O79  1  0.96170000  0.42130000  0.15600000  1.0 -0.4355368533
O  O80  1  0.92040000  0.55650000  0.11310000  1.0 -0.2205703814
O  O81  1  0.01090000  0.62310000  0.08500000  1.0 -0.3485597046
O  O82  1  0.05160000  0.57030000  0.03110000  1.0 -0.2205703814
O  O83  1  0.96280000  0.47690000  0.22650000  1.0 -0.0359093371
O  O84  1  0.07760000  0.54570000  0.23670000  1.0 -0.0565840248
O  O85  1  0.06761000  0.99954000  0.60595000  1.0 -0.2907689641
O  O86  1  0.13529000  0.92391000  0.58000000  1.0 -0.2464140824
O  O87  1  0.06650000  0.66322000  0.62358000  1.0 -0.4971447957
O  O88  1  0.99850000  0.64687000  0.69863000  1.0 -0.4457167955
O  O89  1  0.27870000  0.10720000  0.65500000  1.0 -0.4055939103
O  O90  1  0.06400000  0.96670000  0.41890000  1.0 -0.2125088284
O  O91  1  0.15600000  0.96170000  0.42130000  1.0 -0.4355368533
O  O92  1  0.11310000  0.92040000  0.55650000  1.0 -0.2205703814
O  O93  1  0.08500000  0.01090000  0.62310000  1.0 -0.3485597046
O  O94  1  0.03110000  0.05160000  0.57030000  1.0 -0.2205703814
O  O95  1  0.22650000  0.96280000  0.47690000  1.0 -0.0359093371
O  O96  1  0.23670000  0.07760000  0.54570000  1.0 -0.0565840248
O  O97  1  0.60595000  0.06761000  0.99954000  1.0 -0.2952702018
O  O98  1  0.58000000  0.13529000  0.92391000  1.0 -0.2464140824
O  O99  1  0.62358000  0.06650000  0.66322000  1.0 -0.4971447957
O  O100  1  0.69863000  0.99850000  0.64687000  1.0 -0.4457167955
O  O101  1  0.65500000  0.27870000  0.10720000  1.0 -0.4048157605
O  O102  1  0.41890000  0.06400000  0.96670000  1.0 -0.2125088284
O  O103  1  0.42130000  0.15600000  0.96170000  1.0 -0.4355368533
O  O104  1  0.55650000  0.11310000  0.92040000  1.0 -0.2205703814
O  O105  1  0.62310000  0.08500000  0.01090000  1.0 -0.3485597046
O  O106  1  0.57030000  0.03110000  0.05160000  1.0 -0.2205703814
O  O107  1  0.47690000  0.22650000  0.96280000  1.0 -0.0345915473
O  O108  1  0.54570000  0.23670000  0.07760000  1.0 -0.0565840248
O  O109  1  0.50046000  0.43239000  0.89405000  1.0 -0.2952702018
O  O110  1  0.57609000  0.36471000  0.92000000  1.0 -0.2464140824
O  O111  1  0.83678000  0.43350000  0.87642000  1.0 -0.4971447957
O  O112  1  0.85313000  0.50150000  0.80137000  1.0 -0.4457167955
O  O113  1  0.39280000  0.22130000  0.84500000  1.0 -0.4055939103
O  O114  1  0.53330000  0.43600000  0.08110000  1.0 -0.2125088284
O  O115  1  0.53830000  0.34400000  0.07870000  1.0 -0.4355368533
O  O116  1  0.57960000  0.38690000  0.94350000  1.0 -0.2205703814
O  O117  1  0.48910000  0.41500000  0.87690000  1.0 -0.3485597046
O  O118  1  0.44840000  0.46890000  0.92970000  1.0 -0.2205703814
O  O119  1  0.53720000  0.27350000  0.02310000  1.0 -0.0359093371
O  O120  1  0.42240000  0.26330000  0.95430000  1.0 -0.0565840248
O  O121  1  0.43239000  0.89405000  0.50046000  1.0 -0.2952702018
O  O122  1  0.36471000  0.92000000  0.57609000  1.0 -0.2464140824
O  O123  1  0.43350000  0.87642000  0.83678000  1.0 -0.4971447957
O  O124  1  0.50150000  0.80137000  0.85313000  1.0 -0.4457167955
O  O125  1  0.22130000  0.84500000  0.39280000  1.0 -0.4055939103
O  O126  1  0.43600000  0.08110000  0.53330000  1.0 -0.2125088284
O  O127  1  0.34400000  0.07870000  0.53830000  1.0 -0.4355368533
O  O128  1  0.38690000  0.94350000  0.57960000  1.0 -0.2205703814
O  O129  1  0.41500000  0.87690000  0.48910000  1.0 -0.3485597046
O  O130  1  0.46890000  0.92970000  0.44840000  1.0 -0.2205703814
O  O131  1  0.27350000  0.02310000  0.53720000  1.0 -0.0345915473
O  O132  1  0.26330000  0.95430000  0.42240000  1.0 -0.0565840248
O  O133  1  0.89405000  0.50046000  0.43239000  1.0 -0.2952702018
O  O134  1  0.92000000  0.57609000  0.36471000  1.0 -0.2464140824
O  O135  1  0.87642000  0.83678000  0.43350000  1.0 -0.4971447957
O  O136  1  0.80137000  0.85313000  0.50150000  1.0 -0.4457167955
O  O137  1  0.84500000  0.39280000  0.22130000  1.0 -0.4048157605
O  O138  1  0.08110000  0.53330000  0.43600000  1.0 -0.2125088284
O  O139  1  0.07870000  0.53830000  0.34400000  1.0 -0.4355368533
O  O140  1  0.94350000  0.57960000  0.38690000  1.0 -0.2251581522
O  O141  1  0.87690000  0.48910000  0.41500000  1.0 -0.3485597046
O  O142  1  0.92970000  0.44840000  0.46890000  1.0 -0.2205703814
O  O143  1  0.02310000  0.53720000  0.27350000  1.0 -0.0359093371
O  O144  1  0.95430000  0.42240000  0.26330000  1.0 -0.0565840248
