# DDEC6 charges by PACMAN v1.1 (https://github.com/mtap-research/PACMAN-charge/)
data_CEXHET_ion_pacman
_symmetry_space_group_name_H-M   'P 1'
_cell_length_a   36.96090000
_cell_length_b   36.96090000
_cell_length_c   14.88200000
_cell_angle_alpha   80.86970000
_cell_angle_beta   99.13030000
_cell_angle_gamma   53.35060000
_symmetry_Int_Tables_number   1
_chemical_formula_structural   FeAgH30C43SN9(OF)3
_chemical_formula_sum   'Fe12 Ag12 H360 C516 S12 N108 O36 F36'
_cell_volume   15258.26798433
_cell_formula_units_Z   12
loop_
 _symmetry_equiv_pos_site_id
 _symmetry_equiv_pos_as_xyz
  1  'x, y, z'
loop_
 _atom_site_type_symbol
 _atom_site_label
 _atom_site_symmetry_multiplicity
 _atom_site_fract_x
 _atom_site_fract_y
 _atom_site_fract_z
 _atom_site_occupancy
 _atom_site_charge
Fe  Fe1  1  0.32725000  0.62087000  0.38890000  1.0 0.4080177981
Fe  Fe2  1  0.62087000  0.32725000  0.11110000  1.0 0.4080177981
Fe  Fe3  1  0.55516000  0.88734000  0.90684000  1.0 0.4080177981
Fe  Fe4  1  0.88734000  0.55516000  0.59316000  1.0 0.4080177981
Fe  Fe5  1  0.96712000  0.96712000  0.75000000  1.0 0.4152107024
Fe  Fe6  1  0.21044000  0.21044000  0.25000000  1.0 0.4080177981
Fe  Fe7  1  0.67275000  0.37913000  0.61110000  1.0 0.4080177981
Fe  Fe8  1  0.37913000  0.67275000  0.88890000  1.0 0.4080177981
Fe  Fe9  1  0.44484000  0.11266000  0.09316000  1.0 0.4080177981
Fe  Fe10  1  0.11266000  0.44484000  0.40684000  1.0 0.4080177981
Fe  Fe11  1  0.03288000  0.03288000  0.25000000  1.0 0.4080177981
Fe  Fe12  1  0.78956000  0.78956000  0.75000000  1.0 0.4080177981
Ag  Ag1  1  0.46918000  0.77828000  0.41401000  1.0 0.341930435
Ag  Ag2  1  0.77828000  0.46918000  0.08599000  1.0 0.341930435
Ag  Ag3  1  0.70194000  0.03972000  0.97720000  1.0 0.3093140581
Ag  Ag4  1  0.03972000  0.70194000  0.52280000  1.0 0.3093140581
Ag  Ag5  1  0.11723000  0.11723000  0.75000000  1.0 0.3005668754
Ag  Ag6  1  0.35938000  0.35938000  0.25000000  1.0 0.3005668754
Ag  Ag7  1  0.53082000  0.22172000  0.58599000  1.0 0.341930435
Ag  Ag8  1  0.22172000  0.53082000  0.91401000  1.0 0.341930435
Ag  Ag9  1  0.29806000  0.96028000  0.02280000  1.0 0.3093140581
Ag  Ag10  1  0.96028000  0.29806000  0.47720000  1.0 0.3093140581
Ag  Ag11  1  0.88277000  0.88277000  0.25000000  1.0 0.3005668754
Ag  Ag12  1  0.64062000  0.64062000  0.75000000  1.0 0.3005668754
H  H1  1  0.21940000  0.69620000  0.25370000  1.0 0.1024895038
H  H2  1  0.69620000  0.21940000  0.24630000  1.0 0.1024895038
H  H3  1  0.17510000  0.67570000  0.16110000  1.0 0.120339774
H  H4  1  0.67570000  0.17510000  0.33890000  1.0 0.120339774
H  H5  1  0.23410000  0.58910000  0.17870000  1.0 0.1291143271
H  H6  1  0.58910000  0.23410000  0.32130000  1.0 0.1291143271
H  H7  1  0.42770000  0.46290000  0.33130000  1.0 0.120339774
H  H8  1  0.46290000  0.42770000  0.16870000  1.0 0.120339774
H  H9  1  0.48570000  0.47130000  0.40560000  1.0 0.120339774
H  H10  1  0.47130000  0.48570000  0.09440000  1.0 0.120339774
H  H11  1  0.43920000  0.55140000  0.43110000  1.0 0.1097448303
H  H12  1  0.55140000  0.43920000  0.06890000  1.0 0.1097448303
H  H13  1  0.30200000  0.50140000  0.36560000  1.0 0.1399797978
H  H14  1  0.50140000  0.30200000  0.13440000  1.0 0.1399797978
H  H15  1  0.30670000  0.43970000  0.33620000  1.0 0.1024895038
H  H16  1  0.43970000  0.30670000  0.16380000  1.0 0.1024895038
H  H17  1  0.35900000  0.44000000  0.13140000  1.0 0.1097448303
H  H18  1  0.44000000  0.35900000  0.36860000  1.0 0.1097448303
H  H19  1  0.35680000  0.50100000  0.15550000  1.0 0.1399797978
H  H20  1  0.50100000  0.35680000  0.34450000  1.0 0.1399797978
H  H21  1  0.51430000  0.38170000  0.98220000  1.0 0.1024895038
H  H22  1  0.38170000  0.51430000  0.51780000  1.0 0.1024895038
H  H23  1  0.48810000  0.34110000  0.90420000  1.0 0.1291143271
H  H24  1  0.34110000  0.48810000  0.59580000  1.0 0.1291143271
H  H25  1  0.56030000  0.25830000  0.93350000  1.0 0.1291143271
H  H26  1  0.25830000  0.56030000  0.56650000  1.0 0.1291143271
H  H27  1  0.74700000  0.17440000  0.05720000  1.0 0.1291143271
H  H28  1  0.17440000  0.74700000  0.44280000  1.0 0.1291143271
H  H29  1  0.78850000  0.20430000  0.12310000  1.0 0.120339774
H  H30  1  0.20430000  0.78850000  0.37690000  1.0 0.120339774
H  H31  1  0.72730000  0.28190000  0.14040000  1.0 0.1097448303
H  H32  1  0.28190000  0.72730000  0.35960000  1.0 0.1097448303
H  H33  1  0.64230000  0.17630000  0.12100000  1.0 0.1399797978
H  H34  1  0.17630000  0.64230000  0.37900000  1.0 0.1399797978
H  H35  1  0.66070000  0.10770000  0.09890000  1.0 0.1097448303
H  H36  1  0.10770000  0.66070000  0.40110000  1.0 0.1097448303
H  H37  1  0.69780000  0.12620000  0.87430000  1.0 0.1097448303
H  H38  1  0.12620000  0.69780000  0.62570000  1.0 0.1097448303
H  H39  1  0.68120000  0.19580000  0.89240000  1.0 0.1399797978
H  H40  1  0.19580000  0.68120000  0.60760000  1.0 0.1399797978
H  H41  1  0.38060000  0.57420000  0.60920000  1.0 0.1097448303
H  H42  1  0.57420000  0.38060000  0.89080000  1.0 0.1097448303
H  H43  1  0.43380000  0.58520000  0.70420000  1.0 0.120339774
H  H44  1  0.58520000  0.43380000  0.79580000  1.0 0.120339774
H  H45  1  0.43530000  0.64070000  0.58760000  1.0 0.120339774
H  H46  1  0.64070000  0.43530000  0.91240000  1.0 0.120339774
H  H47  1  0.36660000  0.71260000  0.19860000  1.0 0.120339774
H  H48  1  0.71260000  0.36660000  0.30140000  1.0 0.120339774
H  H49  1  0.31530000  0.70970000  0.07760000  1.0 0.120339774
H  H50  1  0.70970000  0.31530000  0.42240000  1.0 0.120339774
H  H51  1  0.29330000  0.66550000  0.16650000  1.0 0.1097448303
H  H52  1  0.66550000  0.29330000  0.33350000  1.0 0.1097448303
H  H53  1  0.34300000  0.75780000  0.33610000  1.0 0.1399797978
H  H54  1  0.75780000  0.34300000  0.16390000  1.0 0.1399797978
H  H55  1  0.37650000  0.79350000  0.35060000  1.0 0.1097448303
H  H56  1  0.79350000  0.37650000  0.14940000  1.0 0.1097448303
H  H57  1  0.50480000  0.67220000  0.44710000  1.0 0.120339774
H  H58  1  0.67220000  0.50480000  0.05290000  1.0 0.120339774
H  H59  1  0.47640000  0.63180000  0.44490000  1.0 0.1399797978
H  H60  1  0.63180000  0.47640000  0.05510000  1.0 0.1399797978
H  H61  1  0.45270000  0.94370000  0.75430000  1.0 0.1024895038
H  H62  1  0.94370000  0.45270000  0.74570000  1.0 0.1024895038
H  H63  1  0.39030000  0.93890000  0.78520000  1.0 0.1291143271
H  H64  1  0.93890000  0.39030000  0.71480000  1.0 0.1291143271
H  H65  1  0.42030000  0.89190000  0.95600000  1.0 0.120339774
H  H66  1  0.89190000  0.42030000  0.54400000  1.0 0.120339774
H  H67  1  0.57090000  0.82990000  0.25250000  1.0 0.120339774
H  H68  1  0.82990000  0.57090000  0.24750000  1.0 0.120339774
H  H69  1  0.63950000  0.82970000  0.25750000  1.0 0.120339774
H  H70  1  0.82970000  0.63950000  0.24250000  1.0 0.120339774
H  H71  1  0.63190000  0.86190000  0.08930000  1.0 0.1097448303
H  H72  1  0.86190000  0.63190000  0.41070000  1.0 0.1097448303
H  H73  1  0.42980000  0.91000000  0.11700000  1.0 0.120339774
H  H74  1  0.91000000  0.42980000  0.38300000  1.0 0.120339774
H  H75  1  0.41110000  0.87870000  0.23170000  1.0 0.1097448303
H  H76  1  0.87870000  0.41110000  0.26830000  1.0 0.1097448303
H  H77  1  0.53090000  0.74870000  0.27830000  1.0 0.1024895038
H  H78  1  0.74870000  0.53090000  0.22170000  1.0 0.1024895038
H  H79  1  0.55270000  0.77750000  0.16660000  1.0 0.1291143271
H  H80  1  0.77750000  0.55270000  0.33340000  1.0 0.1291143271
H  H81  1  0.52880000  0.96480000  0.72790000  1.0 0.1097448303
H  H82  1  0.96480000  0.52880000  0.77210000  1.0 0.1097448303
H  H83  1  0.50010000  0.97230000  0.55700000  1.0 0.120339774
H  H84  1  0.97230000  0.50010000  0.94300000  1.0 0.120339774
H  H85  1  0.50180000  0.90340000  0.55880000  1.0 0.1291143271
H  H86  1  0.90340000  0.50180000  0.94120000  1.0 0.1291143271
H  H87  1  0.56990000  0.74790000  0.84660000  1.0 0.120339774
H  H88  1  0.74790000  0.56990000  0.65340000  1.0 0.120339774
H  H89  1  0.61270000  0.72010000  0.02390000  1.0 0.120339774
H  H90  1  0.72010000  0.61270000  0.47610000  1.0 0.120339774
H  H91  1  0.61240000  0.78420000  0.05570000  1.0 0.1024895038
H  H92  1  0.78420000  0.61240000  0.44430000  1.0 0.1024895038
H  H93  1  0.45350000  0.86750000  0.65790000  1.0 0.1399797978
H  H94  1  0.86750000  0.45350000  0.84210000  1.0 0.1399797978
H  H95  1  0.43230000  0.83990000  0.55170000  1.0 0.1097448303
H  H96  1  0.83990000  0.43230000  0.94830000  1.0 0.1097448303
H  H97  1  0.56330000  0.74710000  0.55740000  1.0 0.1097448303
H  H98  1  0.74710000  0.56330000  0.94260000  1.0 0.1097448303
H  H99  1  0.59010000  0.77050000  0.66820000  1.0 0.1291143271
H  H100  1  0.77050000  0.59010000  0.83180000  1.0 0.1291143271
H  H101  1  0.65620000  0.79740000  0.92470000  1.0 0.1097448303
H  H102  1  0.79740000  0.65620000  0.57530000  1.0 0.1097448303
H  H103  1  0.72980000  0.78840000  0.95630000  1.0 0.120339774
H  H104  1  0.78840000  0.72980000  0.54370000  1.0 0.120339774
H  H105  1  0.70540000  0.86780000  0.95360000  1.0 0.120339774
H  H106  1  0.86780000  0.70540000  0.54640000  1.0 0.120339774
H  H107  1  0.53360000  0.03740000  0.89610000  1.0 0.120339774
H  H108  1  0.03740000  0.53360000  0.60390000  1.0 0.120339774
H  H109  1  0.45250000  0.06230000  0.86780000  1.0 0.120339774
H  H110  1  0.06230000  0.45250000  0.63220000  1.0 0.120339774
H  H111  1  0.46160000  0.98840000  0.87620000  1.0 0.1097448303
H  H112  1  0.98840000  0.46160000  0.62380000  1.0 0.1097448303
H  H113  1  0.64120000  0.96500000  0.80490000  1.0 0.1474032761
H  H114  1  0.96500000  0.64120000  0.69510000  1.0 0.1474032761
H  H115  1  0.67380000  0.00120000  0.82540000  1.0 0.120339774
H  H116  1  0.00120000  0.67380000  0.67460000  1.0 0.120339774
H  H117  1  0.66130000  0.99850000  0.08430000  1.0 0.120339774
H  H118  1  0.99850000  0.66130000  0.41570000  1.0 0.120339774
H  H119  1  0.62670000  0.96410000  0.06590000  1.0 0.1474032761
H  H120  1  0.96410000  0.62670000  0.43410000  1.0 0.1474032761
H  H121  1  0.81570000  0.98890000  0.08400000  1.0 0.1097448303
H  H122  1  0.98890000  0.81570000  0.41600000  1.0 0.1097448303
H  H123  1  0.87890000  0.97510000  0.03970000  1.0 0.1291143271
H  H124  1  0.97510000  0.87890000  0.46030000  1.0 0.1291143271
H  H125  1  0.81060000  0.99820000  0.77040000  1.0 0.1399797978
H  H126  1  0.99820000  0.81060000  0.72960000  1.0 0.1399797978
H  H127  1  0.75050000  0.01050000  0.82430000  1.0 0.1024895038
H  H128  1  0.01050000  0.75050000  0.67570000  1.0 0.1024895038
H  H129  1  0.81690000  0.07810000  0.82960000  1.0 0.1291143271
H  H130  1  0.07810000  0.81690000  0.67040000  1.0 0.1291143271
H  H131  1  0.83030000  0.13010000  0.74350000  1.0 0.120339774
H  H132  1  0.13010000  0.83030000  0.75650000  1.0 0.120339774
H  H133  1  0.90550000  0.07790000  0.70280000  1.0 0.1097448303
H  H134  1  0.07790000  0.90550000  0.79720000  1.0 0.1097448303
H  H135  1  0.92400000  0.88680000  0.96440000  1.0 0.120339774
H  H136  1  0.88680000  0.92400000  0.53560000  1.0 0.120339774
H  H137  1  0.00570000  0.82050000  0.96710000  1.0 0.120339774
H  H138  1  0.82050000  0.00570000  0.53290000  1.0 0.120339774
H  H139  1  0.03150000  0.85710000  0.86690000  1.0 0.1024895038
H  H140  1  0.85710000  0.03150000  0.63310000  1.0 0.1024895038
H  H141  1  0.92310000  0.01930000  0.52790000  1.0 0.1097448303
H  H142  1  0.01930000  0.92310000  0.97210000  1.0 0.1097448303
H  H143  1  0.93930000  0.06970000  0.43570000  1.0 0.120339774
H  H144  1  0.06970000  0.93930000  0.06430000  1.0 0.120339774
H  H145  1  0.99100000  0.07300000  0.55690000  1.0 0.120339774
H  H146  1  0.07300000  0.99100000  0.94310000  1.0 0.120339774
H  H147  1  0.09050000  0.99950000  0.68770000  1.0 0.1474032761
H  H148  1  0.99950000  0.09050000  0.81230000  1.0 0.1474032761
H  H149  1  0.12520000  0.03500000  0.69360000  1.0 0.120339774
H  H150  1  0.03500000  0.12520000  0.80640000  1.0 0.120339774
H  H151  1  0.21930000  0.08070000  0.87800000  1.0 0.1097448303
H  H152  1  0.08070000  0.21930000  0.62200000  1.0 0.1097448303
H  H153  1  0.24710000  0.10010000  0.99770000  1.0 0.1291143271
H  H154  1  0.10010000  0.24710000  0.50230000  1.0 0.1291143271
H  H155  1  0.12140000  0.16780000  0.04660000  1.0 0.1474032761
H  H156  1  0.16780000  0.12140000  0.45340000  1.0 0.1474032761
H  H157  1  0.09620000  0.14740000  0.92390000  1.0 0.0919689303
H  H158  1  0.14740000  0.09620000  0.57610000  1.0 0.0919689303
H  H159  1  0.26420000  0.11120000  0.41280000  1.0 0.1024895038
H  H160  1  0.11120000  0.26420000  0.08720000  1.0 0.1024895038
H  H161  1  0.27050000  0.04210000  0.38450000  1.0 0.120339774
H  H162  1  0.04210000  0.27050000  0.11550000  1.0 0.120339774
H  H163  1  0.23220000  0.06540000  0.21000000  1.0 0.120339774
H  H164  1  0.06540000  0.23220000  0.29000000  1.0 0.120339774
H  H165  1  0.16500000  0.21520000  0.90900000  1.0 0.1291143271
H  H166  1  0.21520000  0.16500000  0.59100000  1.0 0.1291143271
H  H167  1  0.15890000  0.28650000  0.89540000  1.0 0.120339774
H  H168  1  0.28650000  0.15890000  0.60460000  1.0 0.120339774
H  H169  1  0.18330000  0.28630000  0.06460000  1.0 0.1097448303
H  H170  1  0.28630000  0.18330000  0.43540000  1.0 0.1097448303
H  H171  1  0.31350000  0.11590000  0.28890000  1.0 0.1097448303
H  H172  1  0.11590000  0.31350000  0.21110000  1.0 0.1097448303
H  H173  1  0.38780000  0.10740000  0.31910000  1.0 0.120339774
H  H174  1  0.10740000  0.38780000  0.18090000  1.0 0.120339774
H  H175  1  0.36250000  0.18810000  0.29810000  1.0 0.120339774
H  H176  1  0.18810000  0.36250000  0.20190000  1.0 0.120339774
H  H177  1  0.29740000  0.27920000  0.12270000  1.0 0.1474032761
H  H178  1  0.27920000  0.29740000  0.37730000  1.0 0.1474032761
H  H179  1  0.33100000  0.31520000  0.12380000  1.0 0.120339774
H  H180  1  0.31520000  0.33100000  0.37620000  1.0 0.120339774
H  H181  1  0.78060000  0.30380000  0.74630000  1.0 0.1024895038
H  H182  1  0.30380000  0.78060000  0.75370000  1.0 0.1024895038
H  H183  1  0.82490000  0.32430000  0.83890000  1.0 0.120339774
H  H184  1  0.32430000  0.82490000  0.66110000  1.0 0.120339774
H  H185  1  0.76590000  0.41090000  0.82130000  1.0 0.1291143271
H  H186  1  0.41090000  0.76590000  0.67870000  1.0 0.1291143271
H  H187  1  0.57230000  0.53710000  0.66870000  1.0 0.120339774
H  H188  1  0.53710000  0.57230000  0.83130000  1.0 0.120339774
H  H189  1  0.51430000  0.52870000  0.59440000  1.0 0.120339774
H  H190  1  0.52870000  0.51430000  0.90560000  1.0 0.120339774
H  H191  1  0.56080000  0.44860000  0.56890000  1.0 0.1097448303
H  H192  1  0.44860000  0.56080000  0.93110000  1.0 0.1097448303
H  H193  1  0.69800000  0.49860000  0.63440000  1.0 0.1399797978
H  H194  1  0.49860000  0.69800000  0.86560000  1.0 0.1399797978
H  H195  1  0.69330000  0.56030000  0.66380000  1.0 0.1024895038
H  H196  1  0.56030000  0.69330000  0.83620000  1.0 0.1024895038
H  H197  1  0.64100000  0.56000000  0.86860000  1.0 0.1097448303
H  H198  1  0.56000000  0.64100000  0.63140000  1.0 0.1097448303
H  H199  1  0.64320000  0.49900000  0.84450000  1.0 0.1399797978
H  H200  1  0.49900000  0.64320000  0.65550000  1.0 0.1399797978
H  H201  1  0.48570000  0.61830000  0.01780000  1.0 0.1024895038
H  H202  1  0.61830000  0.48570000  0.48220000  1.0 0.1024895038
H  H203  1  0.51190000  0.65890000  0.09580000  1.0 0.1291143271
H  H204  1  0.65890000  0.51190000  0.40420000  1.0 0.1291143271
H  H205  1  0.43970000  0.74170000  0.06650000  1.0 0.1291143271
H  H206  1  0.74170000  0.43970000  0.43350000  1.0 0.1291143271
H  H207  1  0.25300000  0.82560000  0.94280000  1.0 0.1291143271
H  H208  1  0.82560000  0.25300000  0.55720000  1.0 0.1291143271
H  H209  1  0.21150000  0.79570000  0.87690000  1.0 0.120339774
H  H210  1  0.79570000  0.21150000  0.62310000  1.0 0.120339774
H  H211  1  0.27270000  0.71810000  0.85960000  1.0 0.1097448303
H  H212  1  0.71810000  0.27270000  0.64040000  1.0 0.1097448303
H  H213  1  0.35770000  0.82370000  0.87900000  1.0 0.1399797978
H  H214  1  0.82370000  0.35770000  0.62100000  1.0 0.1399797978
H  H215  1  0.33930000  0.89230000  0.90110000  1.0 0.1097448303
H  H216  1  0.89230000  0.33930000  0.59890000  1.0 0.1097448303
H  H217  1  0.30220000  0.87380000  0.12570000  1.0 0.1097448303
H  H218  1  0.87380000  0.30220000  0.37430000  1.0 0.1097448303
H  H219  1  0.31880000  0.80420000  0.10760000  1.0 0.1399797978
H  H220  1  0.80420000  0.31880000  0.39240000  1.0 0.1399797978
H  H221  1  0.61940000  0.42580000  0.39080000  1.0 0.1097448303
H  H222  1  0.42580000  0.61940000  0.10920000  1.0 0.1097448303
H  H223  1  0.56620000  0.41480000  0.29580000  1.0 0.120339774
H  H224  1  0.41480000  0.56620000  0.20420000  1.0 0.120339774
H  H225  1  0.56470000  0.35930000  0.41240000  1.0 0.120339774
H  H226  1  0.35930000  0.56470000  0.08760000  1.0 0.120339774
H  H227  1  0.63340000  0.28740000  0.80140000  1.0 0.120339774
H  H228  1  0.28740000  0.63340000  0.69860000  1.0 0.120339774
H  H229  1  0.68470000  0.29030000  0.92240000  1.0 0.120339774
H  H230  1  0.29030000  0.68470000  0.57760000  1.0 0.120339774
H  H231  1  0.70670000  0.33450000  0.83350000  1.0 0.1097448303
H  H232  1  0.33450000  0.70670000  0.66650000  1.0 0.1097448303
H  H233  1  0.65700000  0.24220000  0.66390000  1.0 0.1399797978
H  H234  1  0.24220000  0.65700000  0.83610000  1.0 0.1399797978
H  H235  1  0.62350000  0.20650000  0.64940000  1.0 0.1097448303
H  H236  1  0.20650000  0.62350000  0.85060000  1.0 0.1097448303
H  H237  1  0.49520000  0.32780000  0.55290000  1.0 0.120339774
H  H238  1  0.32780000  0.49520000  0.94710000  1.0 0.120339774
H  H239  1  0.52360000  0.36820000  0.55510000  1.0 0.1399797978
H  H240  1  0.36820000  0.52360000  0.94490000  1.0 0.1399797978
H  H241  1  0.54730000  0.05630000  0.24570000  1.0 0.1024895038
H  H242  1  0.05630000  0.54730000  0.25430000  1.0 0.1024895038
H  H243  1  0.60970000  0.06110000  0.21480000  1.0 0.1291143271
H  H244  1  0.06110000  0.60970000  0.28520000  1.0 0.1291143271
H  H245  1  0.57970000  0.10810000  0.04400000  1.0 0.120339774
H  H246  1  0.10810000  0.57970000  0.45600000  1.0 0.120339774
H  H247  1  0.42910000  0.17010000  0.74750000  1.0 0.120339774
H  H248  1  0.17010000  0.42910000  0.75250000  1.0 0.120339774
H  H249  1  0.36050000  0.17030000  0.74250000  1.0 0.120339774
H  H250  1  0.17030000  0.36050000  0.75750000  1.0 0.120339774
H  H251  1  0.36810000  0.13810000  0.91070000  1.0 0.1097448303
H  H252  1  0.13810000  0.36810000  0.58930000  1.0 0.1097448303
H  H253  1  0.57020000  0.09000000  0.88300000  1.0 0.120339774
H  H254  1  0.09000000  0.57020000  0.61700000  1.0 0.120339774
H  H255  1  0.58890000  0.12130000  0.76830000  1.0 0.1097448303
H  H256  1  0.12130000  0.58890000  0.73170000  1.0 0.1097448303
H  H257  1  0.46910000  0.25130000  0.72170000  1.0 0.1024895038
H  H258  1  0.25130000  0.46910000  0.77830000  1.0 0.1024895038
H  H259  1  0.44730000  0.22250000  0.83340000  1.0 0.1291143271
H  H260  1  0.22250000  0.44730000  0.66666667  1.0 0.1291143271
H  H261  1  0.47120000  0.03520000  0.27210000  1.0 0.1097448303
H  H262  1  0.03520000  0.47120000  0.22790000  1.0 0.1097448303
H  H263  1  0.49990000  0.02770000  0.44300000  1.0 0.120339774
H  H264  1  0.02770000  0.49990000  0.05700000  1.0 0.120339774
H  H265  1  0.49820000  0.09660000  0.44120000  1.0 0.1291143271
H  H266  1  0.09660000  0.49820000  0.05880000  1.0 0.1291143271
H  H267  1  0.43010000  0.25210000  0.15340000  1.0 0.120339774
H  H268  1  0.25210000  0.43010000  0.34660000  1.0 0.120339774
H  H269  1  0.38730000  0.27990000  0.97610000  1.0 0.120339774
H  H270  1  0.27990000  0.38730000  0.52390000  1.0 0.120339774
H  H271  1  0.38760000  0.21580000  0.94430000  1.0 0.1024895038
H  H272  1  0.21580000  0.38760000  0.55570000  1.0 0.1024895038
H  H273  1  0.54650000  0.13250000  0.34210000  1.0 0.1399797978
H  H274  1  0.13250000  0.54650000  0.15790000  1.0 0.1399797978
H  H275  1  0.56770000  0.16010000  0.44830000  1.0 0.1097448303
H  H276  1  0.16010000  0.56770000  0.05170000  1.0 0.1097448303
H  H277  1  0.43670000  0.25290000  0.44260000  1.0 0.1097448303
H  H278  1  0.25290000  0.43670000  0.05740000  1.0 0.1097448303
H  H279  1  0.40990000  0.22950000  0.33180000  1.0 0.1291143271
H  H280  1  0.22950000  0.40990000  0.16820000  1.0 0.1291143271
H  H281  1  0.34380000  0.20260000  0.07530000  1.0 0.1097448303
H  H282  1  0.20260000  0.34380000  0.42470000  1.0 0.1097448303
H  H283  1  0.27020000  0.21160000  0.04370000  1.0 0.120339774
H  H284  1  0.21160000  0.27020000  0.45630000  1.0 0.120339774
H  H285  1  0.29460000  0.13220000  0.04640000  1.0 0.120339774
H  H286  1  0.13220000  0.29460000  0.45360000  1.0 0.120339774
H  H287  1  0.46640000  0.96260000  0.10390000  1.0 0.120339774
H  H288  1  0.96260000  0.46640000  0.39610000  1.0 0.120339774
H  H289  1  0.54750000  0.93770000  0.13220000  1.0 0.120339774
H  H290  1  0.93770000  0.54750000  0.36780000  1.0 0.120339774
H  H291  1  0.53840000  0.01160000  0.12380000  1.0 0.1097448303
H  H292  1  0.01160000  0.53840000  0.37620000  1.0 0.1097448303
H  H293  1  0.35880000  0.03500000  0.19510000  1.0 0.1474032761
H  H294  1  0.03500000  0.35880000  0.30490000  1.0 0.1474032761
H  H295  1  0.32620000  0.99880000  0.17460000  1.0 0.120339774
H  H296  1  0.99880000  0.32620000  0.32540000  1.0 0.120339774
H  H297  1  0.33870000  0.00150000  0.91570000  1.0 0.120339774
H  H298  1  0.00150000  0.33870000  0.58430000  1.0 0.120339774
H  H299  1  0.37330000  0.03590000  0.93410000  1.0 0.1474032761
H  H300  1  0.03590000  0.37330000  0.56590000  1.0 0.1474032761
H  H301  1  0.18430000  0.01110000  0.91600000  1.0 0.1097448303
H  H302  1  0.01110000  0.18430000  0.58400000  1.0 0.1097448303
H  H303  1  0.12110000  0.02490000  0.96030000  1.0 0.1291143271
H  H304  1  0.02490000  0.12110000  0.53970000  1.0 0.1291143271
H  H305  1  0.18940000  0.00180000  0.22960000  1.0 0.1399797978
H  H306  1  0.00180000  0.18940000  0.27040000  1.0 0.1399797978
H  H307  1  0.24950000  0.98950000  0.17570000  1.0 0.1024895038
H  H308  1  0.98950000  0.24950000  0.32430000  1.0 0.1024895038
H  H309  1  0.18310000  0.92190000  0.17040000  1.0 0.1291143271
H  H310  1  0.92190000  0.18310000  0.32960000  1.0 0.1291143271
H  H311  1  0.16970000  0.86990000  0.25650000  1.0 0.120339774
H  H312  1  0.86990000  0.16970000  0.24350000  1.0 0.120339774
H  H313  1  0.09450000  0.92210000  0.29720000  1.0 0.1097448303
H  H314  1  0.92210000  0.09450000  0.20280000  1.0 0.1097448303
H  H315  1  0.07600000  0.11320000  0.03560000  1.0 0.120339774
H  H316  1  0.11320000  0.07600000  0.46440000  1.0 0.120339774
H  H317  1  0.99430000  0.17950000  0.03290000  1.0 0.120339774
H  H318  1  0.17950000  0.99430000  0.46710000  1.0 0.120339774
H  H319  1  0.96850000  0.14290000  0.13310000  1.0 0.1024895038
H  H320  1  0.14290000  0.96850000  0.36690000  1.0 0.1024895038
H  H321  1  0.07690000  0.98070000  0.47210000  1.0 0.1097448303
H  H322  1  0.98070000  0.07690000  0.02790000  1.0 0.1097448303
H  H323  1  0.06070000  0.93030000  0.56430000  1.0 0.120339774
H  H324  1  0.93030000  0.06070000  0.93570000  1.0 0.120339774
H  H325  1  0.00900000  0.92700000  0.44310000  1.0 0.120339774
H  H326  1  0.92700000  0.00900000  0.05690000  1.0 0.120339774
H  H327  1  0.90950000  0.00050000  0.31230000  1.0 0.1474032761
H  H328  1  0.00050000  0.90950000  0.18770000  1.0 0.1474032761
H  H329  1  0.87480000  0.96500000  0.30640000  1.0 0.120339774
H  H330  1  0.96500000  0.87480000  0.19360000  1.0 0.120339774
H  H331  1  0.78070000  0.91930000  0.12200000  1.0 0.1097448303
H  H332  1  0.91930000  0.78070000  0.37800000  1.0 0.1097448303
H  H333  1  0.75290000  0.89990000  0.00230000  1.0 0.1291143271
H  H334  1  0.89990000  0.75290000  0.49770000  1.0 0.1291143271
H  H335  1  0.87860000  0.83220000  0.95340000  1.0 0.1474032761
H  H336  1  0.83220000  0.87860000  0.54660000  1.0 0.1474032761
H  H337  1  0.90380000  0.85260000  0.07610000  1.0 0.0919689303
H  H338  1  0.85260000  0.90380000  0.42390000  1.0 0.0919689303
H  H339  1  0.73580000  0.88880000  0.58720000  1.0 0.1024895038
H  H340  1  0.88880000  0.73580000  0.91280000  1.0 0.1024895038
H  H341  1  0.72950000  0.95790000  0.61550000  1.0 0.120339774
H  H342  1  0.95790000  0.72950000  0.88450000  1.0 0.120339774
H  H343  1  0.76780000  0.93460000  0.79000000  1.0 0.120339774
H  H344  1  0.93460000  0.76780000  0.71000000  1.0 0.120339774
H  H345  1  0.83500000  0.78480000  0.09100000  1.0 0.1291143271
H  H346  1  0.78480000  0.83500000  0.40900000  1.0 0.1291143271
H  H347  1  0.84110000  0.71350000  0.10460000  1.0 0.120339774
H  H348  1  0.71350000  0.84110000  0.39540000  1.0 0.120339774
H  H349  1  0.81670000  0.71370000  0.93540000  1.0 0.1097448303
H  H350  1  0.71370000  0.81670000  0.56460000  1.0 0.1097448303
H  H351  1  0.68650000  0.88410000  0.71110000  1.0 0.1097448303
H  H352  1  0.88410000  0.68650000  0.78890000  1.0 0.1097448303
H  H353  1  0.61220000  0.89260000  0.68090000  1.0 0.120339774
H  H354  1  0.89260000  0.61220000  0.81910000  1.0 0.120339774
H  H355  1  0.63750000  0.81190000  0.70190000  1.0 0.120339774
H  H356  1  0.81190000  0.63750000  0.79810000  1.0 0.120339774
H  H357  1  0.70260000  0.72080000  0.87730000  1.0 0.1474032761
H  H358  1  0.72080000  0.70260000  0.62270000  1.0 0.1474032761
H  H359  1  0.66900000  0.68480000  0.87620000  1.0 0.120339774
H  H360  1  0.68480000  0.66900000  0.62380000  1.0 0.120339774
C  C1  1  0.23335000  0.66535000  0.24900000  1.0 0.03790513
C  C2  1  0.66535000  0.23335000  0.25100000  1.0 0.03790513
C  C3  1  0.20819000  0.65439000  0.19650000  1.0 -0.1600328998
C  C4  1  0.65439000  0.20819000  0.30350000  1.0 -0.1600328998
C  C5  1  0.24032000  0.60712000  0.20600000  1.0 -0.1905912443
C  C6  1  0.60712000  0.24032000  0.29400000  1.0 -0.1905912443
C  C7  1  0.28474000  0.59054000  0.26490000  1.0 0.1399797978
C  C8  1  0.59054000  0.28474000  0.23510000  1.0 0.1399797978
C  C9  1  0.32925000  0.54605000  0.28730000  1.0 -0.0609004512
C  C10  1  0.54605000  0.32925000  0.21270000  1.0 -0.0609004512
C  C11  1  0.37278000  0.53338000  0.32980000  1.0 0.1399797978
C  C12  1  0.53338000  0.37278000  0.17020000  1.0 0.1399797978
C  C13  1  0.42016000  0.49016000  0.34700000  1.0 -0.2088796115
C  C14  1  0.49016000  0.42016000  0.15300000  1.0 -0.2088796115
C  C15  1  0.45205000  0.49425000  0.38860000  1.0 -0.1514365018
C  C16  1  0.49425000  0.45205000  0.11140000  1.0 -0.1514365018
C  C17  1  0.42556000  0.53936000  0.40210000  1.0 0.0203430978
C  C18  1  0.53936000  0.42556000  0.09790000  1.0 0.0203430978
C  C19  1  0.32929000  0.50829000  0.26170000  1.0 0.120339774
C  C20  1  0.50829000  0.32929000  0.23830000  1.0 0.120339774
C  C21  1  0.31393000  0.48953000  0.31620000  1.0 -0.176693963
C  C22  1  0.48953000  0.31393000  0.18380000  1.0 -0.176693963
C  C23  1  0.31647000  0.45307000  0.29700000  1.0 0.0919689303
C  C24  1  0.45307000  0.31647000  0.20300000  1.0 0.0919689303
C  C25  1  0.34660000  0.45300000  0.17950000  1.0 0.0692451953
C  C26  1  0.45300000  0.34660000  0.32050000  1.0 0.0692451953
C  C27  1  0.34566000  0.48926000  0.19420000  1.0 -0.1905912443
C  C28  1  0.48926000  0.34566000  0.30580000  1.0 -0.1905912443
C  C29  1  0.53494000  0.34994000  0.98110000  1.0 0.0594693599
C  C30  1  0.34994000  0.53494000  0.51890000  1.0 0.0594693599
C  C31  1  0.51988000  0.32708000  0.93750000  1.0 -0.1514365018
C  C32  1  0.32708000  0.51988000  0.56250000  1.0 -0.1514365018
C  C33  1  0.55922000  0.28222000  0.95260000  1.0 -0.176693963
C  C34  1  0.28222000  0.55922000  0.54740000  1.0 -0.1905912443
C  C35  1  0.59894000  0.27734000  0.00250000  1.0 0.1399797978
C  C36  1  0.27734000  0.59894000  0.49750000  1.0 0.1399797978
C  C37  1  0.64626000  0.23926000  0.02390000  1.0 -0.0609004512
C  C38  1  0.23926000  0.64626000  0.47610000  1.0 -0.0665647209
C  C39  1  0.68348000  0.23868000  0.06090000  1.0 0.1291143271
C  C40  1  0.23868000  0.68348000  0.43910000  1.0 0.1291143271
C  C41  1  0.73269000  0.20329000  0.07170000  1.0 -0.199452461
C  C42  1  0.20329000  0.73269000  0.42830000  1.0 -0.199452461
C  C43  1  0.75551000  0.21991000  0.10800000  1.0 -0.1600328998
C  C44  1  0.21991000  0.75551000  0.39200000  1.0 -0.1600328998
C  C45  1  0.72117000  0.26297000  0.11760000  1.0 0.0103822349
C  C46  1  0.26297000  0.72117000  0.38240000  1.0 0.0103822349
C  C47  1  0.65814000  0.19494000  0.00790000  1.0 0.120339774
C  C48  1  0.19494000  0.65814000  0.49210000  1.0 0.120339774
C  C49  1  0.65307000  0.16727000  0.06850000  1.0 -0.1905912443
C  C50  1  0.16727000  0.65307000  0.43150000  1.0 -0.1905912443
C  C51  1  0.66343000  0.12663000  0.05400000  1.0 0.0827523168
C  C52  1  0.12663000  0.66343000  0.44600000  1.0 0.0827523168
C  C53  1  0.68518000  0.13718000  0.92380000  1.0 0.0827523168
C  C54  1  0.13718000  0.68518000  0.57620000  1.0 0.0827523168
C  C55  1  0.67569000  0.17869000  0.93470000  1.0 -0.199452461
C  C56  1  0.17869000  0.67569000  0.56530000  1.0 -0.199452461
C  C57  1  0.38858000  0.59258000  0.58240000  1.0 0.03790513
C  C58  1  0.59258000  0.38858000  0.91760000  1.0 0.03790513
C  C59  1  0.41791000  0.59891000  0.63680000  1.0 -0.1303632698
C  C60  1  0.59891000  0.41791000  0.86320000  1.0 -0.1303632698
C  C61  1  0.41901000  0.62881000  0.57290000  1.0 -0.2197707052
C  C62  1  0.62881000  0.41901000  0.92710000  1.0 -0.2197707052
C  C63  1  0.39103000  0.63923000  0.48010000  1.0 0.1399797978
C  C64  1  0.63923000  0.39103000  0.01990000  1.0 0.1399797978
C  C65  1  0.38433000  0.66666667  0.39310000  1.0 -0.05005854
C  C66  1  0.66666667  0.38433000  0.10690000  1.0 -0.05005854
C  C67  1  0.35861000  0.67401000  0.30320000  1.0 0.1291143271
C  C68  1  0.67401000  0.35861000  0.19680000  1.0 0.1399797978
C  C69  1  0.35298000  0.69798000  0.21130000  1.0 -0.2088796115
C  C70  1  0.69798000  0.35298000  0.28870000  1.0 -0.199452461
C  C71  1  0.32509000  0.69649000  0.14540000  1.0 -0.1303632698
C  C72  1  0.69649000  0.32509000  0.35460000  1.0 -0.1303632698
C  C73  1  0.31304000  0.67164000  0.19610000  1.0 0.045939108
C  C74  1  0.67164000  0.31304000  0.30390000  1.0 0.045939108
C  C75  1  0.40637000  0.68917000  0.39590000  1.0 0.120339774
C  C76  1  0.68917000  0.40637000  0.10410000  1.0 0.120339774
C  C77  1  0.37653000  0.73893000  0.36300000  1.0 -0.199452461
C  C78  1  0.73893000  0.37653000  0.13700000  1.0 -0.199452461
C  C79  1  0.39733000  0.75973000  0.37090000  1.0 0.0919689303
C  C80  1  0.75973000  0.39733000  0.12910000  1.0 0.0919689303
C  C81  1  0.47132000  0.68972000  0.42760000  1.0 0.0594693599
C  C82  1  0.68972000  0.47132000  0.07240000  1.0 0.0594693599
C  C83  1  0.45459000  0.66559000  0.42550000  1.0 -0.1905912443
C  C84  1  0.66559000  0.45459000  0.07450000  1.0 -0.1905912443
C  C85  1  0.45476000  0.92816000  0.81460000  1.0 0.0300465716
C  C86  1  0.92816000  0.45476000  0.68540000  1.0 0.0300465716
C  C87  1  0.41964000  0.92544000  0.83100000  1.0 -0.1600328998
C  C88  1  0.92544000  0.41964000  0.66900000  1.0 -0.1600328998
C  C89  1  0.43588000  0.90028000  0.92440000  1.0 -0.199452461
C  C90  1  0.90028000  0.43588000  0.57560000  1.0 -0.199452461
C  C91  1  0.48080000  0.88820000  0.96800000  1.0 0.1399797978
C  C92  1  0.88820000  0.48080000  0.53200000  1.0 0.1399797978
C  C93  1  0.50834000  0.86574000  0.06290000  1.0 -0.05005854
C  C94  1  0.86574000  0.50834000  0.43710000  1.0 -0.05005854
C  C95  1  0.55018000  0.85918000  0.10170000  1.0 0.1399797978
C  C96  1  0.85918000  0.55018000  0.39830000  1.0 0.1399797978
C  C97  1  0.57717000  0.84037000  0.19920000  1.0 -0.1905912443
C  C98  1  0.84037000  0.57717000  0.30080000  1.0 -0.1905912443
C  C99  1  0.61513000  0.84013000  0.20160000  1.0 -0.1600328998
C  C100  1  0.84013000  0.61513000  0.29840000  1.0 -0.1600328998
C  C101  1  0.61062000  0.85802000  0.10770000  1.0 0.0103822349
C  C102  1  0.85802000  0.61062000  0.39230000  1.0 0.0103822349
C  C103  1  0.49346000  0.84786000  0.13230000  1.0 0.120339774
C  C104  1  0.84786000  0.49346000  0.36770000  1.0 0.120339774
C  C105  1  0.45143000  0.87683000  0.15090000  1.0 -0.1905912443
C  C106  1  0.87683000  0.45143000  0.34910000  1.0 -0.1905912443
C  C107  1  0.44021000  0.85801000  0.21930000  1.0 0.0692451953
C  C108  1  0.85801000  0.44021000  0.28070000  1.0 0.0692451953
C  C109  1  0.51044000  0.78204000  0.24650000  1.0 0.0919689303
C  C110  1  0.78204000  0.51044000  0.25350000  1.0 0.0919689303
C  C111  1  0.52388000  0.79868000  0.17970000  1.0 -0.1905912443
C  C112  1  0.79868000  0.52388000  0.32030000  1.0 -0.1905912443
C  C113  1  0.52652000  0.94292000  0.70770000  1.0 0.0203430978
C  C114  1  0.94292000  0.52652000  0.79230000  1.0 0.0203430978
C  C115  1  0.51023000  0.94763000  0.61200000  1.0 -0.1600328998
C  C116  1  0.94763000  0.51023000  0.88800000  1.0 -0.1600328998
C  C117  1  0.51156000  0.90976000  0.61300000  1.0 -0.1905912443
C  C118  1  0.90976000  0.51156000  0.88700000  1.0 -0.1905912443
C  C119  1  0.53048000  0.88168000  0.71090000  1.0 0.1399797978
C  C120  1  0.88168000  0.53048000  0.78910000  1.0 0.1399797978
C  C121  1  0.53879000  0.83939000  0.74600000  1.0 -0.0609004512
C  C122  1  0.83939000  0.53879000  0.75400000  1.0 -0.0609004512
C  C123  1  0.56084000  0.81124000  0.84140000  1.0 0.1399797978
C  C124  1  0.81124000  0.56084000  0.65860000  1.0 0.1399797978
C  C125  1  0.57541000  0.76481000  0.88050000  1.0 -0.2088796115
C  C126  1  0.76481000  0.57541000  0.61950000  1.0 -0.2088796115
C  C127  1  0.59893000  0.74953000  0.97780000  1.0 -0.1600328998
C  C128  1  0.74953000  0.59893000  0.52220000  1.0 -0.1600328998
C  C129  1  0.59833000  0.78573000  0.99430000  1.0 0.0203430978
C  C130  1  0.78573000  0.59833000  0.50570000  1.0 0.0203430978
C  C131  1  0.52425000  0.82225000  0.67580000  1.0 0.1291143271
C  C132  1  0.82225000  0.52425000  0.82420000  1.0 0.1291143271
C  C133  1  0.47721000  0.84241000  0.63880000  1.0 -0.1905912443
C  C134  1  0.84241000  0.47721000  0.86120000  1.0 -0.1905912443
C  C135  1  0.46489000  0.82589000  0.57440000  1.0 0.0827523168
C  C136  1  0.82589000  0.46489000  0.92560000  1.0 0.0827523168
C  C137  1  0.54061000  0.77221000  0.57830000  1.0 0.0594693599
C  C138  1  0.77221000  0.54061000  0.92170000  1.0 0.0594693599
C  C139  1  0.55716000  0.78576000  0.64470000  1.0 -0.199452461
C  C140  1  0.78576000  0.55716000  0.85530000  1.0 -0.199452461
C  C141  1  0.65698000  0.82238000  0.92790000  1.0 0.03790513
C  C142  1  0.82238000  0.65698000  0.57210000  1.0 0.03790513
C  C143  1  0.69852000  0.81672000  0.94550000  1.0 -0.1303632698
C  C144  1  0.81672000  0.69852000  0.55450000  1.0 -0.1303632698
C  C145  1  0.68499000  0.86019000  0.94400000  1.0 -0.1905912443
C  C146  1  0.86019000  0.68499000  0.55600000  1.0 -0.1905912443
C  C147  1  0.63517000  0.89197000  0.92570000  1.0 0.1291143271
C  C148  1  0.89197000  0.63517000  0.57430000  1.0 0.1291143271
C  C149  1  0.60731000  0.93851000  0.92140000  1.0 -0.0609004512
C  C150  1  0.93851000  0.60731000  0.57860000  1.0 -0.0665647209
C  C151  1  0.55827000  0.96747000  0.90860000  1.0 0.1399797978
C  C152  1  0.96747000  0.55827000  0.59140000  1.0 0.1399797978
C  C153  1  0.52565000  0.01725000  0.89480000  1.0 -0.2088796115
C  C154  1  0.01725000  0.52565000  0.60520000  1.0 -0.2088796115
C  C155  1  0.48119000  0.03119000  0.87930000  1.0 -0.123234394
C  C156  1  0.03119000  0.48119000  0.62070000  1.0 -0.123234394
C  C157  1  0.48685000  0.98945000  0.88400000  1.0 0.0300465716
C  C158  1  0.98945000  0.48685000  0.61600000  1.0 0.0300465716
C  C159  1  0.62990000  0.96070000  0.93430000  1.0 0.120339774
C  C160  1  0.96070000  0.62990000  0.56570000  1.0 0.120339774
C  C161  1  0.64458000  0.97218000  0.86270000  1.0 -0.1905912443
C  C162  1  0.97218000  0.64458000  0.63730000  1.0 -0.199452461
C  C163  1  0.66382000  0.99382000  0.87520000  1.0 0.03790513
C  C164  1  0.99382000  0.66382000  0.62480000  1.0 0.03790513
C  C165  1  0.65642000  0.99262000  0.02550000  1.0 0.0827523168
C  C166  1  0.99262000  0.65642000  0.47450000  1.0 0.0827523168
C  C167  1  0.63628000  0.97148000  0.01520000  1.0 -0.199452461
C  C168  1  0.97148000  0.63628000  0.48480000  1.0 -0.199452461
C  C169  1  0.81445000  0.99125000  0.01890000  1.0 0.0692451953
C  C170  1  0.99125000  0.81445000  0.48110000  1.0 0.0692451953
C  C171  1  0.85256000  0.98276000  0.99320000  1.0 -0.199452461
C  C172  1  0.98276000  0.85256000  0.50680000  1.0 -0.199452461
C  C173  1  0.85191000  0.98551000  0.90020000  1.0 0.120339774
C  C174  1  0.98551000  0.85191000  0.59980000  1.0 0.120339774
C  C175  1  0.81262000  0.99622000  0.83570000  1.0 -0.176693963
C  C176  1  0.99622000  0.81262000  0.66430000  1.0 -0.176693963
C  C177  1  0.77684000  0.00384000  0.86880000  1.0 0.0827523168
C  C178  1  0.00384000  0.77684000  0.63120000  1.0 0.0827523168
C  C179  1  0.88981000  0.97941000  0.86380000  1.0 -0.0414778963
C  C180  1  0.97941000  0.88981000  0.63620000  1.0 -0.0414778963
C  C181  1  0.88222000  0.02102000  0.81800000  1.0 0.1291143271
C  C182  1  0.02102000  0.88222000  0.68200000  1.0 0.1291143271
C  C183  1  0.84314000  0.06814000  0.80740000  1.0 -0.1905912443
C  C184  1  0.06814000  0.84314000  0.69260000  1.0 -0.1905912443
C  C185  1  0.85026000  0.09646000  0.75970000  1.0 -0.1600328998
C  C186  1  0.09646000  0.85026000  0.74030000  1.0 -0.1600328998
C  C187  1  0.89290000  0.06670000  0.73820000  1.0 0.0103822349
C  C188  1  0.06670000  0.89290000  0.76180000  1.0 0.0103822349
C  C189  1  0.93130000  0.93270000  0.87860000  1.0 0.1399797978
C  C190  1  0.93270000  0.93130000  0.62140000  1.0 0.1399797978
C  C191  1  0.94339000  0.88959000  0.93400000  1.0 -0.2088796115
C  C192  1  0.88959000  0.94339000  0.56600000  1.0 -0.2088796115
C  C193  1  0.98767000  0.85347000  0.93500000  1.0 -0.1600328998
C  C194  1  0.85347000  0.98767000  0.56500000  1.0 -0.1600328998
C  C195  1  0.00189000  0.87449000  0.87880000  1.0 0.03790513
C  C196  1  0.87449000  0.00189000  0.62120000  1.0 0.045939108
C  C197  1  0.94279000  0.02579000  0.55580000  1.0 0.0203430978
C  C198  1  0.02579000  0.94279000  0.94420000  1.0 0.0203430978
C  C199  1  0.95137000  0.05457000  0.50320000  1.0 -0.123234394
C  C200  1  0.05457000  0.95137000  0.99680000  1.0 -0.123234394
C  C201  1  0.97999000  0.05579000  0.56950000  1.0 -0.2088796115
C  C202  1  0.05579000  0.97999000  0.93050000  1.0 -0.2088796115
C  C203  1  0.99088000  0.02668000  0.66140000  1.0 0.1399797978
C  C204  1  0.02668000  0.99088000  0.83860000  1.0 0.1399797978
C  C205  1  0.01827000  0.01827000  0.75000000  1.0 -0.0665647209
C  C206  1  0.04142000  0.04142000  0.75000000  1.0 0.1291143271
C  C207  1  0.07891000  0.02491000  0.71370000  1.0 -0.199452461
C  C208  1  0.02491000  0.07891000  0.78630000  1.0 -0.199452461
C  C209  1  0.09880000  0.04680000  0.71670000  1.0 0.0594693599
C  C210  1  0.04680000  0.09880000  0.78330000  1.0 0.0594693599
C  C211  1  0.19870000  0.09970000  0.91090000  1.0 0.0919689303
C  C212  1  0.09970000  0.19870000  0.58910000  1.0 0.0919689303
C  C213  1  0.21545000  0.11105000  0.98270000  1.0 -0.1905912443
C  C214  1  0.11105000  0.21545000  0.51730000  1.0 -0.1905912443
C  C215  1  0.18651000  0.13791000  0.03150000  1.0 0.1291143271
C  C216  1  0.13791000  0.18651000  0.46850000  1.0 0.1291143271
C  C217  1  0.14182000  0.15082000  0.01130000  1.0 -0.176693963
C  C218  1  0.15082000  0.14182000  0.48870000  1.0 -0.176693963
C  C219  1  0.12696000  0.13856000  0.93800000  1.0 0.0827523168
C  C220  1  0.13856000  0.12696000  0.56200000  1.0 0.0827523168
C  C221  1  0.25273000  0.11033000  0.35210000  1.0 0.03790513
C  C222  1  0.11033000  0.25273000  0.14790000  1.0 0.03790513
C  C223  1  0.25645000  0.07125000  0.33700000  1.0 -0.1514365018
C  C224  1  0.07125000  0.25645000  0.16300000  1.0 -0.1514365018
C  C225  1  0.23580000  0.08400000  0.24140000  1.0 -0.199452461
C  C226  1  0.08400000  0.23580000  0.25860000  1.0 -0.199452461
C  C227  1  0.22055000  0.12995000  0.19620000  1.0 0.1399797978
C  C228  1  0.12995000  0.22055000  0.30380000  1.0 0.1399797978
C  C229  1  0.20117000  0.15557000  0.10110000  1.0 -0.0665647209
C  C230  1  0.15557000  0.20117000  0.39890000  1.0 -0.0665647209
C  C231  1  0.19141000  0.19761000  0.05930000  1.0 0.1399797978
C  C232  1  0.19761000  0.19141000  0.44070000  1.0 0.1399797978
C  C233  1  0.17311000  0.22371000  0.96090000  1.0 -0.1742575979
C  C234  1  0.22371000  0.17311000  0.53910000  1.0 -0.1742575979
C  C235  1  0.16916000  0.26296000  0.95320000  1.0 -0.1600328998
C  C236  1  0.26296000  0.16916000  0.54680000  1.0 -0.1600328998
C  C237  1  0.18348000  0.26228000  0.04860000  1.0 0.03790513
C  C238  1  0.26228000  0.18348000  0.45140000  1.0 0.03790513
C  C239  1  0.31419000  0.14139000  0.28600000  1.0 0.0300465716
C  C240  1  0.14139000  0.31419000  0.21400000  1.0 0.0300465716
C  C241  1  0.35613000  0.13613000  0.30290000  1.0 -0.1303632698
C  C242  1  0.13613000  0.35613000  0.19710000  1.0 -0.1303632698
C  C243  1  0.34205000  0.18045000  0.29140000  1.0 -0.2088796115
C  C244  1  0.18045000  0.34205000  0.20860000  1.0 -0.2088796115
C  C245  1  0.29107000  0.21367000  0.26740000  1.0 0.1399797978
C  C246  1  0.21367000  0.29107000  0.23260000  1.0 0.1399797978
C  C247  1  0.26177000  0.26177000  0.25000000  1.0 -0.089803095
C  C248  1  0.28428000  0.28428000  0.25000000  1.0 0.1399797978
C  C249  1  0.30043000  0.29003000  0.17500000  1.0 -0.1905912443
C  C250  1  0.29003000  0.30043000  0.32500000  1.0 -0.1905912443
C  C251  1  0.32068000  0.31108000  0.17610000  1.0 0.0594693599
C  C252  1  0.31108000  0.32068000  0.32390000  1.0 0.0594693599
C  C253  1  0.73478000  0.00818000  0.34000000  1.0 0.4882248276
C  C254  1  0.00818000  0.73478000  0.16000000  1.0 0.4882248276
C  C255  1  0.76665000  0.33465000  0.75100000  1.0 0.03790513
C  C256  1  0.33465000  0.76665000  0.74900000  1.0 0.03790513
C  C257  1  0.79181000  0.34561000  0.80350000  1.0 -0.1600328998
C  C258  1  0.34561000  0.79181000  0.69650000  1.0 -0.1600328998
C  C259  1  0.75968000  0.39288000  0.79400000  1.0 -0.1905912443
C  C260  1  0.39288000  0.75968000  0.70600000  1.0 -0.1905912443
C  C261  1  0.71526000  0.40946000  0.73510000  1.0 0.1399797978
C  C262  1  0.40946000  0.71526000  0.76490000  1.0 0.1399797978
C  C263  1  0.67075000  0.45395000  0.71270000  1.0 -0.0609004512
C  C264  1  0.45395000  0.67075000  0.78730000  1.0 -0.0609004512
C  C265  1  0.62722000  0.46662000  0.67020000  1.0 0.1399797978
C  C266  1  0.46662000  0.62722000  0.82980000  1.0 0.1399797978
C  C267  1  0.57984000  0.50984000  0.65300000  1.0 -0.2088796115
C  C268  1  0.50984000  0.57984000  0.84700000  1.0 -0.2088796115
C  C269  1  0.54795000  0.50575000  0.61140000  1.0 -0.1514365018
C  C270  1  0.50575000  0.54795000  0.88860000  1.0 -0.1514365018
C  C271  1  0.57444000  0.46064000  0.59790000  1.0 0.0203430978
C  C272  1  0.46064000  0.57444000  0.90210000  1.0 0.0203430978
C  C273  1  0.67071000  0.49171000  0.73830000  1.0 0.120339774
C  C274  1  0.49171000  0.67071000  0.76170000  1.0 0.120339774
C  C275  1  0.68607000  0.51047000  0.68380000  1.0 -0.176693963
C  C276  1  0.51047000  0.68607000  0.81620000  1.0 -0.176693963
C  C277  1  0.68353000  0.54693000  0.70300000  1.0 0.0919689303
C  C278  1  0.54693000  0.68353000  0.79700000  1.0 0.0919689303
C  C279  1  0.65340000  0.54700000  0.82050000  1.0 0.0692451953
C  C280  1  0.54700000  0.65340000  0.67950000  1.0 0.0692451953
C  C281  1  0.65434000  0.51074000  0.80580000  1.0 -0.1905912443
C  C282  1  0.51074000  0.65434000  0.69420000  1.0 -0.1905912443
C  C283  1  0.46506000  0.65006000  0.01890000  1.0 0.0594693599
C  C284  1  0.65006000  0.46506000  0.48110000  1.0 0.0594693599
C  C285  1  0.48012000  0.67292000  0.06250000  1.0 -0.1514365018
C  C286  1  0.67292000  0.48012000  0.43750000  1.0 -0.1514365018
C  C287  1  0.44078000  0.71778000  0.04740000  1.0 -0.1905912443
C  C288  1  0.71778000  0.44078000  0.45260000  1.0 -0.1905912443
C  C289  1  0.40106000  0.72266000  0.99750000  1.0 0.1399797978
C  C290  1  0.72266000  0.40106000  0.50250000  1.0 0.1399797978
C  C291  1  0.35374000  0.76074000  0.97610000  1.0 -0.0665647209
C  C292  1  0.76074000  0.35374000  0.52390000  1.0 -0.0609004512
C  C293  1  0.31652000  0.76132000  0.93910000  1.0 0.1291143271
C  C294  1  0.76132000  0.31652000  0.56090000  1.0 0.1291143271
C  C295  1  0.26731000  0.79671000  0.92830000  1.0 -0.199452461
C  C296  1  0.79671000  0.26731000  0.57170000  1.0 -0.199452461
C  C297  1  0.24449000  0.78009000  0.89200000  1.0 -0.1600328998
C  C298  1  0.78009000  0.24449000  0.60800000  1.0 -0.1600328998
C  C299  1  0.27883000  0.73703000  0.88240000  1.0 0.0103822349
C  C300  1  0.73703000  0.27883000  0.61760000  1.0 0.0103822349
C  C301  1  0.34186000  0.80506000  0.99210000  1.0 0.120339774
C  C302  1  0.80506000  0.34186000  0.50790000  1.0 0.120339774
C  C303  1  0.34693000  0.83273000  0.93150000  1.0 -0.1905912443
C  C304  1  0.83273000  0.34693000  0.56850000  1.0 -0.1905912443
C  C305  1  0.33657000  0.87337000  0.94600000  1.0 0.0827523168
C  C306  1  0.87337000  0.33657000  0.55400000  1.0 0.0827523168
C  C307  1  0.31482000  0.86282000  0.07620000  1.0 0.0827523168
C  C308  1  0.86282000  0.31482000  0.42380000  1.0 0.0827523168
C  C309  1  0.32431000  0.82131000  0.06530000  1.0 -0.199452461
C  C310  1  0.82131000  0.32431000  0.43470000  1.0 -0.199452461
C  C311  1  0.61142000  0.40742000  0.41760000  1.0 0.03790513
C  C312  1  0.40742000  0.61142000  0.08240000  1.0 0.03790513
C  C313  1  0.58209000  0.40109000  0.36320000  1.0 -0.1303632698
C  C314  1  0.40109000  0.58209000  0.13680000  1.0 -0.1303632698
C  C315  1  0.58099000  0.37119000  0.42710000  1.0 -0.2197707052
C  C316  1  0.37119000  0.58099000  0.07290000  1.0 -0.2197707052
C  C317  1  0.60897000  0.36077000  0.51990000  1.0 0.1399797978
C  C318  1  0.36077000  0.60897000  0.98010000  1.0 0.1399797978
C  C319  1  0.61567000  0.33327000  0.60690000  1.0 -0.05005854
C  C320  1  0.33327000  0.61567000  0.89310000  1.0 -0.05005854
C  C321  1  0.64139000  0.32599000  0.69680000  1.0 0.1291143271
C  C322  1  0.32599000  0.64139000  0.80320000  1.0 0.1291143271
C  C323  1  0.64702000  0.30202000  0.78870000  1.0 -0.2088796115
C  C324  1  0.30202000  0.64702000  0.71130000  1.0 -0.199452461
C  C325  1  0.67491000  0.30351000  0.85460000  1.0 -0.1303632698
C  C326  1  0.30351000  0.67491000  0.64540000  1.0 -0.1303632698
C  C327  1  0.68696000  0.32836000  0.80390000  1.0 0.045939108
C  C328  1  0.32836000  0.68696000  0.69610000  1.0 0.045939108
C  C329  1  0.59363000  0.31083000  0.60410000  1.0 0.120339774
C  C330  1  0.31083000  0.59363000  0.89590000  1.0 0.120339774
C  C331  1  0.62347000  0.26107000  0.63700000  1.0 -0.199452461
C  C332  1  0.26107000  0.62347000  0.86300000  1.0 -0.199452461
C  C333  1  0.60267000  0.24027000  0.62910000  1.0 0.0919689303
C  C334  1  0.24027000  0.60267000  0.87090000  1.0 0.0919689303
C  C335  1  0.52868000  0.31028000  0.57240000  1.0 0.0594693599
C  C336  1  0.31028000  0.52868000  0.92760000  1.0 0.0594693599
C  C337  1  0.54541000  0.33441000  0.57450000  1.0 -0.1905912443
C  C338  1  0.33441000  0.54541000  0.92550000  1.0 -0.1905912443
C  C339  1  0.54524000  0.07184000  0.18540000  1.0 0.0300465716
C  C340  1  0.07184000  0.54524000  0.31460000  1.0 0.0300465716
C  C341  1  0.58036000  0.07456000  0.16900000  1.0 -0.1600328998
C  C342  1  0.07456000  0.58036000  0.33100000  1.0 -0.1600328998
C  C343  1  0.56412000  0.09972000  0.07560000  1.0 -0.199452461
C  C344  1  0.09972000  0.56412000  0.42440000  1.0 -0.199452461
C  C345  1  0.51920000  0.11180000  0.03200000  1.0 0.1399797978
C  C346  1  0.11180000  0.51920000  0.46800000  1.0 0.1399797978
C  C347  1  0.49166000  0.13426000  0.93710000  1.0 -0.05005854
C  C348  1  0.13426000  0.49166000  0.56290000  1.0 -0.05005854
C  C349  1  0.44982000  0.14082000  0.89830000  1.0 0.1399797978
C  C350  1  0.14082000  0.44982000  0.60170000  1.0 0.1399797978
C  C351  1  0.42283000  0.15963000  0.80080000  1.0 -0.1905912443
C  C352  1  0.15963000  0.42283000  0.69920000  1.0 -0.1905912443
C  C353  1  0.38487000  0.15987000  0.79840000  1.0 -0.1600328998
C  C354  1  0.15987000  0.38487000  0.70160000  1.0 -0.1600328998
C  C355  1  0.38938000  0.14198000  0.89230000  1.0 0.0103822349
C  C356  1  0.14198000  0.38938000  0.60770000  1.0 0.0103822349
C  C357  1  0.50654000  0.15214000  0.86770000  1.0 0.120339774
C  C358  1  0.15214000  0.50654000  0.63230000  1.0 0.120339774
C  C359  1  0.54857000  0.12317000  0.84910000  1.0 -0.1905912443
C  C360  1  0.12317000  0.54857000  0.65090000  1.0 -0.1905912443
C  C361  1  0.55979000  0.14199000  0.78070000  1.0 0.0692451953
C  C362  1  0.14199000  0.55979000  0.71930000  1.0 0.0692451953
C  C363  1  0.48956000  0.21796000  0.75350000  1.0 0.0919689303
C  C364  1  0.21796000  0.48956000  0.74650000  1.0 0.0919689303
C  C365  1  0.47612000  0.20132000  0.82030000  1.0 -0.1905912443
C  C366  1  0.20132000  0.47612000  0.67970000  1.0 -0.1905912443
C  C367  1  0.47348000  0.05708000  0.29230000  1.0 0.0203430978
C  C368  1  0.05708000  0.47348000  0.20770000  1.0 0.0203430978
C  C369  1  0.48977000  0.05237000  0.38800000  1.0 -0.1600328998
C  C370  1  0.05237000  0.48977000  0.11200000  1.0 -0.1600328998
C  C371  1  0.48844000  0.09024000  0.38700000  1.0 -0.1905912443
C  C372  1  0.09024000  0.48844000  0.11300000  1.0 -0.1905912443
C  C373  1  0.46952000  0.11832000  0.28910000  1.0 0.1399797978
C  C374  1  0.11832000  0.46952000  0.21090000  1.0 0.1291143271
C  C375  1  0.46121000  0.16061000  0.25400000  1.0 -0.0609004512
C  C376  1  0.16061000  0.46121000  0.24600000  1.0 -0.0609004512
C  C377  1  0.43916000  0.18876000  0.15860000  1.0 0.1399797978
C  C378  1  0.18876000  0.43916000  0.34140000  1.0 0.1399797978
C  C379  1  0.42459000  0.23519000  0.11950000  1.0 -0.2088796115
C  C380  1  0.23519000  0.42459000  0.38050000  1.0 -0.2088796115
C  C381  1  0.40107000  0.25047000  0.02220000  1.0 -0.1600328998
C  C382  1  0.25047000  0.40107000  0.47780000  1.0 -0.1600328998
C  C383  1  0.40167000  0.21427000  0.00570000  1.0 0.0203430978
C  C384  1  0.21427000  0.40167000  0.49430000  1.0 0.0203430978
C  C385  1  0.47575000  0.17775000  0.32420000  1.0 0.1291143271
C  C386  1  0.17775000  0.47575000  0.17580000  1.0 0.1291143271
C  C387  1  0.52279000  0.15759000  0.36120000  1.0 -0.1905912443
C  C388  1  0.15759000  0.52279000  0.13880000  1.0 -0.1905912443
C  C389  1  0.53511000  0.17411000  0.42560000  1.0 0.0827523168
C  C390  1  0.17411000  0.53511000  0.07440000  1.0 0.0827523168
C  C391  1  0.45939000  0.22779000  0.42170000  1.0 0.0594693599
C  C392  1  0.22779000  0.45939000  0.07830000  1.0 0.0594693599
C  C393  1  0.44284000  0.21424000  0.35530000  1.0 -0.199452461
C  C394  1  0.21424000  0.44284000  0.14470000  1.0 -0.199452461
C  C395  1  0.34302000  0.17762000  0.07210000  1.0 0.03790513
C  C396  1  0.17762000  0.34302000  0.42790000  1.0 0.03790513
C  C397  1  0.30148000  0.18328000  0.05450000  1.0 -0.1303632698
C  C398  1  0.18328000  0.30148000  0.44550000  1.0 -0.1303632698
C  C399  1  0.31501000  0.13981000  0.05600000  1.0 -0.1905912443
C  C400  1  0.13981000  0.31501000  0.44400000  1.0 -0.1905912443
C  C401  1  0.36483000  0.10803000  0.07430000  1.0 0.1291143271
C  C402  1  0.10803000  0.36483000  0.42570000  1.0 0.1291143271
C  C403  1  0.39269000  0.06149000  0.07860000  1.0 -0.0665647209
C  C404  1  0.06149000  0.39269000  0.42140000  1.0 -0.0665647209
C  C405  1  0.44173000  0.03253000  0.09140000  1.0 0.1399797978
C  C406  1  0.03253000  0.44173000  0.40860000  1.0 0.1399797978
C  C407  1  0.47435000  0.98275000  0.10520000  1.0 -0.2088796115
C  C408  1  0.98275000  0.47435000  0.39480000  1.0 -0.2088796115
C  C409  1  0.51881000  0.96881000  0.12070000  1.0 -0.123234394
C  C410  1  0.96881000  0.51881000  0.37930000  1.0 -0.123234394
C  C411  1  0.51315000  0.01055000  0.11600000  1.0 0.0300465716
C  C412  1  0.01055000  0.51315000  0.38400000  1.0 0.0300465716
C  C413  1  0.37010000  0.03930000  0.06570000  1.0 0.120339774
C  C414  1  0.03930000  0.37010000  0.43430000  1.0 0.120339774
C  C415  1  0.35542000  0.02782000  0.13730000  1.0 -0.1905912443
C  C416  1  0.02782000  0.35542000  0.36270000  1.0 -0.1905912443
C  C417  1  0.33618000  0.00618000  0.12480000  1.0 0.03790513
C  C418  1  0.00618000  0.33618000  0.37520000  1.0 0.03790513
C  C419  1  0.34358000  0.00738000  0.97450000  1.0 0.0827523168
C  C420  1  0.00738000  0.34358000  0.52550000  1.0 0.0827523168
C  C421  1  0.36372000  0.02852000  0.98480000  1.0 -0.199452461
C  C422  1  0.02852000  0.36372000  0.51520000  1.0 -0.199452461
C  C423  1  0.18555000  0.00875000  0.98110000  1.0 0.0692451953
C  C424  1  0.00875000  0.18555000  0.51890000  1.0 0.0692451953
C  C425  1  0.14744000  0.01724000  0.00680000  1.0 -0.199452461
C  C426  1  0.01724000  0.14744000  0.49320000  1.0 -0.199452461
C  C427  1  0.14809000  0.01449000  0.09980000  1.0 0.120339774
C  C428  1  0.01449000  0.14809000  0.40020000  1.0 0.120339774
C  C429  1  0.18738000  0.00378000  0.16430000  1.0 -0.176693963
C  C430  1  0.00378000  0.18738000  0.33570000  1.0 -0.176693963
C  C431  1  0.22316000  0.99616000  0.13120000  1.0 0.0827523168
C  C432  1  0.99616000  0.22316000  0.36880000  1.0 0.0827523168
C  C433  1  0.11019000  0.02059000  0.13620000  1.0 -0.0414778963
C  C434  1  0.02059000  0.11019000  0.36380000  1.0 -0.0414778963
C  C435  1  0.11778000  0.97898000  0.18200000  1.0 0.1291143271
C  C436  1  0.97898000  0.11778000  0.31800000  1.0 0.1291143271
C  C437  1  0.15686000  0.93186000  0.19260000  1.0 -0.1905912443
C  C438  1  0.93186000  0.15686000  0.30740000  1.0 -0.1905912443
C  C439  1  0.14974000  0.90354000  0.24030000  1.0 -0.1600328998
C  C440  1  0.90354000  0.14974000  0.25970000  1.0 -0.1600328998
C  C441  1  0.10710000  0.93330000  0.26180000  1.0 0.0103822349
C  C442  1  0.93330000  0.10710000  0.23820000  1.0 0.0103822349
C  C443  1  0.06870000  0.06730000  0.12140000  1.0 0.1399797978
C  C444  1  0.06730000  0.06870000  0.37860000  1.0 0.1399797978
C  C445  1  0.05661000  0.11041000  0.06600000  1.0 -0.2088796115
C  C446  1  0.11041000  0.05661000  0.43400000  1.0 -0.2088796115
C  C447  1  0.01233000  0.14653000  0.06500000  1.0 -0.1600328998
C  C448  1  0.14653000  0.01233000  0.43500000  1.0 -0.1600328998
C  C449  1  0.99811000  0.12551000  0.12120000  1.0 0.045939108
C  C450  1  0.12551000  0.99811000  0.37880000  1.0 0.03790513
C  C451  1  0.05721000  0.97421000  0.44420000  1.0 0.0203430978
C  C452  1  0.97421000  0.05721000  0.05580000  1.0 0.0203430978
C  C453  1  0.04863000  0.94543000  0.49680000  1.0 -0.123234394
C  C454  1  0.94543000  0.04863000  0.00320000  1.0 -0.123234394
C  C455  1  0.02001000  0.94421000  0.43050000  1.0 -0.2088796115
C  C456  1  0.94421000  0.02001000  0.06950000  1.0 -0.2088796115
C  C457  1  0.00912000  0.97332000  0.33860000  1.0 0.1399797978
C  C458  1  0.97332000  0.00912000  0.16140000  1.0 0.1399797978
C  C459  1  0.98173000  0.98173000  0.25000000  1.0 -0.0665647209
C  C460  1  0.95858000  0.95858000  0.25000000  1.0 0.1291143271
C  C461  1  0.92109000  0.97509000  0.28630000  1.0 -0.199452461
C  C462  1  0.97509000  0.92109000  0.21370000  1.0 -0.199452461
C  C463  1  0.90120000  0.95320000  0.28330000  1.0 0.0594693599
C  C464  1  0.95320000  0.90120000  0.21670000  1.0 0.0594693599
C  C465  1  0.80130000  0.90030000  0.08910000  1.0 0.0919689303
C  C466  1  0.90030000  0.80130000  0.41090000  1.0 0.0919689303
C  C467  1  0.78455000  0.88895000  0.01730000  1.0 -0.1905912443
C  C468  1  0.88895000  0.78455000  0.48270000  1.0 -0.1905912443
C  C469  1  0.81349000  0.86209000  0.96850000  1.0 0.1291143271
C  C470  1  0.86209000  0.81349000  0.53150000  1.0 0.1291143271
C  C471  1  0.85818000  0.84918000  0.98870000  1.0 -0.176693963
C  C472  1  0.84918000  0.85818000  0.51130000  1.0 -0.176693963
C  C473  1  0.87304000  0.86144000  0.06200000  1.0 0.0827523168
C  C474  1  0.86144000  0.87304000  0.43800000  1.0 0.0827523168
C  C475  1  0.74727000  0.88967000  0.64790000  1.0 0.03790513
C  C476  1  0.88967000  0.74727000  0.85210000  1.0 0.03790513
C  C477  1  0.74355000  0.92875000  0.66300000  1.0 -0.1514365018
C  C478  1  0.92875000  0.74355000  0.83700000  1.0 -0.1514365018
C  C479  1  0.76420000  0.91600000  0.75860000  1.0 -0.199452461
C  C480  1  0.91600000  0.76420000  0.74140000  1.0 -0.199452461
C  C481  1  0.77945000  0.87005000  0.80380000  1.0 0.1399797978
C  C482  1  0.87005000  0.77945000  0.69620000  1.0 0.1399797978
C  C483  1  0.79883000  0.84443000  0.89890000  1.0 -0.0665647209
C  C484  1  0.84443000  0.79883000  0.60110000  1.0 -0.0665647209
C  C485  1  0.80859000  0.80239000  0.94070000  1.0 0.1399797978
C  C486  1  0.80239000  0.80859000  0.55930000  1.0 0.1399797978
C  C487  1  0.82689000  0.77629000  0.03910000  1.0 -0.1742575979
C  C488  1  0.77629000  0.82689000  0.46090000  1.0 -0.1742575979
C  C489  1  0.83084000  0.73704000  0.04680000  1.0 -0.1600328998
C  C490  1  0.73704000  0.83084000  0.45320000  1.0 -0.1600328998
C  C491  1  0.81652000  0.73772000  0.95140000  1.0 0.03790513
C  C492  1  0.73772000  0.81652000  0.54860000  1.0 0.03790513
C  C493  1  0.68581000  0.85861000  0.71400000  1.0 0.0300465716
C  C494  1  0.85861000  0.68581000  0.78600000  1.0 0.0300465716
C  C495  1  0.64387000  0.86387000  0.69710000  1.0 -0.1303632698
C  C496  1  0.86387000  0.64387000  0.80290000  1.0 -0.1303632698
C  C497  1  0.65795000  0.81955000  0.70860000  1.0 -0.2088796115
C  C498  1  0.81955000  0.65795000  0.79140000  1.0 -0.2088796115
C  C499  1  0.70893000  0.78633000  0.73260000  1.0 0.1399797978
C  C500  1  0.78633000  0.70893000  0.76740000  1.0 0.1399797978
C  C501  1  0.73823000  0.73823000  0.75000000  1.0 -0.089803095
C  C502  1  0.71572000  0.71572000  0.75000000  1.0 0.1399797978
C  C503  1  0.69957000  0.70997000  0.82500000  1.0 -0.1905912443
C  C504  1  0.70997000  0.69957000  0.67500000  1.0 -0.1905912443
C  C505  1  0.67932000  0.68892000  0.82390000  1.0 0.0594693599
C  C506  1  0.68892000  0.67932000  0.67610000  1.0 0.0594693599
C  C507  1  0.26522000  0.99182000  0.66000000  1.0 0.4882248276
C  C508  1  0.99182000  0.26522000  0.84000000  1.0 0.4882248276
C  C509  1  0.92563000  0.31043000  0.07520000  1.0 0.4882248276
C  C510  1  0.31043000  0.92563000  0.42480000  1.0 0.4882248276
C  C511  1  0.07437000  0.68957000  0.92480000  1.0 0.4882248276
C  C512  1  0.68957000  0.07437000  0.57520000  1.0 0.4882248276
C  C513  1  0.63720000  0.61780000  0.12670000  1.0 0.498837986
C  C514  1  0.61780000  0.63720000  0.37330000  1.0 0.498837986
C  C515  1  0.36280000  0.38220000  0.87330000  1.0 0.498837986
C  C516  1  0.38220000  0.36280000  0.62670000  1.0 0.498837986
S  S1  1  0.75074000  0.98348000  0.24360000  1.0 0.98496876
S  S2  1  0.98348000  0.75074000  0.25640000  1.0 0.98496876
S  S3  1  0.24926000  0.01652000  0.75640000  1.0 0.9898465955
S  S4  1  0.01652000  0.24926000  0.74360000  1.0 0.9898465955
S  S5  1  0.89907000  0.33503000  0.16311000  1.0 0.9898465955
S  S6  1  0.33503000  0.89907000  0.33689000  1.0 0.9898465955
S  S7  1  0.10093000  0.66497000  0.83689000  1.0 0.9898465955
S  S8  1  0.66497000  0.10093000  0.66311000  1.0 0.9898465955
S  S9  1  0.65326000  0.60384000  0.02150000  1.0 1.0010068202
S  S10  1  0.60384000  0.65326000  0.47850000  1.0 1.0010068202
S  S11  1  0.34674000  0.39616000  0.97850000  1.0 1.0010068202
S  S12  1  0.39616000  0.34674000  0.52150000  1.0 1.0010068202
N  N1  1  0.27869000  0.62789000  0.29110000  1.0 -0.2197707052
N  N2  1  0.62789000  0.27869000  0.20890000  1.0 -0.2197707052
N  N3  1  0.37833000  0.56293000  0.36820000  1.0 -0.2197707052
N  N4  1  0.56293000  0.37833000  0.13180000  1.0 -0.2197707052
N  N5  1  0.33113000  0.43533000  0.23010000  1.0 -0.1905912443
N  N6  1  0.43533000  0.33113000  0.26990000  1.0 -0.1905912443
N  N7  1  0.58152000  0.32032000  0.01930000  1.0 -0.2197707052
N  N8  1  0.32032000  0.58152000  0.48070000  1.0 -0.2197707052
N  N9  1  0.67765000  0.27525000  0.09090000  1.0 -0.2197707052
N  N10  1  0.27525000  0.67765000  0.40910000  1.0 -0.2197707052
N  N11  1  0.67707000  0.11247000  0.98010000  1.0 -0.199452461
N  N12  1  0.11247000  0.67707000  0.51990000  1.0 -0.199452461
N  N13  1  0.37324000  0.61524000  0.48920000  1.0 -0.2197707052
N  N14  1  0.61524000  0.37324000  0.01080000  1.0 -0.2197707052
N  N15  1  0.33264000  0.65784000  0.29000000  1.0 -0.2197707052
N  N16  1  0.65784000  0.33264000  0.21000000  1.0 -0.2197707052
N  N17  1  0.44259000  0.73759000  0.40330000  1.0 -0.199452461
N  N18  1  0.73759000  0.44259000  0.09670000  1.0 -0.199452461
N  N19  1  0.49136000  0.90596000  0.89490000  1.0 -0.227472283
N  N20  1  0.90596000  0.49136000  0.60510000  1.0 -0.227472283
N  N21  1  0.57176000  0.86924000  0.04580000  1.0 -0.2197707052
N  N22  1  0.86924000  0.57176000  0.45420000  1.0 -0.2197707052
N  N23  1  0.47033000  0.81013000  0.26900000  1.0 -0.2088796115
N  N24  1  0.81013000  0.47033000  0.23100000  1.0 -0.2088796115
N  N25  1  0.53828000  0.90408000  0.76690000  1.0 -0.2197707052
N  N26  1  0.90408000  0.53828000  0.73310000  1.0 -0.2197707052
N  N27  1  0.57623000  0.82283000  0.91530000  1.0 -0.2197707052
N  N28  1  0.82283000  0.57623000  0.58470000  1.0 -0.2197707052
N  N29  1  0.49468000  0.79228000  0.54160000  1.0 -0.199452461
N  N30  1  0.79228000  0.49468000  0.95840000  1.0 -0.199452461
N  N31  1  0.61871000  0.86613000  0.91620000  1.0 -0.2197707052
N  N32  1  0.86613000  0.61871000  0.58380000  1.0 -0.2197707052
N  N33  1  0.53223000  0.95165000  0.90050000  1.0 -0.227472283
N  N34  1  0.95165000  0.53223000  0.59950000  1.0 -0.227472283
N  N35  1  0.66936000  0.00526000  0.95650000  1.0 -0.199452461
N  N36  1  0.00526000  0.66936000  0.54350000  1.0 -0.199452461
N  N37  1  0.77607000  0.00247000  0.95730000  1.0 -0.2088796115
N  N38  1  0.00247000  0.77607000  0.54270000  1.0 -0.2088796115
N  N39  1  0.91331000  0.02031000  0.77490000  1.0 -0.2197707052
N  N40  1  0.02031000  0.91331000  0.72510000  1.0 -0.2197707052
N  N41  1  0.96855000  0.92155000  0.84490000  1.0 -0.2197707052
N  N42  1  0.92155000  0.96855000  0.65510000  1.0 -0.2197707052
N  N43  1  0.96683000  0.00903000  0.65070000  1.0 -0.227472283
N  N44  1  0.00903000  0.96683000  0.84930000  1.0 -0.227472283
N  N45  1  0.08344000  0.08344000  0.75000000  1.0 -0.2088796115
N  N46  1  0.15497000  0.11457000  0.88730000  1.0 -0.1905912443
N  N47  1  0.11457000  0.15497000  0.61270000  1.0 -0.1905912443
N  N48  1  0.23096000  0.14564000  0.26870000  1.0 -0.2197707052
N  N49  1  0.14564000  0.23096000  0.23130000  1.0 -0.2197707052
N  N50  1  0.19686000  0.22366000  0.11170000  1.0 -0.2088796115
N  N51  1  0.22366000  0.19686000  0.38830000  1.0 -0.2088796115
N  N52  1  0.27534000  0.18716000  0.26540000  1.0 -0.227472283
N  N53  1  0.18716000  0.27534000  0.23460000  1.0 -0.227472283
N  N54  1  0.32633000  0.32633000  0.25000000  1.0 -0.199452461
N  N55  1  0.72131000  0.37211000  0.70890000  1.0 -0.2197707052
N  N56  1  0.37211000  0.72131000  0.79110000  1.0 -0.2197707052
N  N57  1  0.62167000  0.43707000  0.63180000  1.0 -0.2197707052
N  N58  1  0.43707000  0.62167000  0.86820000  1.0 -0.2197707052
N  N59  1  0.66887000  0.56467000  0.76990000  1.0 -0.1905912443
N  N60  1  0.56467000  0.66887000  0.73010000  1.0 -0.1905912443
N  N61  1  0.41848000  0.67968000  0.98070000  1.0 -0.2197707052
N  N62  1  0.67968000  0.41848000  0.51930000  1.0 -0.2197707052
N  N63  1  0.32235000  0.72475000  0.90910000  1.0 -0.2197707052
N  N64  1  0.72475000  0.32235000  0.59090000  1.0 -0.2197707052
N  N65  1  0.32293000  0.88753000  0.01990000  1.0 -0.199452461
N  N66  1  0.88753000  0.32293000  0.48010000  1.0 -0.199452461
N  N67  1  0.62676000  0.38476000  0.51080000  1.0 -0.2197707052
N  N68  1  0.38476000  0.62676000  0.98920000  1.0 -0.2197707052
N  N69  1  0.66736000  0.34216000  0.71000000  1.0 -0.2197707052
N  N70  1  0.34216000  0.66736000  0.79000000  1.0 -0.2197707052
N  N71  1  0.55741000  0.26241000  0.59670000  1.0 -0.199452461
N  N72  1  0.26241000  0.55741000  0.90330000  1.0 -0.199452461
N  N73  1  0.50864000  0.09404000  0.10510000  1.0 -0.227472283
N  N74  1  0.09404000  0.50864000  0.39490000  1.0 -0.227472283
N  N75  1  0.42824000  0.13076000  0.95420000  1.0 -0.2197707052
N  N76  1  0.13076000  0.42824000  0.54580000  1.0 -0.2197707052
N  N77  1  0.52967000  0.18987000  0.73100000  1.0 -0.2088796115
N  N78  1  0.18987000  0.52967000  0.76900000  1.0 -0.2088796115
N  N79  1  0.46172000  0.09592000  0.23310000  1.0 -0.2197707052
N  N80  1  0.09592000  0.46172000  0.26690000  1.0 -0.2197707052
N  N81  1  0.42377000  0.17717000  0.08470000  1.0 -0.2197707052
N  N82  1  0.17717000  0.42377000  0.41530000  1.0 -0.2197707052
N  N83  1  0.50532000  0.20772000  0.45840000  1.0 -0.199452461
N  N84  1  0.20772000  0.50532000  0.04160000  1.0 -0.199452461
N  N85  1  0.38129000  0.13387000  0.08380000  1.0 -0.2088796115
N  N86  1  0.13387000  0.38129000  0.41620000  1.0 -0.2197707052
N  N87  1  0.46777000  0.04835000  0.09950000  1.0 -0.227472283
N  N88  1  0.04835000  0.46777000  0.40050000  1.0 -0.227472283
N  N89  1  0.33064000  0.99474000  0.04350000  1.0 -0.199452461
N  N90  1  0.99474000  0.33064000  0.45650000  1.0 -0.199452461
N  N91  1  0.22393000  0.99753000  0.04270000  1.0 -0.2088796115
N  N92  1  0.99753000  0.22393000  0.45730000  1.0 -0.2088796115
N  N93  1  0.08669000  0.97969000  0.22510000  1.0 -0.2197707052
N  N94  1  0.97969000  0.08669000  0.27490000  1.0 -0.2197707052
N  N95  1  0.03145000  0.07845000  0.15510000  1.0 -0.2197707052
N  N96  1  0.07845000  0.03145000  0.34490000  1.0 -0.2197707052
N  N97  1  0.03317000  0.99097000  0.34930000  1.0 -0.227472283
N  N98  1  0.99097000  0.03317000  0.15070000  1.0 -0.227472283
N  N99  1  0.91656000  0.91656000  0.25000000  1.0 -0.2088796115
N  N100  1  0.84503000  0.88543000  0.11270000  1.0 -0.1905912443
N  N101  1  0.88543000  0.84503000  0.38730000  1.0 -0.1905912443
N  N102  1  0.76904000  0.85436000  0.73130000  1.0 -0.2197707052
N  N103  1  0.85436000  0.76904000  0.76870000  1.0 -0.2197707052
N  N104  1  0.80314000  0.77634000  0.88830000  1.0 -0.2088796115
N  N105  1  0.77634000  0.80314000  0.61170000  1.0 -0.2088796115
N  N106  1  0.72466000  0.81284000  0.73460000  1.0 -0.227472283
N  N107  1  0.81284000  0.72466000  0.76540000  1.0 -0.227472283
N  N108  1  0.67367000  0.67367000  0.75000000  1.0 -0.199452461
O  O1  1  0.71098000  0.02058000  0.16040000  1.0 -0.572257729
O  O2  1  0.02058000  0.71098000  0.33960000  1.0 -0.572257729
O  O3  1  0.75424000  0.94224000  0.26970000  1.0 -0.572257729
O  O4  1  0.94224000  0.75424000  0.23030000  1.0 -0.572257729
O  O5  1  0.79393000  0.97413000  0.24860000  1.0 -0.5856180703
O  O6  1  0.97413000  0.79393000  0.25140000  1.0 -0.5856180703
O  O7  1  0.28902000  0.97942000  0.83960000  1.0 -0.572257729
O  O8  1  0.97942000  0.28902000  0.66040000  1.0 -0.572257729
O  O9  1  0.24576000  0.05776000  0.73030000  1.0 -0.572257729
O  O10  1  0.05776000  0.24576000  0.76970000  1.0 -0.572257729
O  O11  1  0.20607000  0.02587000  0.75140000  1.0 -0.5798069155
O  O12  1  0.02587000  0.20607000  0.74860000  1.0 -0.5798069155
O  O13  1  0.93417000  0.33237000  0.22590000  1.0 -0.572257729
O  O14  1  0.85720000  0.38300000  0.10690000  1.0 -0.5856180703
O  O15  1  0.88996000  0.30396000  0.20350000  1.0 -0.5798069155
O  O16  1  0.33237000  0.93417000  0.27410000  1.0 -0.572257729
O  O17  1  0.38300000  0.85720000  0.39310000  1.0 -0.5856180703
O  O18  1  0.30396000  0.88996000  0.29650000  1.0 -0.5798069155
O  O19  1  0.06583000  0.66763000  0.77410000  1.0 -0.572257729
O  O20  1  0.14280000  0.61700000  0.89310000  1.0 -0.5856180703
O  O21  1  0.11004000  0.69604000  0.79650000  1.0 -0.5798069155
O  O22  1  0.66763000  0.06583000  0.72590000  1.0 -0.572257729
O  O23  1  0.61700000  0.14280000  0.60690000  1.0 -0.5856180703
O  O24  1  0.69604000  0.11004000  0.70350000  1.0 -0.5798069155
O  O25  1  0.61663000  0.59443000  0.98860000  1.0 -0.6002437687
O  O26  1  0.69935000  0.55995000  0.05390000  1.0 -0.5514319158
O  O27  1  0.64351000  0.64171000  0.95450000  1.0 -0.5418670839
O  O28  1  0.59443000  0.61663000  0.51140000  1.0 -0.6002437687
O  O29  1  0.55995000  0.69935000  0.44610000  1.0 -0.5514319158
O  O30  1  0.64171000  0.64351000  0.54550000  1.0 -0.5418670839
O  O31  1  0.38337000  0.40557000  0.01140000  1.0 -0.6002437687
O  O32  1  0.30065000  0.44005000  0.94610000  1.0 -0.5514319158
O  O33  1  0.35649000  0.35829000  0.04550000  1.0 -0.5418670839
O  O34  1  0.40557000  0.38337000  0.48860000  1.0 -0.6002437687
O  O35  1  0.44005000  0.30065000  0.55390000  1.0 -0.5514319158
O  O36  1  0.35829000  0.35649000  0.45450000  1.0 -0.5418670839
F  F1  1  0.76691000  0.98131000  0.42320000  1.0 -0.1905912443
F  F2  1  0.98131000  0.76691000  0.07680000  1.0 -0.1905912443
F  F3  1  0.69403000  0.01903000  0.34820000  1.0 -0.1905912443
F  F4  1  0.01903000  0.69403000  0.15180000  1.0 -0.1905912443
F  F5  1  0.72645000  0.04945000  0.32500000  1.0 -0.1905912443
F  F6  1  0.04945000  0.72645000  0.17500000  1.0 -0.1905912443
F  F7  1  0.23309000  0.01869000  0.57680000  1.0 -0.1905912443
F  F8  1  0.01869000  0.23309000  0.92320000  1.0 -0.1905912443
F  F9  1  0.30597000  0.98097000  0.65180000  1.0 -0.1905912443
F  F10  1  0.98097000  0.30597000  0.84820000  1.0 -0.1905912443
F  F11  1  0.27355000  0.95055000  0.67500000  1.0 -0.1905912443
F  F12  1  0.95055000  0.27355000  0.82500000  1.0 -0.1905912443
F  F13  1  0.93600000  0.33500000  0.02830000  1.0 -0.1905912443
F  F14  1  0.96704000  0.26564000  0.11580000  1.0 -0.199452461
F  F15  1  0.89766000  0.31046000  0.00950000  1.0 -0.1905912443
F  F16  1  0.33500000  0.93600000  0.47170000  1.0 -0.1905912443
F  F17  1  0.26564000  0.96704000  0.38420000  1.0 -0.199452461
F  F18  1  0.31046000  0.89766000  0.49050000  1.0 -0.1905912443
F  F19  1  0.06400000  0.66500000  0.97170000  1.0 -0.1905912443
F  F20  1  0.03296000  0.73436000  0.88420000  1.0 -0.199452461
F  F21  1  0.10234000  0.68954000  0.99050000  1.0 -0.1905912443
F  F22  1  0.66500000  0.06400000  0.52830000  1.0 -0.1905912443
F  F23  1  0.73436000  0.03296000  0.61580000  1.0 -0.199452461
F  F24  1  0.68954000  0.10234000  0.50950000  1.0 -0.1905912443
F  F25  1  0.64126000  0.58486000  0.18060000  1.0 -0.199452461
F  F26  1  0.59008000  0.65888000  0.09020000  1.0 -0.199452461
F  F27  1  0.66298000  0.62858000  0.16540000  1.0 -0.2088796115
F  F28  1  0.58486000  0.64126000  0.31940000  1.0 -0.199452461
F  F29  1  0.65888000  0.59008000  0.40980000  1.0 -0.199452461
F  F30  1  0.62858000  0.66298000  0.33460000  1.0 -0.2088796115
F  F31  1  0.35874000  0.41514000  0.81940000  1.0 -0.199452461
F  F32  1  0.40992000  0.34112000  0.90980000  1.0 -0.199452461
F  F33  1  0.33702000  0.37142000  0.83460000  1.0 -0.2088796115
F  F34  1  0.41514000  0.35874000  0.68060000  1.0 -0.199452461
F  F35  1  0.34112000  0.40992000  0.59020000  1.0 -0.199452461
F  F36  1  0.37142000  0.33702000  0.66540000  1.0 -0.2088796115
