# DDEC6 charges by PACMAN v1.1 (https://github.com/mtap-research/PACMAN-charge/)
data_CEYYIQ_FSR_pacman
_symmetry_space_group_name_H-M   'P 1'
_cell_length_a   13.46900000
_cell_length_b   13.46900000
_cell_length_c   8.35640000
_cell_angle_alpha   84.95790000
_cell_angle_beta   95.04210000
_cell_angle_gamma   98.04780000
_symmetry_Int_Tables_number   1
_chemical_formula_structural   U7H22C20O39
_chemical_formula_sum   'U7 H22 C20 O39'
_cell_volume   1490.83257742
_cell_formula_units_Z   1
loop_
 _symmetry_equiv_pos_site_id
 _symmetry_equiv_pos_as_xyz
  1  'x, y, z'
loop_
 _atom_site_type_symbol
 _atom_site_label
 _atom_site_symmetry_multiplicity
 _atom_site_fract_x
 _atom_site_fract_y
 _atom_site_fract_z
 _atom_site_occupancy
 _atom_site_charge
U  U1  1  0.57344000  0.06200000  0.70677000  1.0 2.2503846664
U  U2  1  0.06200000  0.57344000  0.29323000  1.0 2.2503846664
U  U3  1  0.59410000  0.94206000  0.30498000  1.0 0.6275527257
U  U4  1  0.94206000  0.59410000  0.69502000  1.0 0.6456523318
U  U5  1  0.48654000  0.48654000  0.50000000  1.0 2.4498129863
U  U6  1  0.53964000  0.92958000  0.30632000  1.0 0.61035613
U  U7  1  0.92958000  0.53964000  0.69368000  1.0 0.5935265202
H  H1  1  0.34100000  0.29660000  0.59180000  1.0 0.4401112575
H  H2  1  0.29660000  0.34100000  0.40820000  1.0 0.4401112575
H  H3  1  0.54980000  0.27480000  0.15120000  1.0 0.1890556369
H  H4  1  0.27480000  0.54980000  0.84880000  1.0 0.1890556369
H  H5  1  0.46770000  0.18670000  0.20540000  1.0 0.1704204697
H  H6  1  0.18670000  0.46770000  0.79460000  1.0 0.1704204697
H  H7  1  0.73540000  0.19040000  0.25630000  1.0 0.1704204697
H  H8  1  0.19040000  0.73540000  0.74370000  1.0 0.1704204697
H  H9  1  0.72470000  0.29530000  0.31600000  1.0 0.1704204697
H  H10  1  0.29530000  0.72470000  0.68400000  1.0 0.1704204697
H  H11  1  0.74950000  0.20670000  0.44090000  1.0 0.179554202
H  H12  1  0.20670000  0.74950000  0.55910000  1.0 0.179554202
H  H13  1  0.54320000  0.72060000  0.85810000  1.0 0.1704204697
H  H14  1  0.72060000  0.54320000  0.14190000  1.0 0.1704204697
H  H15  1  0.46190000  0.78610000  0.78040000  1.0 0.1608855107
H  H16  1  0.78610000  0.46190000  0.21960000  1.0 0.1608855107
H  H17  1  0.72070000  0.83730000  0.80940000  1.0 0.1608855107
H  H18  1  0.83730000  0.72070000  0.19060000  1.0 0.1608855107
H  H19  1  0.71420000  0.73940000  0.71830000  1.0 0.1608855107
H  H20  1  0.73940000  0.71420000  0.28170000  1.0 0.1608855107
H  H21  1  0.74130000  0.84510000  0.62670000  1.0 0.1704204697
H  H22  1  0.84510000  0.74130000  0.37330000  1.0 0.1704204697
C  C1  1  0.56450000  0.26090000  0.46490000  1.0 0.5692241866
C  C2  1  0.26090000  0.56450000  0.53510000  1.0 0.5692241866
C  C3  1  0.59960000  0.19040000  0.35490000  1.0 0.292716809
C  C4  1  0.19040000  0.59960000  0.64510000  1.0 0.292716809
C  C5  1  0.53890000  0.20450000  0.19070000  1.0 -0.4447615367
C  C6  1  0.20450000  0.53890000  0.80930000  1.0 -0.4447615367
C  C7  1  0.56850000  0.14050000  0.06590000  1.0 0.6275527257
C  C8  1  0.14050000  0.56850000  0.93410000  1.0 0.6275527257
C  C9  1  0.71300000  0.22380000  0.34100000  1.0 -0.4679233652
C  C10  1  0.22380000  0.71300000  0.65900000  1.0 -0.4679233652
C  C11  1  0.55610000  0.73610000  0.54290000  1.0 0.5476464707
C  C12  1  0.73610000  0.55610000  0.45710000  1.0 0.5476464707
C  C13  1  0.59270000  0.81330000  0.66250000  1.0 0.2814644057
C  C14  1  0.81330000  0.59270000  0.33750000  1.0 0.2814644057
C  C15  1  0.53280000  0.78780000  0.81400000  1.0 -0.3474431854
C  C16  1  0.78780000  0.53280000  0.18600000  1.0 -0.3474431854
C  C17  1  0.55760000  0.85640000  0.94410000  1.0 0.5145418424
C  C18  1  0.85640000  0.55760000  0.05590000  1.0 0.5145418424
C  C19  1  0.70210000  0.80830000  0.70830000  1.0 -0.5006728392
C  C20  1  0.80830000  0.70210000  0.29170000  1.0 -0.5006728392
O  O1  1  0.43900000  0.04180000  0.69270000  1.0 -0.6257541996
O  O2  1  0.04180000  0.43900000  0.30730000  1.0 -0.6257541996
O  O3  1  0.70540000  0.08260000  0.73580000  1.0 -0.5749465447
O  O4  1  0.08260000  0.70540000  0.26420000  1.0 -0.5749465447
O  O5  1  0.46520000  0.94980000  0.26160000  1.0 -0.0673502792
O  O6  1  0.94980000  0.46520000  0.73840000  1.0 -0.0673502792
O  O7  1  0.72160000  0.93440000  0.34020000  1.0 -0.1645243537
O  O8  1  0.93440000  0.72160000  0.65980000  1.0 -0.1645243537
O  O9  1  0.44460000  0.52220000  0.29900000  1.0 -0.5987073254
O  O10  1  0.52220000  0.44460000  0.70100000  1.0 -0.5987073254
O  O11  1  0.55830000  0.23170000  0.61120000  1.0 -0.5156727207
O  O12  1  0.23170000  0.55830000  0.38880000  1.0 -0.5156727207
O  O13  1  0.54640000  0.34640000  0.40610000  1.0 -0.5554369312
O  O14  1  0.34640000  0.54640000  0.59390000  1.0 -0.5543568354
O  O15  1  0.63760000  0.07820000  0.11250000  1.0 -0.5987073254
O  O16  1  0.07820000  0.63760000  0.88750000  1.0 -0.5987073254
O  O17  1  0.55910000  0.16330000  0.93010000  1.0 -0.4498392713
O  O18  1  0.16330000  0.55910000  0.06990000  1.0 -0.4498392713
O  O19  1  0.58300000  0.09340000  0.42780000  1.0 -0.7097889405
O  O20  1  0.09340000  0.58300000  0.57220000  1.0 -0.7097889405
O  O21  1  0.54520000  0.76560000  0.39520000  1.0 -0.5156727207
O  O22  1  0.76560000  0.54520000  0.60480000  1.0 -0.5156727207
O  O23  1  0.54100000  0.64560000  0.59580000  1.0 -0.5416286212
O  O24  1  0.64560000  0.54100000  0.40420000  1.0 -0.5416286212
O  O25  1  0.52130000  0.94170000  0.90710000  1.0 -0.2801029157
O  O26  1  0.94170000  0.52130000  0.09290000  1.0 -0.2801029157
O  O27  1  0.59320000  0.83620000  0.08470000  1.0 -0.1084241603
O  O28  1  0.83620000  0.59320000  0.91530000  1.0 -0.1084241603
O  O29  1  0.57480000  0.90920000  0.59100000  1.0 -0.7097889405
O  O30  1  0.90920000  0.57480000  0.40900000  1.0 -0.7097889405
O  O31  1  0.34720000  0.34720000  0.50000000  1.0 -0.7970043045
O  O32  1  0.41180000  0.91100000  0.31500000  1.0 -0.1478867677
O  O33  1  0.91100000  0.41180000  0.68500000  1.0 -0.1478867677
O  O34  1  0.67090000  0.94990000  0.29300000  1.0 -0.032511938
O  O35  1  0.94990000  0.67090000  0.70700000  1.0 -0.032511938
O  O36  1  0.62330000  0.93710000  0.91500000  1.0 -0.2265302834
O  O37  1  0.93710000  0.62330000  0.08500000  1.0 -0.2265302834
O  O38  1  0.52200000  0.83240000  0.07500000  1.0 -0.1084241603
O  O39  1  0.83240000  0.52200000  0.92500000  1.0 -0.1084241603
