# DDEC6 charges by PACMAN v1.1 (https://github.com/mtap-research/PACMAN-charge/)
data_CICKUY02_ASR_pacman
_symmetry_space_group_name_H-M   'P 1'
_cell_length_a   9.95600000
_cell_length_b   18.22380000
_cell_length_c   33.14410000
_cell_angle_alpha   90.00000000
_cell_angle_beta   90.00000000
_cell_angle_gamma   90.00000000
_symmetry_Int_Tables_number   1
_chemical_formula_structural   UH15C28O5
_chemical_formula_sum   'U8 H120 C224 O40'
_cell_volume   6013.53799202
_cell_formula_units_Z   8
loop_
 _symmetry_equiv_pos_site_id
 _symmetry_equiv_pos_as_xyz
  1  'x, y, z'
loop_
 _atom_site_type_symbol
 _atom_site_label
 _atom_site_symmetry_multiplicity
 _atom_site_fract_x
 _atom_site_fract_y
 _atom_site_fract_z
 _atom_site_occupancy
 _atom_site_charge
U  U1  1  0.53151000  0.27219000  0.04486000  1.0 2.0011514165
U  U2  1  0.96849000  0.27219000  0.95514000  1.0 2.0011514165
U  U3  1  0.96849000  0.77219000  0.54486000  1.0 2.0011514165
U  U4  1  0.53151000  0.77219000  0.45514000  1.0 2.0011514165
U  U5  1  0.03151000  0.22781000  0.45514000  1.0 2.0011514165
U  U6  1  0.46849000  0.22781000  0.54486000  1.0 2.0011514165
U  U7  1  0.46849000  0.72781000  0.95514000  1.0 2.0011514165
U  U8  1  0.03151000  0.72781000  0.04486000  1.0 2.0011514165
H  H1  1  0.20650000  0.38110000  0.13640000  1.0 0.1265401254
H  H2  1  0.29350000  0.38110000  0.86360000  1.0 0.1265401254
H  H3  1  0.29350000  0.88110000  0.63640000  1.0 0.1265401254
H  H4  1  0.20650000  0.88110000  0.36360000  1.0 0.1265401254
H  H5  1  0.56830000  0.36890000  0.18610000  1.0 0.1194623343
H  H6  1  0.93170000  0.36890000  0.81390000  1.0 0.1194623343
H  H7  1  0.93170000  0.86890000  0.68610000  1.0 0.1194623343
H  H8  1  0.56830000  0.86890000  0.31390000  1.0 0.1194623343
H  H9  1  0.12390000  0.43950000  0.19190000  1.0 0.1096150452
H  H10  1  0.37610000  0.43950000  0.80810000  1.0 0.1096150452
H  H11  1  0.37610000  0.93950000  0.69190000  1.0 0.1096150452
H  H12  1  0.12390000  0.93950000  0.30810000  1.0 0.1096150452
H  H13  1  0.49240000  0.43510000  0.24120000  1.0 0.1096150452
H  H14  1  0.00760000  0.43510000  0.75880000  1.0 0.1096150452
H  H15  1  0.00760000  0.93510000  0.74120000  1.0 0.1096150452
H  H16  1  0.49240000  0.93510000  0.25880000  1.0 0.1096150452
H  H17  1  0.37730000  0.58220000  0.20190000  1.0 0.1018298492
H  H18  1  0.12270000  0.58220000  0.79810000  1.0 0.1018298492
H  H19  1  0.12270000  0.08220000  0.70190000  1.0 0.1018298492
H  H20  1  0.37730000  0.08220000  0.29810000  1.0 0.1018298492
H  H21  1  0.41810000  0.70680000  0.20470000  1.0 0.1096150452
H  H22  1  0.08190000  0.70680000  0.79530000  1.0 0.1096150452
H  H23  1  0.08190000  0.20680000  0.70470000  1.0 0.1096150452
H  H24  1  0.41810000  0.20680000  0.29530000  1.0 0.1096150452
H  H25  1  0.20580000  0.72220000  0.30650000  1.0 0.1018298492
H  H26  1  0.29420000  0.72220000  0.69350000  1.0 0.1018298492
H  H27  1  0.29420000  0.22220000  0.80650000  1.0 0.1018298492
H  H28  1  0.20580000  0.22220000  0.19350000  1.0 0.1018298492
H  H29  1  0.01040000  0.49980000  0.36890000  1.0 0.1096150452
H  H30  1  0.48960000  0.49980000  0.63110000  1.0 0.1096150452
H  H31  1  0.48960000  0.99980000  0.86890000  1.0 0.1096150452
H  H32  1  0.01040000  0.99980000  0.13110000  1.0 0.1096150452
H  H33  1  0.05440000  0.30200000  0.31670000  1.0 0.1096150452
H  H34  1  0.44560000  0.30200000  0.68330000  1.0 0.1096150452
H  H35  1  0.44560000  0.80200000  0.81670000  1.0 0.1096150452
H  H36  1  0.05440000  0.80200000  0.18330000  1.0 0.1096150452
H  H37  1  0.34620000  0.77240000  0.25770000  1.0 0.1096150452
H  H38  1  0.15380000  0.77240000  0.74230000  1.0 0.1096150452
H  H39  1  0.15380000  0.27240000  0.75770000  1.0 0.1096150452
H  H40  1  0.34620000  0.27240000  0.24230000  1.0 0.1096150452
H  H41  1  0.99390000  0.38130000  0.37300000  1.0 0.0945075043
H  H42  1  0.50610000  0.38130000  0.62700000  1.0 0.0945075043
H  H43  1  0.50610000  0.88130000  0.87300000  1.0 0.0945075043
H  H44  1  0.99390000  0.88130000  0.12700000  1.0 0.0945075043
H  H45  1  0.23980000  0.64110000  0.38710000  1.0 0.1194623343
H  H46  1  0.26020000  0.64110000  0.61290000  1.0 0.1194623343
H  H47  1  0.26020000  0.14110000  0.88710000  1.0 0.1194623343
H  H48  1  0.23980000  0.14110000  0.11290000  1.0 0.1194623343
H  H49  1  0.89590000  0.63190000  0.32210000  1.0 0.1096150452
H  H50  1  0.60410000  0.63190000  0.67790000  1.0 0.1096150452
H  H51  1  0.60410000  0.13190000  0.82210000  1.0 0.1096150452
H  H52  1  0.89590000  0.13190000  0.17790000  1.0 0.1096150452
H  H53  1  0.12520000  0.70010000  0.43740000  1.0 0.1194623343
H  H54  1  0.37480000  0.70010000  0.56260000  1.0 0.1194623343
H  H55  1  0.37480000  0.20010000  0.93740000  1.0 0.1194623343
H  H56  1  0.12520000  0.20010000  0.06260000  1.0 0.1194623343
H  H57  1  0.79200000  0.69750000  0.37510000  1.0 0.1265401254
H  H58  1  0.70800000  0.69750000  0.62490000  1.0 0.1265401254
H  H59  1  0.70800000  0.19750000  0.87510000  1.0 0.1265401254
H  H60  1  0.79200000  0.19750000  0.12490000  1.0 0.1265401254
H  H61  1  0.70650000  0.11890000  0.36360000  1.0 0.1265401254
H  H62  1  0.79350000  0.11890000  0.63640000  1.0 0.1265401254
H  H63  1  0.79350000  0.61890000  0.86360000  1.0 0.1265401254
H  H64  1  0.70650000  0.61890000  0.13640000  1.0 0.1265401254
H  H65  1  0.06830000  0.13110000  0.31390000  1.0 0.1194623343
H  H66  1  0.43170000  0.13110000  0.68610000  1.0 0.1194623343
H  H67  1  0.43170000  0.63110000  0.81390000  1.0 0.1194623343
H  H68  1  0.06830000  0.63110000  0.18610000  1.0 0.1194623343
H  H69  1  0.62390000  0.06050000  0.30810000  1.0 0.1096150452
H  H70  1  0.87610000  0.06050000  0.69190000  1.0 0.1096150452
H  H71  1  0.87610000  0.56050000  0.80810000  1.0 0.1096150452
H  H72  1  0.62390000  0.56050000  0.19190000  1.0 0.1096150452
H  H73  1  0.99240000  0.06490000  0.25880000  1.0 0.1096150452
H  H74  1  0.50760000  0.06490000  0.74120000  1.0 0.1096150452
H  H75  1  0.50760000  0.56490000  0.75880000  1.0 0.1096150452
H  H76  1  0.99240000  0.56490000  0.24120000  1.0 0.1096150452
H  H77  1  0.87730000  0.91780000  0.29810000  1.0 0.1018298492
H  H78  1  0.62270000  0.91780000  0.70190000  1.0 0.1018298492
H  H79  1  0.62270000  0.41780000  0.79810000  1.0 0.1018298492
H  H80  1  0.87730000  0.41780000  0.20190000  1.0 0.1018298492
H  H81  1  0.91810000  0.79320000  0.29530000  1.0 0.1096150452
H  H82  1  0.58190000  0.79320000  0.70470000  1.0 0.1096150452
H  H83  1  0.58190000  0.29320000  0.79530000  1.0 0.1096150452
H  H84  1  0.91810000  0.29320000  0.20470000  1.0 0.1096150452
H  H85  1  0.70580000  0.77780000  0.19350000  1.0 0.1018298492
H  H86  1  0.79420000  0.77780000  0.80650000  1.0 0.1018298492
H  H87  1  0.79420000  0.27780000  0.69350000  1.0 0.1018298492
H  H88  1  0.70580000  0.27780000  0.30650000  1.0 0.1018298492
H  H89  1  0.51040000  0.00020000  0.13110000  1.0 0.1096150452
H  H90  1  0.98960000  0.00020000  0.86890000  1.0 0.1096150452
H  H91  1  0.98960000  0.50020000  0.63110000  1.0 0.1096150452
H  H92  1  0.51040000  0.50020000  0.36890000  1.0 0.1096150452
H  H93  1  0.55440000  0.19800000  0.18330000  1.0 0.1096150452
H  H94  1  0.94560000  0.19800000  0.81670000  1.0 0.1096150452
H  H95  1  0.94560000  0.69800000  0.68330000  1.0 0.1096150452
H  H96  1  0.55440000  0.69800000  0.31670000  1.0 0.1096150452
H  H97  1  0.84620000  0.72760000  0.24230000  1.0 0.1096150452
H  H98  1  0.65380000  0.72760000  0.75770000  1.0 0.1096150452
H  H99  1  0.65380000  0.22760000  0.74230000  1.0 0.1096150452
H  H100  1  0.84620000  0.22760000  0.25770000  1.0 0.1096150452
H  H101  1  0.49390000  0.11870000  0.12700000  1.0 0.0945075043
H  H102  1  0.00610000  0.11870000  0.87300000  1.0 0.0945075043
H  H103  1  0.00610000  0.61870000  0.62700000  1.0 0.0945075043
H  H104  1  0.49390000  0.61870000  0.37300000  1.0 0.0945075043
H  H105  1  0.73980000  0.85890000  0.11290000  1.0 0.1194623343
H  H106  1  0.76020000  0.85890000  0.88710000  1.0 0.1194623343
H  H107  1  0.76020000  0.35890000  0.61290000  1.0 0.1194623343
H  H108  1  0.73980000  0.35890000  0.38710000  1.0 0.1194623343
H  H109  1  0.39590000  0.86810000  0.17790000  1.0 0.1096150452
H  H110  1  0.10410000  0.86810000  0.82210000  1.0 0.1096150452
H  H111  1  0.10410000  0.36810000  0.67790000  1.0 0.1096150452
H  H112  1  0.39590000  0.36810000  0.32210000  1.0 0.1096150452
H  H113  1  0.62520000  0.79990000  0.06260000  1.0 0.1194623343
H  H114  1  0.87480000  0.79990000  0.93740000  1.0 0.1194623343
H  H115  1  0.87480000  0.29990000  0.56260000  1.0 0.1194623343
H  H116  1  0.62520000  0.29990000  0.43740000  1.0 0.1194623343
H  H117  1  0.29200000  0.80250000  0.12490000  1.0 0.1265401254
H  H118  1  0.20800000  0.80250000  0.87510000  1.0 0.1265401254
H  H119  1  0.20800000  0.30250000  0.62490000  1.0 0.1265401254
H  H120  1  0.29200000  0.30250000  0.37510000  1.0 0.1265401254
C  C1  1  0.44510000  0.32410000  0.11970000  1.0 0.5172069855
C  C2  1  0.05490000  0.32410000  0.88030000  1.0 0.5172069855
C  C3  1  0.05490000  0.82410000  0.61970000  1.0 0.5172069855
C  C4  1  0.44510000  0.82410000  0.38030000  1.0 0.5172069855
C  C5  1  0.39640000  0.36760000  0.15620000  1.0 -0.011198971
C  C6  1  0.10360000  0.36760000  0.84380000  1.0 -0.011198971
C  C7  1  0.10360000  0.86760000  0.65620000  1.0 -0.011198971
C  C8  1  0.39640000  0.86760000  0.34380000  1.0 -0.011198971
C  C9  1  0.26340000  0.39100000  0.15800000  1.0 -0.1128222253
C  C10  1  0.23660000  0.39100000  0.84200000  1.0 -0.1128222253
C  C11  1  0.23660000  0.89100000  0.65800000  1.0 -0.1128222253
C  C12  1  0.26340000  0.89100000  0.34200000  1.0 -0.1128222253
C  C13  1  0.47930000  0.38430000  0.18700000  1.0 -0.1182547444
C  C14  1  0.02070000  0.38430000  0.81300000  1.0 -0.1182547444
C  C15  1  0.02070000  0.88430000  0.68700000  1.0 -0.1182547444
C  C16  1  0.47930000  0.88430000  0.31300000  1.0 -0.1182547444
C  C17  1  0.21460000  0.42770000  0.19030000  1.0 -0.1419362947
C  C18  1  0.28540000  0.42770000  0.80970000  1.0 -0.1419362947
C  C19  1  0.28540000  0.92770000  0.69030000  1.0 -0.1419362947
C  C20  1  0.21460000  0.92770000  0.30970000  1.0 -0.1419362947
C  C21  1  0.43450000  0.42430000  0.22010000  1.0 -0.1589093219
C  C22  1  0.06550000  0.42430000  0.77990000  1.0 -0.1589093219
C  C23  1  0.06550000  0.92430000  0.72010000  1.0 -0.1589093219
C  C24  1  0.43450000  0.92430000  0.27990000  1.0 -0.1589093219
C  C25  1  0.30300000  0.44750000  0.22100000  1.0 0.0809280052
C  C26  1  0.19700000  0.44750000  0.77900000  1.0 0.0809280052
C  C27  1  0.19700000  0.94750000  0.72100000  1.0 0.0809280052
C  C28  1  0.30300000  0.94750000  0.27900000  1.0 0.0809280052
C  C29  1  0.25120000  0.49500000  0.25580000  1.0 -0.024651194
C  C30  1  0.24880000  0.49500000  0.74420000  1.0 -0.024651194
C  C31  1  0.24880000  0.99500000  0.75580000  1.0 -0.024651194
C  C32  1  0.25120000  0.99500000  0.24420000  1.0 -0.024651194
C  C33  1  0.27600000  0.57000000  0.25570000  1.0 0.0315532823
C  C34  1  0.22400000  0.57000000  0.74430000  1.0 0.0315532823
C  C35  1  0.22400000  0.07000000  0.75570000  1.0 0.024710279
C  C36  1  0.27600000  0.07000000  0.24430000  1.0 0.0315532823
C  C37  1  0.17310000  0.45940000  0.28630000  1.0 0.008501192
C  C38  1  0.32690000  0.45940000  0.71370000  1.0 0.008501192
C  C39  1  0.32690000  0.95940000  0.78630000  1.0 0.008501192
C  C40  1  0.17310000  0.95940000  0.21370000  1.0 0.008501192
C  C41  1  0.34650000  0.60870000  0.22410000  1.0 -0.1589093219
C  C42  1  0.15350000  0.60870000  0.77590000  1.0 -0.1589093219
C  C43  1  0.15350000  0.10870000  0.72410000  1.0 -0.1589093219
C  C44  1  0.34650000  0.10870000  0.27590000  1.0 -0.1589093219
C  C45  1  0.22070000  0.61340000  0.28840000  1.0 0.0315532823
C  C46  1  0.27930000  0.61340000  0.71160000  1.0 0.0315532823
C  C47  1  0.27930000  0.11340000  0.78840000  1.0 0.0315532823
C  C48  1  0.22070000  0.11340000  0.21160000  1.0 0.0315532823
C  C49  1  0.12360000  0.50360000  0.31790000  1.0 0.0315532823
C  C50  1  0.37640000  0.50360000  0.68210000  1.0 0.0315532823
C  C51  1  0.37640000  0.00360000  0.81790000  1.0 0.0315532823
C  C52  1  0.12360000  0.00360000  0.18210000  1.0 0.0315532823
C  C53  1  0.14600000  0.38380000  0.28540000  1.0 -0.1779426429
C  C54  1  0.35400000  0.38380000  0.71460000  1.0 -0.1779426429
C  C55  1  0.35400000  0.88380000  0.78540000  1.0 -0.1779426429
C  C56  1  0.14600000  0.88380000  0.21460000  1.0 -0.1779426429
C  C57  1  0.37040000  0.68400000  0.22530000  1.0 -0.0925282286
C  C58  1  0.12960000  0.68400000  0.77470000  1.0 -0.0925282286
C  C59  1  0.12960000  0.18400000  0.72530000  1.0 -0.0925282286
C  C60  1  0.37040000  0.18400000  0.27470000  1.0 -0.0925282286
C  C61  1  0.14200000  0.58070000  0.31840000  1.0 -0.0563535891
C  C62  1  0.35800000  0.58070000  0.68160000  1.0 -0.0563535891
C  C63  1  0.35800000  0.08070000  0.81840000  1.0 -0.0563535891
C  C64  1  0.14200000  0.08070000  0.18160000  1.0 -0.0563535891
C  C65  1  0.24400000  0.69190000  0.28710000  1.0 -0.1589093219
C  C66  1  0.25600000  0.69190000  0.71290000  1.0 -0.1589093219
C  C67  1  0.25600000  0.19190000  0.78710000  1.0 -0.1589093219
C  C68  1  0.24400000  0.19190000  0.21290000  1.0 -0.1589093219
C  C69  1  0.04880000  0.47060000  0.34900000  1.0 -0.1419362947
C  C70  1  0.45120000  0.47060000  0.65100000  1.0 -0.1419362947
C  C71  1  0.45120000  0.97060000  0.84900000  1.0 -0.1419362947
C  C72  1  0.04880000  0.97060000  0.15100000  1.0 -0.1419362947
C  C73  1  0.07500000  0.35170000  0.31660000  1.0 -0.1523540717
C  C74  1  0.42500000  0.35170000  0.68340000  1.0 -0.1523540717
C  C75  1  0.42500000  0.85170000  0.81660000  1.0 -0.1523540717
C  C76  1  0.07500000  0.85170000  0.18340000  1.0 -0.1523540717
C  C77  1  0.32500000  0.72280000  0.25620000  1.0 -0.0925282286
C  C78  1  0.17500000  0.72280000  0.74380000  1.0 -0.0925282286
C  C79  1  0.17500000  0.22280000  0.75620000  1.0 -0.0925282286
C  C80  1  0.32500000  0.22280000  0.24380000  1.0 -0.0925282286
C  C81  1  0.07650000  0.62440000  0.35020000  1.0 0.0809280052
C  C82  1  0.42350000  0.62440000  0.64980000  1.0 0.0809280052
C  C83  1  0.42350000  0.12440000  0.85020000  1.0 0.0809280052
C  C84  1  0.07650000  0.12440000  0.14980000  1.0 0.0809280052
C  C85  1  0.03320000  0.40180000  0.35020000  1.0 -0.0925282286
C  C86  1  0.46680000  0.40180000  0.64980000  1.0 -0.0925282286
C  C87  1  0.46680000  0.90180000  0.85020000  1.0 -0.0925282286
C  C88  1  0.03320000  0.90180000  0.14980000  1.0 -0.0925282286
C  C89  1  0.14790000  0.64910000  0.38480000  1.0 -0.1589093219
C  C90  1  0.35210000  0.64910000  0.61520000  1.0 -0.1589093219
C  C91  1  0.35210000  0.14910000  0.88480000  1.0 -0.1589093219
C  C92  1  0.14790000  0.14910000  0.11520000  1.0 -0.1589093219
C  C93  1  0.94320000  0.64370000  0.34550000  1.0 -0.1523540717
C  C94  1  0.55680000  0.64370000  0.65450000  1.0 -0.1523540717
C  C95  1  0.55680000  0.14370000  0.84550000  1.0 -0.1523540717
C  C96  1  0.94320000  0.14370000  0.15450000  1.0 -0.1523540717
C  C97  1  0.07900000  0.68470000  0.41450000  1.0 -0.1128222253
C  C98  1  0.42100000  0.68470000  0.58550000  1.0 -0.1128222253
C  C99  1  0.42100000  0.18470000  0.91450000  1.0 -0.1128222253
C  C100  1  0.07900000  0.18470000  0.08550000  1.0 -0.1128222253
C  C101  1  0.88090000  0.68280000  0.37810000  1.0 -0.0925282286
C  C102  1  0.61910000  0.68280000  0.62190000  1.0 -0.0925282286
C  C103  1  0.61910000  0.18280000  0.87810000  1.0 -0.0925282286
C  C104  1  0.88090000  0.18280000  0.12190000  1.0 -0.0925282286
C  C105  1  0.94150000  0.69850000  0.41140000  1.0 -0.0563535891
C  C106  1  0.55850000  0.69850000  0.58860000  1.0 -0.0563535891
C  C107  1  0.55850000  0.19850000  0.91140000  1.0 -0.0563535891
C  C108  1  0.94150000  0.19850000  0.08860000  1.0 -0.0563535891
C  C109  1  0.88500000  0.73400000  0.44720000  1.0 0.6019126959
C  C110  1  0.61500000  0.73400000  0.55280000  1.0 0.6019126959
C  C111  1  0.61500000  0.23400000  0.94720000  1.0 0.6019126959
C  C112  1  0.88500000  0.23400000  0.05280000  1.0 0.6019126959
C  C113  1  0.94510000  0.17590000  0.38030000  1.0 0.5172069855
C  C114  1  0.55490000  0.17590000  0.61970000  1.0 0.5172069855
C  C115  1  0.55490000  0.67590000  0.88030000  1.0 0.5172069855
C  C116  1  0.94510000  0.67590000  0.11970000  1.0 0.5172069855
C  C117  1  0.89640000  0.13240000  0.34380000  1.0 -0.011198971
C  C118  1  0.60360000  0.13240000  0.65620000  1.0 -0.011198971
C  C119  1  0.60360000  0.63240000  0.84380000  1.0 -0.011198971
C  C120  1  0.89640000  0.63240000  0.15620000  1.0 -0.011198971
C  C121  1  0.76340000  0.10900000  0.34200000  1.0 -0.1128222253
C  C122  1  0.73660000  0.10900000  0.65800000  1.0 -0.1128222253
C  C123  1  0.73660000  0.60900000  0.84200000  1.0 -0.1128222253
C  C124  1  0.76340000  0.60900000  0.15800000  1.0 -0.1128222253
C  C125  1  0.97930000  0.11570000  0.31300000  1.0 -0.1182547444
C  C126  1  0.52070000  0.11570000  0.68700000  1.0 -0.1182547444
C  C127  1  0.52070000  0.61570000  0.81300000  1.0 -0.1182547444
C  C128  1  0.97930000  0.61570000  0.18700000  1.0 -0.1182547444
C  C129  1  0.71460000  0.07230000  0.30970000  1.0 -0.1419362947
C  C130  1  0.78540000  0.07230000  0.69030000  1.0 -0.1419362947
C  C131  1  0.78540000  0.57230000  0.80970000  1.0 -0.1419362947
C  C132  1  0.71460000  0.57230000  0.19030000  1.0 -0.1419362947
C  C133  1  0.93450000  0.07570000  0.27990000  1.0 -0.1589093219
C  C134  1  0.56550000  0.07570000  0.72010000  1.0 -0.1589093219
C  C135  1  0.56550000  0.57570000  0.77990000  1.0 -0.1589093219
C  C136  1  0.93450000  0.57570000  0.22010000  1.0 -0.1589093219
C  C137  1  0.80300000  0.05250000  0.27900000  1.0 0.0809280052
C  C138  1  0.69700000  0.05250000  0.72100000  1.0 0.0809280052
C  C139  1  0.69700000  0.55250000  0.77900000  1.0 0.0809280052
C  C140  1  0.80300000  0.55250000  0.22100000  1.0 0.0809280052
C  C141  1  0.75120000  0.00500000  0.24420000  1.0 -0.024651194
C  C142  1  0.74880000  0.00500000  0.75580000  1.0 -0.024651194
C  C143  1  0.74880000  0.50500000  0.74420000  1.0 -0.024651194
C  C144  1  0.75120000  0.50500000  0.25580000  1.0 -0.024651194
C  C145  1  0.77600000  0.93000000  0.24430000  1.0 0.0315532823
C  C146  1  0.72400000  0.93000000  0.75570000  1.0 0.024710279
C  C147  1  0.72400000  0.43000000  0.74430000  1.0 0.0315532823
C  C148  1  0.77600000  0.43000000  0.25570000  1.0 0.0315532823
C  C149  1  0.67310000  0.04060000  0.21370000  1.0 0.008501192
C  C150  1  0.82690000  0.04060000  0.78630000  1.0 0.008501192
C  C151  1  0.82690000  0.54060000  0.71370000  1.0 0.008501192
C  C152  1  0.67310000  0.54060000  0.28630000  1.0 0.008501192
C  C153  1  0.84650000  0.89130000  0.27590000  1.0 -0.1589093219
C  C154  1  0.65350000  0.89130000  0.72410000  1.0 -0.1589093219
C  C155  1  0.65350000  0.39130000  0.77590000  1.0 -0.1589093219
C  C156  1  0.84650000  0.39130000  0.22410000  1.0 -0.1589093219
C  C157  1  0.72070000  0.88660000  0.21160000  1.0 0.0315532823
C  C158  1  0.77930000  0.88660000  0.78840000  1.0 0.0315532823
C  C159  1  0.77930000  0.38660000  0.71160000  1.0 0.0315532823
C  C160  1  0.72070000  0.38660000  0.28840000  1.0 0.0315532823
C  C161  1  0.62360000  0.99640000  0.18210000  1.0 0.0315532823
C  C162  1  0.87640000  0.99640000  0.81790000  1.0 0.0315532823
C  C163  1  0.87640000  0.49640000  0.68210000  1.0 0.0315532823
C  C164  1  0.62360000  0.49640000  0.31790000  1.0 0.0315532823
C  C165  1  0.64600000  0.11620000  0.21460000  1.0 -0.1779426429
C  C166  1  0.85400000  0.11620000  0.78540000  1.0 -0.1779426429
C  C167  1  0.85400000  0.61620000  0.71460000  1.0 -0.1779426429
C  C168  1  0.64600000  0.61620000  0.28540000  1.0 -0.1779426429
C  C169  1  0.87040000  0.81600000  0.27470000  1.0 -0.0925282286
C  C170  1  0.62960000  0.81600000  0.72530000  1.0 -0.0925282286
C  C171  1  0.62960000  0.31600000  0.77470000  1.0 -0.0925282286
C  C172  1  0.87040000  0.31600000  0.22530000  1.0 -0.0925282286
C  C173  1  0.64200000  0.91930000  0.18160000  1.0 -0.0563535891
C  C174  1  0.85800000  0.91930000  0.81840000  1.0 -0.0563535891
C  C175  1  0.85800000  0.41930000  0.68160000  1.0 -0.0563535891
C  C176  1  0.64200000  0.41930000  0.31840000  1.0 -0.0563535891
C  C177  1  0.74400000  0.80810000  0.21290000  1.0 -0.1589093219
C  C178  1  0.75600000  0.80810000  0.78710000  1.0 -0.1589093219
C  C179  1  0.75600000  0.30810000  0.71290000  1.0 -0.1589093219
C  C180  1  0.74400000  0.30810000  0.28710000  1.0 -0.1589093219
C  C181  1  0.54880000  0.02940000  0.15100000  1.0 -0.1419362947
C  C182  1  0.95120000  0.02940000  0.84900000  1.0 -0.1419362947
C  C183  1  0.95120000  0.52940000  0.65100000  1.0 -0.1419362947
C  C184  1  0.54880000  0.52940000  0.34900000  1.0 -0.1419362947
C  C185  1  0.57500000  0.14830000  0.18340000  1.0 -0.1523540717
C  C186  1  0.92500000  0.14830000  0.81660000  1.0 -0.1523540717
C  C187  1  0.92500000  0.64830000  0.68340000  1.0 -0.1523540717
C  C188  1  0.57500000  0.64830000  0.31660000  1.0 -0.1523540717
C  C189  1  0.82500000  0.77720000  0.24380000  1.0 -0.0925282286
C  C190  1  0.67500000  0.77720000  0.75620000  1.0 -0.0925282286
C  C191  1  0.67500000  0.27720000  0.74380000  1.0 -0.0925282286
C  C192  1  0.82500000  0.27720000  0.25620000  1.0 -0.0925282286
C  C193  1  0.57650000  0.87560000  0.14980000  1.0 0.0809280052
C  C194  1  0.92350000  0.87560000  0.85020000  1.0 0.0809280052
C  C195  1  0.92350000  0.37560000  0.64980000  1.0 0.0809280052
C  C196  1  0.57650000  0.37560000  0.35020000  1.0 0.0809280052
C  C197  1  0.53320000  0.09820000  0.14980000  1.0 -0.0925282286
C  C198  1  0.96680000  0.09820000  0.85020000  1.0 -0.0925282286
C  C199  1  0.96680000  0.59820000  0.64980000  1.0 -0.0925282286
C  C200  1  0.53320000  0.59820000  0.35020000  1.0 -0.0925282286
C  C201  1  0.64790000  0.85090000  0.11520000  1.0 -0.1589093219
C  C202  1  0.85210000  0.85090000  0.88480000  1.0 -0.1589093219
C  C203  1  0.85210000  0.35090000  0.61520000  1.0 -0.1589093219
C  C204  1  0.64790000  0.35090000  0.38480000  1.0 -0.1589093219
C  C205  1  0.44320000  0.85630000  0.15450000  1.0 -0.1589093219
C  C206  1  0.05680000  0.85630000  0.84550000  1.0 -0.1589093219
C  C207  1  0.05680000  0.35630000  0.65450000  1.0 -0.1523540717
C  C208  1  0.44320000  0.35630000  0.34550000  1.0 -0.1523540717
C  C209  1  0.57900000  0.81530000  0.08550000  1.0 -0.1128222253
C  C210  1  0.92100000  0.81530000  0.91450000  1.0 -0.1128222253
C  C211  1  0.92100000  0.31530000  0.58550000  1.0 -0.1128222253
C  C212  1  0.57900000  0.31530000  0.41450000  1.0 -0.1128222253
C  C213  1  0.38090000  0.81720000  0.12190000  1.0 -0.0925282286
C  C214  1  0.11910000  0.81720000  0.87810000  1.0 -0.0925282286
C  C215  1  0.11910000  0.31720000  0.62190000  1.0 -0.0925282286
C  C216  1  0.38090000  0.31720000  0.37810000  1.0 -0.0925282286
C  C217  1  0.44150000  0.80150000  0.08860000  1.0 -0.0563535891
C  C218  1  0.05850000  0.80150000  0.91140000  1.0 -0.0563535891
C  C219  1  0.05850000  0.30150000  0.58860000  1.0 -0.0563535891
C  C220  1  0.44150000  0.30150000  0.41140000  1.0 -0.0563535891
C  C221  1  0.38500000  0.76600000  0.05280000  1.0 0.6019126959
C  C222  1  0.11500000  0.76600000  0.94720000  1.0 0.6019126959
C  C223  1  0.11500000  0.26600000  0.55280000  1.0 0.6019126959
C  C224  1  0.38500000  0.26600000  0.44720000  1.0 0.6019126959
O  O1  1  0.74600000  0.24250000  0.05700000  1.0 -0.7132094465
O  O2  1  0.75400000  0.24250000  0.94300000  1.0 -0.7132094465
O  O3  1  0.75400000  0.74250000  0.55700000  1.0 -0.7132094465
O  O4  1  0.74600000  0.74250000  0.44300000  1.0 -0.7132094465
O  O5  1  0.33500000  0.31900000  0.00280000  1.0 -0.4467705104
O  O6  1  0.16500000  0.31900000  0.99720000  1.0 -0.4467705104
O  O7  1  0.16500000  0.81900000  0.50280000  1.0 -0.4467705104
O  O8  1  0.33500000  0.81900000  0.49720000  1.0 -0.4467705104
O  O9  1  0.36450000  0.32090000  0.09090000  1.0 -0.5645486377
O  O10  1  0.13550000  0.32090000  0.90910000  1.0 -0.5645486377
O  O11  1  0.13550000  0.82090000  0.59090000  1.0 -0.5658104919
O  O12  1  0.36450000  0.82090000  0.40910000  1.0 -0.5658104919
O  O13  1  0.55870000  0.30430000  0.11530000  1.0 -0.5362702869
O  O14  1  0.94130000  0.30430000  0.88470000  1.0 -0.5362702869
O  O15  1  0.94130000  0.80430000  0.61530000  1.0 -0.5362702869
O  O16  1  0.55870000  0.80430000  0.38470000  1.0 -0.5362702869
O  O17  1  0.57500000  0.23410000  0.97920000  1.0 -0.5322306218
O  O18  1  0.92500000  0.23410000  0.02080000  1.0 -0.5322306218
O  O19  1  0.92500000  0.73410000  0.47920000  1.0 -0.5322306218
O  O20  1  0.57500000  0.73410000  0.52080000  1.0 -0.5322306218
O  O21  1  0.24600000  0.25750000  0.44300000  1.0 -0.7132094465
O  O22  1  0.25400000  0.25750000  0.55700000  1.0 -0.7132094465
O  O23  1  0.25400000  0.75750000  0.94300000  1.0 -0.7132094465
O  O24  1  0.24600000  0.75750000  0.05700000  1.0 -0.7132094465
O  O25  1  0.83500000  0.18100000  0.49720000  1.0 -0.4440511577
O  O26  1  0.66500000  0.18100000  0.50280000  1.0 -0.4440511577
O  O27  1  0.66500000  0.68100000  0.99720000  1.0 -0.4467705104
O  O28  1  0.83500000  0.68100000  0.00280000  1.0 -0.4467705104
O  O29  1  0.86450000  0.17910000  0.40910000  1.0 -0.5645486377
O  O30  1  0.63550000  0.17910000  0.59090000  1.0 -0.5658104919
O  O31  1  0.63550000  0.67910000  0.90910000  1.0 -0.5658104919
O  O32  1  0.86450000  0.67910000  0.09090000  1.0 -0.5658104919
O  O33  1  0.05870000  0.19570000  0.38470000  1.0 -0.5362702869
O  O34  1  0.44130000  0.19570000  0.61530000  1.0 -0.5362702869
O  O35  1  0.44130000  0.69570000  0.88470000  1.0 -0.5362702869
O  O36  1  0.05870000  0.69570000  0.11530000  1.0 -0.5362702869
O  O37  1  0.07500000  0.26590000  0.52080000  1.0 -0.5322306218
O  O38  1  0.42500000  0.26590000  0.47920000  1.0 -0.5322306218
O  O39  1  0.42500000  0.76590000  0.02080000  1.0 -0.5362702869
O  O40  1  0.07500000  0.76590000  0.97920000  1.0 -0.5362702869
