# DDEC6 charges by PACMAN v1.1 (https://github.com/mtap-research/PACMAN-charge/)
data_CIDYUM_FSR_pacman
_symmetry_space_group_name_H-M   'P 1'
_cell_length_a   17.70460000
_cell_length_b   17.70460000
_cell_length_c   29.35460000
_cell_angle_alpha   75.88930000
_cell_angle_beta   104.11100000
_cell_angle_gamma   113.71200000
_symmetry_Int_Tables_number   1
_chemical_formula_structural   Co7H104C140(N3O16)2
_chemical_formula_sum   'Co14 H208 C280 N12 O64'
_cell_volume   8059.46694869
_cell_formula_units_Z   2
loop_
 _symmetry_equiv_pos_site_id
 _symmetry_equiv_pos_as_xyz
  1  'x, y, z'
loop_
 _atom_site_type_symbol
 _atom_site_label
 _atom_site_symmetry_multiplicity
 _atom_site_fract_x
 _atom_site_fract_y
 _atom_site_fract_z
 _atom_site_occupancy
 _atom_site_charge
Co  Co1  1  0.36158000  0.97848000  0.79979000  1.0 0.9776123686
Co  Co2  1  0.52681000  0.12647000  0.76970000  1.0 0.9704071058
Co  Co3  1  0.48965000  0.11769000  0.88166000  1.0 0.9291371478
Co  Co4  1  0.97848000  0.36158000  0.70021000  1.0 0.9776123686
Co  Co5  1  0.12647000  0.52681000  0.73030000  1.0 0.9704071058
Co  Co6  1  0.11769000  0.48965000  0.61834000  1.0 0.9291371478
Co  Co7  1  0.63842000  0.02152000  0.20021000  1.0 0.9776123686
Co  Co8  1  0.47319000  0.87353000  0.23030000  1.0 0.9704071058
Co  Co9  1  0.51035000  0.88231000  0.11834000  1.0 0.9291371478
Co  Co10  1  0.02152000  0.63842000  0.29979000  1.0 0.9776123686
Co  Co11  1  0.87353000  0.47319000  0.26970000  1.0 0.9704071058
Co  Co12  1  0.88231000  0.51035000  0.38166000  1.0 0.9291371478
Co  Co13  1  0.27035000  0.27035000  0.75000000  1.0 0.810628183
Co  Co14  1  0.72965000  0.72965000  0.25000000  1.0 0.810628183
H  H1  1  0.08170000  0.99810000  0.79640000  1.0 0.1287065203
H  H2  1  0.94180000  0.92520000  0.80040000  1.0 0.1119239543
H  H3  1  0.98360000  0.71280000  0.84240000  1.0 0.1175830758
H  H4  1  0.12220000  0.78440000  0.83400000  1.0 0.1119239543
H  H5  1  0.47560000  0.05700000  0.98850000  1.0 0.1119239543
H  H6  1  0.53360000  0.09480000  0.06110000  1.0 0.1601617894
H  H7  1  0.65680000  0.31660000  0.99560000  1.0 0.1383131965
H  H8  1  0.63120000  0.24400000  0.93020000  1.0 0.1175830758
H  H9  1  0.37200000  0.18740000  0.62540000  1.0 0.1119239543
H  H10  1  0.28850000  0.18810000  0.55090000  1.0 0.1175830758
H  H11  1  0.14830000  0.94850000  0.58930000  1.0 0.1119239543
H  H12  1  0.22740000  0.94860000  0.66400000  1.0 0.1287065203
H  H13  1  0.14730000  0.17830000  0.50370000  1.0 0.1119239543
H  H14  1  0.00470000  0.04350000  0.40130000  1.0 0.1119239543
H  H15  1  0.14890000  0.95090000  0.50890000  1.0 0.1119239543
H  H16  1  0.92220000  0.90100000  0.40600000  1.0 0.1175830758
H  H17  1  0.86880000  0.76920000  0.38590000  1.0 0.1175830758
H  H18  1  0.09150000  0.74730000  0.43420000  1.0 0.1175830758
H  H19  1  0.14630000  0.87790000  0.45470000  1.0 0.1175830758
H  H20  1  0.00290000  0.16430000  0.35910000  1.0 0.1119239543
H  H21  1  0.93920000  0.26040000  0.32660000  1.0 0.1175830758
H  H22  1  0.55710000  0.37530000  0.86320000  1.0 0.1287065203
H  H23  1  0.62290000  0.51390000  0.86680000  1.0 0.1119239543
H  H24  1  0.75360000  0.53940000  0.76750000  1.0 0.1119239543
H  H25  1  0.68360000  0.40000000  0.76200000  1.0 0.1175830758
H  H26  1  0.62510000  0.64990000  0.81500000  1.0 0.1119239543
H  H27  1  0.82450000  0.86270000  0.81910000  1.0 0.1175830758
H  H28  1  0.85340000  0.65060000  0.81900000  1.0 0.1175830758
H  H29  1  0.91180000  0.47620000  0.17350000  1.0 0.1175830758
H  H30  1  0.85790000  0.40690000  0.11010000  1.0 0.1383131965
H  H31  1  0.76140000  0.29520000  0.07150000  1.0 0.1119239543
H  H32  1  0.74300000  0.20960000  0.10660000  1.0 0.1383131965
H  H33  1  0.61410000  0.20410000  0.10960000  1.0 0.1287065203
H  H34  1  0.63280000  0.29540000  0.08170000  1.0 0.1119239543
H  H35  1  0.69460000  0.22600000  0.18690000  1.0 0.1477948351
H  H36  1  0.74830000  0.30330000  0.24720000  1.0 0.1175830758
H  H37  1  0.49090000  0.79170000  0.84590000  1.0 0.1175830758
H  H38  1  0.58050000  0.72310000  0.85470000  1.0 0.1175830758
H  H39  1  0.71850000  0.90990000  0.76730000  1.0 0.1175830758
H  H40  1  0.62350000  0.97570000  0.75380000  1.0 0.1175830758
H  H41  1  0.98890000  0.33110000  0.45370000  1.0 0.1119239543
H  H42  1  0.04440000  0.22820000  0.48810000  1.0 0.1119239543
H  H43  1  0.41170000  0.12230000  0.80300000  1.0 0.348394431
H  H44  1  0.56290000  0.47610000  0.70020000  1.0 0.1287065203
H  H45  1  0.52520000  0.48940000  0.64600000  1.0 0.1287065203
H  H46  1  0.47270000  0.47870000  0.68470000  1.0 0.1383131965
H  H47  1  0.58610000  0.36730000  0.68350000  1.0 0.1287065203
H  H48  1  0.51860000  0.28200000  0.67070000  1.0 0.1287065203
H  H49  1  0.53450000  0.36270000  0.63190000  1.0 0.1287065203
H  H50  1  0.42040000  0.26300000  0.71730000  1.0 0.1287065203
H  H51  1  0.34340000  0.18960000  0.83430000  1.0 0.3671357109
H  H52  1  0.31270000  0.12650000  0.79550000  1.0 0.3640288188
H  H53  1  0.99810000  0.08170000  0.70360000  1.0 0.1287065203
H  H54  1  0.92520000  0.94180000  0.69960000  1.0 0.1119239543
H  H55  1  0.71280000  0.98360000  0.65760000  1.0 0.1175830758
H  H56  1  0.78440000  0.12220000  0.66600000  1.0 0.1119239543
H  H57  1  0.05700000  0.47560000  0.51150000  1.0 0.1119239543
H  H58  1  0.09480000  0.53360000  0.43890000  1.0 0.1601617894
H  H59  1  0.31660000  0.65680000  0.50440000  1.0 0.1383131965
H  H60  1  0.24400000  0.63120000  0.56980000  1.0 0.1175830758
H  H61  1  0.18740000  0.37200000  0.87460000  1.0 0.1119239543
H  H62  1  0.18810000  0.28850000  0.94910000  1.0 0.1175830758
H  H63  1  0.94850000  0.14830000  0.91070000  1.0 0.1119239543
H  H64  1  0.94860000  0.22740000  0.83600000  1.0 0.1287065203
H  H65  1  0.17830000  0.14730000  0.99630000  1.0 0.1119239543
H  H66  1  0.04350000  0.00470000  0.09870000  1.0 0.1119239543
H  H67  1  0.95090000  0.14890000  0.99110000  1.0 0.1119239543
H  H68  1  0.90100000  0.92220000  0.09400000  1.0 0.1175830758
H  H69  1  0.76920000  0.86880000  0.11410000  1.0 0.1175830758
H  H70  1  0.74730000  0.09150000  0.06580000  1.0 0.1175830758
H  H71  1  0.87790000  0.14630000  0.04530000  1.0 0.1175830758
H  H72  1  0.16430000  0.00290000  0.14090000  1.0 0.1119239543
H  H73  1  0.26040000  0.93920000  0.17340000  1.0 0.1175830758
H  H74  1  0.37530000  0.55710000  0.63680000  1.0 0.1287065203
H  H75  1  0.51390000  0.62290000  0.63320000  1.0 0.1119239543
H  H76  1  0.53940000  0.75360000  0.73250000  1.0 0.1119239543
H  H77  1  0.40000000  0.68360000  0.73800000  1.0 0.1175830758
H  H78  1  0.64990000  0.62510000  0.68500000  1.0 0.1119239543
H  H79  1  0.86270000  0.82450000  0.68090000  1.0 0.1175830758
H  H80  1  0.65060000  0.85340000  0.68100000  1.0 0.1175830758
H  H81  1  0.47620000  0.91180000  0.32650000  1.0 0.1175830758
H  H82  1  0.40690000  0.85790000  0.38990000  1.0 0.1383131965
H  H83  1  0.29520000  0.76140000  0.42850000  1.0 0.1119239543
H  H84  1  0.20960000  0.74300000  0.39340000  1.0 0.1383131965
H  H85  1  0.20410000  0.61410000  0.39040000  1.0 0.1287065203
H  H86  1  0.29540000  0.63280000  0.41830000  1.0 0.1119239543
H  H87  1  0.22600000  0.69460000  0.31310000  1.0 0.1477948351
H  H88  1  0.30330000  0.74830000  0.25280000  1.0 0.1175830758
H  H89  1  0.79170000  0.49090000  0.65410000  1.0 0.1175830758
H  H90  1  0.72310000  0.58050000  0.64530000  1.0 0.1175830758
H  H91  1  0.90990000  0.71850000  0.73270000  1.0 0.1175830758
H  H92  1  0.97570000  0.62350000  0.74620000  1.0 0.1175830758
H  H93  1  0.33110000  0.98890000  0.04630000  1.0 0.1119239543
H  H94  1  0.22820000  0.04440000  0.01190000  1.0 0.1119239543
H  H95  1  0.12230000  0.41170000  0.69700000  1.0 0.348394431
H  H96  1  0.47610000  0.56290000  0.79980000  1.0 0.1287065203
H  H97  1  0.48940000  0.52520000  0.85400000  1.0 0.1287065203
H  H98  1  0.47870000  0.47270000  0.81530000  1.0 0.1383131965
H  H99  1  0.36730000  0.58610000  0.81650000  1.0 0.1287065203
H  H100  1  0.28200000  0.51860000  0.82930000  1.0 0.1287065203
H  H101  1  0.36270000  0.53450000  0.86810000  1.0 0.1287065203
H  H102  1  0.26300000  0.42040000  0.78270000  1.0 0.1287065203
H  H103  1  0.18960000  0.34340000  0.66570000  1.0 0.3671357109
H  H104  1  0.12650000  0.31270000  0.70450000  1.0 0.3640288188
H  H105  1  0.91830000  0.00190000  0.20360000  1.0 0.1287065203
H  H106  1  0.05820000  0.07480000  0.19960000  1.0 0.1119239543
H  H107  1  0.01640000  0.28720000  0.15760000  1.0 0.1175830758
H  H108  1  0.87780000  0.21560000  0.16600000  1.0 0.1119239543
H  H109  1  0.52440000  0.94300000  0.01150000  1.0 0.1119239543
H  H110  1  0.46640000  0.90520000  0.93890000  1.0 0.1601617894
H  H111  1  0.34320000  0.68340000  0.00440000  1.0 0.1383131965
H  H112  1  0.36880000  0.75600000  0.06980000  1.0 0.1175830758
H  H113  1  0.62800000  0.81260000  0.37460000  1.0 0.1119239543
H  H114  1  0.71150000  0.81190000  0.44910000  1.0 0.1175830758
H  H115  1  0.85170000  0.05150000  0.41070000  1.0 0.1119239543
H  H116  1  0.77260000  0.05140000  0.33600000  1.0 0.1287065203
H  H117  1  0.85270000  0.82170000  0.49630000  1.0 0.1119239543
H  H118  1  0.99530000  0.95650000  0.59870000  1.0 0.1119239543
H  H119  1  0.85110000  0.04910000  0.49110000  1.0 0.1119239543
H  H120  1  0.07780000  0.09900000  0.59400000  1.0 0.1175830758
H  H121  1  0.13120000  0.23080000  0.61410000  1.0 0.1175830758
H  H122  1  0.90850000  0.25270000  0.56580000  1.0 0.1175830758
H  H123  1  0.85370000  0.12210000  0.54530000  1.0 0.1175830758
H  H124  1  0.99710000  0.83570000  0.64090000  1.0 0.1119239543
H  H125  1  0.06080000  0.73960000  0.67340000  1.0 0.1175830758
H  H126  1  0.44290000  0.62470000  0.13680000  1.0 0.1287065203
H  H127  1  0.37710000  0.48610000  0.13320000  1.0 0.1119239543
H  H128  1  0.24640000  0.46060000  0.23250000  1.0 0.1119239543
H  H129  1  0.31640000  0.60000000  0.23800000  1.0 0.1175830758
H  H130  1  0.37490000  0.35010000  0.18500000  1.0 0.1119239543
H  H131  1  0.17550000  0.13730000  0.18090000  1.0 0.1175830758
H  H132  1  0.14660000  0.34940000  0.18100000  1.0 0.1175830758
H  H133  1  0.08820000  0.52380000  0.82650000  1.0 0.1175830758
H  H134  1  0.14210000  0.59310000  0.88990000  1.0 0.1383131965
H  H135  1  0.23860000  0.70480000  0.92850000  1.0 0.1119239543
H  H136  1  0.25700000  0.79040000  0.89340000  1.0 0.1383131965
H  H137  1  0.38590000  0.79590000  0.89040000  1.0 0.1287065203
H  H138  1  0.36720000  0.70460000  0.91830000  1.0 0.1119239543
H  H139  1  0.30540000  0.77400000  0.81310000  1.0 0.1477948351
H  H140  1  0.25170000  0.69670000  0.75280000  1.0 0.1175830758
H  H141  1  0.50910000  0.20830000  0.15410000  1.0 0.1175830758
H  H142  1  0.41950000  0.27690000  0.14530000  1.0 0.1175830758
H  H143  1  0.28150000  0.09010000  0.23270000  1.0 0.1175830758
H  H144  1  0.37650000  0.02430000  0.24620000  1.0 0.1175830758
H  H145  1  0.01110000  0.66890000  0.54630000  1.0 0.1119239543
H  H146  1  0.95560000  0.77180000  0.51190000  1.0 0.1119239543
H  H147  1  0.58830000  0.87770000  0.19700000  1.0 0.348394431
H  H148  1  0.43710000  0.52390000  0.29980000  1.0 0.1287065203
H  H149  1  0.47480000  0.51060000  0.35400000  1.0 0.1287065203
H  H150  1  0.52730000  0.52130000  0.31530000  1.0 0.1383131965
H  H151  1  0.41390000  0.63270000  0.31650000  1.0 0.1287065203
H  H152  1  0.48140000  0.71800000  0.32930000  1.0 0.1287065203
H  H153  1  0.46550000  0.63730000  0.36810000  1.0 0.1287065203
H  H154  1  0.57960000  0.73700000  0.28270000  1.0 0.1287065203
H  H155  1  0.65660000  0.81040000  0.16570000  1.0 0.3671357109
H  H156  1  0.68730000  0.87350000  0.20450000  1.0 0.3640288188
H  H157  1  0.00190000  0.91830000  0.29640000  1.0 0.1287065203
H  H158  1  0.07480000  0.05820000  0.30040000  1.0 0.1119239543
H  H159  1  0.28720000  0.01640000  0.34240000  1.0 0.1175830758
H  H160  1  0.21560000  0.87780000  0.33400000  1.0 0.1119239543
H  H161  1  0.94300000  0.52440000  0.48850000  1.0 0.1119239543
H  H162  1  0.90520000  0.46640000  0.56110000  1.0 0.1601617894
H  H163  1  0.68340000  0.34320000  0.49560000  1.0 0.1383131965
H  H164  1  0.75600000  0.36880000  0.43020000  1.0 0.1175830758
H  H165  1  0.81260000  0.62800000  0.12540000  1.0 0.1119239543
H  H166  1  0.81190000  0.71150000  0.05090000  1.0 0.1175830758
H  H167  1  0.05150000  0.85170000  0.08930000  1.0 0.1119239543
H  H168  1  0.05140000  0.77260000  0.16400000  1.0 0.1287065203
H  H169  1  0.82170000  0.85270000  0.00370000  1.0 0.1119239543
H  H170  1  0.95650000  0.99530000  0.90130000  1.0 0.1119239543
H  H171  1  0.04910000  0.85110000  0.00890000  1.0 0.1119239543
H  H172  1  0.09900000  0.07780000  0.90600000  1.0 0.1175830758
H  H173  1  0.23080000  0.13120000  0.88590000  1.0 0.1175830758
H  H174  1  0.25270000  0.90850000  0.93420000  1.0 0.1175830758
H  H175  1  0.12210000  0.85370000  0.95470000  1.0 0.1175830758
H  H176  1  0.83570000  0.99710000  0.85910000  1.0 0.1119239543
H  H177  1  0.73960000  0.06080000  0.82660000  1.0 0.1175830758
H  H178  1  0.62470000  0.44290000  0.36320000  1.0 0.1287065203
H  H179  1  0.48610000  0.37710000  0.36680000  1.0 0.1119239543
H  H180  1  0.46060000  0.24640000  0.26750000  1.0 0.1119239543
H  H181  1  0.60000000  0.31640000  0.26200000  1.0 0.1175830758
H  H182  1  0.35010000  0.37490000  0.31500000  1.0 0.1119239543
H  H183  1  0.13730000  0.17550000  0.31910000  1.0 0.1175830758
H  H184  1  0.34940000  0.14660000  0.31900000  1.0 0.1175830758
H  H185  1  0.52380000  0.08820000  0.67350000  1.0 0.1175830758
H  H186  1  0.59310000  0.14210000  0.61010000  1.0 0.1383131965
H  H187  1  0.70480000  0.23860000  0.57150000  1.0 0.1119239543
H  H188  1  0.79040000  0.25700000  0.60660000  1.0 0.1383131965
H  H189  1  0.79590000  0.38590000  0.60960000  1.0 0.1287065203
H  H190  1  0.70460000  0.36720000  0.58170000  1.0 0.1119239543
H  H191  1  0.77400000  0.30540000  0.68690000  1.0 0.1477948351
H  H192  1  0.69670000  0.25170000  0.74720000  1.0 0.1175830758
H  H193  1  0.20830000  0.50910000  0.34590000  1.0 0.1175830758
H  H194  1  0.27690000  0.41950000  0.35470000  1.0 0.1175830758
H  H195  1  0.09010000  0.28150000  0.26730000  1.0 0.1175830758
H  H196  1  0.02430000  0.37650000  0.25380000  1.0 0.1175830758
H  H197  1  0.66890000  0.01110000  0.95370000  1.0 0.1119239543
H  H198  1  0.77180000  0.95560000  0.98810000  1.0 0.1119239543
H  H199  1  0.87770000  0.58830000  0.30300000  1.0 0.348394431
H  H200  1  0.52390000  0.43710000  0.20020000  1.0 0.1287065203
H  H201  1  0.51060000  0.47480000  0.14600000  1.0 0.1287065203
H  H202  1  0.52130000  0.52730000  0.18470000  1.0 0.1383131965
H  H203  1  0.63270000  0.41390000  0.18350000  1.0 0.1287065203
H  H204  1  0.71800000  0.48140000  0.17070000  1.0 0.1287065203
H  H205  1  0.63730000  0.46550000  0.13190000  1.0 0.1287065203
H  H206  1  0.73700000  0.57960000  0.21730000  1.0 0.1287065203
H  H207  1  0.81040000  0.65660000  0.33430000  1.0 0.3671357109
H  H208  1  0.87350000  0.68730000  0.29550000  1.0 0.3640288188
C  C1  1  0.20618000  0.94522000  0.80939000  1.0 0.5550702287
C  C2  1  0.11678000  0.89922000  0.81388000  1.0 -0.0279738773
C  C3  1  0.06218000  0.94022000  0.80460000  1.0 -0.0840245636
C  C4  1  0.97756000  0.89584000  0.80730000  1.0 -0.1514363088
C  C5  1  0.94560000  0.81080000  0.81960000  1.0 0.0710851127
C  C6  1  0.00220000  0.77020000  0.83150000  1.0 -0.1682957934
C  C7  1  0.08630000  0.81350000  0.82750000  1.0 -0.0994426616
C  C8  1  0.85405000  0.76335000  0.81950000  1.0 0.0809470443
C  C9  1  0.51780000  0.10920000  0.99000000  1.0 0.0710851127
C  C10  1  0.54990000  0.13270000  0.03400000  1.0 -0.2033438908
C  C11  1  0.60480000  0.21040000  0.03800000  1.0 0.1601617894
C  C12  1  0.62670000  0.25950000  0.99720000  1.0 -0.2405642893
C  C13  1  0.60050000  0.21850000  0.95510000  1.0 0.1175830758
C  C14  1  0.93767000  0.65533000  0.39925000  1.0 0.532970853
C  C15  1  0.35783000  0.06557000  0.70204000  1.0 0.584023483
C  C16  1  0.30766000  0.06774000  0.65267000  1.0 -0.0279738773
C  C17  1  0.32657000  0.13963000  0.61833000  1.0 -0.1079452058
C  C18  1  0.27686000  0.13954000  0.57330000  1.0 -0.1514363088
C  C19  1  0.21090000  0.06850000  0.56167000  1.0 0.0649603082
C  C20  1  0.19299000  0.99681000  0.59647000  1.0 -0.1514363088
C  C21  1  0.24050000  0.99670000  0.64123000  1.0 -0.0994426616
C  C22  1  0.15654000  0.06546000  0.51413000  1.0 0.0809470443
C  C23  1  0.12732000  0.12908000  0.49111000  1.0 -0.1902514064
C  C24  1  0.06863000  0.12057000  0.44946000  1.0 0.0809470443
C  C25  1  0.04234000  0.04866000  0.42969000  1.0 -0.1902514064
C  C26  1  0.07187000  0.98313000  0.45217000  1.0 0.0809470443
C  C27  1  0.12864000  0.99336000  0.49387000  1.0 -0.1902514064
C  C28  1  0.03929000  0.90351000  0.43362000  1.0 0.0710851127
C  C29  1  0.95635000  0.87005000  0.41229000  1.0 -0.1514363088
C  C30  1  0.92436000  0.79084000  0.40044000  1.0 -0.0994426616
C  C31  1  0.97404000  0.74316000  0.40996000  1.0 -0.0199001498
C  C32  1  0.05706000  0.77774000  0.42926000  1.0 -0.0994426616
C  C33  1  0.09029000  0.85611000  0.44138000  1.0 -0.1514363088
C  C34  1  0.03195000  0.18545000  0.42767000  1.0 0.0710851127
C  C35  1  0.99926000  0.19674000  0.37851000  1.0 -0.1579920428
C  C36  1  0.96206000  0.25534000  0.35881000  1.0 -0.0994426616
C  C37  1  0.57346000  0.27994000  0.81352000  1.0 0.586077459
C  C38  1  0.61556000  0.37204000  0.81340000  1.0 -0.0279738773
C  C39  1  0.59700000  0.40820000  0.84380000  1.0 -0.0994426616
C  C40  1  0.63590000  0.49110000  0.84570000  1.0 -0.1514363088
C  C41  1  0.69479000  0.54281000  0.81670000  1.0 0.0710851127
C  C42  1  0.71308000  0.50672000  0.78650000  1.0 -0.1514363088
C  C43  1  0.67242000  0.42258000  0.78390000  1.0 -0.1079452058
C  C44  1  0.73330000  0.63430000  0.81800000  1.0 0.0809470443
C  C45  1  0.68250000  0.67810000  0.81630000  1.0 -0.1902514064
C  C46  1  0.71693000  0.76407000  0.81660000  1.0 0.0809470443
C  C47  1  0.80156000  0.80544000  0.81850000  1.0 -0.1902514064
C  C48  1  0.81905000  0.67895000  0.81890000  1.0 -0.1902514064
C  C49  1  0.86600000  0.42620000  0.17574000  1.0 0.0809470443
C  C50  1  0.83460000  0.38420000  0.13790000  1.0 -0.2197024544
C  C51  1  0.76890000  0.30830000  0.14044000  1.0 0.1696830614
C  C52  1  0.73320000  0.26180000  0.09830000  1.0 -0.2405642893
C  C53  1  0.64260000  0.24420000  0.08450000  1.0 -0.2197024544
C  C54  1  0.73770000  0.27770000  0.18291000  1.0 -0.207173966
C  C55  1  0.77079000  0.32441000  0.21922000  1.0 0.0982655285
C  C56  1  0.48942000  0.93718000  0.79131000  1.0 0.5716124846
C  C57  1  0.54747000  0.89093000  0.79830000  1.0 -0.0199001498
C  C58  1  0.53561000  0.81499000  0.82920000  1.0 -0.1079452058
C  C59  1  0.59000000  0.77480000  0.83510000  1.0 -0.1579920428
C  C60  1  0.65898000  0.80982000  0.81220000  1.0 0.0710851127
C  C61  1  0.67185000  0.88535000  0.78250000  1.0 -0.1514363088
C  C62  1  0.61540000  0.92540000  0.77480000  1.0 -0.0994426616
C  C63  1  0.92417000  0.37463000  0.36486000  1.0 0.584023483
C  C64  1  0.95854000  0.30666000  0.38666000  1.0 -0.0279738773
C  C65  1  0.99051000  0.29669000  0.43482000  1.0 -0.0994426616
C  C66  1  0.02543000  0.23557000  0.45544000  1.0 -0.1514363088
C  C67  1  0.51260000  0.46160000  0.67720000  1.0 -0.401412666
C  C68  1  0.53250000  0.34150000  0.66520000  1.0 -0.280934252
C  C69  1  0.41890000  0.31570000  0.70400000  1.0 0.2801293133
C  C70  1  0.23930000  0.20870000  0.68790000  1.0 -0.0994426616
C  C71  1  0.94522000  0.20618000  0.69061000  1.0 0.5550702287
C  C72  1  0.89922000  0.11678000  0.68612000  1.0 -0.0279738773
C  C73  1  0.94022000  0.06218000  0.69540000  1.0 -0.0840245636
C  C74  1  0.89584000  0.97756000  0.69270000  1.0 -0.1514363088
C  C75  1  0.81080000  0.94560000  0.68040000  1.0 0.0710851127
C  C76  1  0.77020000  0.00220000  0.66850000  1.0 -0.1682957934
C  C77  1  0.81350000  0.08630000  0.67250000  1.0 -0.0994426616
C  C78  1  0.76335000  0.85405000  0.68050000  1.0 0.0809470443
C  C79  1  0.10920000  0.51780000  0.51000000  1.0 0.0710851127
C  C80  1  0.13270000  0.54990000  0.46600000  1.0 -0.2033438908
C  C81  1  0.21040000  0.60480000  0.46200000  1.0 0.1601617894
C  C82  1  0.25950000  0.62670000  0.50280000  1.0 -0.2405642893
C  C83  1  0.21850000  0.60050000  0.54490000  1.0 0.1175830758
C  C84  1  0.65533000  0.93767000  0.10075000  1.0 0.532970853
C  C85  1  0.06557000  0.35783000  0.79796000  1.0 0.584023483
C  C86  1  0.06774000  0.30766000  0.84733000  1.0 -0.0279738773
C  C87  1  0.13963000  0.32657000  0.88167000  1.0 -0.1079452058
C  C88  1  0.13954000  0.27686000  0.92670000  1.0 -0.1514363088
C  C89  1  0.06850000  0.21090000  0.93833000  1.0 0.0649603082
C  C90  1  0.99681000  0.19299000  0.90353000  1.0 -0.1514363088
C  C91  1  0.99670000  0.24050000  0.85877000  1.0 -0.0994426616
C  C92  1  0.06546000  0.15654000  0.98587000  1.0 0.0809470443
C  C93  1  0.12908000  0.12732000  0.00889000  1.0 -0.1902514064
C  C94  1  0.12057000  0.06863000  0.05054000  1.0 0.0809470443
C  C95  1  0.04866000  0.04234000  0.07031000  1.0 -0.1902514064
C  C96  1  0.98313000  0.07187000  0.04783000  1.0 0.0809470443
C  C97  1  0.99336000  0.12864000  0.00613000  1.0 -0.1902514064
C  C98  1  0.90351000  0.03929000  0.06638000  1.0 0.0710851127
C  C99  1  0.87005000  0.95635000  0.08771000  1.0 -0.1514363088
C  C100  1  0.79084000  0.92436000  0.09956000  1.0 -0.0994426616
C  C101  1  0.74316000  0.97404000  0.09004000  1.0 -0.0199001498
C  C102  1  0.77774000  0.05706000  0.07074000  1.0 -0.0994426616
C  C103  1  0.85611000  0.09029000  0.05862000  1.0 -0.1514363088
C  C104  1  0.18545000  0.03195000  0.07233000  1.0 0.0710851127
C  C105  1  0.19674000  0.99926000  0.12149000  1.0 -0.1579920428
C  C106  1  0.25534000  0.96206000  0.14119000  1.0 -0.0994426616
C  C107  1  0.27994000  0.57346000  0.68648000  1.0 0.586077459
C  C108  1  0.37204000  0.61556000  0.68660000  1.0 -0.0279738773
C  C109  1  0.40820000  0.59700000  0.65620000  1.0 -0.0994426616
C  C110  1  0.49110000  0.63590000  0.65430000  1.0 -0.1514363088
C  C111  1  0.54281000  0.69479000  0.68330000  1.0 0.0710851127
C  C112  1  0.50672000  0.71308000  0.71350000  1.0 -0.1514363088
C  C113  1  0.42258000  0.67242000  0.71610000  1.0 -0.1079452058
C  C114  1  0.63430000  0.73330000  0.68200000  1.0 0.0809470443
C  C115  1  0.67810000  0.68250000  0.68370000  1.0 -0.1902514064
C  C116  1  0.76407000  0.71693000  0.68340000  1.0 0.0809470443
C  C117  1  0.80544000  0.80156000  0.68150000  1.0 -0.1902514064
C  C118  1  0.67895000  0.81905000  0.68110000  1.0 -0.1902514064
C  C119  1  0.42620000  0.86600000  0.32426000  1.0 0.0809470443
C  C120  1  0.38420000  0.83460000  0.36210000  1.0 -0.2197024544
C  C121  1  0.30830000  0.76890000  0.35956000  1.0 0.1696830614
C  C122  1  0.26180000  0.73320000  0.40170000  1.0 -0.2405642893
C  C123  1  0.24420000  0.64260000  0.41550000  1.0 -0.2197024544
C  C124  1  0.27770000  0.73770000  0.31709000  1.0 -0.207173966
C  C125  1  0.32441000  0.77079000  0.28078000  1.0 0.0982655285
C  C126  1  0.93718000  0.48942000  0.70869000  1.0 0.5716124846
C  C127  1  0.89093000  0.54747000  0.70170000  1.0 -0.0199001498
C  C128  1  0.81499000  0.53561000  0.67080000  1.0 -0.1079452058
C  C129  1  0.77480000  0.59000000  0.66490000  1.0 -0.1579920428
C  C130  1  0.80982000  0.65898000  0.68780000  1.0 0.0710851127
C  C131  1  0.88535000  0.67185000  0.71750000  1.0 -0.1514363088
C  C132  1  0.92540000  0.61540000  0.72520000  1.0 -0.0994426616
C  C133  1  0.37463000  0.92417000  0.13514000  1.0 0.584023483
C  C134  1  0.30666000  0.95854000  0.11334000  1.0 -0.0279738773
C  C135  1  0.29669000  0.99051000  0.06518000  1.0 -0.0994426616
C  C136  1  0.23557000  0.02543000  0.04456000  1.0 -0.1514363088
C  C137  1  0.46160000  0.51260000  0.82280000  1.0 -0.401412666
C  C138  1  0.34150000  0.53250000  0.83480000  1.0 -0.280934252
C  C139  1  0.31570000  0.41890000  0.79600000  1.0 0.2801293133
C  C140  1  0.20870000  0.23930000  0.81210000  1.0 -0.0994426616
C  C141  1  0.79382000  0.05478000  0.19061000  1.0 0.5550702287
C  C142  1  0.88322000  0.10078000  0.18612000  1.0 -0.0279738773
C  C143  1  0.93782000  0.05978000  0.19540000  1.0 -0.0840245636
C  C144  1  0.02244000  0.10416000  0.19270000  1.0 -0.1514363088
C  C145  1  0.05440000  0.18920000  0.18040000  1.0 0.0710851127
C  C146  1  0.99780000  0.22980000  0.16850000  1.0 -0.1682957934
C  C147  1  0.91370000  0.18650000  0.17250000  1.0 -0.0994426616
C  C148  1  0.14595000  0.23665000  0.18050000  1.0 0.0809470443
C  C149  1  0.48220000  0.89080000  0.01000000  1.0 0.0710851127
C  C150  1  0.45010000  0.86730000  0.96600000  1.0 -0.2033438908
C  C151  1  0.39520000  0.78960000  0.96200000  1.0 0.1601617894
C  C152  1  0.37330000  0.74050000  0.00280000  1.0 -0.2405642893
C  C153  1  0.39950000  0.78150000  0.04490000  1.0 0.1175830758
C  C154  1  0.06233000  0.34467000  0.60075000  1.0 0.532970853
C  C155  1  0.64217000  0.93443000  0.29796000  1.0 0.584023483
C  C156  1  0.69234000  0.93226000  0.34733000  1.0 -0.0279738773
C  C157  1  0.67343000  0.86037000  0.38167000  1.0 -0.1079452058
C  C158  1  0.72314000  0.86046000  0.42670000  1.0 -0.1514363088
C  C159  1  0.78910000  0.93150000  0.43833000  1.0 0.0649603082
C  C160  1  0.80701000  0.00319000  0.40353000  1.0 -0.1514363088
C  C161  1  0.75950000  0.00330000  0.35877000  1.0 -0.0994426616
C  C162  1  0.84346000  0.93454000  0.48587000  1.0 0.0809470443
C  C163  1  0.87268000  0.87092000  0.50889000  1.0 -0.1902514064
C  C164  1  0.93137000  0.87943000  0.55054000  1.0 0.0809470443
C  C165  1  0.95766000  0.95134000  0.57031000  1.0 -0.1902514064
C  C166  1  0.92813000  0.01687000  0.54783000  1.0 0.0809470443
C  C167  1  0.87136000  0.00664000  0.50613000  1.0 -0.1902514064
C  C168  1  0.96071000  0.09649000  0.56638000  1.0 0.0710851127
C  C169  1  0.04365000  0.12995000  0.58771000  1.0 -0.1514363088
C  C170  1  0.07564000  0.20916000  0.59956000  1.0 -0.0994426616
C  C171  1  0.02596000  0.25684000  0.59004000  1.0 -0.0199001498
C  C172  1  0.94294000  0.22226000  0.57074000  1.0 -0.0994426616
C  C173  1  0.90971000  0.14389000  0.55862000  1.0 -0.1514363088
C  C174  1  0.96805000  0.81455000  0.57233000  1.0 0.0710851127
C  C175  1  0.00074000  0.80326000  0.62149000  1.0 -0.1579920428
C  C176  1  0.03794000  0.74466000  0.64119000  1.0 -0.0994426616
C  C177  1  0.42654000  0.72006000  0.18648000  1.0 0.586077459
C  C178  1  0.38444000  0.62796000  0.18660000  1.0 -0.0279738773
C  C179  1  0.40300000  0.59180000  0.15620000  1.0 -0.0994426616
C  C180  1  0.36410000  0.50890000  0.15430000  1.0 -0.1514363088
C  C181  1  0.30521000  0.45719000  0.18330000  1.0 0.0710851127
C  C182  1  0.28692000  0.49328000  0.21350000  1.0 -0.1514363088
C  C183  1  0.32758000  0.57742000  0.21610000  1.0 -0.1079452058
C  C184  1  0.26670000  0.36570000  0.18200000  1.0 0.0809470443
C  C185  1  0.31750000  0.32190000  0.18370000  1.0 -0.1902514064
C  C186  1  0.28307000  0.23593000  0.18340000  1.0 0.0809470443
C  C187  1  0.19844000  0.19456000  0.18150000  1.0 -0.1902514064
C  C188  1  0.18095000  0.32105000  0.18110000  1.0 -0.1902514064
C  C189  1  0.13400000  0.57380000  0.82426000  1.0 0.0809470443
C  C190  1  0.16540000  0.61580000  0.86210000  1.0 -0.2197024544
C  C191  1  0.23110000  0.69170000  0.85956000  1.0 0.1696830614
C  C192  1  0.26680000  0.73820000  0.90170000  1.0 -0.2405642893
C  C193  1  0.35740000  0.75580000  0.91550000  1.0 -0.2197024544
C  C194  1  0.26230000  0.72230000  0.81709000  1.0 -0.207173966
C  C195  1  0.22921000  0.67559000  0.78078000  1.0 0.0982655285
C  C196  1  0.51058000  0.06282000  0.20869000  1.0 0.5716124846
C  C197  1  0.45253000  0.10907000  0.20170000  1.0 -0.0199001498
C  C198  1  0.46439000  0.18501000  0.17080000  1.0 -0.1079452058
C  C199  1  0.41000000  0.22520000  0.16490000  1.0 -0.1579920428
C  C200  1  0.34102000  0.19018000  0.18780000  1.0 0.0710851127
C  C201  1  0.32815000  0.11465000  0.21750000  1.0 -0.1514363088
C  C202  1  0.38460000  0.07460000  0.22520000  1.0 -0.0994426616
C  C203  1  0.07583000  0.62537000  0.63514000  1.0 0.584023483
C  C204  1  0.04146000  0.69334000  0.61334000  1.0 -0.0279738773
C  C205  1  0.00949000  0.70331000  0.56518000  1.0 -0.0994426616
C  C206  1  0.97457000  0.76443000  0.54456000  1.0 -0.1514363088
C  C207  1  0.48740000  0.53840000  0.32280000  1.0 -0.401412666
C  C208  1  0.46750000  0.65850000  0.33480000  1.0 -0.280934252
C  C209  1  0.58110000  0.68430000  0.29600000  1.0 0.2801293133
C  C210  1  0.76070000  0.79130000  0.31210000  1.0 -0.0994426616
C  C211  1  0.05478000  0.79382000  0.30939000  1.0 0.5550702287
C  C212  1  0.10078000  0.88322000  0.31388000  1.0 -0.0279738773
C  C213  1  0.05978000  0.93782000  0.30460000  1.0 -0.0840245636
C  C214  1  0.10416000  0.02244000  0.30730000  1.0 -0.1514363088
C  C215  1  0.18920000  0.05440000  0.31960000  1.0 0.0710851127
C  C216  1  0.22980000  0.99780000  0.33150000  1.0 -0.1682957934
C  C217  1  0.18650000  0.91370000  0.32750000  1.0 -0.0994426616
C  C218  1  0.23665000  0.14595000  0.31950000  1.0 0.0809470443
C  C219  1  0.89080000  0.48220000  0.49000000  1.0 0.0710851127
C  C220  1  0.86730000  0.45010000  0.53400000  1.0 -0.2033438908
C  C221  1  0.78960000  0.39520000  0.53800000  1.0 0.1601617894
C  C222  1  0.74050000  0.37330000  0.49720000  1.0 -0.2405642893
C  C223  1  0.78150000  0.39950000  0.45510000  1.0 0.1175830758
C  C224  1  0.34467000  0.06233000  0.89925000  1.0 0.532970853
C  C225  1  0.93443000  0.64217000  0.20204000  1.0 0.584023483
C  C226  1  0.93226000  0.69234000  0.15267000  1.0 -0.0279738773
C  C227  1  0.86037000  0.67343000  0.11833000  1.0 -0.1079452058
C  C228  1  0.86046000  0.72314000  0.07330000  1.0 -0.1514363088
C  C229  1  0.93150000  0.78910000  0.06167000  1.0 0.0649603082
C  C230  1  0.00319000  0.80701000  0.09647000  1.0 -0.1514363088
C  C231  1  0.00330000  0.75950000  0.14123000  1.0 -0.0994426616
C  C232  1  0.93454000  0.84346000  0.01413000  1.0 0.0809470443
C  C233  1  0.87092000  0.87268000  0.99111000  1.0 -0.1902514064
C  C234  1  0.87943000  0.93137000  0.94946000  1.0 0.0809470443
C  C235  1  0.95134000  0.95766000  0.92969000  1.0 -0.1902514064
C  C236  1  0.01687000  0.92813000  0.95217000  1.0 0.0809470443
C  C237  1  0.00664000  0.87136000  0.99387000  1.0 -0.1902514064
C  C238  1  0.09649000  0.96071000  0.93362000  1.0 0.0710851127
C  C239  1  0.12995000  0.04365000  0.91229000  1.0 -0.1514363088
C  C240  1  0.20916000  0.07564000  0.90044000  1.0 -0.0994426616
C  C241  1  0.25684000  0.02596000  0.90996000  1.0 -0.0199001498
C  C242  1  0.22226000  0.94294000  0.92926000  1.0 -0.0994426616
C  C243  1  0.14389000  0.90971000  0.94138000  1.0 -0.1514363088
C  C244  1  0.81455000  0.96805000  0.92767000  1.0 0.0710851127
C  C245  1  0.80326000  0.00074000  0.87851000  1.0 -0.1579920428
C  C246  1  0.74466000  0.03794000  0.85881000  1.0 -0.0994426616
C  C247  1  0.72006000  0.42654000  0.31352000  1.0 0.586077459
C  C248  1  0.62796000  0.38444000  0.31340000  1.0 -0.0279738773
C  C249  1  0.59180000  0.40300000  0.34380000  1.0 -0.0994426616
C  C250  1  0.50890000  0.36410000  0.34570000  1.0 -0.1514363088
C  C251  1  0.45719000  0.30521000  0.31670000  1.0 0.0710851127
C  C252  1  0.49328000  0.28692000  0.28650000  1.0 -0.1514363088
C  C253  1  0.57742000  0.32758000  0.28390000  1.0 -0.1079452058
C  C254  1  0.36570000  0.26670000  0.31800000  1.0 0.0809470443
C  C255  1  0.32190000  0.31750000  0.31630000  1.0 -0.1902514064
C  C256  1  0.23593000  0.28307000  0.31660000  1.0 0.0809470443
C  C257  1  0.19456000  0.19844000  0.31850000  1.0 -0.1902514064
C  C258  1  0.32105000  0.18095000  0.31890000  1.0 -0.1902514064
C  C259  1  0.57380000  0.13400000  0.67574000  1.0 0.0809470443
C  C260  1  0.61580000  0.16540000  0.63790000  1.0 -0.2197024544
C  C261  1  0.69170000  0.23110000  0.64044000  1.0 0.1696830614
C  C262  1  0.73820000  0.26680000  0.59830000  1.0 -0.2405642893
C  C263  1  0.75580000  0.35740000  0.58450000  1.0 -0.2197024544
C  C264  1  0.72230000  0.26230000  0.68291000  1.0 -0.207173966
C  C265  1  0.67559000  0.22921000  0.71922000  1.0 0.0982655285
C  C266  1  0.06282000  0.51058000  0.29131000  1.0 0.5716124846
C  C267  1  0.10907000  0.45253000  0.29830000  1.0 -0.0199001498
C  C268  1  0.18501000  0.46439000  0.32920000  1.0 -0.1079452058
C  C269  1  0.22520000  0.41000000  0.33510000  1.0 -0.1579920428
C  C270  1  0.19018000  0.34102000  0.31220000  1.0 0.0710851127
C  C271  1  0.11465000  0.32815000  0.28250000  1.0 -0.1514363088
C  C272  1  0.07460000  0.38460000  0.27480000  1.0 -0.0994426616
C  C273  1  0.62537000  0.07583000  0.86486000  1.0 0.584023483
C  C274  1  0.69334000  0.04146000  0.88666000  1.0 -0.0279738773
C  C275  1  0.70331000  0.00949000  0.93482000  1.0 -0.0994426616
C  C276  1  0.76443000  0.97457000  0.95544000  1.0 -0.1514363088
C  C277  1  0.53840000  0.48740000  0.17720000  1.0 -0.401412666
C  C278  1  0.65850000  0.46750000  0.16520000  1.0 -0.280934252
C  C279  1  0.68430000  0.58110000  0.20400000  1.0 0.2801293133
C  C280  1  0.79130000  0.76070000  0.18790000  1.0 -0.0994426616
N  N1  1  0.83326000  0.39794000  0.21621000  1.0 -0.2405642893
N  N2  1  0.54100000  0.15340000  0.95061000  1.0 -0.1902514064
N  N3  1  0.47310000  0.35890000  0.67850000  1.0 0.0493000707
N  N4  1  0.39794000  0.83326000  0.28379000  1.0 -0.2405642893
N  N5  1  0.15340000  0.54100000  0.54939000  1.0 -0.1902514064
N  N6  1  0.35890000  0.47310000  0.82150000  1.0 0.0493000707
N  N7  1  0.16674000  0.60206000  0.78379000  1.0 -0.2405642893
N  N8  1  0.45900000  0.84660000  0.04939000  1.0 -0.1902514064
N  N9  1  0.52690000  0.64110000  0.32150000  1.0 0.0493000707
N  N10  1  0.60206000  0.16674000  0.71621000  1.0 -0.2405642893
N  N11  1  0.84660000  0.45900000  0.45061000  1.0 -0.1902514064
N  N12  1  0.64110000  0.52690000  0.17850000  1.0 0.0493000707
O  O1  1  0.25458000  0.90448000  0.82208000  1.0 -0.5517297612
O  O2  1  0.23178000  0.02222000  0.79297000  1.0 -0.5413441635
O  O3  1  0.43095000  0.90665000  0.81609000  1.0 -0.5603937136
O  O4  1  0.50313000  0.00313000  0.76241000  1.0 -0.5603937136
O  O5  1  0.42291000  0.12773000  0.71143000  1.0 -0.5899279641
O  O6  1  0.32865000  0.99829000  0.72972000  1.0 -0.5413441635
O  O7  1  0.93647000  0.42637000  0.39094000  1.0 -0.5603937136
O  O8  1  0.88582000  0.37442000  0.32266000  1.0 -0.5603937136
O  O9  1  0.56444000  0.25194000  0.77616000  1.0 -0.5603937136
O  O10  1  0.55000000  0.23770000  0.85261000  1.0 -0.5738295244
O  O11  1  0.43809000  0.08951000  0.81318000  1.0 -0.8820651101
O  O12  1  0.98400000  0.61440000  0.40697000  1.0 -0.5413441635
O  O13  1  0.86088000  0.62476000  0.38245000  1.0 -0.5517297612
O  O14  1  0.20030000  0.15210000  0.73770000  1.0 -0.1079452058
O  O15  1  0.36370000  0.32990000  0.71480000  1.0 -0.3827657627
O  O16  1  0.33450000  0.20010000  0.79270000  1.0 -0.693537824
O  O17  1  0.90448000  0.25458000  0.67792000  1.0 -0.5517297612
O  O18  1  0.02222000  0.23178000  0.70703000  1.0 -0.5413441635
O  O19  1  0.90665000  0.43095000  0.68391000  1.0 -0.5603937136
O  O20  1  0.00313000  0.50313000  0.73759000  1.0 -0.5603937136
O  O21  1  0.12773000  0.42291000  0.78857000  1.0 -0.5899279641
O  O22  1  0.99829000  0.32865000  0.77028000  1.0 -0.5413441635
O  O23  1  0.42637000  0.93647000  0.10906000  1.0 -0.5603937136
O  O24  1  0.37442000  0.88582000  0.17734000  1.0 -0.5603937136
O  O25  1  0.25194000  0.56444000  0.72384000  1.0 -0.5603937136
O  O26  1  0.23770000  0.55000000  0.64739000  1.0 -0.5738295244
O  O27  1  0.08951000  0.43809000  0.68682000  1.0 -0.8820651101
O  O28  1  0.61440000  0.98400000  0.09303000  1.0 -0.5413441635
O  O29  1  0.62476000  0.86088000  0.11755000  1.0 -0.5517297612
O  O30  1  0.15210000  0.20030000  0.76230000  1.0 -0.1079452058
O  O31  1  0.32990000  0.36370000  0.78520000  1.0 -0.3827657627
O  O32  1  0.20010000  0.33450000  0.70730000  1.0 -0.693537824
O  O33  1  0.74542000  0.09552000  0.17792000  1.0 -0.5517297612
O  O34  1  0.76822000  0.97778000  0.20703000  1.0 -0.5413441635
O  O35  1  0.56905000  0.09335000  0.18391000  1.0 -0.5603937136
O  O36  1  0.49687000  0.99687000  0.23759000  1.0 -0.5603937136
O  O37  1  0.57709000  0.87227000  0.28857000  1.0 -0.5899279641
O  O38  1  0.67135000  0.00171000  0.27028000  1.0 -0.5413441635
O  O39  1  0.06353000  0.57363000  0.60906000  1.0 -0.5603937136
O  O40  1  0.11418000  0.62558000  0.67734000  1.0 -0.5603937136
O  O41  1  0.43556000  0.74806000  0.22384000  1.0 -0.5603937136
O  O42  1  0.45000000  0.76230000  0.14739000  1.0 -0.5738295244
O  O43  1  0.56191000  0.91049000  0.18682000  1.0 -0.8820651101
O  O44  1  0.01600000  0.38560000  0.59303000  1.0 -0.5413441635
O  O45  1  0.13912000  0.37524000  0.61755000  1.0 -0.5517297612
O  O46  1  0.79970000  0.84790000  0.26230000  1.0 -0.1079452058
O  O47  1  0.63630000  0.67010000  0.28520000  1.0 -0.3827657627
O  O48  1  0.66550000  0.79990000  0.20730000  1.0 -0.693537824
O  O49  1  0.09552000  0.74542000  0.32208000  1.0 -0.5517297612
O  O50  1  0.97778000  0.76822000  0.29297000  1.0 -0.5413441635
O  O51  1  0.09335000  0.56905000  0.31609000  1.0 -0.5603937136
O  O52  1  0.99687000  0.49687000  0.26241000  1.0 -0.5603937136
O  O53  1  0.87227000  0.57709000  0.21143000  1.0 -0.5899279641
O  O54  1  0.00171000  0.67135000  0.22972000  1.0 -0.5413441635
O  O55  1  0.57363000  0.06353000  0.89094000  1.0 -0.5603937136
O  O56  1  0.62558000  0.11418000  0.82266000  1.0 -0.5603937136
O  O57  1  0.74806000  0.43556000  0.27616000  1.0 -0.5603937136
O  O58  1  0.76230000  0.45000000  0.35261000  1.0 -0.5738295244
O  O59  1  0.91049000  0.56191000  0.31318000  1.0 -0.8820651101
O  O60  1  0.38560000  0.01600000  0.90697000  1.0 -0.5413441635
O  O61  1  0.37524000  0.13912000  0.88245000  1.0 -0.5517297612
O  O62  1  0.84790000  0.79970000  0.23770000  1.0 -0.1079452058
O  O63  1  0.67010000  0.63630000  0.21480000  1.0 -0.3827657627
O  O64  1  0.79990000  0.66550000  0.29270000  1.0 -0.693537824
