# DDEC6 charges by PACMAN v1.1 (https://github.com/mtap-research/PACMAN-charge/)
data_CIFJOU_ASR_pacman
_symmetry_space_group_name_H-M   'P 1'
_cell_length_a   16.44340000
_cell_length_b   16.44340000
_cell_length_c   29.87800000
_cell_angle_alpha   90.00000000
_cell_angle_beta   90.00000000
_cell_angle_gamma   90.00000000
_symmetry_Int_Tables_number   1
_chemical_formula_structural   Th5H34C40(NO6)6
_chemical_formula_sum   'Th20 H136 C160 N24 O144'
_cell_volume   8078.57508757
_cell_formula_units_Z   4
loop_
 _symmetry_equiv_pos_site_id
 _symmetry_equiv_pos_as_xyz
  1  'x, y, z'
loop_
 _atom_site_type_symbol
 _atom_site_label
 _atom_site_symmetry_multiplicity
 _atom_site_fract_x
 _atom_site_fract_y
 _atom_site_fract_z
 _atom_site_occupancy
 _atom_site_charge
Th  Th1  1  0.62063000  0.62063000  0.50000000  1.0 1.7209280455
Th  Th2  1  0.37937000  0.37937000  0.50000000  1.0 1.7209280455
Th  Th3  1  0.37937000  0.62063000  0.00000000  1.0 1.7209280455
Th  Th4  1  0.62063000  0.37937000  0.00000000  1.0 1.7209280455
Th  Th5  1  0.57453000  0.42547000  0.57365000  1.0 0.80208871
Th  Th6  1  0.42547000  0.57453000  0.57365000  1.0 0.80208871
Th  Th7  1  0.57453000  0.57453000  0.07365000  1.0 0.80208871
Th  Th8  1  0.42547000  0.42547000  0.07365000  1.0 0.80208871
Th  Th9  1  0.42547000  0.42547000  0.92635000  1.0 0.80208871
Th  Th10  1  0.57453000  0.57453000  0.92635000  1.0 0.80208871
Th  Th11  1  0.42547000  0.57453000  0.42635000  1.0 0.80208871
Th  Th12  1  0.57453000  0.42547000  0.42635000  1.0 0.80208871
Th  Th13  1  0.59496000  0.40504000  0.56002000  1.0 0.7597704255
Th  Th14  1  0.40504000  0.59496000  0.56002000  1.0 0.7597704255
Th  Th15  1  0.59496000  0.59496000  0.06002000  1.0 0.7597704255
Th  Th16  1  0.40504000  0.40504000  0.06002000  1.0 0.7597704255
Th  Th17  1  0.40504000  0.40504000  0.93998000  1.0 0.7597704255
Th  Th18  1  0.59496000  0.59496000  0.93998000  1.0 0.7597704255
Th  Th19  1  0.40504000  0.59496000  0.43998000  1.0 0.7597704255
Th  Th20  1  0.59496000  0.40504000  0.43998000  1.0 0.7597704255
H  H1  1  0.00000000  0.55770000  0.75000000  1.0 0.2385230386
H  H2  1  0.00000000  0.44230000  0.75000000  1.0 0.2385230386
H  H3  1  0.44230000  0.00000000  0.25000000  1.0 0.2385230386
H  H4  1  0.55770000  0.00000000  0.25000000  1.0 0.2385230386
H  H5  1  0.00000000  0.44230000  0.25000000  1.0 0.2385230386
H  H6  1  0.00000000  0.55770000  0.25000000  1.0 0.2385230386
H  H7  1  0.55770000  0.00000000  0.75000000  1.0 0.2385230386
H  H8  1  0.44230000  0.00000000  0.75000000  1.0 0.2385230386
H  H9  1  0.91090000  0.51310000  0.70440000  1.0 0.0588865243
H  H10  1  0.08910000  0.48690000  0.70440000  1.0 0.0588865243
H  H11  1  0.48690000  0.91090000  0.20440000  1.0 0.0588865243
H  H12  1  0.51310000  0.08910000  0.20440000  1.0 0.0588865243
H  H13  1  0.08910000  0.51310000  0.79560000  1.0 0.0588865243
H  H14  1  0.91090000  0.48690000  0.79560000  1.0 0.0588865243
H  H15  1  0.51310000  0.91090000  0.29560000  1.0 0.0588865243
H  H16  1  0.48690000  0.08910000  0.29560000  1.0 0.0588865243
H  H17  1  0.08910000  0.48690000  0.29560000  1.0 0.0588865243
H  H18  1  0.91090000  0.51310000  0.29560000  1.0 0.0588865243
H  H19  1  0.51310000  0.08910000  0.79560000  1.0 0.0588865243
H  H20  1  0.48690000  0.91090000  0.79560000  1.0 0.0588865243
H  H21  1  0.91090000  0.48690000  0.20440000  1.0 0.0588865243
H  H22  1  0.08910000  0.51310000  0.20440000  1.0 0.0588865243
H  H23  1  0.48690000  0.08910000  0.70440000  1.0 0.0588865243
H  H24  1  0.51310000  0.91090000  0.70440000  1.0 0.0588865243
H  H25  1  0.81830000  0.46880000  0.65030000  1.0 0.107782031
H  H26  1  0.18170000  0.53120000  0.65030000  1.0 0.107782031
H  H27  1  0.53120000  0.81830000  0.15030000  1.0 0.107782031
H  H28  1  0.46880000  0.18170000  0.15030000  1.0 0.107782031
H  H29  1  0.18170000  0.46880000  0.84970000  1.0 0.107782031
H  H30  1  0.81830000  0.53120000  0.84970000  1.0 0.107782031
H  H31  1  0.46880000  0.81830000  0.34970000  1.0 0.107782031
H  H32  1  0.53120000  0.18170000  0.34970000  1.0 0.107782031
H  H33  1  0.18170000  0.53120000  0.34970000  1.0 0.107782031
H  H34  1  0.81830000  0.46880000  0.34970000  1.0 0.107782031
H  H35  1  0.46880000  0.18170000  0.84970000  1.0 0.107782031
H  H36  1  0.53120000  0.81830000  0.84970000  1.0 0.107782031
H  H37  1  0.81830000  0.53120000  0.15030000  1.0 0.107782031
H  H38  1  0.18170000  0.46880000  0.15030000  1.0 0.107782031
H  H39  1  0.53120000  0.18170000  0.65030000  1.0 0.107782031
H  H40  1  0.46880000  0.81830000  0.65030000  1.0 0.107782031
H  H41  1  0.89420000  0.74230000  0.65400000  1.0 0.0882203983
H  H42  1  0.10580000  0.25770000  0.65400000  1.0 0.0882203983
H  H43  1  0.25770000  0.89420000  0.15400000  1.0 0.0882203983
H  H44  1  0.74230000  0.10580000  0.15400000  1.0 0.0882203983
H  H45  1  0.10580000  0.74230000  0.84600000  1.0 0.0882203983
H  H46  1  0.89420000  0.25770000  0.84600000  1.0 0.0882203983
H  H47  1  0.74230000  0.89420000  0.34600000  1.0 0.0882203983
H  H48  1  0.25770000  0.10580000  0.34600000  1.0 0.0882203983
H  H49  1  0.10580000  0.25770000  0.34600000  1.0 0.0882203983
H  H50  1  0.89420000  0.74230000  0.34600000  1.0 0.0882203983
H  H51  1  0.74230000  0.10580000  0.84600000  1.0 0.0882203983
H  H52  1  0.25770000  0.89420000  0.84600000  1.0 0.0882203983
H  H53  1  0.89420000  0.25770000  0.15400000  1.0 0.0882203983
H  H54  1  0.10580000  0.74230000  0.15400000  1.0 0.0882203983
H  H55  1  0.25770000  0.10580000  0.65400000  1.0 0.0882203983
H  H56  1  0.74230000  0.89420000  0.65400000  1.0 0.0882203983
H  H57  1  0.80490000  0.69410000  0.60000000  1.0 0.0882203983
H  H58  1  0.19510000  0.30590000  0.60000000  1.0 0.0882203983
H  H59  1  0.30590000  0.80490000  0.10000000  1.0 0.0882203983
H  H60  1  0.69410000  0.19510000  0.10000000  1.0 0.0882203983
H  H61  1  0.19510000  0.69410000  0.90000000  1.0 0.0882203983
H  H62  1  0.80490000  0.30590000  0.90000000  1.0 0.0882203983
H  H63  1  0.69410000  0.80490000  0.40000000  1.0 0.0882203983
H  H64  1  0.30590000  0.19510000  0.40000000  1.0 0.0882203983
H  H65  1  0.19510000  0.30590000  0.40000000  1.0 0.0882203983
H  H66  1  0.80490000  0.69410000  0.40000000  1.0 0.0882203983
H  H67  1  0.69410000  0.19510000  0.90000000  1.0 0.0882203983
H  H68  1  0.30590000  0.80490000  0.90000000  1.0 0.0882203983
H  H69  1  0.80490000  0.30590000  0.10000000  1.0 0.0882203983
H  H70  1  0.19510000  0.69410000  0.10000000  1.0 0.0882203983
H  H71  1  0.30590000  0.19510000  0.60000000  1.0 0.0882203983
H  H72  1  0.69410000  0.80490000  0.60000000  1.0 0.0882203983
H  H73  1  0.62670000  0.37330000  0.67450000  1.0 0.1708509163
H  H74  1  0.37330000  0.62670000  0.67450000  1.0 0.1708509163
H  H75  1  0.62670000  0.62670000  0.17450000  1.0 0.1708509163
H  H76  1  0.37330000  0.37330000  0.17450000  1.0 0.1708509163
H  H77  1  0.37330000  0.37330000  0.82550000  1.0 0.1708509163
H  H78  1  0.62670000  0.62670000  0.82550000  1.0 0.1708509163
H  H79  1  0.37330000  0.62670000  0.32550000  1.0 0.1708509163
H  H80  1  0.62670000  0.37330000  0.32550000  1.0 0.1708509163
H  H81  1  0.67505000  0.32495000  0.64800000  1.0 0.2283746251
H  H82  1  0.32495000  0.67505000  0.64800000  1.0 0.2283746251
H  H83  1  0.67505000  0.67505000  0.14800000  1.0 0.2283746251
H  H84  1  0.32495000  0.32495000  0.14800000  1.0 0.2283746251
H  H85  1  0.32495000  0.32495000  0.85200000  1.0 0.2283746251
H  H86  1  0.67505000  0.67505000  0.85200000  1.0 0.2283746251
H  H87  1  0.32495000  0.67505000  0.35200000  1.0 0.2283746251
H  H88  1  0.67505000  0.32495000  0.35200000  1.0 0.2283746251
H  H89  1  0.68590000  0.31410000  0.64180000  1.0 0.2190980127
H  H90  1  0.31410000  0.68590000  0.64180000  1.0 0.2190980127
H  H91  1  0.68590000  0.68590000  0.14180000  1.0 0.2190980127
H  H92  1  0.31410000  0.31410000  0.14180000  1.0 0.2190980127
H  H93  1  0.31410000  0.31410000  0.85820000  1.0 0.2190980127
H  H94  1  0.68590000  0.68590000  0.85820000  1.0 0.2190980127
H  H95  1  0.31410000  0.68590000  0.35820000  1.0 0.2190980127
H  H96  1  0.68590000  0.31410000  0.35820000  1.0 0.2190980127
H  H97  1  0.72130000  0.27870000  0.60490000  1.0 0.1580591747
H  H98  1  0.27870000  0.72130000  0.60490000  1.0 0.1580591747
H  H99  1  0.72130000  0.72130000  0.10490000  1.0 0.1580591747
H  H100  1  0.27870000  0.27870000  0.10490000  1.0 0.1580591747
H  H101  1  0.27870000  0.27870000  0.89510000  1.0 0.1580591747
H  H102  1  0.72130000  0.72130000  0.89510000  1.0 0.1580591747
H  H103  1  0.27870000  0.72130000  0.39510000  1.0 0.1580591747
H  H104  1  0.72130000  0.27870000  0.39510000  1.0 0.1580591747
H  H105  1  0.76210000  0.28940000  0.52230000  1.0 0.0882203983
H  H106  1  0.23790000  0.71060000  0.52230000  1.0 0.0846679905
H  H107  1  0.71060000  0.76210000  0.02230000  1.0 0.0882203983
H  H108  1  0.28940000  0.23790000  0.02230000  1.0 0.0882203983
H  H109  1  0.23790000  0.28940000  0.97770000  1.0 0.0882203983
H  H110  1  0.76210000  0.71060000  0.97770000  1.0 0.0882203983
H  H111  1  0.28940000  0.76210000  0.47770000  1.0 0.0846679905
H  H112  1  0.71060000  0.23790000  0.47770000  1.0 0.0882203983
H  H113  1  0.23790000  0.71060000  0.47770000  1.0 0.0846679905
H  H114  1  0.76210000  0.28940000  0.47770000  1.0 0.0882203983
H  H115  1  0.28940000  0.23790000  0.97770000  1.0 0.0882203983
H  H116  1  0.71060000  0.76210000  0.97770000  1.0 0.0882203983
H  H117  1  0.76210000  0.71060000  0.02230000  1.0 0.0882203983
H  H118  1  0.23790000  0.28940000  0.02230000  1.0 0.0882203983
H  H119  1  0.71060000  0.23790000  0.52230000  1.0 0.0882203983
H  H120  1  0.28940000  0.76210000  0.52230000  1.0 0.0846679905
H  H121  1  0.56840000  0.52230000  0.67380000  1.0 0.1333132112
H  H122  1  0.43160000  0.47770000  0.67380000  1.0 0.1333132112
H  H123  1  0.47770000  0.56840000  0.17380000  1.0 0.1333132112
H  H124  1  0.52230000  0.43160000  0.17380000  1.0 0.1333132112
H  H125  1  0.43160000  0.52230000  0.82620000  1.0 0.1333132112
H  H126  1  0.56840000  0.47770000  0.82620000  1.0 0.1333132112
H  H127  1  0.52230000  0.56840000  0.32620000  1.0 0.1333132112
H  H128  1  0.47770000  0.43160000  0.32620000  1.0 0.1333132112
H  H129  1  0.43160000  0.47770000  0.32620000  1.0 0.1333132112
H  H130  1  0.56840000  0.52230000  0.32620000  1.0 0.1333132112
H  H131  1  0.52230000  0.43160000  0.82620000  1.0 0.1333132112
H  H132  1  0.47770000  0.56840000  0.82620000  1.0 0.1333132112
H  H133  1  0.56840000  0.47770000  0.17380000  1.0 0.1333132112
H  H134  1  0.43160000  0.52230000  0.17380000  1.0 0.1333132112
H  H135  1  0.47770000  0.43160000  0.67380000  1.0 0.1333132112
H  H136  1  0.52230000  0.56840000  0.67380000  1.0 0.1333132112
C  C1  1  0.74390000  0.55040000  0.58590000  1.0 0.4541984466
C  C2  1  0.25610000  0.44960000  0.58590000  1.0 0.4541984466
C  C3  1  0.44960000  0.74390000  0.08590000  1.0 0.4541984466
C  C4  1  0.55040000  0.25610000  0.08590000  1.0 0.4541984466
C  C5  1  0.25610000  0.55040000  0.91410000  1.0 0.4541984466
C  C6  1  0.74390000  0.44960000  0.91410000  1.0 0.4541984466
C  C7  1  0.55040000  0.74390000  0.41410000  1.0 0.4541984466
C  C8  1  0.44960000  0.25610000  0.41410000  1.0 0.4541984466
C  C9  1  0.25610000  0.44960000  0.41410000  1.0 0.4541984466
C  C10  1  0.74390000  0.55040000  0.41410000  1.0 0.4541984466
C  C11  1  0.55040000  0.25610000  0.91410000  1.0 0.4541984466
C  C12  1  0.44960000  0.74390000  0.91410000  1.0 0.4541984466
C  C13  1  0.74390000  0.44960000  0.08590000  1.0 0.4541984466
C  C14  1  0.25610000  0.55040000  0.08590000  1.0 0.4541984466
C  C15  1  0.44960000  0.25610000  0.58590000  1.0 0.4541984466
C  C16  1  0.55040000  0.74390000  0.58590000  1.0 0.4541984466
C  C17  1  0.88750000  0.55080000  0.68400000  1.0 -0.1919433991
C  C18  1  0.11250000  0.44920000  0.68400000  1.0 -0.1919433991
C  C19  1  0.44920000  0.88750000  0.18400000  1.0 -0.1919433991
C  C20  1  0.55080000  0.11250000  0.18400000  1.0 -0.1919433991
C  C21  1  0.11250000  0.55080000  0.81600000  1.0 -0.1919433991
C  C22  1  0.88750000  0.44920000  0.81600000  1.0 -0.1919433991
C  C23  1  0.55080000  0.88750000  0.31600000  1.0 -0.1919433991
C  C24  1  0.44920000  0.11250000  0.31600000  1.0 -0.1919433991
C  C25  1  0.11250000  0.44920000  0.31600000  1.0 -0.1919433991
C  C26  1  0.88750000  0.55080000  0.31600000  1.0 -0.1919433991
C  C27  1  0.55080000  0.11250000  0.81600000  1.0 -0.1919433991
C  C28  1  0.44920000  0.88750000  0.81600000  1.0 -0.1919433991
C  C29  1  0.88750000  0.44920000  0.18400000  1.0 -0.1919433991
C  C30  1  0.11250000  0.55080000  0.18400000  1.0 -0.1919433991
C  C31  1  0.44920000  0.11250000  0.68400000  1.0 -0.1919433991
C  C32  1  0.55080000  0.88750000  0.68400000  1.0 -0.1919433991
C  C33  1  0.83390000  0.52440000  0.65120000  1.0 -0.1454638294
C  C34  1  0.16610000  0.47560000  0.65120000  1.0 -0.1454638294
C  C35  1  0.47560000  0.83390000  0.15120000  1.0 -0.1454638294
C  C36  1  0.52440000  0.16610000  0.15120000  1.0 -0.1454638294
C  C37  1  0.16610000  0.52440000  0.84880000  1.0 -0.1449091039
C  C38  1  0.83390000  0.47560000  0.84880000  1.0 -0.1454638294
C  C39  1  0.52440000  0.83390000  0.34880000  1.0 -0.1454638294
C  C40  1  0.47560000  0.16610000  0.34880000  1.0 -0.1454638294
C  C41  1  0.16610000  0.47560000  0.34880000  1.0 -0.1454638294
C  C42  1  0.83390000  0.52440000  0.34880000  1.0 -0.1454638294
C  C43  1  0.52440000  0.16610000  0.84880000  1.0 -0.1454638294
C  C44  1  0.47560000  0.83390000  0.84880000  1.0 -0.1449091039
C  C45  1  0.83390000  0.47560000  0.15120000  1.0 -0.1454638294
C  C46  1  0.16610000  0.52440000  0.15120000  1.0 -0.1454638294
C  C47  1  0.47560000  0.16610000  0.65120000  1.0 -0.1454638294
C  C48  1  0.52440000  0.83390000  0.65120000  1.0 -0.1449091039
C  C49  1  0.80300000  0.57730000  0.62000000  1.0 -0.0199476574
C  C50  1  0.19700000  0.42270000  0.62000000  1.0 -0.0199476574
C  C51  1  0.42270000  0.80300000  0.12000000  1.0 -0.0199476574
C  C52  1  0.57730000  0.19700000  0.12000000  1.0 -0.0199476574
C  C53  1  0.19700000  0.57730000  0.88000000  1.0 -0.0199476574
C  C54  1  0.80300000  0.42270000  0.88000000  1.0 -0.0199476574
C  C55  1  0.57730000  0.80300000  0.38000000  1.0 -0.0199476574
C  C56  1  0.42270000  0.19700000  0.38000000  1.0 -0.0199476574
C  C57  1  0.19700000  0.42270000  0.38000000  1.0 -0.0199476574
C  C58  1  0.80300000  0.57730000  0.38000000  1.0 -0.0199476574
C  C59  1  0.57730000  0.19700000  0.88000000  1.0 -0.0199476574
C  C60  1  0.42270000  0.80300000  0.88000000  1.0 -0.0199476574
C  C61  1  0.80300000  0.42270000  0.12000000  1.0 -0.0199476574
C  C62  1  0.19700000  0.57730000  0.12000000  1.0 -0.0199476574
C  C63  1  0.42270000  0.19700000  0.62000000  1.0 -0.0199476574
C  C64  1  0.57730000  0.80300000  0.62000000  1.0 -0.0199476574
C  C65  1  0.90660000  0.63290000  0.68680000  1.0 -0.010177311
C  C66  1  0.09340000  0.36710000  0.68680000  1.0 -0.010177311
C  C67  1  0.36710000  0.90660000  0.18680000  1.0 -0.010177311
C  C68  1  0.63290000  0.09340000  0.18680000  1.0 -0.010177311
C  C69  1  0.09340000  0.63290000  0.81320000  1.0 -0.010177311
C  C70  1  0.90660000  0.36710000  0.81320000  1.0 -0.010177311
C  C71  1  0.63290000  0.90660000  0.31320000  1.0 -0.010177311
C  C72  1  0.36710000  0.09340000  0.31320000  1.0 -0.010177311
C  C73  1  0.09340000  0.36710000  0.31320000  1.0 -0.010177311
C  C74  1  0.90660000  0.63290000  0.31320000  1.0 -0.010177311
C  C75  1  0.63290000  0.09340000  0.81320000  1.0 -0.010177311
C  C76  1  0.36710000  0.90660000  0.81320000  1.0 -0.010177311
C  C77  1  0.90660000  0.36710000  0.18680000  1.0 -0.010177311
C  C78  1  0.09340000  0.63290000  0.18680000  1.0 -0.010177311
C  C79  1  0.36710000  0.09340000  0.68680000  1.0 -0.010177311
C  C80  1  0.63290000  0.90660000  0.68680000  1.0 -0.010177311
C  C81  1  0.96110000  0.66040000  0.72240000  1.0 0.2190980127
C  C82  1  0.03890000  0.33960000  0.72240000  1.0 0.2190980127
C  C83  1  0.33960000  0.96110000  0.22240000  1.0 0.2190980127
C  C84  1  0.66040000  0.03890000  0.22240000  1.0 0.2190980127
C  C85  1  0.03890000  0.66040000  0.77760000  1.0 0.2190980127
C  C86  1  0.96110000  0.33960000  0.77760000  1.0 0.2190980127
C  C87  1  0.66040000  0.96110000  0.27760000  1.0 0.2190980127
C  C88  1  0.33960000  0.03890000  0.27760000  1.0 0.2190980127
C  C89  1  0.03890000  0.33960000  0.27760000  1.0 0.2190980127
C  C90  1  0.96110000  0.66040000  0.27760000  1.0 0.2190980127
C  C91  1  0.66040000  0.03890000  0.77760000  1.0 0.2190980127
C  C92  1  0.33960000  0.96110000  0.77760000  1.0 0.2190980127
C  C93  1  0.96110000  0.33960000  0.22240000  1.0 0.2190980127
C  C94  1  0.03890000  0.66040000  0.22240000  1.0 0.2190980127
C  C95  1  0.33960000  0.03890000  0.72240000  1.0 0.2190980127
C  C96  1  0.66040000  0.96110000  0.72240000  1.0 0.2190980127
C  C97  1  0.87790000  0.68680000  0.65400000  1.0 -0.169527275
C  C98  1  0.12210000  0.31320000  0.65400000  1.0 -0.169527275
C  C99  1  0.31320000  0.87790000  0.15400000  1.0 -0.169527275
C  C100  1  0.68680000  0.12210000  0.15400000  1.0 -0.169527275
C  C101  1  0.12210000  0.68680000  0.84600000  1.0 -0.169527275
C  C102  1  0.87790000  0.31320000  0.84600000  1.0 -0.169527275
C  C103  1  0.68680000  0.87790000  0.34600000  1.0 -0.169527275
C  C104  1  0.31320000  0.12210000  0.34600000  1.0 -0.169527275
C  C105  1  0.12210000  0.31320000  0.34600000  1.0 -0.169527275
C  C106  1  0.87790000  0.68680000  0.34600000  1.0 -0.169527275
C  C107  1  0.68680000  0.12210000  0.84600000  1.0 -0.169527275
C  C108  1  0.31320000  0.87790000  0.84600000  1.0 -0.169527275
C  C109  1  0.87790000  0.31320000  0.15400000  1.0 -0.169527275
C  C110  1  0.12210000  0.68680000  0.15400000  1.0 -0.169527275
C  C111  1  0.31320000  0.12210000  0.65400000  1.0 -0.169527275
C  C112  1  0.68680000  0.87790000  0.65400000  1.0 -0.169527275
C  C113  1  0.82580000  0.65760000  0.62180000  1.0 -0.1280758311
C  C114  1  0.17420000  0.34240000  0.62180000  1.0 -0.1280758311
C  C115  1  0.34240000  0.82580000  0.12180000  1.0 -0.1280758311
C  C116  1  0.65760000  0.17420000  0.12180000  1.0 -0.1280758311
C  C117  1  0.17420000  0.65760000  0.87820000  1.0 -0.1280758311
C  C118  1  0.82580000  0.34240000  0.87820000  1.0 -0.1280758311
C  C119  1  0.65760000  0.82580000  0.37820000  1.0 -0.1280758311
C  C120  1  0.34240000  0.17420000  0.37820000  1.0 -0.1280758311
C  C121  1  0.17420000  0.34240000  0.37820000  1.0 -0.1280758311
C  C122  1  0.82580000  0.65760000  0.37820000  1.0 -0.1280758311
C  C123  1  0.65760000  0.17420000  0.87820000  1.0 -0.1280758311
C  C124  1  0.34240000  0.82580000  0.87820000  1.0 -0.1280758311
C  C125  1  0.82580000  0.34240000  0.12180000  1.0 -0.1280758311
C  C126  1  0.17420000  0.65760000  0.12180000  1.0 -0.1280758311
C  C127  1  0.34240000  0.17420000  0.62180000  1.0 -0.1280758311
C  C128  1  0.65760000  0.82580000  0.62180000  1.0 -0.1280758311
C  C129  1  0.70800000  0.30700000  0.51660000  1.0 -0.0028719134
C  C130  1  0.29200000  0.69300000  0.51660000  1.0 -0.010177311
C  C131  1  0.69300000  0.70800000  0.01660000  1.0 -0.0028719134
C  C132  1  0.30700000  0.29200000  0.01660000  1.0 -0.0028719134
C  C133  1  0.29200000  0.30700000  0.98340000  1.0 -0.010177311
C  C134  1  0.70800000  0.69300000  0.98340000  1.0 -0.010177311
C  C135  1  0.30700000  0.70800000  0.48340000  1.0 -0.010177311
C  C136  1  0.69300000  0.29200000  0.48340000  1.0 -0.0028719134
C  C137  1  0.29200000  0.69300000  0.48340000  1.0 -0.010177311
C  C138  1  0.70800000  0.30700000  0.48340000  1.0 -0.0028719134
C  C139  1  0.30700000  0.29200000  0.98340000  1.0 -0.010177311
C  C140  1  0.69300000  0.70800000  0.98340000  1.0 -0.010177311
C  C141  1  0.70800000  0.69300000  0.01660000  1.0 -0.0028719134
C  C142  1  0.29200000  0.30700000  0.01660000  1.0 -0.0028719134
C  C143  1  0.69300000  0.29200000  0.51660000  1.0 -0.0028719134
C  C144  1  0.30700000  0.70800000  0.51660000  1.0 -0.010177311
C  C145  1  0.53770000  0.49090000  0.65310000  1.0 -0.0028719134
C  C146  1  0.46230000  0.50910000  0.65310000  1.0 -0.0028719134
C  C147  1  0.50910000  0.53770000  0.15310000  1.0 -0.0028719134
C  C148  1  0.49090000  0.46230000  0.15310000  1.0 -0.0028719134
C  C149  1  0.46230000  0.49090000  0.84690000  1.0 -0.0028719134
C  C150  1  0.53770000  0.50910000  0.84690000  1.0 -0.0028719134
C  C151  1  0.49090000  0.53770000  0.34690000  1.0 -0.0028719134
C  C152  1  0.50910000  0.46230000  0.34690000  1.0 -0.0028719134
C  C153  1  0.46230000  0.50910000  0.34690000  1.0 -0.0028719134
C  C154  1  0.53770000  0.49090000  0.34690000  1.0 -0.0028719134
C  C155  1  0.49090000  0.46230000  0.84690000  1.0 -0.0028719134
C  C156  1  0.50910000  0.53770000  0.84690000  1.0 -0.0028719134
C  C157  1  0.53770000  0.50910000  0.15310000  1.0 -0.0028719134
C  C158  1  0.46230000  0.49090000  0.15310000  1.0 -0.0028719134
C  C159  1  0.50910000  0.46230000  0.65310000  1.0 -0.0028719134
C  C160  1  0.49090000  0.53770000  0.65310000  1.0 -0.0028719134
N  N1  1  0.00000000  0.61120000  0.75000000  1.0 -0.3354860521
N  N2  1  0.00000000  0.38880000  0.75000000  1.0 -0.3354860521
N  N3  1  0.38880000  0.00000000  0.25000000  1.0 -0.3354860521
N  N4  1  0.61120000  0.00000000  0.25000000  1.0 -0.3354860521
N  N5  1  0.00000000  0.38880000  0.25000000  1.0 -0.3354860521
N  N6  1  0.00000000  0.61120000  0.25000000  1.0 -0.3354860521
N  N7  1  0.61120000  0.00000000  0.75000000  1.0 -0.3354860521
N  N8  1  0.38880000  0.00000000  0.75000000  1.0 -0.3354860521
N  N9  1  0.97590000  0.73950000  0.73150000  1.0 -0.2515506162
N  N10  1  0.02410000  0.26050000  0.73150000  1.0 -0.2515506162
N  N11  1  0.26050000  0.97590000  0.23150000  1.0 -0.2515506162
N  N12  1  0.73950000  0.02410000  0.23150000  1.0 -0.2515506162
N  N13  1  0.02410000  0.73950000  0.76850000  1.0 -0.2515506162
N  N14  1  0.97590000  0.26050000  0.76850000  1.0 -0.2515506162
N  N15  1  0.73950000  0.97590000  0.26850000  1.0 -0.2515506162
N  N16  1  0.26050000  0.02410000  0.26850000  1.0 -0.2515506162
N  N17  1  0.02410000  0.26050000  0.26850000  1.0 -0.2515506162
N  N18  1  0.97590000  0.73950000  0.26850000  1.0 -0.2515506162
N  N19  1  0.73950000  0.02410000  0.76850000  1.0 -0.2515506162
N  N20  1  0.26050000  0.97590000  0.76850000  1.0 -0.2515506162
N  N21  1  0.97590000  0.26050000  0.23150000  1.0 -0.2515506162
N  N22  1  0.02410000  0.73950000  0.23150000  1.0 -0.2515506162
N  N23  1  0.26050000  0.02410000  0.73150000  1.0 -0.2515506162
N  N24  1  0.73950000  0.97590000  0.73150000  1.0 -0.2515506162
O  O1  1  0.62220000  0.47720000  0.50000000  1.0 -0.3973890036
O  O2  1  0.37780000  0.52280000  0.50000000  1.0 -0.3973890036
O  O3  1  0.52280000  0.62220000  0.00000000  1.0 -0.3973890036
O  O4  1  0.47720000  0.37780000  0.00000000  1.0 -0.3973890036
O  O5  1  0.37780000  0.47720000  0.00000000  1.0 -0.3973890036
O  O6  1  0.62220000  0.52280000  0.00000000  1.0 -0.3973890036
O  O7  1  0.47720000  0.62220000  0.50000000  1.0 -0.3973890036
O  O8  1  0.52280000  0.37780000  0.50000000  1.0 -0.3973890036
O  O9  1  0.73060000  0.59590000  0.55260000  1.0 -0.536429185
O  O10  1  0.26940000  0.40410000  0.55260000  1.0 -0.536429185
O  O11  1  0.40410000  0.73060000  0.05260000  1.0 -0.536429185
O  O12  1  0.59590000  0.26940000  0.05260000  1.0 -0.536429185
O  O13  1  0.26940000  0.59590000  0.94740000  1.0 -0.536429185
O  O14  1  0.73060000  0.40410000  0.94740000  1.0 -0.536429185
O  O15  1  0.59590000  0.73060000  0.44740000  1.0 -0.536429185
O  O16  1  0.40410000  0.26940000  0.44740000  1.0 -0.536429185
O  O17  1  0.26940000  0.40410000  0.44740000  1.0 -0.536429185
O  O18  1  0.73060000  0.59590000  0.44740000  1.0 -0.536429185
O  O19  1  0.59590000  0.26940000  0.94740000  1.0 -0.536429185
O  O20  1  0.40410000  0.73060000  0.94740000  1.0 -0.536429185
O  O21  1  0.73060000  0.40410000  0.05260000  1.0 -0.536429185
O  O22  1  0.26940000  0.59590000  0.05260000  1.0 -0.536429185
O  O23  1  0.40410000  0.26940000  0.55260000  1.0 -0.536429185
O  O24  1  0.59590000  0.73060000  0.55260000  1.0 -0.536429185
O  O25  1  0.71120000  0.48100000  0.59190000  1.0 -0.5475130356
O  O26  1  0.28880000  0.51900000  0.59190000  1.0 -0.5475130356
O  O27  1  0.51900000  0.71120000  0.09190000  1.0 -0.5475130356
O  O28  1  0.48100000  0.28880000  0.09190000  1.0 -0.5475130356
O  O29  1  0.28880000  0.48100000  0.90810000  1.0 -0.5475130356
O  O30  1  0.71120000  0.51900000  0.90810000  1.0 -0.5475130356
O  O31  1  0.48100000  0.71120000  0.40810000  1.0 -0.5475130356
O  O32  1  0.51900000  0.28880000  0.40810000  1.0 -0.5475130356
O  O33  1  0.28880000  0.51900000  0.40810000  1.0 -0.5475130356
O  O34  1  0.71120000  0.48100000  0.40810000  1.0 -0.5475130356
O  O35  1  0.48100000  0.28880000  0.90810000  1.0 -0.5475130356
O  O36  1  0.51900000  0.71120000  0.90810000  1.0 -0.5475130356
O  O37  1  0.71120000  0.51900000  0.09190000  1.0 -0.5475130356
O  O38  1  0.28880000  0.48100000  0.09190000  1.0 -0.5475130356
O  O39  1  0.51900000  0.28880000  0.59190000  1.0 -0.5475130356
O  O40  1  0.48100000  0.71120000  0.59190000  1.0 -0.5475130356
O  O41  1  0.63760000  0.36240000  0.64660000  1.0 -0.1559745571
O  O42  1  0.36240000  0.63760000  0.64660000  1.0 -0.1559745571
O  O43  1  0.63760000  0.63760000  0.14660000  1.0 -0.1559745571
O  O44  1  0.36240000  0.36240000  0.14660000  1.0 -0.1559745571
O  O45  1  0.36240000  0.36240000  0.85340000  1.0 -0.1559745571
O  O46  1  0.63760000  0.63760000  0.85340000  1.0 -0.1559745571
O  O47  1  0.36240000  0.63760000  0.35340000  1.0 -0.1559745571
O  O48  1  0.63760000  0.36240000  0.35340000  1.0 -0.1559745571
O  O49  1  0.57830000  0.43480000  0.64030000  1.0 -0.1139175347
O  O50  1  0.42170000  0.56520000  0.64030000  1.0 -0.1139175347
O  O51  1  0.56520000  0.57830000  0.14030000  1.0 -0.1139175347
O  O52  1  0.43480000  0.42170000  0.14030000  1.0 -0.1139175347
O  O53  1  0.42170000  0.43480000  0.85970000  1.0 -0.1139175347
O  O54  1  0.57830000  0.56520000  0.85970000  1.0 -0.1139175347
O  O55  1  0.43480000  0.57830000  0.35970000  1.0 -0.1139175347
O  O56  1  0.56520000  0.42170000  0.35970000  1.0 -0.1139175347
O  O57  1  0.42170000  0.56520000  0.35970000  1.0 -0.1139175347
O  O58  1  0.57830000  0.43480000  0.35970000  1.0 -0.1139175347
O  O59  1  0.43480000  0.42170000  0.85970000  1.0 -0.1139175347
O  O60  1  0.56520000  0.57830000  0.85970000  1.0 -0.1139175347
O  O61  1  0.57830000  0.56520000  0.14030000  1.0 -0.1139175347
O  O62  1  0.42170000  0.43480000  0.14030000  1.0 -0.1139175347
O  O63  1  0.56520000  0.42170000  0.64030000  1.0 -0.1139175347
O  O64  1  0.43480000  0.57830000  0.64030000  1.0 -0.1139175347
O  O65  1  0.56480000  0.56480000  0.57240000  1.0 -0.0365350825
O  O66  1  0.43520000  0.43520000  0.57240000  1.0 -0.0365350825
O  O67  1  0.43520000  0.56480000  0.07240000  1.0 -0.0365350825
O  O68  1  0.56480000  0.43520000  0.07240000  1.0 -0.0365350825
O  O69  1  0.43520000  0.56480000  0.92760000  1.0 -0.0365350825
O  O70  1  0.56480000  0.43520000  0.92760000  1.0 -0.0365350825
O  O71  1  0.56480000  0.56480000  0.42760000  1.0 -0.0365350825
O  O72  1  0.43520000  0.43520000  0.42760000  1.0 -0.0365350825
O  O73  1  0.67300000  0.31700000  0.55160000  1.0 -0.087317585
O  O74  1  0.32700000  0.68300000  0.55160000  1.0 -0.087317585
O  O75  1  0.68300000  0.67300000  0.05160000  1.0 -0.087317585
O  O76  1  0.31700000  0.32700000  0.05160000  1.0 -0.087317585
O  O77  1  0.32700000  0.31700000  0.94840000  1.0 -0.087317585
O  O78  1  0.67300000  0.68300000  0.94840000  1.0 -0.087317585
O  O79  1  0.31700000  0.67300000  0.44840000  1.0 -0.087317585
O  O80  1  0.68300000  0.32700000  0.44840000  1.0 -0.087317585
O  O81  1  0.32700000  0.68300000  0.44840000  1.0 -0.087317585
O  O82  1  0.67300000  0.31700000  0.44840000  1.0 -0.087317585
O  O83  1  0.31700000  0.32700000  0.94840000  1.0 -0.087317585
O  O84  1  0.68300000  0.67300000  0.94840000  1.0 -0.087317585
O  O85  1  0.67300000  0.68300000  0.05160000  1.0 -0.087317585
O  O86  1  0.32700000  0.31700000  0.05160000  1.0 -0.087317585
O  O87  1  0.68300000  0.32700000  0.55160000  1.0 -0.087317585
O  O88  1  0.31700000  0.67300000  0.55160000  1.0 -0.087317585
O  O89  1  0.47150000  0.52080000  0.64880000  1.0 0.0412561591
O  O90  1  0.52850000  0.47920000  0.64880000  1.0 0.0412561591
O  O91  1  0.47920000  0.47150000  0.14880000  1.0 0.0412561591
O  O92  1  0.52080000  0.52850000  0.14880000  1.0 0.0412561591
O  O93  1  0.52850000  0.52080000  0.85120000  1.0 0.0412561591
O  O94  1  0.47150000  0.47920000  0.85120000  1.0 0.0412561591
O  O95  1  0.52080000  0.47150000  0.35120000  1.0 0.0412561591
O  O96  1  0.47920000  0.52850000  0.35120000  1.0 0.0412561591
O  O97  1  0.52850000  0.47920000  0.35120000  1.0 0.0412561591
O  O98  1  0.47150000  0.52080000  0.35120000  1.0 0.0412561591
O  O99  1  0.52080000  0.52850000  0.85120000  1.0 0.0412561591
O  O100  1  0.47920000  0.47150000  0.85120000  1.0 0.0412561591
O  O101  1  0.47150000  0.47920000  0.14880000  1.0 0.0412561591
O  O102  1  0.52850000  0.52080000  0.14880000  1.0 0.0412561591
O  O103  1  0.47920000  0.52850000  0.64880000  1.0 0.0412561591
O  O104  1  0.52080000  0.47150000  0.64880000  1.0 0.0412561591
O  O105  1  0.55050000  0.55050000  0.55500000  1.0 -0.4065620876
O  O106  1  0.44950000  0.44950000  0.55500000  1.0 -0.4065620876
O  O107  1  0.44950000  0.55050000  0.05500000  1.0 -0.4065620876
O  O108  1  0.55050000  0.44950000  0.05500000  1.0 -0.4065620876
O  O109  1  0.44950000  0.55050000  0.94500000  1.0 -0.4065620876
O  O110  1  0.55050000  0.44950000  0.94500000  1.0 -0.4065620876
O  O111  1  0.55050000  0.55050000  0.44500000  1.0 -0.4065620876
O  O112  1  0.44950000  0.44950000  0.44500000  1.0 -0.4065620876
O  O113  1  0.66050000  0.47310000  0.50000000  1.0 0.0527862371
O  O114  1  0.33950000  0.52690000  0.50000000  1.0 0.0527862371
O  O115  1  0.52690000  0.66050000  0.00000000  1.0 0.0527862371
O  O116  1  0.47310000  0.33950000  0.00000000  1.0 0.0527862371
O  O117  1  0.33950000  0.47310000  0.00000000  1.0 0.0527862371
O  O118  1  0.66050000  0.52690000  0.00000000  1.0 0.0527862371
O  O119  1  0.47310000  0.66050000  0.50000000  1.0 0.0527862371
O  O120  1  0.52690000  0.33950000  0.50000000  1.0 0.0527862371
O  O121  1  0.68520000  0.31480000  0.61270000  1.0 -0.2866279609
O  O122  1  0.31480000  0.68520000  0.61270000  1.0 -0.2866279609
O  O123  1  0.68520000  0.68520000  0.11270000  1.0 -0.2866279609
O  O124  1  0.31480000  0.31480000  0.11270000  1.0 -0.2866279609
O  O125  1  0.31480000  0.31480000  0.88730000  1.0 -0.2866279609
O  O126  1  0.68520000  0.68520000  0.88730000  1.0 -0.2866279609
O  O127  1  0.31480000  0.68520000  0.38730000  1.0 -0.2866279609
O  O128  1  0.68520000  0.31480000  0.38730000  1.0 -0.2866279609
O  O129  1  0.68800000  0.30200000  0.52310000  1.0 -0.0028719134
O  O130  1  0.31200000  0.69800000  0.52310000  1.0 -0.0028719134
O  O131  1  0.69800000  0.68800000  0.02310000  1.0 -0.0028719134
O  O132  1  0.30200000  0.31200000  0.02310000  1.0 -0.0028719134
O  O133  1  0.31200000  0.30200000  0.97690000  1.0 -0.0028719134
O  O134  1  0.68800000  0.69800000  0.97690000  1.0 -0.0028719134
O  O135  1  0.30200000  0.68800000  0.47690000  1.0 -0.0028719134
O  O136  1  0.69800000  0.31200000  0.47690000  1.0 -0.0028719134
O  O137  1  0.31200000  0.69800000  0.47690000  1.0 -0.0028719134
O  O138  1  0.68800000  0.30200000  0.47690000  1.0 -0.0028719134
O  O139  1  0.30200000  0.31200000  0.97690000  1.0 -0.0028719134
O  O140  1  0.69800000  0.68800000  0.97690000  1.0 -0.0028719134
O  O141  1  0.68800000  0.69800000  0.02310000  1.0 -0.0028719134
O  O142  1  0.31200000  0.30200000  0.02310000  1.0 -0.0028719134
O  O143  1  0.69800000  0.31200000  0.52310000  1.0 -0.0028719134
O  O144  1  0.30200000  0.68800000  0.52310000  1.0 -0.0028719134
