# DDEC6 charges by PACMAN v1.1 (https://github.com/mtap-research/PACMAN-charge/)
data_CIFJUA_ASR_pacman
_symmetry_space_group_name_H-M   'P 1'
_cell_length_a   15.90610000
_cell_length_b   15.90610000
_cell_length_c   30.97900000
_cell_angle_alpha   90.00000000
_cell_angle_beta   90.00000000
_cell_angle_gamma   90.00000000
_symmetry_Int_Tables_number   1
_chemical_formula_structural   Th3H35C58(NO3)6
_chemical_formula_sum   'Th12 H140 C232 N24 O72'
_cell_volume   7837.81144915
_cell_formula_units_Z   4
loop_
 _symmetry_equiv_pos_site_id
 _symmetry_equiv_pos_as_xyz
  1  'x, y, z'
loop_
 _atom_site_type_symbol
 _atom_site_label
 _atom_site_symmetry_multiplicity
 _atom_site_fract_x
 _atom_site_fract_y
 _atom_site_fract_z
 _atom_site_occupancy
 _atom_site_charge
Th  Th1  1  0.41204000  0.58796000  0.56465000  1.0 1.8121020324
Th  Th2  1  0.58796000  0.41204000  0.56465000  1.0 1.8121020324
Th  Th3  1  0.41204000  0.41204000  0.06465000  1.0 1.8121020324
Th  Th4  1  0.58796000  0.58796000  0.06465000  1.0 1.8121020324
Th  Th5  1  0.58796000  0.58796000  0.93535000  1.0 1.8121020324
Th  Th6  1  0.41204000  0.41204000  0.93535000  1.0 1.8121020324
Th  Th7  1  0.58796000  0.41204000  0.43535000  1.0 1.8121020324
Th  Th8  1  0.41204000  0.58796000  0.43535000  1.0 1.8121020324
Th  Th9  1  0.62558000  0.62558000  0.50000000  1.0 2.1179198451
Th  Th10  1  0.37442000  0.37442000  0.50000000  1.0 2.1179198451
Th  Th11  1  0.37442000  0.62558000  0.00000000  1.0 2.1179198451
Th  Th12  1  0.62558000  0.37442000  0.00000000  1.0 2.1179198451
H  H1  1  0.56360000  0.00000000  0.75000000  1.0 0.2554769158
H  H2  1  0.43640000  0.00000000  0.75000000  1.0 0.2554769158
H  H3  1  0.00000000  0.56360000  0.25000000  1.0 0.2554769158
H  H4  1  0.00000000  0.43640000  0.25000000  1.0 0.2554769158
H  H5  1  0.43640000  0.00000000  0.25000000  1.0 0.2554769158
H  H6  1  0.56360000  0.00000000  0.25000000  1.0 0.2554769158
H  H7  1  0.00000000  0.43640000  0.75000000  1.0 0.2554769158
H  H8  1  0.00000000  0.56360000  0.75000000  1.0 0.2554769158
H  H9  1  0.70160000  0.82070000  0.59620000  1.0 0.1018057815
H  H10  1  0.29840000  0.17930000  0.59620000  1.0 0.1018057815
H  H11  1  0.17930000  0.70160000  0.09620000  1.0 0.1018057815
H  H12  1  0.82070000  0.29840000  0.09620000  1.0 0.1018057815
H  H13  1  0.29840000  0.82070000  0.90380000  1.0 0.1018057815
H  H14  1  0.70160000  0.17930000  0.90380000  1.0 0.1018057815
H  H15  1  0.82070000  0.70160000  0.40380000  1.0 0.1018057815
H  H16  1  0.17930000  0.29840000  0.40380000  1.0 0.1018057815
H  H17  1  0.29840000  0.17930000  0.40380000  1.0 0.1018057815
H  H18  1  0.70160000  0.82070000  0.40380000  1.0 0.1018057815
H  H19  1  0.82070000  0.29840000  0.90380000  1.0 0.1018057815
H  H20  1  0.17930000  0.70160000  0.90380000  1.0 0.1018057815
H  H21  1  0.70160000  0.17930000  0.09620000  1.0 0.1018057815
H  H22  1  0.29840000  0.82070000  0.09620000  1.0 0.1018057815
H  H23  1  0.17930000  0.29840000  0.59620000  1.0 0.1018057815
H  H24  1  0.82070000  0.70160000  0.59620000  1.0 0.1018057815
H  H25  1  0.75010000  0.90630000  0.65230000  1.0 0.0922426158
H  H26  1  0.24990000  0.09370000  0.65230000  1.0 0.0922426158
H  H27  1  0.09370000  0.75010000  0.15230000  1.0 0.0922426158
H  H28  1  0.90630000  0.24990000  0.15230000  1.0 0.0922426158
H  H29  1  0.24990000  0.90630000  0.84770000  1.0 0.0922426158
H  H30  1  0.75010000  0.09370000  0.84770000  1.0 0.0922426158
H  H31  1  0.90630000  0.75010000  0.34770000  1.0 0.0922426158
H  H32  1  0.09370000  0.24990000  0.34770000  1.0 0.0922426158
H  H33  1  0.24990000  0.09370000  0.34770000  1.0 0.0922426158
H  H34  1  0.75010000  0.90630000  0.34770000  1.0 0.0922426158
H  H35  1  0.90630000  0.24990000  0.84770000  1.0 0.0922426158
H  H36  1  0.09370000  0.75010000  0.84770000  1.0 0.0922426158
H  H37  1  0.75010000  0.09370000  0.15230000  1.0 0.0922426158
H  H38  1  0.24990000  0.90630000  0.15230000  1.0 0.0922426158
H  H39  1  0.09370000  0.24990000  0.65230000  1.0 0.0922426158
H  H40  1  0.90630000  0.75010000  0.65230000  1.0 0.0922426158
H  H41  1  0.51710000  0.90650000  0.70530000  1.0 0.0818757616
H  H42  1  0.48290000  0.09350000  0.70530000  1.0 0.0818757616
H  H43  1  0.09350000  0.51710000  0.20530000  1.0 0.0818757616
H  H44  1  0.90650000  0.48290000  0.20530000  1.0 0.0818757616
H  H45  1  0.48290000  0.90650000  0.79470000  1.0 0.0818757616
H  H46  1  0.51710000  0.09350000  0.79470000  1.0 0.0818757616
H  H47  1  0.90650000  0.51710000  0.29470000  1.0 0.0818757616
H  H48  1  0.09350000  0.48290000  0.29470000  1.0 0.0818757616
H  H49  1  0.48290000  0.09350000  0.29470000  1.0 0.0818757616
H  H50  1  0.51710000  0.90650000  0.29470000  1.0 0.0818757616
H  H51  1  0.90650000  0.48290000  0.79470000  1.0 0.0818757616
H  H52  1  0.09350000  0.51710000  0.79470000  1.0 0.0818757616
H  H53  1  0.51710000  0.09350000  0.20530000  1.0 0.0818757616
H  H54  1  0.48290000  0.90650000  0.20530000  1.0 0.0818757616
H  H55  1  0.09350000  0.48290000  0.70530000  1.0 0.0818757616
H  H56  1  0.90650000  0.51710000  0.70530000  1.0 0.0818757616
H  H57  1  0.46860000  0.82090000  0.64910000  1.0 0.147516974
H  H58  1  0.53140000  0.17910000  0.64910000  1.0 0.147516974
H  H59  1  0.17910000  0.46860000  0.14910000  1.0 0.147516974
H  H60  1  0.82090000  0.53140000  0.14910000  1.0 0.147516974
H  H61  1  0.53140000  0.82090000  0.85090000  1.0 0.147516974
H  H62  1  0.46860000  0.17910000  0.85090000  1.0 0.147516974
H  H63  1  0.82090000  0.46860000  0.35090000  1.0 0.147516974
H  H64  1  0.17910000  0.53140000  0.35090000  1.0 0.147516974
H  H65  1  0.53140000  0.17910000  0.35090000  1.0 0.147516974
H  H66  1  0.46860000  0.82090000  0.35090000  1.0 0.147516974
H  H67  1  0.82090000  0.53140000  0.85090000  1.0 0.147516974
H  H68  1  0.17910000  0.46860000  0.85090000  1.0 0.147516974
H  H69  1  0.46860000  0.17910000  0.14910000  1.0 0.147516974
H  H70  1  0.53140000  0.82090000  0.14910000  1.0 0.147516974
H  H71  1  0.17910000  0.53140000  0.64910000  1.0 0.147516974
H  H72  1  0.82090000  0.46860000  0.64910000  1.0 0.147516974
H  H73  1  0.24390000  0.75610000  0.50000000  1.0 0.147516974
H  H74  1  0.75610000  0.24390000  0.50000000  1.0 0.147516974
H  H75  1  0.24390000  0.24390000  0.00000000  1.0 0.147516974
H  H76  1  0.75610000  0.75610000  0.00000000  1.0 0.147516974
H  H77  1  0.61880000  0.48110000  0.71030000  1.0 0.0550543792
H  H78  1  0.38120000  0.51890000  0.71030000  1.0 0.0550543792
H  H79  1  0.51890000  0.61880000  0.21030000  1.0 0.0550543792
H  H80  1  0.48110000  0.38120000  0.21030000  1.0 0.0550543792
H  H81  1  0.38120000  0.48110000  0.78970000  1.0 0.0550543792
H  H82  1  0.61880000  0.51890000  0.78970000  1.0 0.0550543792
H  H83  1  0.48110000  0.61880000  0.28970000  1.0 0.0550543792
H  H84  1  0.51890000  0.38120000  0.28970000  1.0 0.0550543792
H  H85  1  0.38120000  0.51890000  0.28970000  1.0 0.0550543792
H  H86  1  0.61880000  0.48110000  0.28970000  1.0 0.0550543792
H  H87  1  0.48110000  0.38120000  0.78970000  1.0 0.0550543792
H  H88  1  0.51890000  0.61880000  0.78970000  1.0 0.0550543792
H  H89  1  0.61880000  0.51890000  0.21030000  1.0 0.0550543792
H  H90  1  0.38120000  0.48110000  0.21030000  1.0 0.0550543792
H  H91  1  0.51890000  0.38120000  0.71030000  1.0 0.0550543792
H  H92  1  0.48110000  0.61880000  0.71030000  1.0 0.0550543792
H  H93  1  0.60860000  0.48390000  0.78570000  1.0 0.0246847059
H  H94  1  0.39140000  0.51610000  0.78570000  1.0 0.0246847059
H  H95  1  0.51610000  0.60860000  0.28570000  1.0 0.0246847059
H  H96  1  0.48390000  0.39140000  0.28570000  1.0 0.0246847059
H  H97  1  0.39140000  0.48390000  0.71430000  1.0 0.0246847059
H  H98  1  0.60860000  0.51610000  0.71430000  1.0 0.0246847059
H  H99  1  0.48390000  0.60860000  0.21430000  1.0 0.0246847059
H  H100  1  0.51610000  0.39140000  0.21430000  1.0 0.0246847059
H  H101  1  0.39140000  0.51610000  0.21430000  1.0 0.0246847059
H  H102  1  0.60860000  0.48390000  0.21430000  1.0 0.0246847059
H  H103  1  0.48390000  0.39140000  0.71430000  1.0 0.0246847059
H  H104  1  0.51610000  0.60860000  0.71430000  1.0 0.0246847059
H  H105  1  0.60860000  0.51610000  0.28570000  1.0 0.0246847059
H  H106  1  0.39140000  0.48390000  0.28570000  1.0 0.0246847059
H  H107  1  0.51610000  0.39140000  0.78570000  1.0 0.0246847059
H  H108  1  0.48390000  0.60860000  0.78570000  1.0 0.0246847059
H  H109  1  0.35780000  0.52540000  0.77630000  1.0 0.0426396414
H  H110  1  0.64220000  0.47460000  0.77630000  1.0 0.0426396414
H  H111  1  0.47460000  0.35780000  0.27630000  1.0 0.0426396414
H  H112  1  0.52540000  0.64220000  0.27630000  1.0 0.0426396414
H  H113  1  0.64220000  0.52540000  0.72370000  1.0 0.0426396414
H  H114  1  0.35780000  0.47460000  0.72370000  1.0 0.0426396414
H  H115  1  0.52540000  0.35780000  0.22370000  1.0 0.0426396414
H  H116  1  0.47460000  0.64220000  0.22370000  1.0 0.0426396414
H  H117  1  0.64220000  0.47460000  0.22370000  1.0 0.0426396414
H  H118  1  0.35780000  0.52540000  0.22370000  1.0 0.0426396414
H  H119  1  0.52540000  0.64220000  0.72370000  1.0 0.0426396414
H  H120  1  0.47460000  0.35780000  0.72370000  1.0 0.0426396414
H  H121  1  0.35780000  0.47460000  0.27630000  1.0 0.0426396414
H  H122  1  0.64220000  0.52540000  0.27630000  1.0 0.0426396414
H  H123  1  0.47460000  0.64220000  0.77630000  1.0 0.0426396414
H  H124  1  0.52540000  0.35780000  0.77630000  1.0 0.0426396414
H  H125  1  0.36800000  0.52260000  0.70100000  1.0 0.0922426158
H  H126  1  0.63200000  0.47740000  0.70100000  1.0 0.0922426158
H  H127  1  0.47740000  0.36800000  0.20100000  1.0 0.0922426158
H  H128  1  0.52260000  0.63200000  0.20100000  1.0 0.0922426158
H  H129  1  0.63200000  0.52260000  0.79900000  1.0 0.0922426158
H  H130  1  0.36800000  0.47740000  0.79900000  1.0 0.0922426158
H  H131  1  0.52260000  0.36800000  0.29900000  1.0 0.0922426158
H  H132  1  0.47740000  0.63200000  0.29900000  1.0 0.0922426158
H  H133  1  0.63200000  0.47740000  0.29900000  1.0 0.0922426158
H  H134  1  0.36800000  0.52260000  0.29900000  1.0 0.0922426158
H  H135  1  0.52260000  0.63200000  0.79900000  1.0 0.0922426158
H  H136  1  0.47740000  0.36800000  0.79900000  1.0 0.0922426158
H  H137  1  0.36800000  0.47740000  0.20100000  1.0 0.0922426158
H  H138  1  0.63200000  0.52260000  0.20100000  1.0 0.0922426158
H  H139  1  0.47740000  0.63200000  0.70100000  1.0 0.0922426158
H  H140  1  0.52260000  0.36800000  0.70100000  1.0 0.0922426158
C  C1  1  0.58060000  0.81270000  0.61730000  1.0 0.0033200446
C  C2  1  0.41940000  0.18730000  0.61730000  1.0 0.0033200446
C  C3  1  0.18730000  0.58060000  0.11730000  1.0 0.0033200446
C  C4  1  0.81270000  0.41940000  0.11730000  1.0 0.0033200446
C  C5  1  0.41940000  0.81270000  0.88270000  1.0 0.0033200446
C  C6  1  0.58060000  0.18730000  0.88270000  1.0 0.0033200446
C  C7  1  0.81270000  0.58060000  0.38270000  1.0 0.0033200446
C  C8  1  0.18730000  0.41940000  0.38270000  1.0 0.0033200446
C  C9  1  0.41940000  0.18730000  0.38270000  1.0 0.0033200446
C  C10  1  0.58060000  0.81270000  0.38270000  1.0 0.0033200446
C  C11  1  0.81270000  0.41940000  0.88270000  1.0 0.0033200446
C  C12  1  0.18730000  0.58060000  0.88270000  1.0 0.0033200446
C  C13  1  0.58060000  0.18730000  0.11730000  1.0 0.0033200446
C  C14  1  0.41940000  0.81270000  0.11730000  1.0 0.0033200446
C  C15  1  0.18730000  0.41940000  0.61730000  1.0 0.0033200446
C  C16  1  0.81270000  0.58060000  0.61730000  1.0 0.0033200446
C  C17  1  0.66420000  0.83810000  0.61830000  1.0 -0.1178713766
C  C18  1  0.33580000  0.16190000  0.61830000  1.0 -0.1178713766
C  C19  1  0.16190000  0.66420000  0.11830000  1.0 -0.1178713766
C  C20  1  0.83810000  0.33580000  0.11830000  1.0 -0.1178713766
C  C21  1  0.33580000  0.83810000  0.88170000  1.0 -0.1178713766
C  C22  1  0.66420000  0.16190000  0.88170000  1.0 -0.1178713766
C  C23  1  0.83810000  0.66420000  0.38170000  1.0 -0.1178713766
C  C24  1  0.16190000  0.33580000  0.38170000  1.0 -0.1178713766
C  C25  1  0.33580000  0.16190000  0.38170000  1.0 -0.1178713766
C  C26  1  0.66420000  0.83810000  0.38170000  1.0 -0.1178713766
C  C27  1  0.83810000  0.33580000  0.88170000  1.0 -0.1178713766
C  C28  1  0.16190000  0.66420000  0.88170000  1.0 -0.1178713766
C  C29  1  0.66420000  0.16190000  0.11830000  1.0 -0.1178713766
C  C30  1  0.33580000  0.83810000  0.11830000  1.0 -0.1178713766
C  C31  1  0.16190000  0.33580000  0.61830000  1.0 -0.1178713766
C  C32  1  0.83810000  0.66420000  0.61830000  1.0 -0.1178713766
C  C33  1  0.69300000  0.88900000  0.65170000  1.0 -0.1471557598
C  C34  1  0.30700000  0.11100000  0.65170000  1.0 -0.1471557598
C  C35  1  0.11100000  0.69300000  0.15170000  1.0 -0.1471557598
C  C36  1  0.88900000  0.30700000  0.15170000  1.0 -0.1471557598
C  C37  1  0.30700000  0.88900000  0.84830000  1.0 -0.1471557598
C  C38  1  0.69300000  0.11100000  0.84830000  1.0 -0.1471557598
C  C39  1  0.88900000  0.69300000  0.34830000  1.0 -0.1471557598
C  C40  1  0.11100000  0.30700000  0.34830000  1.0 -0.1471557598
C  C41  1  0.30700000  0.11100000  0.34830000  1.0 -0.1471557598
C  C42  1  0.69300000  0.88900000  0.34830000  1.0 -0.1471557598
C  C43  1  0.88900000  0.30700000  0.84830000  1.0 -0.1471557598
C  C44  1  0.11100000  0.69300000  0.84830000  1.0 -0.1471557598
C  C45  1  0.69300000  0.11100000  0.15170000  1.0 -0.1471557598
C  C46  1  0.30700000  0.88900000  0.15170000  1.0 -0.1471557598
C  C47  1  0.11100000  0.30700000  0.65170000  1.0 -0.1471557598
C  C48  1  0.88900000  0.69300000  0.65170000  1.0 -0.1471557598
C  C49  1  0.63820000  0.91450000  0.68410000  1.0 0.0119982975
C  C50  1  0.36180000  0.08550000  0.68410000  1.0 0.0119982975
C  C51  1  0.08550000  0.63820000  0.18410000  1.0 0.0119982975
C  C52  1  0.91450000  0.36180000  0.18410000  1.0 0.0119982975
C  C53  1  0.36180000  0.91450000  0.81590000  1.0 0.0119982975
C  C54  1  0.63820000  0.08550000  0.81590000  1.0 0.0119982975
C  C55  1  0.91450000  0.63820000  0.31590000  1.0 0.0119982975
C  C56  1  0.08550000  0.36180000  0.31590000  1.0 0.0119982975
C  C57  1  0.36180000  0.08550000  0.31590000  1.0 0.0119982975
C  C58  1  0.63820000  0.91450000  0.31590000  1.0 0.0119982975
C  C59  1  0.91450000  0.36180000  0.81590000  1.0 0.0119982975
C  C60  1  0.08550000  0.63820000  0.81590000  1.0 0.0119982975
C  C61  1  0.63820000  0.08550000  0.18410000  1.0 0.0119982975
C  C62  1  0.36180000  0.91450000  0.18410000  1.0 0.0119982975
C  C63  1  0.08550000  0.36180000  0.68410000  1.0 0.0119982975
C  C64  1  0.91450000  0.63820000  0.68410000  1.0 0.0119982975
C  C65  1  0.55460000  0.88910000  0.68310000  1.0 -0.2149792932
C  C66  1  0.44540000  0.11090000  0.68310000  1.0 -0.2159870141
C  C67  1  0.11090000  0.55460000  0.18310000  1.0 -0.2159870141
C  C68  1  0.88910000  0.44540000  0.18310000  1.0 -0.2159870141
C  C69  1  0.44540000  0.88910000  0.81690000  1.0 -0.2149792932
C  C70  1  0.55460000  0.11090000  0.81690000  1.0 -0.2159870141
C  C71  1  0.88910000  0.55460000  0.31690000  1.0 -0.2149792932
C  C72  1  0.11090000  0.44540000  0.31690000  1.0 -0.2159870141
C  C73  1  0.44540000  0.11090000  0.31690000  1.0 -0.2159870141
C  C74  1  0.55460000  0.88910000  0.31690000  1.0 -0.2159870141
C  C75  1  0.88910000  0.44540000  0.81690000  1.0 -0.2149792932
C  C76  1  0.11090000  0.55460000  0.81690000  1.0 -0.2159870141
C  C77  1  0.55460000  0.11090000  0.18310000  1.0 -0.2159870141
C  C78  1  0.44540000  0.88910000  0.18310000  1.0 -0.2159870141
C  C79  1  0.11090000  0.44540000  0.68310000  1.0 -0.2159870141
C  C80  1  0.88910000  0.55460000  0.68310000  1.0 -0.2149792932
C  C81  1  0.52580000  0.83820000  0.64980000  1.0 -0.1133890638
C  C82  1  0.47420000  0.16180000  0.64980000  1.0 -0.1133890638
C  C83  1  0.16180000  0.52580000  0.14980000  1.0 -0.1133890638
C  C84  1  0.83820000  0.47420000  0.14980000  1.0 -0.1133890638
C  C85  1  0.47420000  0.83820000  0.85020000  1.0 -0.1133890638
C  C86  1  0.52580000  0.16180000  0.85020000  1.0 -0.1178713766
C  C87  1  0.83820000  0.52580000  0.35020000  1.0 -0.1133890638
C  C88  1  0.16180000  0.47420000  0.35020000  1.0 -0.1133890638
C  C89  1  0.47420000  0.16180000  0.35020000  1.0 -0.1133890638
C  C90  1  0.52580000  0.83820000  0.35020000  1.0 -0.1133890638
C  C91  1  0.83820000  0.47420000  0.85020000  1.0 -0.1133890638
C  C92  1  0.16180000  0.52580000  0.85020000  1.0 -0.1178713766
C  C93  1  0.52580000  0.16180000  0.14980000  1.0 -0.1133890638
C  C94  1  0.47420000  0.83820000  0.14980000  1.0 -0.1133890638
C  C95  1  0.16180000  0.47420000  0.64980000  1.0 -0.1133890638
C  C96  1  0.83820000  0.52580000  0.64980000  1.0 -0.1133890638
C  C97  1  0.67520000  0.96300000  0.72040000  1.0 0.2361518569
C  C98  1  0.32480000  0.03700000  0.72040000  1.0 0.2361518569
C  C99  1  0.03700000  0.67520000  0.22040000  1.0 0.2361518569
C  C100  1  0.96300000  0.32480000  0.22040000  1.0 0.2361518569
C  C101  1  0.32480000  0.96300000  0.77960000  1.0 0.2361518569
C  C102  1  0.67520000  0.03700000  0.77960000  1.0 0.2361518569
C  C103  1  0.96300000  0.67520000  0.27960000  1.0 0.2361518569
C  C104  1  0.03700000  0.32480000  0.27960000  1.0 0.2361518569
C  C105  1  0.32480000  0.03700000  0.27960000  1.0 0.2361518569
C  C106  1  0.67520000  0.96300000  0.27960000  1.0 0.2361518569
C  C107  1  0.96300000  0.32480000  0.77960000  1.0 0.2361518569
C  C108  1  0.03700000  0.67520000  0.77960000  1.0 0.2361518569
C  C109  1  0.67520000  0.03700000  0.22040000  1.0 0.2361518569
C  C110  1  0.32480000  0.96300000  0.22040000  1.0 0.2361518569
C  C111  1  0.03700000  0.32480000  0.72040000  1.0 0.2361518569
C  C112  1  0.96300000  0.67520000  0.72040000  1.0 0.2361518569
C  C113  1  0.50000000  0.50000000  0.65660000  1.0 -0.0503900009
C  C114  1  0.50000000  0.50000000  0.15660000  1.0 -0.0503900009
C  C115  1  0.50000000  0.50000000  0.84340000  1.0 -0.0503900009
C  C116  1  0.50000000  0.50000000  0.34340000  1.0 -0.0503900009
C  C117  1  0.49440000  0.50160000  0.69860000  1.0 -0.0396121642
C  C118  1  0.50560000  0.49840000  0.69860000  1.0 -0.0396121642
C  C119  1  0.49840000  0.49440000  0.19860000  1.0 -0.0396121642
C  C120  1  0.50160000  0.50560000  0.19860000  1.0 -0.0396121642
C  C121  1  0.50560000  0.50160000  0.80140000  1.0 -0.0396121642
C  C122  1  0.49440000  0.49840000  0.80140000  1.0 -0.0396121642
C  C123  1  0.50160000  0.49440000  0.30140000  1.0 -0.0396121642
C  C124  1  0.49840000  0.50560000  0.30140000  1.0 -0.0396121642
C  C125  1  0.50560000  0.49840000  0.30140000  1.0 -0.0396121642
C  C126  1  0.49440000  0.50160000  0.30140000  1.0 -0.0396121642
C  C127  1  0.50160000  0.50560000  0.80140000  1.0 -0.0396121642
C  C128  1  0.49840000  0.49440000  0.80140000  1.0 -0.0396121642
C  C129  1  0.49440000  0.49840000  0.19860000  1.0 -0.0396121642
C  C130  1  0.50560000  0.50160000  0.19860000  1.0 -0.0396121642
C  C131  1  0.49840000  0.50560000  0.69860000  1.0 -0.0396121642
C  C132  1  0.50160000  0.49440000  0.69860000  1.0 -0.0396121642
C  C133  1  0.56600000  0.49000000  0.72370000  1.0 -0.0087801394
C  C134  1  0.43400000  0.51000000  0.72370000  1.0 -0.0087801394
C  C135  1  0.51000000  0.56600000  0.22370000  1.0 -0.0087801394
C  C136  1  0.49000000  0.43400000  0.22370000  1.0 -0.0087801394
C  C137  1  0.43400000  0.49000000  0.77630000  1.0 -0.0087801394
C  C138  1  0.56600000  0.51000000  0.77630000  1.0 -0.0087801394
C  C139  1  0.49000000  0.56600000  0.27630000  1.0 -0.0087801394
C  C140  1  0.51000000  0.43400000  0.27630000  1.0 -0.0087801394
C  C141  1  0.43400000  0.51000000  0.27630000  1.0 -0.0087801394
C  C142  1  0.56600000  0.49000000  0.27630000  1.0 -0.0087801394
C  C143  1  0.49000000  0.43400000  0.77630000  1.0 -0.0087801394
C  C144  1  0.51000000  0.56600000  0.77630000  1.0 -0.0087801394
C  C145  1  0.56600000  0.51000000  0.22370000  1.0 -0.0087801394
C  C146  1  0.43400000  0.49000000  0.22370000  1.0 -0.0087801394
C  C147  1  0.51000000  0.43400000  0.72370000  1.0 -0.0087801394
C  C148  1  0.49000000  0.56600000  0.72370000  1.0 -0.0087801394
C  C149  1  0.56000000  0.49200000  0.76850000  1.0 0.0426396414
C  C150  1  0.44000000  0.50800000  0.76850000  1.0 0.0426396414
C  C151  1  0.50800000  0.56000000  0.26850000  1.0 0.0426396414
C  C152  1  0.49200000  0.44000000  0.26850000  1.0 0.0426396414
C  C153  1  0.44000000  0.49200000  0.73150000  1.0 0.0426396414
C  C154  1  0.56000000  0.50800000  0.73150000  1.0 0.0426396414
C  C155  1  0.49200000  0.56000000  0.23150000  1.0 0.0426396414
C  C156  1  0.50800000  0.44000000  0.23150000  1.0 0.0426396414
C  C157  1  0.44000000  0.50800000  0.23150000  1.0 0.0426396414
C  C158  1  0.56000000  0.49200000  0.23150000  1.0 0.0426396414
C  C159  1  0.49200000  0.44000000  0.73150000  1.0 0.0426396414
C  C160  1  0.50800000  0.56000000  0.73150000  1.0 0.0426396414
C  C161  1  0.56000000  0.50800000  0.26850000  1.0 0.0426396414
C  C162  1  0.44000000  0.49200000  0.26850000  1.0 0.0426396414
C  C163  1  0.50800000  0.44000000  0.76850000  1.0 0.0426396414
C  C164  1  0.49200000  0.56000000  0.76850000  1.0 0.0426396414
C  C165  1  0.48200000  0.50500000  0.78810000  1.0 0.0426396414
C  C166  1  0.51800000  0.49500000  0.78810000  1.0 0.0457159407
C  C167  1  0.49500000  0.48200000  0.28810000  1.0 0.0426396414
C  C168  1  0.50500000  0.51800000  0.28810000  1.0 0.0426396414
C  C169  1  0.51800000  0.50500000  0.71190000  1.0 0.0426396414
C  C170  1  0.48200000  0.49500000  0.71190000  1.0 0.0426396414
C  C171  1  0.50500000  0.48200000  0.21190000  1.0 0.0426396414
C  C172  1  0.49500000  0.51800000  0.21190000  1.0 0.0457159407
C  C173  1  0.51800000  0.49500000  0.21190000  1.0 0.0457159407
C  C174  1  0.48200000  0.50500000  0.21190000  1.0 0.0426396414
C  C175  1  0.50500000  0.51800000  0.71190000  1.0 0.0426396414
C  C176  1  0.49500000  0.48200000  0.71190000  1.0 0.0426396414
C  C177  1  0.48200000  0.49500000  0.28810000  1.0 0.0426396414
C  C178  1  0.51800000  0.50500000  0.28810000  1.0 0.0426396414
C  C179  1  0.49500000  0.51800000  0.78810000  1.0 0.0457159407
C  C180  1  0.50500000  0.48200000  0.78810000  1.0 0.0426396414
C  C181  1  0.41100000  0.51600000  0.76290000  1.0 -0.0160176559
C  C182  1  0.58900000  0.48400000  0.76290000  1.0 -0.0160176559
C  C183  1  0.48400000  0.41100000  0.26290000  1.0 -0.0160176559
C  C184  1  0.51600000  0.58900000  0.26290000  1.0 -0.0160176559
C  C185  1  0.58900000  0.51600000  0.73710000  1.0 -0.0160176559
C  C186  1  0.41100000  0.48400000  0.73710000  1.0 -0.0160176559
C  C187  1  0.51600000  0.41100000  0.23710000  1.0 -0.0160176559
C  C188  1  0.48400000  0.58900000  0.23710000  1.0 -0.0160176559
C  C189  1  0.58900000  0.48400000  0.23710000  1.0 -0.0160176559
C  C190  1  0.41100000  0.51600000  0.23710000  1.0 -0.0160176559
C  C191  1  0.51600000  0.58900000  0.73710000  1.0 -0.0160176559
C  C192  1  0.48400000  0.41100000  0.73710000  1.0 -0.0160176559
C  C193  1  0.41100000  0.48400000  0.26290000  1.0 -0.0160176559
C  C194  1  0.58900000  0.51600000  0.26290000  1.0 -0.0160176559
C  C195  1  0.48400000  0.58900000  0.76290000  1.0 -0.0160176559
C  C196  1  0.51600000  0.41100000  0.76290000  1.0 -0.0160176559
C  C197  1  0.41690000  0.51500000  0.71820000  1.0 -0.0087801394
C  C198  1  0.58310000  0.48500000  0.71820000  1.0 -0.0160176559
C  C199  1  0.48500000  0.41690000  0.21820000  1.0 -0.0087801394
C  C200  1  0.51500000  0.58310000  0.21820000  1.0 -0.0160176559
C  C201  1  0.58310000  0.51500000  0.78180000  1.0 -0.0160176559
C  C202  1  0.41690000  0.48500000  0.78180000  1.0 -0.0087801394
C  C203  1  0.51500000  0.41690000  0.28180000  1.0 -0.0087801394
C  C204  1  0.48500000  0.58310000  0.28180000  1.0 -0.0087801394
C  C205  1  0.58310000  0.48500000  0.28180000  1.0 -0.0087801394
C  C206  1  0.41690000  0.51500000  0.28180000  1.0 -0.0087801394
C  C207  1  0.51500000  0.58310000  0.78180000  1.0 -0.0160176559
C  C208  1  0.48500000  0.41690000  0.78180000  1.0 -0.0087801394
C  C209  1  0.41690000  0.48500000  0.21820000  1.0 -0.0087801394
C  C210  1  0.58310000  0.51500000  0.21820000  1.0 -0.0160176559
C  C211  1  0.48500000  0.58310000  0.71820000  1.0 -0.0160176559
C  C212  1  0.51500000  0.41690000  0.71820000  1.0 -0.0087801394
C  C213  1  0.55020000  0.75090000  0.58320000  1.0 0.5051153727
C  C214  1  0.44980000  0.24910000  0.58320000  1.0 0.503216468
C  C215  1  0.24910000  0.55020000  0.08320000  1.0 0.503216468
C  C216  1  0.75090000  0.44980000  0.08320000  1.0 0.503216468
C  C217  1  0.44980000  0.75090000  0.91680000  1.0 0.503216468
C  C218  1  0.55020000  0.24910000  0.91680000  1.0 0.503216468
C  C219  1  0.75090000  0.55020000  0.41680000  1.0 0.5051153727
C  C220  1  0.24910000  0.44980000  0.41680000  1.0 0.503216468
C  C221  1  0.44980000  0.24910000  0.41680000  1.0 0.503216468
C  C222  1  0.55020000  0.75090000  0.41680000  1.0 0.5051153727
C  C223  1  0.75090000  0.44980000  0.91680000  1.0 0.503216468
C  C224  1  0.24910000  0.55020000  0.91680000  1.0 0.503216468
C  C225  1  0.55020000  0.24910000  0.08320000  1.0 0.503216468
C  C226  1  0.44980000  0.75090000  0.08320000  1.0 0.503216468
C  C227  1  0.24910000  0.44980000  0.58320000  1.0 0.503216468
C  C228  1  0.75090000  0.55020000  0.58320000  1.0 0.5051153727
C  C229  1  0.28610000  0.71390000  0.50000000  1.0 0.3389728196
C  C230  1  0.71390000  0.28610000  0.50000000  1.0 0.3389728196
C  C231  1  0.28610000  0.28610000  0.00000000  1.0 0.3289476759
C  C232  1  0.71390000  0.71390000  0.00000000  1.0 0.3389728196
N  N1  1  0.74870000  0.97660000  0.73220000  1.0 -0.2343660793
N  N2  1  0.25130000  0.02340000  0.73220000  1.0 -0.2343660793
N  N3  1  0.02340000  0.74870000  0.23220000  1.0 -0.2343660793
N  N4  1  0.97660000  0.25130000  0.23220000  1.0 -0.2343660793
N  N5  1  0.25130000  0.97660000  0.76780000  1.0 -0.2343660793
N  N6  1  0.74870000  0.02340000  0.76780000  1.0 -0.2343660793
N  N7  1  0.97660000  0.74870000  0.26780000  1.0 -0.2343660793
N  N8  1  0.02340000  0.25130000  0.26780000  1.0 -0.2343660793
N  N9  1  0.25130000  0.02340000  0.26780000  1.0 -0.2343660793
N  N10  1  0.74870000  0.97660000  0.26780000  1.0 -0.2343660793
N  N11  1  0.97660000  0.25130000  0.76780000  1.0 -0.2343660793
N  N12  1  0.02340000  0.74870000  0.76780000  1.0 -0.2343660793
N  N13  1  0.74870000  0.02340000  0.23220000  1.0 -0.2343660793
N  N14  1  0.25130000  0.97660000  0.23220000  1.0 -0.2343660793
N  N15  1  0.02340000  0.25130000  0.73220000  1.0 -0.2343660793
N  N16  1  0.97660000  0.74870000  0.73220000  1.0 -0.2343660793
N  N17  1  0.61900000  0.00000000  0.75000000  1.0 -0.3939585522
N  N18  1  0.38100000  0.00000000  0.75000000  1.0 -0.3939585522
N  N19  1  0.00000000  0.61900000  0.25000000  1.0 -0.3939585522
N  N20  1  0.00000000  0.38100000  0.25000000  1.0 -0.3939585522
N  N21  1  0.38100000  0.00000000  0.25000000  1.0 -0.3939585522
N  N22  1  0.61900000  0.00000000  0.25000000  1.0 -0.3939585522
N  N23  1  0.00000000  0.38100000  0.75000000  1.0 -0.3939585522
N  N24  1  0.00000000  0.61900000  0.75000000  1.0 -0.3939585522
O  O1  1  0.45040000  0.54960000  0.63900000  1.0 -0.1374144614
O  O2  1  0.54960000  0.45040000  0.63900000  1.0 -0.1374144614
O  O3  1  0.45040000  0.45040000  0.13900000  1.0 -0.1335823018
O  O4  1  0.54960000  0.54960000  0.13900000  1.0 -0.1335823018
O  O5  1  0.54960000  0.54960000  0.86100000  1.0 -0.1374144614
O  O6  1  0.45040000  0.45040000  0.86100000  1.0 -0.1374144614
O  O7  1  0.54960000  0.45040000  0.36100000  1.0 -0.1335823018
O  O8  1  0.45040000  0.54960000  0.36100000  1.0 -0.1335823018
O  O9  1  0.60020000  0.74030000  0.55210000  1.0 -0.5779391214
O  O10  1  0.39980000  0.25970000  0.55210000  1.0 -0.5779391214
O  O11  1  0.25970000  0.60020000  0.05210000  1.0 -0.5779391214
O  O12  1  0.74030000  0.39980000  0.05210000  1.0 -0.5779391214
O  O13  1  0.39980000  0.74030000  0.94790000  1.0 -0.5779391214
O  O14  1  0.60020000  0.25970000  0.94790000  1.0 -0.5779391214
O  O15  1  0.74030000  0.60020000  0.44790000  1.0 -0.5779391214
O  O16  1  0.25970000  0.39980000  0.44790000  1.0 -0.5779391214
O  O17  1  0.39980000  0.25970000  0.44790000  1.0 -0.5779391214
O  O18  1  0.60020000  0.74030000  0.44790000  1.0 -0.5779391214
O  O19  1  0.74030000  0.39980000  0.94790000  1.0 -0.5779391214
O  O20  1  0.25970000  0.60020000  0.94790000  1.0 -0.5779391214
O  O21  1  0.60020000  0.25970000  0.05210000  1.0 -0.5779391214
O  O22  1  0.39980000  0.74030000  0.05210000  1.0 -0.5779391214
O  O23  1  0.25970000  0.39980000  0.55210000  1.0 -0.5779391214
O  O24  1  0.74030000  0.60020000  0.55210000  1.0 -0.5779391214
O  O25  1  0.48170000  0.72000000  0.58780000  1.0 -0.5034779035
O  O26  1  0.51830000  0.28000000  0.58780000  1.0 -0.5034779035
O  O27  1  0.28000000  0.48170000  0.08780000  1.0 -0.5034779035
O  O28  1  0.72000000  0.51830000  0.08780000  1.0 -0.5034779035
O  O29  1  0.51830000  0.72000000  0.91220000  1.0 -0.5034779035
O  O30  1  0.48170000  0.28000000  0.91220000  1.0 -0.5034779035
O  O31  1  0.72000000  0.48170000  0.41220000  1.0 -0.5034779035
O  O32  1  0.28000000  0.51830000  0.41220000  1.0 -0.5034779035
O  O33  1  0.51830000  0.28000000  0.41220000  1.0 -0.5034779035
O  O34  1  0.48170000  0.72000000  0.41220000  1.0 -0.5034779035
O  O35  1  0.72000000  0.51830000  0.91220000  1.0 -0.5034779035
O  O36  1  0.28000000  0.48170000  0.91220000  1.0 -0.5034779035
O  O37  1  0.48170000  0.28000000  0.08780000  1.0 -0.5034779035
O  O38  1  0.51830000  0.72000000  0.08780000  1.0 -0.5034779035
O  O39  1  0.28000000  0.51830000  0.58780000  1.0 -0.5034779035
O  O40  1  0.72000000  0.48170000  0.58780000  1.0 -0.5034779035
O  O41  1  0.47770000  0.64630000  0.50000000  1.0 -0.9994379752
O  O42  1  0.52230000  0.35370000  0.50000000  1.0 -0.9994379752
O  O43  1  0.35370000  0.47770000  0.00000000  1.0 -0.9994379752
O  O44  1  0.64630000  0.52230000  0.00000000  1.0 -0.9994379752
O  O45  1  0.52230000  0.64630000  0.00000000  1.0 -0.9994379752
O  O46  1  0.47770000  0.35370000  0.00000000  1.0 -0.9994379752
O  O47  1  0.64630000  0.47770000  0.50000000  1.0 -0.9994379752
O  O48  1  0.35370000  0.52230000  0.50000000  1.0 -0.9994379752
O  O49  1  0.30880000  0.69120000  0.53560000  1.0 -0.4874186091
O  O50  1  0.69120000  0.30880000  0.53560000  1.0 -0.4874186091
O  O51  1  0.30880000  0.30880000  0.03560000  1.0 -0.4874186091
O  O52  1  0.69120000  0.69120000  0.03560000  1.0 -0.4874186091
O  O53  1  0.69120000  0.69120000  0.96440000  1.0 -0.4874186091
O  O54  1  0.30880000  0.30880000  0.96440000  1.0 -0.4874186091
O  O55  1  0.69120000  0.30880000  0.46440000  1.0 -0.4874186091
O  O56  1  0.30880000  0.69120000  0.46440000  1.0 -0.4874186091
O  O57  1  0.57000000  0.57000000  0.56800000  1.0 -0.0087801394
O  O58  1  0.43000000  0.43000000  0.56800000  1.0 -0.0087801394
O  O59  1  0.43000000  0.57000000  0.06800000  1.0 -0.0087801394
O  O60  1  0.57000000  0.43000000  0.06800000  1.0 -0.0087801394
O  O61  1  0.43000000  0.57000000  0.93200000  1.0 -0.0087801394
O  O62  1  0.57000000  0.43000000  0.93200000  1.0 -0.0087801394
O  O63  1  0.57000000  0.57000000  0.43200000  1.0 -0.0087801394
O  O64  1  0.43000000  0.43000000  0.43200000  1.0 -0.0087801394
O  O65  1  0.54350000  0.54350000  0.55220000  1.0 -0.3041146942
O  O66  1  0.45650000  0.45650000  0.55220000  1.0 -0.3041146942
O  O67  1  0.45650000  0.54350000  0.05220000  1.0 -0.3041146942
O  O68  1  0.54350000  0.45650000  0.05220000  1.0 -0.3041146942
O  O69  1  0.45650000  0.54350000  0.94780000  1.0 -0.3041146942
O  O70  1  0.54350000  0.45650000  0.94780000  1.0 -0.3041146942
O  O71  1  0.54350000  0.54350000  0.44780000  1.0 -0.3041146942
O  O72  1  0.45650000  0.45650000  0.44780000  1.0 -0.3041146942
