# DDEC6 charges by PACMAN v1.1 (https://github.com/mtap-research/PACMAN-charge/)
data_CIFKIP_ASR_pacman
_symmetry_space_group_name_H-M   'P 1'
_cell_length_a   15.93900000
_cell_length_b   15.93900000
_cell_length_c   30.91000000
_cell_angle_alpha   90.00000000
_cell_angle_beta   90.00000000
_cell_angle_gamma   90.00000000
_symmetry_Int_Tables_number   1
_chemical_formula_structural   Th3H31C54(N5O9)2
_chemical_formula_sum   'Th12 H124 C216 N40 O72'
_cell_volume   7852.73869611
_cell_formula_units_Z   4
loop_
 _symmetry_equiv_pos_site_id
 _symmetry_equiv_pos_as_xyz
  1  'x, y, z'
loop_
 _atom_site_type_symbol
 _atom_site_label
 _atom_site_symmetry_multiplicity
 _atom_site_fract_x
 _atom_site_fract_y
 _atom_site_fract_z
 _atom_site_occupancy
 _atom_site_charge
Th  Th1  1  0.41265000  0.58735000  0.56408000  1.0 1.8415835675
Th  Th2  1  0.58735000  0.41265000  0.56408000  1.0 1.8415835675
Th  Th3  1  0.41265000  0.41265000  0.06408000  1.0 1.8415835675
Th  Th4  1  0.58735000  0.58735000  0.06408000  1.0 1.8415835675
Th  Th5  1  0.58735000  0.58735000  0.93592000  1.0 1.8465428783
Th  Th6  1  0.41265000  0.41265000  0.93592000  1.0 1.8415835675
Th  Th7  1  0.58735000  0.41265000  0.43592000  1.0 1.8415835675
Th  Th8  1  0.41265000  0.58735000  0.43592000  1.0 1.8415835675
Th  Th9  1  0.62455000  0.62455000  0.50000000  1.0 2.0862758591
Th  Th10  1  0.37545000  0.37545000  0.50000000  1.0 2.0729360216
Th  Th11  1  0.37545000  0.62455000  0.00000000  1.0 2.0729360216
Th  Th12  1  0.62455000  0.37545000  0.00000000  1.0 2.0729360216
H  H1  1  0.56290000  0.00000000  0.75000000  1.0 0.2484161838
H  H2  1  0.43710000  0.00000000  0.75000000  1.0 0.2484161838
H  H3  1  0.00000000  0.56290000  0.25000000  1.0 0.2484161838
H  H4  1  0.00000000  0.43710000  0.25000000  1.0 0.2484161838
H  H5  1  0.43710000  0.00000000  0.25000000  1.0 0.2484161838
H  H6  1  0.56290000  0.00000000  0.25000000  1.0 0.2484161838
H  H7  1  0.00000000  0.43710000  0.75000000  1.0 0.2484161838
H  H8  1  0.00000000  0.56290000  0.75000000  1.0 0.2484161838
H  H9  1  0.70100000  0.82000000  0.59620000  1.0 0.0883984793
H  H10  1  0.29900000  0.18000000  0.59620000  1.0 0.0883984793
H  H11  1  0.18000000  0.70100000  0.09620000  1.0 0.0883984793
H  H12  1  0.82000000  0.29900000  0.09620000  1.0 0.0883984793
H  H13  1  0.29900000  0.82000000  0.90380000  1.0 0.0883984793
H  H14  1  0.70100000  0.18000000  0.90380000  1.0 0.0883984793
H  H15  1  0.82000000  0.70100000  0.40380000  1.0 0.0883984793
H  H16  1  0.18000000  0.29900000  0.40380000  1.0 0.0883984793
H  H17  1  0.29900000  0.18000000  0.40380000  1.0 0.0883984793
H  H18  1  0.70100000  0.82000000  0.40380000  1.0 0.0883984793
H  H19  1  0.82000000  0.29900000  0.90380000  1.0 0.0883984793
H  H20  1  0.18000000  0.70100000  0.90380000  1.0 0.0883984793
H  H21  1  0.70100000  0.18000000  0.09620000  1.0 0.0883984793
H  H22  1  0.29900000  0.82000000  0.09620000  1.0 0.0883984793
H  H23  1  0.18000000  0.29900000  0.59620000  1.0 0.0883984793
H  H24  1  0.82000000  0.70100000  0.59620000  1.0 0.0883984793
H  H25  1  0.74980000  0.90570000  0.65230000  1.0 0.0883984793
H  H26  1  0.25020000  0.09430000  0.65230000  1.0 0.0883984793
H  H27  1  0.09430000  0.74980000  0.15230000  1.0 0.0883984793
H  H28  1  0.90570000  0.25020000  0.15230000  1.0 0.0883984793
H  H29  1  0.25020000  0.90570000  0.84770000  1.0 0.0883984793
H  H30  1  0.74980000  0.09430000  0.84770000  1.0 0.0883984793
H  H31  1  0.90570000  0.74980000  0.34770000  1.0 0.0883984793
H  H32  1  0.09430000  0.25020000  0.34770000  1.0 0.0883984793
H  H33  1  0.25020000  0.09430000  0.34770000  1.0 0.0883984793
H  H34  1  0.74980000  0.90570000  0.34770000  1.0 0.0883984793
H  H35  1  0.90570000  0.25020000  0.84770000  1.0 0.0883984793
H  H36  1  0.09430000  0.74980000  0.84770000  1.0 0.0883984793
H  H37  1  0.74980000  0.09430000  0.15230000  1.0 0.0883984793
H  H38  1  0.25020000  0.90570000  0.15230000  1.0 0.0883984793
H  H39  1  0.09430000  0.25020000  0.65230000  1.0 0.0883984793
H  H40  1  0.90570000  0.74980000  0.65230000  1.0 0.0883984793
H  H41  1  0.51770000  0.90590000  0.70590000  1.0 0.0731034476
H  H42  1  0.48230000  0.09410000  0.70590000  1.0 0.0731034476
H  H43  1  0.09410000  0.51770000  0.20590000  1.0 0.0731034476
H  H44  1  0.90590000  0.48230000  0.20590000  1.0 0.0731034476
H  H45  1  0.48230000  0.90590000  0.79410000  1.0 0.0731034476
H  H46  1  0.51770000  0.09410000  0.79410000  1.0 0.0731034476
H  H47  1  0.90590000  0.51770000  0.29410000  1.0 0.0731034476
H  H48  1  0.09410000  0.48230000  0.29410000  1.0 0.0731034476
H  H49  1  0.48230000  0.09410000  0.29410000  1.0 0.0731034476
H  H50  1  0.51770000  0.90590000  0.29410000  1.0 0.0731034476
H  H51  1  0.90590000  0.48230000  0.79410000  1.0 0.0731034476
H  H52  1  0.09410000  0.51770000  0.79410000  1.0 0.0731034476
H  H53  1  0.51770000  0.09410000  0.20590000  1.0 0.0731034476
H  H54  1  0.48230000  0.90590000  0.20590000  1.0 0.0731034476
H  H55  1  0.09410000  0.48230000  0.70590000  1.0 0.0731034476
H  H56  1  0.90590000  0.51770000  0.70590000  1.0 0.0731034476
H  H57  1  0.46900000  0.82020000  0.64980000  1.0 0.1442428802
H  H58  1  0.53100000  0.17980000  0.64980000  1.0 0.1442428802
H  H59  1  0.17980000  0.46900000  0.14980000  1.0 0.1442428802
H  H60  1  0.82020000  0.53100000  0.14980000  1.0 0.1442428802
H  H61  1  0.53100000  0.82020000  0.85020000  1.0 0.1442428802
H  H62  1  0.46900000  0.17980000  0.85020000  1.0 0.1442428802
H  H63  1  0.82020000  0.46900000  0.35020000  1.0 0.1442428802
H  H64  1  0.17980000  0.53100000  0.35020000  1.0 0.1442428802
H  H65  1  0.53100000  0.17980000  0.35020000  1.0 0.1442428802
H  H66  1  0.46900000  0.82020000  0.35020000  1.0 0.1442428802
H  H67  1  0.82020000  0.53100000  0.85020000  1.0 0.1442428802
H  H68  1  0.17980000  0.46900000  0.85020000  1.0 0.1442428802
H  H69  1  0.46900000  0.17980000  0.14980000  1.0 0.1442428802
H  H70  1  0.53100000  0.82020000  0.14980000  1.0 0.1442428802
H  H71  1  0.17980000  0.53100000  0.64980000  1.0 0.1442428802
H  H72  1  0.82020000  0.46900000  0.64980000  1.0 0.1442428802
H  H73  1  0.24820000  0.75180000  0.50000000  1.0 0.1468823984
H  H74  1  0.75180000  0.24820000  0.50000000  1.0 0.1468823984
H  H75  1  0.24820000  0.24820000  0.00000000  1.0 0.1468823984
H  H76  1  0.75180000  0.75180000  0.00000000  1.0 0.1468823984
H  H77  1  0.61910000  0.50690000  0.70990000  1.0 0.0731034476
H  H78  1  0.38090000  0.49310000  0.70990000  1.0 0.0731034476
H  H79  1  0.49310000  0.61910000  0.20990000  1.0 0.0731034476
H  H80  1  0.50690000  0.38090000  0.20990000  1.0 0.0731034476
H  H81  1  0.38090000  0.50690000  0.79010000  1.0 0.0731034476
H  H82  1  0.61910000  0.49310000  0.79010000  1.0 0.0731034476
H  H83  1  0.50690000  0.61910000  0.29010000  1.0 0.0731034476
H  H84  1  0.49310000  0.38090000  0.29010000  1.0 0.0731034476
H  H85  1  0.38090000  0.49310000  0.29010000  1.0 0.0731034476
H  H86  1  0.61910000  0.50690000  0.29010000  1.0 0.0731034476
H  H87  1  0.50690000  0.38090000  0.79010000  1.0 0.0731034476
H  H88  1  0.49310000  0.61910000  0.79010000  1.0 0.0731034476
H  H89  1  0.61910000  0.49310000  0.20990000  1.0 0.0731034476
H  H90  1  0.38090000  0.50690000  0.20990000  1.0 0.0731034476
H  H91  1  0.49310000  0.38090000  0.70990000  1.0 0.0731034476
H  H92  1  0.50690000  0.61910000  0.70990000  1.0 0.0731034476
H  H93  1  0.60910000  0.49100000  0.78500000  1.0 0.0731034476
H  H94  1  0.39090000  0.50900000  0.78500000  1.0 0.0731034476
H  H95  1  0.50900000  0.60910000  0.28500000  1.0 0.0731034476
H  H96  1  0.49100000  0.39090000  0.28500000  1.0 0.0731034476
H  H97  1  0.39090000  0.49100000  0.71500000  1.0 0.0731034476
H  H98  1  0.60910000  0.50900000  0.71500000  1.0 0.0731034476
H  H99  1  0.49100000  0.60910000  0.21500000  1.0 0.0731034476
H  H100  1  0.50900000  0.39090000  0.21500000  1.0 0.0731034476
H  H101  1  0.39090000  0.50900000  0.21500000  1.0 0.0731034476
H  H102  1  0.60910000  0.49100000  0.21500000  1.0 0.0731034476
H  H103  1  0.49100000  0.39090000  0.71500000  1.0 0.0731034476
H  H104  1  0.50900000  0.60910000  0.71500000  1.0 0.0731034476
H  H105  1  0.60910000  0.50900000  0.28500000  1.0 0.0731034476
H  H106  1  0.39090000  0.49100000  0.28500000  1.0 0.0731034476
H  H107  1  0.50900000  0.39090000  0.78500000  1.0 0.0731034476
H  H108  1  0.49100000  0.60910000  0.78500000  1.0 0.0731034476
H  H109  1  0.35800000  0.45720000  0.77410000  1.0 0.0883984793
H  H110  1  0.64200000  0.54280000  0.77410000  1.0 0.0883984793
H  H111  1  0.54280000  0.35800000  0.27410000  1.0 0.0883984793
H  H112  1  0.45720000  0.64200000  0.27410000  1.0 0.0883984793
H  H113  1  0.64200000  0.45720000  0.72590000  1.0 0.0883984793
H  H114  1  0.35800000  0.54280000  0.72590000  1.0 0.0883984793
H  H115  1  0.45720000  0.35800000  0.22590000  1.0 0.0883984793
H  H116  1  0.54280000  0.64200000  0.22590000  1.0 0.0883984793
H  H117  1  0.64200000  0.54280000  0.22590000  1.0 0.0883984793
H  H118  1  0.35800000  0.45720000  0.22590000  1.0 0.0883984793
H  H119  1  0.45720000  0.64200000  0.72590000  1.0 0.0883984793
H  H120  1  0.54280000  0.35800000  0.72590000  1.0 0.0883984793
H  H121  1  0.35800000  0.54280000  0.27410000  1.0 0.0883984793
H  H122  1  0.64200000  0.45720000  0.27410000  1.0 0.0883984793
H  H123  1  0.54280000  0.64200000  0.77410000  1.0 0.0883984793
H  H124  1  0.45720000  0.35800000  0.77410000  1.0 0.0883984793
C  C1  1  0.58040000  0.81210000  0.61780000  1.0 0.0201805698
C  C2  1  0.41960000  0.18790000  0.61780000  1.0 0.0201805698
C  C3  1  0.18790000  0.58040000  0.11780000  1.0 0.0201805698
C  C4  1  0.81210000  0.41960000  0.11780000  1.0 0.0201805698
C  C5  1  0.41960000  0.81210000  0.88220000  1.0 0.0201805698
C  C6  1  0.58040000  0.18790000  0.88220000  1.0 0.0201805698
C  C7  1  0.81210000  0.58040000  0.38220000  1.0 0.0201805698
C  C8  1  0.18790000  0.41960000  0.38220000  1.0 0.0201805698
C  C9  1  0.41960000  0.18790000  0.38220000  1.0 0.0201805698
C  C10  1  0.58040000  0.81210000  0.38220000  1.0 0.0201805698
C  C11  1  0.81210000  0.41960000  0.88220000  1.0 0.0201805698
C  C12  1  0.18790000  0.58040000  0.88220000  1.0 0.0201805698
C  C13  1  0.58040000  0.18790000  0.11780000  1.0 0.0201805698
C  C14  1  0.41960000  0.81210000  0.11780000  1.0 0.0201805698
C  C15  1  0.18790000  0.41960000  0.61780000  1.0 0.0201805698
C  C16  1  0.81210000  0.58040000  0.61780000  1.0 0.0201805698
C  C17  1  0.66380000  0.83750000  0.61850000  1.0 -0.1327529901
C  C18  1  0.33620000  0.16250000  0.61850000  1.0 -0.1327529901
C  C19  1  0.16250000  0.66380000  0.11850000  1.0 -0.1327529901
C  C20  1  0.83750000  0.33620000  0.11850000  1.0 -0.1327529901
C  C21  1  0.33620000  0.83750000  0.88150000  1.0 -0.1327529901
C  C22  1  0.66380000  0.16250000  0.88150000  1.0 -0.1327529901
C  C23  1  0.83750000  0.66380000  0.38150000  1.0 -0.1327529901
C  C24  1  0.16250000  0.33620000  0.38150000  1.0 -0.1327529901
C  C25  1  0.33620000  0.16250000  0.38150000  1.0 -0.1327529901
C  C26  1  0.66380000  0.83750000  0.38150000  1.0 -0.1327529901
C  C27  1  0.83750000  0.33620000  0.88150000  1.0 -0.1327529901
C  C28  1  0.16250000  0.66380000  0.88150000  1.0 -0.1327529901
C  C29  1  0.66380000  0.16250000  0.11850000  1.0 -0.1327529901
C  C30  1  0.33620000  0.83750000  0.11850000  1.0 -0.1327529901
C  C31  1  0.16250000  0.33620000  0.61850000  1.0 -0.1327529901
C  C32  1  0.83750000  0.66380000  0.61850000  1.0 -0.1327529901
C  C33  1  0.69280000  0.88840000  0.65180000  1.0 -0.1446514313
C  C34  1  0.30720000  0.11160000  0.65180000  1.0 -0.1446514313
C  C35  1  0.11160000  0.69280000  0.15180000  1.0 -0.1446514313
C  C36  1  0.88840000  0.30720000  0.15180000  1.0 -0.1446514313
C  C37  1  0.30720000  0.88840000  0.84820000  1.0 -0.1446514313
C  C38  1  0.69280000  0.11160000  0.84820000  1.0 -0.1446514313
C  C39  1  0.88840000  0.69280000  0.34820000  1.0 -0.1446514313
C  C40  1  0.11160000  0.30720000  0.34820000  1.0 -0.1446514313
C  C41  1  0.30720000  0.11160000  0.34820000  1.0 -0.1446514313
C  C42  1  0.69280000  0.88840000  0.34820000  1.0 -0.1446514313
C  C43  1  0.88840000  0.30720000  0.84820000  1.0 -0.1446514313
C  C44  1  0.11160000  0.69280000  0.84820000  1.0 -0.1446514313
C  C45  1  0.69280000  0.11160000  0.15180000  1.0 -0.1446514313
C  C46  1  0.30720000  0.88840000  0.15180000  1.0 -0.1446514313
C  C47  1  0.11160000  0.30720000  0.65180000  1.0 -0.1446514313
C  C48  1  0.88840000  0.69280000  0.65180000  1.0 -0.1446514313
C  C49  1  0.63840000  0.91390000  0.68440000  1.0 0.0028697271
C  C50  1  0.36160000  0.08610000  0.68440000  1.0 0.0028697271
C  C51  1  0.08610000  0.63840000  0.18440000  1.0 0.0028697271
C  C52  1  0.91390000  0.36160000  0.18440000  1.0 0.0028697271
C  C53  1  0.36160000  0.91390000  0.81560000  1.0 0.0028697271
C  C54  1  0.63840000  0.08610000  0.81560000  1.0 0.0028697271
C  C55  1  0.91390000  0.63840000  0.31560000  1.0 0.0028697271
C  C56  1  0.08610000  0.36160000  0.31560000  1.0 0.0028697271
C  C57  1  0.36160000  0.08610000  0.31560000  1.0 0.0028697271
C  C58  1  0.63840000  0.91390000  0.31560000  1.0 0.0028697271
C  C59  1  0.91390000  0.36160000  0.81560000  1.0 0.0028697271
C  C60  1  0.08610000  0.63840000  0.81560000  1.0 0.0028697271
C  C61  1  0.63840000  0.08610000  0.18440000  1.0 0.0028697271
C  C62  1  0.36160000  0.91390000  0.18440000  1.0 0.0028697271
C  C63  1  0.08610000  0.36160000  0.68440000  1.0 0.0028697271
C  C64  1  0.91390000  0.63840000  0.68440000  1.0 0.0028697271
C  C65  1  0.55500000  0.88850000  0.68370000  1.0 -0.2239666522
C  C66  1  0.44500000  0.11150000  0.68370000  1.0 -0.2239666522
C  C67  1  0.11150000  0.55500000  0.18370000  1.0 -0.2239666522
C  C68  1  0.88850000  0.44500000  0.18370000  1.0 -0.2239666522
C  C69  1  0.44500000  0.88850000  0.81630000  1.0 -0.2239666522
C  C70  1  0.55500000  0.11150000  0.81630000  1.0 -0.2239666522
C  C71  1  0.88850000  0.55500000  0.31630000  1.0 -0.2239666522
C  C72  1  0.11150000  0.44500000  0.31630000  1.0 -0.2239666522
C  C73  1  0.44500000  0.11150000  0.31630000  1.0 -0.2239666522
C  C74  1  0.55500000  0.88850000  0.31630000  1.0 -0.2239666522
C  C75  1  0.88850000  0.44500000  0.81630000  1.0 -0.2239666522
C  C76  1  0.11150000  0.55500000  0.81630000  1.0 -0.2239666522
C  C77  1  0.55500000  0.11150000  0.18370000  1.0 -0.2239666522
C  C78  1  0.44500000  0.88850000  0.18370000  1.0 -0.2239666522
C  C79  1  0.11150000  0.44500000  0.68370000  1.0 -0.2239666522
C  C80  1  0.88850000  0.55500000  0.68370000  1.0 -0.2239666522
C  C81  1  0.52600000  0.83760000  0.65030000  1.0 -0.1162768115
C  C82  1  0.47400000  0.16240000  0.65030000  1.0 -0.1162768115
C  C83  1  0.16240000  0.52600000  0.15030000  1.0 -0.1162768115
C  C84  1  0.83760000  0.47400000  0.15030000  1.0 -0.1162768115
C  C85  1  0.47400000  0.83760000  0.84970000  1.0 -0.1162768115
C  C86  1  0.52600000  0.16240000  0.84970000  1.0 -0.1162768115
C  C87  1  0.83760000  0.52600000  0.34970000  1.0 -0.1162768115
C  C88  1  0.16240000  0.47400000  0.34970000  1.0 -0.1162768115
C  C89  1  0.47400000  0.16240000  0.34970000  1.0 -0.1162768115
C  C90  1  0.52600000  0.83760000  0.34970000  1.0 -0.1162768115
C  C91  1  0.83760000  0.47400000  0.84970000  1.0 -0.1162768115
C  C92  1  0.16240000  0.52600000  0.84970000  1.0 -0.1162768115
C  C93  1  0.52600000  0.16240000  0.15030000  1.0 -0.1162768115
C  C94  1  0.47400000  0.83760000  0.15030000  1.0 -0.1162768115
C  C95  1  0.16240000  0.47400000  0.65030000  1.0 -0.1162768115
C  C96  1  0.83760000  0.52600000  0.65030000  1.0 -0.1162768115
C  C97  1  0.67520000  0.96300000  0.72040000  1.0 0.2361502892
C  C98  1  0.32480000  0.03700000  0.72040000  1.0 0.2361502892
C  C99  1  0.03700000  0.67520000  0.22040000  1.0 0.2361502892
C  C100  1  0.96300000  0.32480000  0.22040000  1.0 0.2361502892
C  C101  1  0.32480000  0.96300000  0.77960000  1.0 0.2361502892
C  C102  1  0.67520000  0.03700000  0.77960000  1.0 0.2361502892
C  C103  1  0.96300000  0.67520000  0.27960000  1.0 0.2361502892
C  C104  1  0.03700000  0.32480000  0.27960000  1.0 0.2361502892
C  C105  1  0.32480000  0.03700000  0.27960000  1.0 0.2361502892
C  C106  1  0.67520000  0.96300000  0.27960000  1.0 0.2361502892
C  C107  1  0.96300000  0.32480000  0.77960000  1.0 0.2361502892
C  C108  1  0.03700000  0.67520000  0.77960000  1.0 0.2361502892
C  C109  1  0.67520000  0.03700000  0.22040000  1.0 0.2361502892
C  C110  1  0.32480000  0.96300000  0.22040000  1.0 0.2361502892
C  C111  1  0.03700000  0.32480000  0.72040000  1.0 0.2361502892
C  C112  1  0.96300000  0.67520000  0.72040000  1.0 0.2361502892
C  C113  1  0.50000000  0.50000000  0.65660000  1.0 -0.0775460079
C  C114  1  0.50000000  0.50000000  0.15660000  1.0 -0.0775460079
C  C115  1  0.50000000  0.50000000  0.84340000  1.0 -0.0775460079
C  C116  1  0.50000000  0.50000000  0.34340000  1.0 -0.0775460079
C  C117  1  0.54920000  0.75100000  0.58270000  1.0 0.5183622858
C  C118  1  0.45080000  0.24900000  0.58270000  1.0 0.5183622858
C  C119  1  0.24900000  0.54920000  0.08270000  1.0 0.5183622858
C  C120  1  0.75100000  0.45080000  0.08270000  1.0 0.5183622858
C  C121  1  0.45080000  0.75100000  0.91730000  1.0 0.5183622858
C  C122  1  0.54920000  0.24900000  0.91730000  1.0 0.5183622858
C  C123  1  0.75100000  0.54920000  0.41730000  1.0 0.5183622858
C  C124  1  0.24900000  0.45080000  0.41730000  1.0 0.5183622858
C  C125  1  0.45080000  0.24900000  0.41730000  1.0 0.5183622858
C  C126  1  0.54920000  0.75100000  0.41730000  1.0 0.5183622858
C  C127  1  0.75100000  0.45080000  0.91730000  1.0 0.5183622858
C  C128  1  0.24900000  0.54920000  0.91730000  1.0 0.5183622858
C  C129  1  0.54920000  0.24900000  0.08270000  1.0 0.5183622858
C  C130  1  0.45080000  0.75100000  0.08270000  1.0 0.5183622858
C  C131  1  0.24900000  0.45080000  0.58270000  1.0 0.5183622858
C  C132  1  0.75100000  0.54920000  0.58270000  1.0 0.5183622858
C  C133  1  0.29040000  0.70960000  0.50000000  1.0 0.3189289504
C  C134  1  0.70960000  0.29040000  0.50000000  1.0 0.3189289504
C  C135  1  0.29040000  0.29040000  0.00000000  1.0 0.3115469946
C  C136  1  0.70960000  0.70960000  0.00000000  1.0 0.3189289504
C  C137  1  0.49450000  0.49140000  0.69740000  1.0 -0.0259996189
C  C138  1  0.50550000  0.50860000  0.69740000  1.0 -0.0259996189
C  C139  1  0.50860000  0.49450000  0.19740000  1.0 -0.0259996189
C  C140  1  0.49140000  0.50550000  0.19740000  1.0 -0.0259996189
C  C141  1  0.50550000  0.49140000  0.80260000  1.0 -0.0259996189
C  C142  1  0.49450000  0.50860000  0.80260000  1.0 -0.0259996189
C  C143  1  0.49140000  0.49450000  0.30260000  1.0 -0.0259996189
C  C144  1  0.50860000  0.50550000  0.30260000  1.0 -0.0259996189
C  C145  1  0.50550000  0.50860000  0.30260000  1.0 -0.0259996189
C  C146  1  0.49450000  0.49140000  0.30260000  1.0 -0.0259996189
C  C147  1  0.49140000  0.50550000  0.80260000  1.0 -0.0259996189
C  C148  1  0.50860000  0.49450000  0.80260000  1.0 -0.0259996189
C  C149  1  0.49450000  0.50860000  0.19740000  1.0 -0.0259996189
C  C150  1  0.50550000  0.49140000  0.19740000  1.0 -0.0259996189
C  C151  1  0.50860000  0.50550000  0.69740000  1.0 -0.0259996189
C  C152  1  0.49140000  0.49450000  0.69740000  1.0 -0.0259996189
C  C153  1  0.56600000  0.49700000  0.72290000  1.0 0.0496471332
C  C154  1  0.43400000  0.50300000  0.72290000  1.0 0.0496471332
C  C155  1  0.50300000  0.56600000  0.22290000  1.0 0.0496471332
C  C156  1  0.49700000  0.43400000  0.22290000  1.0 0.0496471332
C  C157  1  0.43400000  0.49700000  0.77710000  1.0 0.0496471332
C  C158  1  0.56600000  0.50300000  0.77710000  1.0 0.0496471332
C  C159  1  0.49700000  0.56600000  0.27710000  1.0 0.0496471332
C  C160  1  0.50300000  0.43400000  0.27710000  1.0 0.0496471332
C  C161  1  0.43400000  0.50300000  0.27710000  1.0 0.0496471332
C  C162  1  0.56600000  0.49700000  0.27710000  1.0 0.0496471332
C  C163  1  0.49700000  0.43400000  0.77710000  1.0 0.0496471332
C  C164  1  0.50300000  0.56600000  0.77710000  1.0 0.0496471332
C  C165  1  0.56600000  0.50300000  0.22290000  1.0 0.0496471332
C  C166  1  0.43400000  0.49700000  0.22290000  1.0 0.0496471332
C  C167  1  0.50300000  0.43400000  0.72290000  1.0 0.0496471332
C  C168  1  0.49700000  0.56600000  0.72290000  1.0 0.0496471332
C  C169  1  0.56000000  0.48700000  0.76750000  1.0 0.0787832004
C  C170  1  0.44000000  0.51300000  0.76750000  1.0 0.0787832004
C  C171  1  0.51300000  0.56000000  0.26750000  1.0 0.0787832004
C  C172  1  0.48700000  0.44000000  0.26750000  1.0 0.0787832004
C  C173  1  0.44000000  0.48700000  0.73250000  1.0 0.0787832004
C  C174  1  0.56000000  0.51300000  0.73250000  1.0 0.0787832004
C  C175  1  0.48700000  0.56000000  0.23250000  1.0 0.0787832004
C  C176  1  0.51300000  0.44000000  0.23250000  1.0 0.0787832004
C  C177  1  0.44000000  0.51300000  0.23250000  1.0 0.0787832004
C  C178  1  0.56000000  0.48700000  0.23250000  1.0 0.0787832004
C  C179  1  0.48700000  0.44000000  0.73250000  1.0 0.0787832004
C  C180  1  0.51300000  0.56000000  0.73250000  1.0 0.0787832004
C  C181  1  0.56000000  0.51300000  0.26750000  1.0 0.0787832004
C  C182  1  0.44000000  0.48700000  0.26750000  1.0 0.0787832004
C  C183  1  0.51300000  0.44000000  0.76750000  1.0 0.0787832004
C  C184  1  0.48700000  0.56000000  0.76750000  1.0 0.0787832004
C  C185  1  0.48300000  0.47300000  0.78660000  1.0 0.0496471332
C  C186  1  0.51700000  0.52700000  0.78660000  1.0 0.0496471332
C  C187  1  0.52700000  0.48300000  0.28660000  1.0 0.0496471332
C  C188  1  0.47300000  0.51700000  0.28660000  1.0 0.0496471332
C  C189  1  0.51700000  0.47300000  0.71340000  1.0 0.0496471332
C  C190  1  0.48300000  0.52700000  0.71340000  1.0 0.0496471332
C  C191  1  0.47300000  0.48300000  0.21340000  1.0 0.0496471332
C  C192  1  0.52700000  0.51700000  0.21340000  1.0 0.0496471332
C  C193  1  0.51700000  0.52700000  0.21340000  1.0 0.0496471332
C  C194  1  0.48300000  0.47300000  0.21340000  1.0 0.0496471332
C  C195  1  0.47300000  0.51700000  0.71340000  1.0 0.0496471332
C  C196  1  0.52700000  0.48300000  0.71340000  1.0 0.0496471332
C  C197  1  0.48300000  0.52700000  0.28660000  1.0 0.0496471332
C  C198  1  0.51700000  0.47300000  0.28660000  1.0 0.0496471332
C  C199  1  0.52700000  0.51700000  0.78660000  1.0 0.0496471332
C  C200  1  0.47300000  0.48300000  0.78660000  1.0 0.0496471332
C  C201  1  0.41100000  0.46700000  0.76110000  1.0 -0.0373743711
C  C202  1  0.58900000  0.53300000  0.76110000  1.0 -0.0373743711
C  C203  1  0.53300000  0.41100000  0.26110000  1.0 -0.0373743711
C  C204  1  0.46700000  0.58900000  0.26110000  1.0 -0.0373743711
C  C205  1  0.58900000  0.46700000  0.73890000  1.0 -0.0373743711
C  C206  1  0.41100000  0.53300000  0.73890000  1.0 -0.0373743711
C  C207  1  0.46700000  0.41100000  0.23890000  1.0 -0.0373743711
C  C208  1  0.53300000  0.58900000  0.23890000  1.0 -0.0373743711
C  C209  1  0.58900000  0.53300000  0.23890000  1.0 -0.0373743711
C  C210  1  0.41100000  0.46700000  0.23890000  1.0 -0.0373743711
C  C211  1  0.46700000  0.58900000  0.73890000  1.0 -0.0373743711
C  C212  1  0.53300000  0.41100000  0.73890000  1.0 -0.0373743711
C  C213  1  0.41100000  0.53300000  0.26110000  1.0 -0.0373743711
C  C214  1  0.58900000  0.46700000  0.26110000  1.0 -0.0373743711
C  C215  1  0.53300000  0.58900000  0.76110000  1.0 -0.0373743711
C  C216  1  0.46700000  0.41100000  0.76110000  1.0 -0.0373743711
N  N1  1  0.74710000  0.97680000  0.73220000  1.0 -0.2359526164
N  N2  1  0.25290000  0.02320000  0.73220000  1.0 -0.2359526164
N  N3  1  0.02320000  0.74710000  0.23220000  1.0 -0.2359526164
N  N4  1  0.97680000  0.25290000  0.23220000  1.0 -0.2359526164
N  N5  1  0.25290000  0.97680000  0.76780000  1.0 -0.2359526164
N  N6  1  0.74710000  0.02320000  0.76780000  1.0 -0.2359526164
N  N7  1  0.97680000  0.74710000  0.26780000  1.0 -0.2359526164
N  N8  1  0.02320000  0.25290000  0.26780000  1.0 -0.2359526164
N  N9  1  0.25290000  0.02320000  0.26780000  1.0 -0.2359526164
N  N10  1  0.74710000  0.97680000  0.26780000  1.0 -0.2359526164
N  N11  1  0.97680000  0.25290000  0.76780000  1.0 -0.2359526164
N  N12  1  0.02320000  0.74710000  0.76780000  1.0 -0.2359526164
N  N13  1  0.74710000  0.02320000  0.23220000  1.0 -0.2359526164
N  N14  1  0.25290000  0.97680000  0.23220000  1.0 -0.2359526164
N  N15  1  0.02320000  0.25290000  0.73220000  1.0 -0.2359526164
N  N16  1  0.97680000  0.74710000  0.73220000  1.0 -0.2359526164
N  N17  1  0.61810000  0.00000000  0.75000000  1.0 -0.4145519451
N  N18  1  0.38190000  0.00000000  0.75000000  1.0 -0.4145519451
N  N19  1  0.00000000  0.61810000  0.25000000  1.0 -0.4145519451
N  N20  1  0.00000000  0.38190000  0.25000000  1.0 -0.4145519451
N  N21  1  0.38190000  0.00000000  0.25000000  1.0 -0.4145519451
N  N22  1  0.61810000  0.00000000  0.25000000  1.0 -0.4145519451
N  N23  1  0.00000000  0.38190000  0.75000000  1.0 -0.4145519451
N  N24  1  0.00000000  0.61810000  0.75000000  1.0 -0.4145519451
N  N25  1  0.41700000  0.47700000  0.71650000  1.0 -0.0775460079
N  N26  1  0.58300000  0.52300000  0.71650000  1.0 -0.0746352064
N  N27  1  0.52300000  0.41700000  0.21650000  1.0 -0.0775460079
N  N28  1  0.47700000  0.58300000  0.21650000  1.0 -0.0775460079
N  N29  1  0.58300000  0.47700000  0.78350000  1.0 -0.0775460079
N  N30  1  0.41700000  0.52300000  0.78350000  1.0 -0.0775460079
N  N31  1  0.47700000  0.41700000  0.28350000  1.0 -0.0775460079
N  N32  1  0.52300000  0.58300000  0.28350000  1.0 -0.0746352064
N  N33  1  0.58300000  0.52300000  0.28350000  1.0 -0.0746352064
N  N34  1  0.41700000  0.47700000  0.28350000  1.0 -0.0775460079
N  N35  1  0.47700000  0.58300000  0.78350000  1.0 -0.0775460079
N  N36  1  0.52300000  0.41700000  0.78350000  1.0 -0.0775460079
N  N37  1  0.41700000  0.52300000  0.21650000  1.0 -0.0775460079
N  N38  1  0.58300000  0.47700000  0.21650000  1.0 -0.0775460079
N  N39  1  0.52300000  0.58300000  0.71650000  1.0 -0.0746352064
N  N40  1  0.47700000  0.41700000  0.71650000  1.0 -0.0775460079
O  O1  1  0.44760000  0.55240000  0.63980000  1.0 -0.0521093078
O  O2  1  0.55240000  0.44760000  0.63980000  1.0 -0.0521093078
O  O3  1  0.44760000  0.44760000  0.13980000  1.0 -0.0521093078
O  O4  1  0.55240000  0.55240000  0.13980000  1.0 -0.0521093078
O  O5  1  0.55240000  0.55240000  0.86020000  1.0 -0.0521093078
O  O6  1  0.44760000  0.44760000  0.86020000  1.0 -0.0521093078
O  O7  1  0.55240000  0.44760000  0.36020000  1.0 -0.0521093078
O  O8  1  0.44760000  0.55240000  0.36020000  1.0 -0.0521093078
O  O9  1  0.54750000  0.54750000  0.55400000  1.0 -0.3511519821
O  O10  1  0.45250000  0.45250000  0.55400000  1.0 -0.3511519821
O  O11  1  0.45250000  0.54750000  0.05400000  1.0 -0.3511519821
O  O12  1  0.54750000  0.45250000  0.05400000  1.0 -0.3511519821
O  O13  1  0.45250000  0.54750000  0.94600000  1.0 -0.3511519821
O  O14  1  0.54750000  0.45250000  0.94600000  1.0 -0.3511519821
O  O15  1  0.54750000  0.54750000  0.44600000  1.0 -0.3511519821
O  O16  1  0.45250000  0.45250000  0.44600000  1.0 -0.3511519821
O  O17  1  0.59980000  0.73950000  0.55280000  1.0 -0.5678589807
O  O18  1  0.40020000  0.26050000  0.55280000  1.0 -0.5678589807
O  O19  1  0.26050000  0.59980000  0.05280000  1.0 -0.5678589807
O  O20  1  0.73950000  0.40020000  0.05280000  1.0 -0.5678589807
O  O21  1  0.40020000  0.73950000  0.94720000  1.0 -0.5678589807
O  O22  1  0.59980000  0.26050000  0.94720000  1.0 -0.5678589807
O  O23  1  0.73950000  0.59980000  0.44720000  1.0 -0.5678589807
O  O24  1  0.26050000  0.40020000  0.44720000  1.0 -0.5678589807
O  O25  1  0.40020000  0.26050000  0.44720000  1.0 -0.5678589807
O  O26  1  0.59980000  0.73950000  0.44720000  1.0 -0.5678589807
O  O27  1  0.73950000  0.40020000  0.94720000  1.0 -0.5678589807
O  O28  1  0.26050000  0.59980000  0.94720000  1.0 -0.5678589807
O  O29  1  0.59980000  0.26050000  0.05280000  1.0 -0.5678589807
O  O30  1  0.40020000  0.73950000  0.05280000  1.0 -0.5678589807
O  O31  1  0.26050000  0.40020000  0.55280000  1.0 -0.5678589807
O  O32  1  0.73950000  0.59980000  0.55280000  1.0 -0.5678589807
O  O33  1  0.47920000  0.71840000  0.58840000  1.0 -0.5377687083
O  O34  1  0.52080000  0.28160000  0.58840000  1.0 -0.5377687083
O  O35  1  0.28160000  0.47920000  0.08840000  1.0 -0.5377687083
O  O36  1  0.71840000  0.52080000  0.08840000  1.0 -0.5377687083
O  O37  1  0.52080000  0.71840000  0.91160000  1.0 -0.5377687083
O  O38  1  0.47920000  0.28160000  0.91160000  1.0 -0.5377687083
O  O39  1  0.71840000  0.47920000  0.41160000  1.0 -0.5377687083
O  O40  1  0.28160000  0.52080000  0.41160000  1.0 -0.5377687083
O  O41  1  0.52080000  0.28160000  0.41160000  1.0 -0.5377687083
O  O42  1  0.47920000  0.71840000  0.41160000  1.0 -0.5377687083
O  O43  1  0.71840000  0.52080000  0.91160000  1.0 -0.5377687083
O  O44  1  0.28160000  0.47920000  0.91160000  1.0 -0.5377687083
O  O45  1  0.47920000  0.28160000  0.08840000  1.0 -0.5377687083
O  O46  1  0.52080000  0.71840000  0.08840000  1.0 -0.5377687083
O  O47  1  0.28160000  0.52080000  0.58840000  1.0 -0.5377687083
O  O48  1  0.71840000  0.47920000  0.58840000  1.0 -0.5377687083
O  O49  1  0.47680000  0.64470000  0.50000000  1.0 -1.0243314074
O  O50  1  0.52320000  0.35530000  0.50000000  1.0 -1.0261552697
O  O51  1  0.35530000  0.47680000  0.00000000  1.0 -1.0261552697
O  O52  1  0.64470000  0.52320000  0.00000000  1.0 -1.0243314074
O  O53  1  0.52320000  0.64470000  0.00000000  1.0 -1.0243314074
O  O54  1  0.47680000  0.35530000  0.00000000  1.0 -1.0261552697
O  O55  1  0.64470000  0.47680000  0.50000000  1.0 -1.0243314074
O  O56  1  0.35530000  0.52320000  0.50000000  1.0 -1.0243314074
O  O57  1  0.31110000  0.68890000  0.53680000  1.0 -0.4994622597
O  O58  1  0.68890000  0.31110000  0.53680000  1.0 -0.4994622597
O  O59  1  0.31110000  0.31110000  0.03680000  1.0 -0.4994622597
O  O60  1  0.68890000  0.68890000  0.03680000  1.0 -0.4994622597
O  O61  1  0.68890000  0.68890000  0.96320000  1.0 -0.4994622597
O  O62  1  0.31110000  0.31110000  0.96320000  1.0 -0.4994622597
O  O63  1  0.68890000  0.31110000  0.46320000  1.0 -0.4994622597
O  O64  1  0.31110000  0.68890000  0.46320000  1.0 -0.4994622597
O  O65  1  0.57350000  0.57350000  0.57040000  1.0 0.0496471332
O  O66  1  0.42650000  0.42650000  0.57040000  1.0 0.0496471332
O  O67  1  0.42650000  0.57350000  0.07040000  1.0 0.0496471332
O  O68  1  0.57350000  0.42650000  0.07040000  1.0 0.0496471332
O  O69  1  0.42650000  0.57350000  0.92960000  1.0 0.0496471332
O  O70  1  0.57350000  0.42650000  0.92960000  1.0 0.0496471332
O  O71  1  0.57350000  0.57350000  0.42960000  1.0 0.0555800333
O  O72  1  0.42650000  0.42650000  0.42960000  1.0 0.0496471332
