# DDEC6 charges by PACMAN v1.1 (https://github.com/mtap-research/PACMAN-charge/)
data_CIFKEL_ASR_pacman
_symmetry_space_group_name_H-M   'P 1'
_cell_length_a   16.03700000
_cell_length_b   16.03700000
_cell_length_c   30.89900000
_cell_angle_alpha   90.00000000
_cell_angle_beta   90.00000000
_cell_angle_gamma   90.00000000
_symmetry_Int_Tables_number   1
_chemical_formula_structural   Th3H43C58(N7O9)2
_chemical_formula_sum   'Th12 H172 C232 N56 O72'
_cell_volume   7946.77071673
_cell_formula_units_Z   4
loop_
 _symmetry_equiv_pos_site_id
 _symmetry_equiv_pos_as_xyz
  1  'x, y, z'
loop_
 _atom_site_type_symbol
 _atom_site_label
 _atom_site_symmetry_multiplicity
 _atom_site_fract_x
 _atom_site_fract_y
 _atom_site_fract_z
 _atom_site_occupancy
 _atom_site_charge
Th  Th1  1  0.41267000  0.58733000  0.56444000  1.0 2.0330823705
Th  Th2  1  0.58733000  0.41267000  0.56444000  1.0 2.035332422
Th  Th3  1  0.41267000  0.41267000  0.06444000  1.0 2.0330823705
Th  Th4  1  0.58733000  0.58733000  0.06444000  1.0 2.0330823705
Th  Th5  1  0.58733000  0.58733000  0.93556000  1.0 2.0330823705
Th  Th6  1  0.41267000  0.41267000  0.93556000  1.0 2.0330823705
Th  Th7  1  0.58733000  0.41267000  0.43556000  1.0 2.035332422
Th  Th8  1  0.41267000  0.58733000  0.43556000  1.0 2.035332422
Th  Th9  1  0.62324000  0.62324000  0.50000000  1.0 2.2060701057
Th  Th10  1  0.37676000  0.37676000  0.50000000  1.0 2.2060701057
Th  Th11  1  0.37676000  0.62324000  0.00000000  1.0 2.2060701057
Th  Th12  1  0.62324000  0.37676000  0.00000000  1.0 2.2060701057
H  H1  1  0.24740000  0.75260000  0.50000000  1.0 0.1838054662
H  H2  1  0.75260000  0.24740000  0.50000000  1.0 0.1838054662
H  H3  1  0.24740000  0.24740000  0.00000000  1.0 0.1838054662
H  H4  1  0.75260000  0.75260000  0.00000000  1.0 0.1851561323
H  H5  1  0.55840000  0.00000000  0.75000000  1.0 0.2717994556
H  H6  1  0.44160000  0.00000000  0.75000000  1.0 0.2717994556
H  H7  1  0.00000000  0.55840000  0.25000000  1.0 0.2717994556
H  H8  1  0.00000000  0.44160000  0.25000000  1.0 0.2717994556
H  H9  1  0.44160000  0.00000000  0.25000000  1.0 0.2717994556
H  H10  1  0.55840000  0.00000000  0.25000000  1.0 0.2717994556
H  H11  1  0.00000000  0.44160000  0.75000000  1.0 0.2717994556
H  H12  1  0.00000000  0.55840000  0.75000000  1.0 0.2717994556
H  H13  1  0.70010000  0.81750000  0.59750000  1.0 0.1260301343
H  H14  1  0.29990000  0.18250000  0.59750000  1.0 0.1260301343
H  H15  1  0.18250000  0.70010000  0.09750000  1.0 0.1260301343
H  H16  1  0.81750000  0.29990000  0.09750000  1.0 0.1260301343
H  H17  1  0.29990000  0.81750000  0.90250000  1.0 0.1260301343
H  H18  1  0.70010000  0.18250000  0.90250000  1.0 0.1260301343
H  H19  1  0.81750000  0.70010000  0.40250000  1.0 0.1260301343
H  H20  1  0.18250000  0.29990000  0.40250000  1.0 0.1260301343
H  H21  1  0.29990000  0.18250000  0.40250000  1.0 0.1260301343
H  H22  1  0.70010000  0.81750000  0.40250000  1.0 0.1260301343
H  H23  1  0.81750000  0.29990000  0.90250000  1.0 0.1260301343
H  H24  1  0.18250000  0.70010000  0.90250000  1.0 0.1260301343
H  H25  1  0.70010000  0.18250000  0.09750000  1.0 0.1260301343
H  H26  1  0.29990000  0.81750000  0.09750000  1.0 0.1260301343
H  H27  1  0.18250000  0.29990000  0.59750000  1.0 0.1260301343
H  H28  1  0.81750000  0.70010000  0.59750000  1.0 0.1260301343
H  H29  1  0.74730000  0.90400000  0.65330000  1.0 0.1260301343
H  H30  1  0.25270000  0.09600000  0.65330000  1.0 0.1260301343
H  H31  1  0.09600000  0.74730000  0.15330000  1.0 0.1260301343
H  H32  1  0.90400000  0.25270000  0.15330000  1.0 0.1260301343
H  H33  1  0.25270000  0.90400000  0.84670000  1.0 0.1260301343
H  H34  1  0.74730000  0.09600000  0.84670000  1.0 0.1260301343
H  H35  1  0.90400000  0.74730000  0.34670000  1.0 0.1260301343
H  H36  1  0.09600000  0.25270000  0.34670000  1.0 0.1260301343
H  H37  1  0.25270000  0.09600000  0.34670000  1.0 0.1260301343
H  H38  1  0.74730000  0.90400000  0.34670000  1.0 0.1260301343
H  H39  1  0.90400000  0.25270000  0.84670000  1.0 0.1260301343
H  H40  1  0.09600000  0.74730000  0.84670000  1.0 0.1260301343
H  H41  1  0.74730000  0.09600000  0.15330000  1.0 0.1260301343
H  H42  1  0.25270000  0.90400000  0.15330000  1.0 0.1260301343
H  H43  1  0.09600000  0.25270000  0.65330000  1.0 0.1260301343
H  H44  1  0.90400000  0.74730000  0.65330000  1.0 0.1260301343
H  H45  1  0.51550000  0.90510000  0.70560000  1.0 0.1077138116
H  H46  1  0.48450000  0.09490000  0.70560000  1.0 0.1077138116
H  H47  1  0.09490000  0.51550000  0.20560000  1.0 0.1077138116
H  H48  1  0.90510000  0.48450000  0.20560000  1.0 0.1077138116
H  H49  1  0.48450000  0.90510000  0.79440000  1.0 0.1077138116
H  H50  1  0.51550000  0.09490000  0.79440000  1.0 0.1077138116
H  H51  1  0.90510000  0.51550000  0.29440000  1.0 0.1077138116
H  H52  1  0.09490000  0.48450000  0.29440000  1.0 0.1077138116
H  H53  1  0.48450000  0.09490000  0.29440000  1.0 0.1077138116
H  H54  1  0.51550000  0.90510000  0.29440000  1.0 0.1077138116
H  H55  1  0.90510000  0.48450000  0.79440000  1.0 0.1077138116
H  H56  1  0.09490000  0.51550000  0.79440000  1.0 0.1077138116
H  H57  1  0.51550000  0.09490000  0.20560000  1.0 0.1077138116
H  H58  1  0.48450000  0.90510000  0.20560000  1.0 0.1077138116
H  H59  1  0.09490000  0.48450000  0.70560000  1.0 0.1077138116
H  H60  1  0.90510000  0.51550000  0.70560000  1.0 0.1077138116
H  H61  1  0.46830000  0.81860000  0.64980000  1.0 0.1460777439
H  H62  1  0.53170000  0.18140000  0.64980000  1.0 0.1460777439
H  H63  1  0.18140000  0.46830000  0.14980000  1.0 0.1460777439
H  H64  1  0.81860000  0.53170000  0.14980000  1.0 0.1460777439
H  H65  1  0.53170000  0.81860000  0.85020000  1.0 0.1460777439
H  H66  1  0.46830000  0.18140000  0.85020000  1.0 0.1460777439
H  H67  1  0.81860000  0.46830000  0.35020000  1.0 0.1460777439
H  H68  1  0.18140000  0.53170000  0.35020000  1.0 0.1460777439
H  H69  1  0.53170000  0.18140000  0.35020000  1.0 0.1460777439
H  H70  1  0.46830000  0.81860000  0.35020000  1.0 0.1460777439
H  H71  1  0.81860000  0.53170000  0.85020000  1.0 0.1460777439
H  H72  1  0.18140000  0.46830000  0.85020000  1.0 0.1460777439
H  H73  1  0.46830000  0.18140000  0.14980000  1.0 0.1460777439
H  H74  1  0.53170000  0.81860000  0.14980000  1.0 0.1460777439
H  H75  1  0.18140000  0.53170000  0.64980000  1.0 0.1460777439
H  H76  1  0.81860000  0.46830000  0.64980000  1.0 0.1460777439
H  H77  1  0.38320000  0.46960000  0.70870000  1.0 0.1077138116
H  H78  1  0.61680000  0.53040000  0.70870000  1.0 0.1077138116
H  H79  1  0.53040000  0.38320000  0.20870000  1.0 0.1077138116
H  H80  1  0.46960000  0.61680000  0.20870000  1.0 0.1077138116
H  H81  1  0.61680000  0.46960000  0.79130000  1.0 0.1077138116
H  H82  1  0.38320000  0.53040000  0.79130000  1.0 0.1077138116
H  H83  1  0.46960000  0.38320000  0.29130000  1.0 0.1077138116
H  H84  1  0.53040000  0.61680000  0.29130000  1.0 0.1077138116
H  H85  1  0.61680000  0.53040000  0.29130000  1.0 0.1077138116
H  H86  1  0.38320000  0.46960000  0.29130000  1.0 0.1077138116
H  H87  1  0.46960000  0.61680000  0.79130000  1.0 0.1077138116
H  H88  1  0.53040000  0.38320000  0.79130000  1.0 0.1077138116
H  H89  1  0.38320000  0.53040000  0.20870000  1.0 0.1077138116
H  H90  1  0.61680000  0.46960000  0.20870000  1.0 0.1077138116
H  H91  1  0.53040000  0.61680000  0.70870000  1.0 0.1077138116
H  H92  1  0.46960000  0.38320000  0.70870000  1.0 0.1077138116
H  H93  1  0.69400000  0.57440000  0.70410000  1.0 0.2413846619
H  H94  1  0.30600000  0.42560000  0.70410000  1.0 0.2413846619
H  H95  1  0.42560000  0.69400000  0.20410000  1.0 0.2413846619
H  H96  1  0.57440000  0.30600000  0.20410000  1.0 0.2413846619
H  H97  1  0.30600000  0.57440000  0.79590000  1.0 0.2413846619
H  H98  1  0.69400000  0.42560000  0.79590000  1.0 0.2413846619
H  H99  1  0.57440000  0.69400000  0.29590000  1.0 0.2413846619
H  H100  1  0.42560000  0.30600000  0.29590000  1.0 0.2413846619
H  H101  1  0.30600000  0.42560000  0.29590000  1.0 0.2413846619
H  H102  1  0.69400000  0.57440000  0.29590000  1.0 0.2413846619
H  H103  1  0.57440000  0.30600000  0.79590000  1.0 0.2413846619
H  H104  1  0.42560000  0.69400000  0.79590000  1.0 0.2413846619
H  H105  1  0.69400000  0.42560000  0.20410000  1.0 0.2413846619
H  H106  1  0.30600000  0.57440000  0.20410000  1.0 0.2413846619
H  H107  1  0.42560000  0.30600000  0.70410000  1.0 0.2413846619
H  H108  1  0.57440000  0.69400000  0.70410000  1.0 0.2413846619
H  H109  1  0.64600000  0.55140000  0.66320000  1.0 0.1421271341
H  H110  1  0.35400000  0.44860000  0.66320000  1.0 0.1421271341
H  H111  1  0.44860000  0.64600000  0.16320000  1.0 0.1421271341
H  H112  1  0.55140000  0.35400000  0.16320000  1.0 0.1421271341
H  H113  1  0.35400000  0.55140000  0.83680000  1.0 0.1421271341
H  H114  1  0.64600000  0.44860000  0.83680000  1.0 0.1421271341
H  H115  1  0.55140000  0.64600000  0.33680000  1.0 0.1421271341
H  H116  1  0.44860000  0.35400000  0.33680000  1.0 0.1421271341
H  H117  1  0.35400000  0.44860000  0.33680000  1.0 0.1421271341
H  H118  1  0.64600000  0.55140000  0.33680000  1.0 0.1421271341
H  H119  1  0.55140000  0.35400000  0.83680000  1.0 0.1421271341
H  H120  1  0.44860000  0.64600000  0.83680000  1.0 0.1421271341
H  H121  1  0.64600000  0.44860000  0.16320000  1.0 0.1421271341
H  H122  1  0.35400000  0.55140000  0.16320000  1.0 0.1421271341
H  H123  1  0.44860000  0.35400000  0.66320000  1.0 0.1421271341
H  H124  1  0.55140000  0.64600000  0.66320000  1.0 0.1421271341
H  H125  1  0.37060000  0.55540000  0.72330000  1.0 0.090354073
H  H126  1  0.62940000  0.44460000  0.72330000  1.0 0.090354073
H  H127  1  0.44460000  0.37060000  0.22330000  1.0 0.090354073
H  H128  1  0.55540000  0.62940000  0.22330000  1.0 0.090354073
H  H129  1  0.62940000  0.55540000  0.77670000  1.0 0.090354073
H  H130  1  0.37060000  0.44460000  0.77670000  1.0 0.090354073
H  H131  1  0.55540000  0.37060000  0.27670000  1.0 0.090354073
H  H132  1  0.44460000  0.62940000  0.27670000  1.0 0.090354073
H  H133  1  0.62940000  0.44460000  0.27670000  1.0 0.090354073
H  H134  1  0.37060000  0.55540000  0.27670000  1.0 0.090354073
H  H135  1  0.55540000  0.62940000  0.77670000  1.0 0.090354073
H  H136  1  0.44460000  0.37060000  0.77670000  1.0 0.090354073
H  H137  1  0.37060000  0.44460000  0.22330000  1.0 0.090354073
H  H138  1  0.62940000  0.55540000  0.22330000  1.0 0.090354073
H  H139  1  0.44460000  0.62940000  0.72330000  1.0 0.090354073
H  H140  1  0.55540000  0.37060000  0.72330000  1.0 0.090354073
H  H141  1  0.68340000  0.45910000  0.72030000  1.0 0.1214078545
H  H142  1  0.31660000  0.54090000  0.72030000  1.0 0.1214078545
H  H143  1  0.54090000  0.68340000  0.22030000  1.0 0.1214078545
H  H144  1  0.45910000  0.31660000  0.22030000  1.0 0.1214078545
H  H145  1  0.31660000  0.45910000  0.77970000  1.0 0.1214078545
H  H146  1  0.68340000  0.54090000  0.77970000  1.0 0.1214078545
H  H147  1  0.45910000  0.68340000  0.27970000  1.0 0.1214078545
H  H148  1  0.54090000  0.31660000  0.27970000  1.0 0.1214078545
H  H149  1  0.31660000  0.54090000  0.27970000  1.0 0.1214078545
H  H150  1  0.68340000  0.45910000  0.27970000  1.0 0.1214078545
H  H151  1  0.45910000  0.31660000  0.77970000  1.0 0.1214078545
H  H152  1  0.54090000  0.68340000  0.77970000  1.0 0.1214078545
H  H153  1  0.68340000  0.54090000  0.22030000  1.0 0.1214078545
H  H154  1  0.31660000  0.45910000  0.22030000  1.0 0.1214078545
H  H155  1  0.54090000  0.31660000  0.72030000  1.0 0.1214078545
H  H156  1  0.45910000  0.68340000  0.72030000  1.0 0.1214078545
H  H157  1  0.63540000  0.47860000  0.67890000  1.0 0.1077138116
H  H158  1  0.36460000  0.52140000  0.67890000  1.0 0.1077138116
H  H159  1  0.52140000  0.63540000  0.17890000  1.0 0.1077138116
H  H160  1  0.47860000  0.36460000  0.17890000  1.0 0.1077138116
H  H161  1  0.36460000  0.47860000  0.82110000  1.0 0.1077138116
H  H162  1  0.63540000  0.52140000  0.82110000  1.0 0.1077138116
H  H163  1  0.47860000  0.63540000  0.32110000  1.0 0.1077138116
H  H164  1  0.52140000  0.36460000  0.32110000  1.0 0.1077138116
H  H165  1  0.36460000  0.52140000  0.32110000  1.0 0.1077138116
H  H166  1  0.63540000  0.47860000  0.32110000  1.0 0.1077138116
H  H167  1  0.47860000  0.36460000  0.82110000  1.0 0.1077138116
H  H168  1  0.52140000  0.63540000  0.82110000  1.0 0.1077138116
H  H169  1  0.63540000  0.52140000  0.17890000  1.0 0.1077138116
H  H170  1  0.36460000  0.47860000  0.17890000  1.0 0.1077138116
H  H171  1  0.52140000  0.36460000  0.67890000  1.0 0.1077138116
H  H172  1  0.47860000  0.63540000  0.67890000  1.0 0.1077138116
C  C1  1  0.28930000  0.71070000  0.50000000  1.0 0.3490580524
C  C2  1  0.71070000  0.28930000  0.50000000  1.0 0.3490580524
C  C3  1  0.28930000  0.28930000  0.00000000  1.0 0.362578164
C  C4  1  0.71070000  0.71070000  0.00000000  1.0 0.3490580524
C  C5  1  0.57980000  0.80990000  0.61837000  1.0 0.0066496431
C  C6  1  0.42020000  0.19010000  0.61837000  1.0 0.0066496431
C  C7  1  0.19010000  0.57980000  0.11837000  1.0 0.0066496431
C  C8  1  0.80990000  0.42020000  0.11837000  1.0 0.0066496431
C  C9  1  0.42020000  0.80990000  0.88163000  1.0 0.0066496431
C  C10  1  0.57980000  0.19010000  0.88163000  1.0 0.0066496431
C  C11  1  0.80990000  0.57980000  0.38163000  1.0 0.0066496431
C  C12  1  0.19010000  0.42020000  0.38163000  1.0 0.0066496431
C  C13  1  0.42020000  0.19010000  0.38163000  1.0 0.0066496431
C  C14  1  0.57980000  0.80990000  0.38163000  1.0 0.0066496431
C  C15  1  0.80990000  0.42020000  0.88163000  1.0 0.0066496431
C  C16  1  0.19010000  0.57980000  0.88163000  1.0 0.0066496431
C  C17  1  0.57980000  0.19010000  0.11837000  1.0 0.0066496431
C  C18  1  0.42020000  0.80990000  0.11837000  1.0 0.0066496431
C  C19  1  0.19010000  0.42020000  0.61837000  1.0 0.0066496431
C  C20  1  0.80990000  0.57980000  0.61837000  1.0 0.0066496431
C  C21  1  0.66260000  0.83530000  0.61940000  1.0 -0.1118982842
C  C22  1  0.33740000  0.16470000  0.61940000  1.0 -0.1118982842
C  C23  1  0.16470000  0.66260000  0.11940000  1.0 -0.1118982842
C  C24  1  0.83530000  0.33740000  0.11940000  1.0 -0.1118982842
C  C25  1  0.33740000  0.83530000  0.88060000  1.0 -0.1118982842
C  C26  1  0.66260000  0.16470000  0.88060000  1.0 -0.1118982842
C  C27  1  0.83530000  0.66260000  0.38060000  1.0 -0.1118982842
C  C28  1  0.16470000  0.33740000  0.38060000  1.0 -0.1118982842
C  C29  1  0.33740000  0.16470000  0.38060000  1.0 -0.1118982842
C  C30  1  0.66260000  0.83530000  0.38060000  1.0 -0.1118982842
C  C31  1  0.83530000  0.33740000  0.88060000  1.0 -0.1118982842
C  C32  1  0.16470000  0.66260000  0.88060000  1.0 -0.1118982842
C  C33  1  0.66260000  0.16470000  0.11940000  1.0 -0.1118982842
C  C34  1  0.33740000  0.83530000  0.11940000  1.0 -0.1118982842
C  C35  1  0.16470000  0.33740000  0.61940000  1.0 -0.1118982842
C  C36  1  0.83530000  0.66260000  0.61940000  1.0 -0.1118982842
C  C37  1  0.69060000  0.88670000  0.65260000  1.0 -0.1315583729
C  C38  1  0.30940000  0.11330000  0.65260000  1.0 -0.1315583729
C  C39  1  0.11330000  0.69060000  0.15260000  1.0 -0.1315583729
C  C40  1  0.88670000  0.30940000  0.15260000  1.0 -0.1315583729
C  C41  1  0.30940000  0.88670000  0.84740000  1.0 -0.1315583729
C  C42  1  0.69060000  0.11330000  0.84740000  1.0 -0.1315583729
C  C43  1  0.88670000  0.69060000  0.34740000  1.0 -0.1315583729
C  C44  1  0.11330000  0.30940000  0.34740000  1.0 -0.1315583729
C  C45  1  0.30940000  0.11330000  0.34740000  1.0 -0.1315583729
C  C46  1  0.69060000  0.88670000  0.34740000  1.0 -0.1315583729
C  C47  1  0.88670000  0.30940000  0.84740000  1.0 -0.1315583729
C  C48  1  0.11330000  0.69060000  0.84740000  1.0 -0.1315583729
C  C49  1  0.69060000  0.11330000  0.15260000  1.0 -0.1315583729
C  C50  1  0.30940000  0.88670000  0.15260000  1.0 -0.1315583729
C  C51  1  0.11330000  0.30940000  0.65260000  1.0 -0.1315583729
C  C52  1  0.88670000  0.69060000  0.65260000  1.0 -0.1315583729
C  C53  1  0.63580000  0.91270000  0.68470000  1.0 0.0309260345
C  C54  1  0.36420000  0.08730000  0.68470000  1.0 0.0309260345
C  C55  1  0.08730000  0.63580000  0.18470000  1.0 0.0309260345
C  C56  1  0.91270000  0.36420000  0.18470000  1.0 0.0309260345
C  C57  1  0.36420000  0.91270000  0.81530000  1.0 0.0309260345
C  C58  1  0.63580000  0.08730000  0.81530000  1.0 0.0309260345
C  C59  1  0.91270000  0.63580000  0.31530000  1.0 0.0309260345
C  C60  1  0.08730000  0.36420000  0.31530000  1.0 0.0309260345
C  C61  1  0.36420000  0.08730000  0.31530000  1.0 0.0309260345
C  C62  1  0.63580000  0.91270000  0.31530000  1.0 0.0309260345
C  C63  1  0.91270000  0.36420000  0.81530000  1.0 0.0309260345
C  C64  1  0.08730000  0.63580000  0.81530000  1.0 0.0309260345
C  C65  1  0.63580000  0.08730000  0.18470000  1.0 0.0309260345
C  C66  1  0.36420000  0.91270000  0.18470000  1.0 0.0309260345
C  C67  1  0.08730000  0.36420000  0.68470000  1.0 0.0309260345
C  C68  1  0.91270000  0.63580000  0.68470000  1.0 0.0309260345
C  C69  1  0.55300000  0.88730000  0.68370000  1.0 -0.1832297862
C  C70  1  0.44700000  0.11270000  0.68370000  1.0 -0.1832297862
C  C71  1  0.11270000  0.55300000  0.18370000  1.0 -0.1832297862
C  C72  1  0.88730000  0.44700000  0.18370000  1.0 -0.1832297862
C  C73  1  0.44700000  0.88730000  0.81630000  1.0 -0.1832297862
C  C74  1  0.55300000  0.11270000  0.81630000  1.0 -0.1832297862
C  C75  1  0.88730000  0.55300000  0.31630000  1.0 -0.1832297862
C  C76  1  0.11270000  0.44700000  0.31630000  1.0 -0.1832297862
C  C77  1  0.44700000  0.11270000  0.31630000  1.0 -0.1832297862
C  C78  1  0.55300000  0.88730000  0.31630000  1.0 -0.1832297862
C  C79  1  0.88730000  0.44700000  0.81630000  1.0 -0.1832297862
C  C80  1  0.11270000  0.55300000  0.81630000  1.0 -0.1832297862
C  C81  1  0.55300000  0.11270000  0.18370000  1.0 -0.1832297862
C  C82  1  0.44700000  0.88730000  0.18370000  1.0 -0.1832297862
C  C83  1  0.11270000  0.44700000  0.68370000  1.0 -0.1832297862
C  C84  1  0.88730000  0.55300000  0.68370000  1.0 -0.1832297862
C  C85  1  0.52490000  0.83590000  0.65050000  1.0 -0.1315583729
C  C86  1  0.47510000  0.16410000  0.65050000  1.0 -0.1315583729
C  C87  1  0.16410000  0.52490000  0.15050000  1.0 -0.1315583729
C  C88  1  0.83590000  0.47510000  0.15050000  1.0 -0.1315583729
C  C89  1  0.47510000  0.83590000  0.84950000  1.0 -0.1315583729
C  C90  1  0.52490000  0.16410000  0.84950000  1.0 -0.1315583729
C  C91  1  0.83590000  0.52490000  0.34950000  1.0 -0.1315583729
C  C92  1  0.16410000  0.47510000  0.34950000  1.0 -0.1315583729
C  C93  1  0.47510000  0.16410000  0.34950000  1.0 -0.1315583729
C  C94  1  0.52490000  0.83590000  0.34950000  1.0 -0.1315583729
C  C95  1  0.83590000  0.47510000  0.84950000  1.0 -0.1315583729
C  C96  1  0.16410000  0.52490000  0.84950000  1.0 -0.1315583729
C  C97  1  0.52490000  0.16410000  0.15050000  1.0 -0.1315583729
C  C98  1  0.47510000  0.83590000  0.15050000  1.0 -0.1315583729
C  C99  1  0.16410000  0.47510000  0.65050000  1.0 -0.1315583729
C  C100  1  0.83590000  0.52490000  0.65050000  1.0 -0.1315583729
C  C101  1  0.67520000  0.96300000  0.72040000  1.0 0.2589801952
C  C102  1  0.32480000  0.03700000  0.72040000  1.0 0.2589801952
C  C103  1  0.03700000  0.67520000  0.22040000  1.0 0.2589801952
C  C104  1  0.96300000  0.32480000  0.22040000  1.0 0.2589801952
C  C105  1  0.32480000  0.96300000  0.77960000  1.0 0.2589801952
C  C106  1  0.67520000  0.03700000  0.77960000  1.0 0.2589801952
C  C107  1  0.96300000  0.67520000  0.27960000  1.0 0.2589801952
C  C108  1  0.03700000  0.32480000  0.27960000  1.0 0.2589801952
C  C109  1  0.32480000  0.03700000  0.27960000  1.0 0.2589801952
C  C110  1  0.67520000  0.96300000  0.27960000  1.0 0.2589801952
C  C111  1  0.96300000  0.32480000  0.77960000  1.0 0.2589801952
C  C112  1  0.03700000  0.67520000  0.77960000  1.0 0.2589801952
C  C113  1  0.67520000  0.03700000  0.22040000  1.0 0.2589801952
C  C114  1  0.32480000  0.96300000  0.22040000  1.0 0.2589801952
C  C115  1  0.03700000  0.32480000  0.72040000  1.0 0.2589801952
C  C116  1  0.96300000  0.67520000  0.72040000  1.0 0.2589801952
C  C117  1  0.50000000  0.50000000  0.65660000  1.0 0.045726739
C  C118  1  0.50000000  0.50000000  0.15660000  1.0 0.045726739
C  C119  1  0.50000000  0.50000000  0.84340000  1.0 0.045726739
C  C120  1  0.50000000  0.50000000  0.34340000  1.0 0.045726739
C  C121  1  0.50310000  0.50600000  0.69790000  1.0 -0.0404509789
C  C122  1  0.49690000  0.49400000  0.69790000  1.0 -0.0404509789
C  C123  1  0.49400000  0.50310000  0.19790000  1.0 -0.0404509789
C  C124  1  0.50600000  0.49690000  0.19790000  1.0 -0.0404509789
C  C125  1  0.49690000  0.50600000  0.80210000  1.0 -0.0404509789
C  C126  1  0.50310000  0.49400000  0.80210000  1.0 -0.0404509789
C  C127  1  0.50600000  0.50310000  0.30210000  1.0 -0.0404509789
C  C128  1  0.49400000  0.49690000  0.30210000  1.0 -0.0404509789
C  C129  1  0.49690000  0.49400000  0.30210000  1.0 -0.0404509789
C  C130  1  0.50310000  0.50600000  0.30210000  1.0 -0.0404509789
C  C131  1  0.50600000  0.49690000  0.80210000  1.0 -0.0404509789
C  C132  1  0.49400000  0.50310000  0.80210000  1.0 -0.0404509789
C  C133  1  0.50310000  0.49400000  0.19790000  1.0 -0.0404509789
C  C134  1  0.49690000  0.50600000  0.19790000  1.0 -0.0404509789
C  C135  1  0.49400000  0.49690000  0.69790000  1.0 -0.0404509789
C  C136  1  0.50600000  0.50310000  0.69790000  1.0 -0.0404509789
C  C137  1  0.57630000  0.53200000  0.71810000  1.0 0.0174035637
C  C138  1  0.42370000  0.46800000  0.71810000  1.0 0.0174035637
C  C139  1  0.46800000  0.57630000  0.21810000  1.0 0.0174035637
C  C140  1  0.53200000  0.42370000  0.21810000  1.0 0.0174035637
C  C141  1  0.42370000  0.53200000  0.78190000  1.0 0.0174035637
C  C142  1  0.57630000  0.46800000  0.78190000  1.0 0.0174035637
C  C143  1  0.53200000  0.57630000  0.28190000  1.0 0.0174035637
C  C144  1  0.46800000  0.42370000  0.28190000  1.0 0.0174035637
C  C145  1  0.42370000  0.46800000  0.28190000  1.0 0.0174035637
C  C146  1  0.57630000  0.53200000  0.28190000  1.0 0.0174035637
C  C147  1  0.53200000  0.42370000  0.78190000  1.0 0.0174035637
C  C148  1  0.46800000  0.57630000  0.78190000  1.0 0.0174035637
C  C149  1  0.57630000  0.46800000  0.21810000  1.0 0.0174035637
C  C150  1  0.42370000  0.53200000  0.21810000  1.0 0.0174035637
C  C151  1  0.46800000  0.42370000  0.71810000  1.0 0.0174035637
C  C152  1  0.53200000  0.57630000  0.71810000  1.0 0.0174035637
C  C153  1  0.43320000  0.48700000  0.72250000  1.0 -0.0109407035
C  C154  1  0.56680000  0.51300000  0.72250000  1.0 -0.0109407035
C  C155  1  0.51300000  0.43320000  0.22250000  1.0 -0.0109407035
C  C156  1  0.48700000  0.56680000  0.22250000  1.0 -0.0109407035
C  C157  1  0.56680000  0.48700000  0.77750000  1.0 -0.0109407035
C  C158  1  0.43320000  0.51300000  0.77750000  1.0 -0.0109407035
C  C159  1  0.48700000  0.43320000  0.27750000  1.0 -0.0109407035
C  C160  1  0.51300000  0.56680000  0.27750000  1.0 -0.0109407035
C  C161  1  0.56680000  0.51300000  0.27750000  1.0 -0.0109407035
C  C162  1  0.43320000  0.48700000  0.27750000  1.0 -0.0109407035
C  C163  1  0.48700000  0.56680000  0.77750000  1.0 -0.0109407035
C  C164  1  0.51300000  0.43320000  0.77750000  1.0 -0.0109407035
C  C165  1  0.43320000  0.51300000  0.22250000  1.0 -0.0109407035
C  C166  1  0.56680000  0.48700000  0.22250000  1.0 -0.0109407035
C  C167  1  0.51300000  0.56680000  0.72250000  1.0 -0.0109407035
C  C168  1  0.48700000  0.43320000  0.72250000  1.0 -0.0109407035
C  C169  1  0.54970000  0.74940000  0.58320000  1.0 0.5596821524
C  C170  1  0.45030000  0.25060000  0.58320000  1.0 0.5596821524
C  C171  1  0.25060000  0.54970000  0.08320000  1.0 0.5596821524
C  C172  1  0.74940000  0.45030000  0.08320000  1.0 0.5596821524
C  C173  1  0.45030000  0.74940000  0.91680000  1.0 0.5596821524
C  C174  1  0.54970000  0.25060000  0.91680000  1.0 0.5596821524
C  C175  1  0.74940000  0.54970000  0.41680000  1.0 0.5596821524
C  C176  1  0.25060000  0.45030000  0.41680000  1.0 0.5596821524
C  C177  1  0.45030000  0.25060000  0.41680000  1.0 0.5596821524
C  C178  1  0.54970000  0.74940000  0.41680000  1.0 0.5596821524
C  C179  1  0.74940000  0.45030000  0.91680000  1.0 0.5596821524
C  C180  1  0.25060000  0.54970000  0.91680000  1.0 0.5596821524
C  C181  1  0.54970000  0.25060000  0.08320000  1.0 0.5596821524
C  C182  1  0.45030000  0.74940000  0.08320000  1.0 0.5596821524
C  C183  1  0.25060000  0.45030000  0.58320000  1.0 0.5596821524
C  C184  1  0.74940000  0.54970000  0.58320000  1.0 0.5596821524
C  C185  1  0.42100000  0.53800000  0.73710000  1.0 -0.0266265833
C  C186  1  0.57900000  0.46200000  0.73710000  1.0 -0.0266265833
C  C187  1  0.46200000  0.42100000  0.23710000  1.0 -0.0266265833
C  C188  1  0.53800000  0.57900000  0.23710000  1.0 -0.0266265833
C  C189  1  0.57900000  0.53800000  0.76290000  1.0 -0.0266265833
C  C190  1  0.42100000  0.46200000  0.76290000  1.0 -0.0266265833
C  C191  1  0.53800000  0.42100000  0.26290000  1.0 -0.0266265833
C  C192  1  0.46200000  0.57900000  0.26290000  1.0 -0.0266265833
C  C193  1  0.57900000  0.46200000  0.26290000  1.0 -0.0266265833
C  C194  1  0.42100000  0.53800000  0.26290000  1.0 -0.0266265833
C  C195  1  0.53800000  0.57900000  0.76290000  1.0 -0.0266265833
C  C196  1  0.46200000  0.42100000  0.76290000  1.0 -0.0266265833
C  C197  1  0.42100000  0.46200000  0.23710000  1.0 -0.0266265833
C  C198  1  0.57900000  0.53800000  0.23710000  1.0 -0.0266265833
C  C199  1  0.46200000  0.57900000  0.73710000  1.0 -0.0266265833
C  C200  1  0.53800000  0.42100000  0.73710000  1.0 -0.0266265833
C  C201  1  0.49100000  0.51900000  0.71250000  1.0 -0.0109407035
C  C202  1  0.50900000  0.48100000  0.71250000  1.0 -0.0109407035
C  C203  1  0.48100000  0.49100000  0.21250000  1.0 -0.0109407035
C  C204  1  0.51900000  0.50900000  0.21250000  1.0 -0.0109407035
C  C205  1  0.50900000  0.51900000  0.78750000  1.0 -0.0109407035
C  C206  1  0.49100000  0.48100000  0.78750000  1.0 -0.0109407035
C  C207  1  0.51900000  0.49100000  0.28750000  1.0 -0.0109407035
C  C208  1  0.48100000  0.50900000  0.28750000  1.0 -0.0109407035
C  C209  1  0.50900000  0.48100000  0.28750000  1.0 -0.0109407035
C  C210  1  0.49100000  0.51900000  0.28750000  1.0 -0.0109407035
C  C211  1  0.51900000  0.50900000  0.78750000  1.0 -0.0109407035
C  C212  1  0.48100000  0.49100000  0.78750000  1.0 -0.0109407035
C  C213  1  0.49100000  0.48100000  0.21250000  1.0 -0.0109407035
C  C214  1  0.50900000  0.51900000  0.21250000  1.0 -0.0109407035
C  C215  1  0.48100000  0.50900000  0.71250000  1.0 -0.0109407035
C  C216  1  0.51900000  0.49100000  0.71250000  1.0 -0.0109407035
C  C217  1  0.56400000  0.49300000  0.73270000  1.0 0.0309260345
C  C218  1  0.43600000  0.50700000  0.73270000  1.0 0.0309260345
C  C219  1  0.50700000  0.56400000  0.23270000  1.0 0.0309260345
C  C220  1  0.49300000  0.43600000  0.23270000  1.0 0.0309260345
C  C221  1  0.43600000  0.49300000  0.76730000  1.0 0.0309260345
C  C222  1  0.56400000  0.50700000  0.76730000  1.0 0.0309260345
C  C223  1  0.49300000  0.56400000  0.26730000  1.0 0.0309260345
C  C224  1  0.50700000  0.43600000  0.26730000  1.0 0.0309260345
C  C225  1  0.43600000  0.50700000  0.26730000  1.0 0.0309260345
C  C226  1  0.56400000  0.49300000  0.26730000  1.0 0.0309260345
C  C227  1  0.49300000  0.43600000  0.76730000  1.0 0.0309260345
C  C228  1  0.50700000  0.56400000  0.76730000  1.0 0.0309260345
C  C229  1  0.56400000  0.50700000  0.23270000  1.0 0.0309260345
C  C230  1  0.43600000  0.49300000  0.23270000  1.0 0.0309260345
C  C231  1  0.50700000  0.43600000  0.73270000  1.0 0.0309260345
C  C232  1  0.49300000  0.56400000  0.73270000  1.0 0.0309260345
N  N1  1  0.74750000  0.97610000  0.73270000  1.0 -0.2224119188
N  N2  1  0.25250000  0.02390000  0.73270000  1.0 -0.2224119188
N  N3  1  0.02390000  0.74750000  0.23270000  1.0 -0.2224119188
N  N4  1  0.97610000  0.25250000  0.23270000  1.0 -0.2224119188
N  N5  1  0.25250000  0.97610000  0.76730000  1.0 -0.2224119188
N  N6  1  0.74750000  0.02390000  0.76730000  1.0 -0.2224119188
N  N7  1  0.97610000  0.74750000  0.26730000  1.0 -0.2224119188
N  N8  1  0.02390000  0.25250000  0.26730000  1.0 -0.2224119188
N  N9  1  0.25250000  0.02390000  0.26730000  1.0 -0.2224119188
N  N10  1  0.74750000  0.97610000  0.26730000  1.0 -0.2224119188
N  N11  1  0.97610000  0.25250000  0.76730000  1.0 -0.2224119188
N  N12  1  0.02390000  0.74750000  0.76730000  1.0 -0.2224119188
N  N13  1  0.74750000  0.02390000  0.23270000  1.0 -0.2224119188
N  N14  1  0.25250000  0.97610000  0.23270000  1.0 -0.2224119188
N  N15  1  0.02390000  0.25250000  0.73270000  1.0 -0.2224119188
N  N16  1  0.97610000  0.74750000  0.73270000  1.0 -0.2224119188
N  N17  1  0.61330000  0.00000000  0.75000000  1.0 -0.4318863347
N  N18  1  0.38670000  0.00000000  0.75000000  1.0 -0.4318863347
N  N19  1  0.00000000  0.61330000  0.25000000  1.0 -0.4318863347
N  N20  1  0.00000000  0.38670000  0.25000000  1.0 -0.4318863347
N  N21  1  0.38670000  0.00000000  0.25000000  1.0 -0.4318863347
N  N22  1  0.61330000  0.00000000  0.25000000  1.0 -0.4318863347
N  N23  1  0.00000000  0.38670000  0.75000000  1.0 -0.4318863347
N  N24  1  0.00000000  0.61330000  0.75000000  1.0 -0.4318863347
N  N25  1  0.64800000  0.55600000  0.69160000  1.0 -0.2881095156
N  N26  1  0.35200000  0.44400000  0.69160000  1.0 -0.2881095156
N  N27  1  0.44400000  0.64800000  0.19160000  1.0 -0.2881095156
N  N28  1  0.55600000  0.35200000  0.19160000  1.0 -0.2881095156
N  N29  1  0.35200000  0.55600000  0.80840000  1.0 -0.2881095156
N  N30  1  0.64800000  0.44400000  0.80840000  1.0 -0.2881095156
N  N31  1  0.55600000  0.64800000  0.30840000  1.0 -0.2881095156
N  N32  1  0.44400000  0.35200000  0.30840000  1.0 -0.2881095156
N  N33  1  0.35200000  0.44400000  0.30840000  1.0 -0.2881095156
N  N34  1  0.64800000  0.55600000  0.30840000  1.0 -0.2881095156
N  N35  1  0.55600000  0.35200000  0.80840000  1.0 -0.2881095156
N  N36  1  0.44400000  0.64800000  0.80840000  1.0 -0.2881095156
N  N37  1  0.64800000  0.44400000  0.19160000  1.0 -0.2881095156
N  N38  1  0.35200000  0.55600000  0.19160000  1.0 -0.2881095156
N  N39  1  0.44400000  0.35200000  0.69160000  1.0 -0.2881095156
N  N40  1  0.55600000  0.64800000  0.69160000  1.0 -0.2881095156
N  N41  1  0.63700000  0.47500000  0.70730000  1.0 -0.2088289995
N  N42  1  0.36300000  0.52500000  0.70730000  1.0 -0.2088289995
N  N43  1  0.52500000  0.63700000  0.20730000  1.0 -0.2088289995
N  N44  1  0.47500000  0.36300000  0.20730000  1.0 -0.2088289995
N  N45  1  0.36300000  0.47500000  0.79270000  1.0 -0.2088289995
N  N46  1  0.63700000  0.52500000  0.79270000  1.0 -0.2088289995
N  N47  1  0.47500000  0.63700000  0.29270000  1.0 -0.2088289995
N  N48  1  0.52500000  0.36300000  0.29270000  1.0 -0.2088289995
N  N49  1  0.36300000  0.52500000  0.29270000  1.0 -0.2088289995
N  N50  1  0.63700000  0.47500000  0.29270000  1.0 -0.2088289995
N  N51  1  0.47500000  0.36300000  0.79270000  1.0 -0.2088289995
N  N52  1  0.52500000  0.63700000  0.79270000  1.0 -0.2088289995
N  N53  1  0.63700000  0.52500000  0.20730000  1.0 -0.2088289995
N  N54  1  0.36300000  0.47500000  0.20730000  1.0 -0.2088289995
N  N55  1  0.52500000  0.36300000  0.70730000  1.0 -0.2088289995
N  N56  1  0.47500000  0.63700000  0.70730000  1.0 -0.2088289995
O  O1  1  0.44860000  0.55140000  0.63990000  1.0 -0.4793077156
O  O2  1  0.55140000  0.44860000  0.63990000  1.0 -0.4793077156
O  O3  1  0.44860000  0.44860000  0.13990000  1.0 -0.4793077156
O  O4  1  0.55140000  0.55140000  0.13990000  1.0 -0.4793077156
O  O5  1  0.55140000  0.55140000  0.86010000  1.0 -0.4793077156
O  O6  1  0.44860000  0.44860000  0.86010000  1.0 -0.4793077156
O  O7  1  0.55140000  0.44860000  0.36010000  1.0 -0.4793077156
O  O8  1  0.44860000  0.55140000  0.36010000  1.0 -0.4793077156
O  O9  1  0.31030000  0.68970000  0.53630000  1.0 -0.518024603
O  O10  1  0.68970000  0.31030000  0.53630000  1.0 -0.518024603
O  O11  1  0.31030000  0.31030000  0.03630000  1.0 -0.518024603
O  O12  1  0.68970000  0.68970000  0.03630000  1.0 -0.518024603
O  O13  1  0.68970000  0.68970000  0.96370000  1.0 -0.518024603
O  O14  1  0.31030000  0.31030000  0.96370000  1.0 -0.518024603
O  O15  1  0.68970000  0.31030000  0.46370000  1.0 -0.5146831468
O  O16  1  0.31030000  0.68970000  0.46370000  1.0 -0.5146831468
O  O17  1  0.60110000  0.73590000  0.55290000  1.0 -0.6088099189
O  O18  1  0.39890000  0.26410000  0.55290000  1.0 -0.6088099189
O  O19  1  0.26410000  0.60110000  0.05290000  1.0 -0.6088099189
O  O20  1  0.73590000  0.39890000  0.05290000  1.0 -0.6088099189
O  O21  1  0.39890000  0.73590000  0.94710000  1.0 -0.6088099189
O  O22  1  0.60110000  0.26410000  0.94710000  1.0 -0.6088099189
O  O23  1  0.73590000  0.60110000  0.44710000  1.0 -0.6088099189
O  O24  1  0.26410000  0.39890000  0.44710000  1.0 -0.6088099189
O  O25  1  0.39890000  0.26410000  0.44710000  1.0 -0.6088099189
O  O26  1  0.60110000  0.73590000  0.44710000  1.0 -0.6088099189
O  O27  1  0.73590000  0.39890000  0.94710000  1.0 -0.6088099189
O  O28  1  0.26410000  0.60110000  0.94710000  1.0 -0.6088099189
O  O29  1  0.60110000  0.26410000  0.05290000  1.0 -0.6088099189
O  O30  1  0.39890000  0.73590000  0.05290000  1.0 -0.6088099189
O  O31  1  0.26410000  0.39890000  0.55290000  1.0 -0.6088099189
O  O32  1  0.73590000  0.60110000  0.55290000  1.0 -0.6088099189
O  O33  1  0.47970000  0.71780000  0.58820000  1.0 -0.5530468606
O  O34  1  0.52030000  0.28220000  0.58820000  1.0 -0.5530468606
O  O35  1  0.28220000  0.47970000  0.08820000  1.0 -0.5530468606
O  O36  1  0.71780000  0.52030000  0.08820000  1.0 -0.5530468606
O  O37  1  0.52030000  0.71780000  0.91180000  1.0 -0.5530468606
O  O38  1  0.47970000  0.28220000  0.91180000  1.0 -0.5530468606
O  O39  1  0.71780000  0.47970000  0.41180000  1.0 -0.5530468606
O  O40  1  0.28220000  0.52030000  0.41180000  1.0 -0.5530468606
O  O41  1  0.52030000  0.28220000  0.41180000  1.0 -0.5530468606
O  O42  1  0.47970000  0.71780000  0.41180000  1.0 -0.5530468606
O  O43  1  0.71780000  0.52030000  0.91180000  1.0 -0.5530468606
O  O44  1  0.28220000  0.47970000  0.91180000  1.0 -0.5530468606
O  O45  1  0.47970000  0.28220000  0.08820000  1.0 -0.5530468606
O  O46  1  0.52030000  0.71780000  0.08820000  1.0 -0.5530468606
O  O47  1  0.28220000  0.52030000  0.58820000  1.0 -0.5530468606
O  O48  1  0.71780000  0.47970000  0.58820000  1.0 -0.5530468606
O  O49  1  0.47430000  0.64280000  0.50000000  1.0 -1.0511596993
O  O50  1  0.52570000  0.35720000  0.50000000  1.0 -1.0511596993
O  O51  1  0.35720000  0.47430000  0.00000000  1.0 -1.0511596993
O  O52  1  0.64280000  0.52570000  0.00000000  1.0 -1.0511596993
O  O53  1  0.52570000  0.64280000  0.00000000  1.0 -1.0511596993
O  O54  1  0.47430000  0.35720000  0.00000000  1.0 -1.0511596993
O  O55  1  0.64280000  0.47430000  0.50000000  1.0 -1.0511596993
O  O56  1  0.35720000  0.52570000  0.50000000  1.0 -1.0511596993
O  O57  1  0.56760000  0.56760000  0.56920000  1.0 -0.2224119188
O  O58  1  0.43240000  0.43240000  0.56920000  1.0 -0.2224119188
O  O59  1  0.43240000  0.56760000  0.06920000  1.0 -0.2224119188
O  O60  1  0.56760000  0.43240000  0.06920000  1.0 -0.2224119188
O  O61  1  0.43240000  0.56760000  0.93080000  1.0 -0.2224119188
O  O62  1  0.56760000  0.43240000  0.93080000  1.0 -0.2224119188
O  O63  1  0.56760000  0.56760000  0.43080000  1.0 -0.2274675861
O  O64  1  0.43240000  0.43240000  0.43080000  1.0 -0.2274675861
O  O65  1  0.54610000  0.54610000  0.55150000  1.0 -0.3821153909
O  O66  1  0.45390000  0.45390000  0.55150000  1.0 -0.3821153909
O  O67  1  0.45390000  0.54610000  0.05150000  1.0 -0.3821153909
O  O68  1  0.54610000  0.45390000  0.05150000  1.0 -0.3821153909
O  O69  1  0.45390000  0.54610000  0.94850000  1.0 -0.3821153909
O  O70  1  0.54610000  0.45390000  0.94850000  1.0 -0.3821153909
O  O71  1  0.54610000  0.54610000  0.44850000  1.0 -0.3821153909
O  O72  1  0.45390000  0.45390000  0.44850000  1.0 -0.3821153909
