# DDEC6 charges by PACMAN v1.1 (https://github.com/mtap-research/PACMAN-charge/)
data_CIFKAH_ASR_pacman
_symmetry_space_group_name_H-M   'P 1'
_cell_length_a   16.17050000
_cell_length_b   16.17050000
_cell_length_c   30.70100000
_cell_angle_alpha   90.00000000
_cell_angle_beta   90.00000000
_cell_angle_gamma   90.00000000
_symmetry_Int_Tables_number   1
_chemical_formula_structural   Th3H39C58(N5O9)2
_chemical_formula_sum   'Th12 H156 C232 N40 O72'
_cell_volume   8027.85314175
_cell_formula_units_Z   4
loop_
 _symmetry_equiv_pos_site_id
 _symmetry_equiv_pos_as_xyz
  1  'x, y, z'
loop_
 _atom_site_type_symbol
 _atom_site_label
 _atom_site_symmetry_multiplicity
 _atom_site_fract_x
 _atom_site_fract_y
 _atom_site_fract_z
 _atom_site_occupancy
 _atom_site_charge
Th  Th1  1  0.62224000  0.62224000  0.50000000  1.0 2.1675110205
Th  Th2  1  0.37776000  0.37776000  0.50000000  1.0 2.1675110205
Th  Th3  1  0.37776000  0.62224000  0.00000000  1.0 2.1675110205
Th  Th4  1  0.62224000  0.37776000  0.00000000  1.0 2.1675110205
Th  Th5  1  0.58644000  0.41356000  0.43584000  1.0 1.9564311132
Th  Th6  1  0.41356000  0.58644000  0.43584000  1.0 1.9535205707
Th  Th7  1  0.58644000  0.58644000  0.93584000  1.0 1.9564311132
Th  Th8  1  0.41356000  0.41356000  0.93584000  1.0 1.9564311132
Th  Th9  1  0.41356000  0.41356000  0.06416000  1.0 1.9535205707
Th  Th10  1  0.58644000  0.58644000  0.06416000  1.0 1.9535205707
Th  Th11  1  0.41356000  0.58644000  0.56416000  1.0 1.9564311132
Th  Th12  1  0.58644000  0.41356000  0.56416000  1.0 1.9564311132
H  H1  1  0.55850000  0.00000000  0.75000000  1.0 0.2564622506
H  H2  1  0.44150000  0.00000000  0.75000000  1.0 0.2564622506
H  H3  1  0.00000000  0.55850000  0.25000000  1.0 0.2564622506
H  H4  1  0.00000000  0.44150000  0.25000000  1.0 0.2564622506
H  H5  1  0.44150000  0.00000000  0.25000000  1.0 0.2564622506
H  H6  1  0.55850000  0.00000000  0.25000000  1.0 0.2564622506
H  H7  1  0.00000000  0.44150000  0.75000000  1.0 0.2564622506
H  H8  1  0.00000000  0.55850000  0.75000000  1.0 0.2564622506
H  H9  1  0.46730000  0.81790000  0.64990000  1.0 0.1341576174
H  H10  1  0.53270000  0.18210000  0.64990000  1.0 0.1341576174
H  H11  1  0.18210000  0.46730000  0.14990000  1.0 0.1341576174
H  H12  1  0.81790000  0.53270000  0.14990000  1.0 0.1341576174
H  H13  1  0.53270000  0.81790000  0.85010000  1.0 0.1341576174
H  H14  1  0.46730000  0.18210000  0.85010000  1.0 0.1341576174
H  H15  1  0.81790000  0.46730000  0.35010000  1.0 0.1341576174
H  H16  1  0.18210000  0.53270000  0.35010000  1.0 0.1341576174
H  H17  1  0.53270000  0.18210000  0.35010000  1.0 0.1341576174
H  H18  1  0.46730000  0.81790000  0.35010000  1.0 0.1341576174
H  H19  1  0.81790000  0.53270000  0.85010000  1.0 0.1341576174
H  H20  1  0.18210000  0.46730000  0.85010000  1.0 0.1341576174
H  H21  1  0.46730000  0.18210000  0.14990000  1.0 0.1341576174
H  H22  1  0.53270000  0.81790000  0.14990000  1.0 0.1341576174
H  H23  1  0.18210000  0.53270000  0.64990000  1.0 0.1341576174
H  H24  1  0.81790000  0.46730000  0.64990000  1.0 0.1341576174
H  H25  1  0.51370000  0.90470000  0.70580000  1.0 0.0894739751
H  H26  1  0.48630000  0.09530000  0.70580000  1.0 0.0894739751
H  H27  1  0.09530000  0.51370000  0.20580000  1.0 0.0894739751
H  H28  1  0.90470000  0.48630000  0.20580000  1.0 0.0894739751
H  H29  1  0.48630000  0.90470000  0.79420000  1.0 0.0894739751
H  H30  1  0.51370000  0.09530000  0.79420000  1.0 0.0894739751
H  H31  1  0.90470000  0.51370000  0.29420000  1.0 0.0894739751
H  H32  1  0.09530000  0.48630000  0.29420000  1.0 0.0894739751
H  H33  1  0.48630000  0.09530000  0.29420000  1.0 0.0894739751
H  H34  1  0.51370000  0.90470000  0.29420000  1.0 0.0894739751
H  H35  1  0.90470000  0.48630000  0.79420000  1.0 0.0894739751
H  H36  1  0.09530000  0.51370000  0.79420000  1.0 0.0894739751
H  H37  1  0.51370000  0.09530000  0.20580000  1.0 0.0894739751
H  H38  1  0.48630000  0.90470000  0.20580000  1.0 0.0894739751
H  H39  1  0.09530000  0.48630000  0.70580000  1.0 0.0894739751
H  H40  1  0.90470000  0.51370000  0.70580000  1.0 0.0894739751
H  H41  1  0.74390000  0.90290000  0.65360000  1.0 0.1165973886
H  H42  1  0.25610000  0.09710000  0.65360000  1.0 0.1165973886
H  H43  1  0.09710000  0.74390000  0.15360000  1.0 0.1165973886
H  H44  1  0.90290000  0.25610000  0.15360000  1.0 0.1165973886
H  H45  1  0.25610000  0.90290000  0.84640000  1.0 0.1165973886
H  H46  1  0.74390000  0.09710000  0.84640000  1.0 0.1165973886
H  H47  1  0.90290000  0.74390000  0.34640000  1.0 0.1165973886
H  H48  1  0.09710000  0.25610000  0.34640000  1.0 0.1165973886
H  H49  1  0.25610000  0.09710000  0.34640000  1.0 0.1165973886
H  H50  1  0.74390000  0.90290000  0.34640000  1.0 0.1165973886
H  H51  1  0.90290000  0.25610000  0.84640000  1.0 0.1165973886
H  H52  1  0.09710000  0.74390000  0.84640000  1.0 0.1165973886
H  H53  1  0.74390000  0.09710000  0.15360000  1.0 0.1165973886
H  H54  1  0.25610000  0.90290000  0.15360000  1.0 0.1165973886
H  H55  1  0.09710000  0.25610000  0.65360000  1.0 0.1165973886
H  H56  1  0.90290000  0.74390000  0.65360000  1.0 0.1165973886
H  H57  1  0.69750000  0.81600000  0.59770000  1.0 0.1128402099
H  H58  1  0.30250000  0.18400000  0.59770000  1.0 0.1128402099
H  H59  1  0.18400000  0.69750000  0.09770000  1.0 0.1128402099
H  H60  1  0.81600000  0.30250000  0.09770000  1.0 0.1128402099
H  H61  1  0.30250000  0.81600000  0.90230000  1.0 0.1128402099
H  H62  1  0.69750000  0.18400000  0.90230000  1.0 0.1128402099
H  H63  1  0.81600000  0.69750000  0.40230000  1.0 0.1128402099
H  H64  1  0.18400000  0.30250000  0.40230000  1.0 0.1128402099
H  H65  1  0.30250000  0.18400000  0.40230000  1.0 0.1128402099
H  H66  1  0.69750000  0.81600000  0.40230000  1.0 0.1128402099
H  H67  1  0.81600000  0.30250000  0.90230000  1.0 0.1128402099
H  H68  1  0.18400000  0.69750000  0.90230000  1.0 0.1128402099
H  H69  1  0.69750000  0.18400000  0.09770000  1.0 0.1128402099
H  H70  1  0.30250000  0.81600000  0.09770000  1.0 0.1128402099
H  H71  1  0.18400000  0.30250000  0.59770000  1.0 0.1128402099
H  H72  1  0.81600000  0.69750000  0.59770000  1.0 0.1128402099
H  H73  1  0.75350000  0.24650000  0.50000000  1.0 0.1486534868
H  H74  1  0.24650000  0.75350000  0.50000000  1.0 0.1445155337
H  H75  1  0.75350000  0.75350000  0.00000000  1.0 0.1486534868
H  H76  1  0.24650000  0.24650000  0.00000000  1.0 0.1486534868
H  H77  1  0.47890000  0.61470000  0.28300000  1.0 0.0894739751
H  H78  1  0.52110000  0.38530000  0.28300000  1.0 0.0894739751
H  H79  1  0.38530000  0.47890000  0.78300000  1.0 0.0894739751
H  H80  1  0.61470000  0.52110000  0.78300000  1.0 0.0894739751
H  H81  1  0.52110000  0.61470000  0.21700000  1.0 0.0894739751
H  H82  1  0.47890000  0.38530000  0.21700000  1.0 0.0894739751
H  H83  1  0.61470000  0.47890000  0.71700000  1.0 0.0894739751
H  H84  1  0.38530000  0.52110000  0.71700000  1.0 0.0894739751
H  H85  1  0.52110000  0.38530000  0.71700000  1.0 0.0894739751
H  H86  1  0.47890000  0.61470000  0.71700000  1.0 0.0894739751
H  H87  1  0.61470000  0.52110000  0.21700000  1.0 0.0894739751
H  H88  1  0.38530000  0.47890000  0.21700000  1.0 0.0894739751
H  H89  1  0.47890000  0.38530000  0.78300000  1.0 0.0894739751
H  H90  1  0.52110000  0.61470000  0.78300000  1.0 0.0894739751
H  H91  1  0.38530000  0.52110000  0.28300000  1.0 0.0894739751
H  H92  1  0.61470000  0.47890000  0.28300000  1.0 0.0894739751
H  H93  1  0.47910000  0.60220000  0.20700000  1.0 0.0734947294
H  H94  1  0.52090000  0.39780000  0.20700000  1.0 0.0734947294
H  H95  1  0.39780000  0.47910000  0.70700000  1.0 0.0734947294
H  H96  1  0.60220000  0.52090000  0.70700000  1.0 0.0734947294
H  H97  1  0.52090000  0.60220000  0.29300000  1.0 0.0734947294
H  H98  1  0.47910000  0.39780000  0.29300000  1.0 0.0734947294
H  H99  1  0.60220000  0.47910000  0.79300000  1.0 0.0734947294
H  H100  1  0.39780000  0.52090000  0.79300000  1.0 0.0734947294
H  H101  1  0.52090000  0.39780000  0.79300000  1.0 0.0734947294
H  H102  1  0.47910000  0.60220000  0.79300000  1.0 0.0734947294
H  H103  1  0.60220000  0.52090000  0.29300000  1.0 0.0734947294
H  H104  1  0.39780000  0.47910000  0.29300000  1.0 0.0734947294
H  H105  1  0.47910000  0.39780000  0.70700000  1.0 0.0734947294
H  H106  1  0.52090000  0.60220000  0.70700000  1.0 0.0734947294
H  H107  1  0.39780000  0.52090000  0.20700000  1.0 0.0734947294
H  H108  1  0.60220000  0.47910000  0.20700000  1.0 0.0734947294
H  H109  1  0.52080000  0.36860000  0.29430000  1.0 0.0841683409
H  H110  1  0.47920000  0.63140000  0.29430000  1.0 0.0841683409
H  H111  1  0.63140000  0.52080000  0.79430000  1.0 0.0841683409
H  H112  1  0.36860000  0.47920000  0.79430000  1.0 0.0841683409
H  H113  1  0.47920000  0.36860000  0.20570000  1.0 0.0841683409
H  H114  1  0.52080000  0.63140000  0.20570000  1.0 0.0841683409
H  H115  1  0.36860000  0.52080000  0.70570000  1.0 0.0841683409
H  H116  1  0.63140000  0.47920000  0.70570000  1.0 0.0841683409
H  H117  1  0.47920000  0.63140000  0.70570000  1.0 0.0841683409
H  H118  1  0.52080000  0.36860000  0.70570000  1.0 0.0841683409
H  H119  1  0.36860000  0.47920000  0.20570000  1.0 0.0841683409
H  H120  1  0.63140000  0.52080000  0.20570000  1.0 0.0841683409
H  H121  1  0.52080000  0.63140000  0.79430000  1.0 0.0841683409
H  H122  1  0.47920000  0.36860000  0.79430000  1.0 0.0841683409
H  H123  1  0.63140000  0.47920000  0.29430000  1.0 0.0841683409
H  H124  1  0.36860000  0.52080000  0.29430000  1.0 0.0841683409
H  H125  1  0.52610000  0.32260000  0.18370000  1.0 0.1752720147
H  H126  1  0.47390000  0.67740000  0.18370000  1.0 0.1752720147
H  H127  1  0.67740000  0.52610000  0.68370000  1.0 0.1752720147
H  H128  1  0.32260000  0.47390000  0.68370000  1.0 0.1752720147
H  H129  1  0.47390000  0.32260000  0.31630000  1.0 0.1752720147
H  H130  1  0.52610000  0.67740000  0.31630000  1.0 0.1752720147
H  H131  1  0.32260000  0.52610000  0.81630000  1.0 0.1752720147
H  H132  1  0.67740000  0.47390000  0.81630000  1.0 0.1752720147
H  H133  1  0.47390000  0.67740000  0.81630000  1.0 0.1752720147
H  H134  1  0.52610000  0.32260000  0.81630000  1.0 0.1752720147
H  H135  1  0.32260000  0.47390000  0.31630000  1.0 0.1752720147
H  H136  1  0.67740000  0.52610000  0.31630000  1.0 0.1752720147
H  H137  1  0.52610000  0.67740000  0.68370000  1.0 0.1752720147
H  H138  1  0.47390000  0.32260000  0.68370000  1.0 0.1752720147
H  H139  1  0.67740000  0.47390000  0.18370000  1.0 0.1752720147
H  H140  1  0.32260000  0.52610000  0.18370000  1.0 0.1752720147
H  H141  1  0.53360000  0.28470000  0.22900000  1.0 0.285455589
H  H142  1  0.46640000  0.71530000  0.22900000  1.0 0.285455589
H  H143  1  0.71530000  0.53360000  0.72900000  1.0 0.285455589
H  H144  1  0.28470000  0.46640000  0.72900000  1.0 0.285455589
H  H145  1  0.46640000  0.28470000  0.27100000  1.0 0.285455589
H  H146  1  0.53360000  0.71530000  0.27100000  1.0 0.285455589
H  H147  1  0.28470000  0.53360000  0.77100000  1.0 0.285455589
H  H148  1  0.71530000  0.46640000  0.77100000  1.0 0.285455589
H  H149  1  0.46640000  0.71530000  0.77100000  1.0 0.285455589
H  H150  1  0.53360000  0.28470000  0.77100000  1.0 0.285455589
H  H151  1  0.28470000  0.46640000  0.27100000  1.0 0.285455589
H  H152  1  0.71530000  0.53360000  0.27100000  1.0 0.285455589
H  H153  1  0.53360000  0.71530000  0.72900000  1.0 0.285455589
H  H154  1  0.46640000  0.28470000  0.72900000  1.0 0.285455589
H  H155  1  0.71530000  0.46640000  0.22900000  1.0 0.285455589
H  H156  1  0.28470000  0.53360000  0.22900000  1.0 0.285455589
C  C1  1  0.57800000  0.80880000  0.61855000  1.0 0.0024766855
C  C2  1  0.42200000  0.19120000  0.61855000  1.0 0.0024766855
C  C3  1  0.19120000  0.57800000  0.11855000  1.0 0.0024766855
C  C4  1  0.80880000  0.42200000  0.11855000  1.0 0.0024766855
C  C5  1  0.42200000  0.80880000  0.88145000  1.0 0.0024766855
C  C6  1  0.57800000  0.19120000  0.88145000  1.0 0.0024766855
C  C7  1  0.80880000  0.57800000  0.38145000  1.0 0.0024766855
C  C8  1  0.19120000  0.42200000  0.38145000  1.0 0.0024766855
C  C9  1  0.42200000  0.19120000  0.38145000  1.0 0.0024766855
C  C10  1  0.57800000  0.80880000  0.38145000  1.0 0.0024766855
C  C11  1  0.80880000  0.42200000  0.88145000  1.0 0.0024766855
C  C12  1  0.19120000  0.57800000  0.88145000  1.0 0.0024766855
C  C13  1  0.57800000  0.19120000  0.11855000  1.0 0.0024766855
C  C14  1  0.42200000  0.80880000  0.11855000  1.0 0.0024766855
C  C15  1  0.19120000  0.42200000  0.61855000  1.0 0.0024766855
C  C16  1  0.80880000  0.57800000  0.61855000  1.0 0.0024766855
C  C17  1  0.52340000  0.83510000  0.65066000  1.0 -0.1454420722
C  C18  1  0.47660000  0.16490000  0.65066000  1.0 -0.1454420722
C  C19  1  0.16490000  0.52340000  0.15066000  1.0 -0.1415201566
C  C20  1  0.83510000  0.47660000  0.15066000  1.0 -0.1415201566
C  C21  1  0.47660000  0.83510000  0.84934000  1.0 -0.1454420722
C  C22  1  0.52340000  0.16490000  0.84934000  1.0 -0.1454420722
C  C23  1  0.83510000  0.52340000  0.34934000  1.0 -0.1415201566
C  C24  1  0.16490000  0.47660000  0.34934000  1.0 -0.1454420722
C  C25  1  0.47660000  0.16490000  0.34934000  1.0 -0.1454420722
C  C26  1  0.52340000  0.83510000  0.34934000  1.0 -0.1454420722
C  C27  1  0.83510000  0.47660000  0.84934000  1.0 -0.1454420722
C  C28  1  0.16490000  0.52340000  0.84934000  1.0 -0.1454420722
C  C29  1  0.52340000  0.16490000  0.15066000  1.0 -0.1415201566
C  C30  1  0.47660000  0.83510000  0.15066000  1.0 -0.1415201566
C  C31  1  0.16490000  0.47660000  0.65066000  1.0 -0.1454420722
C  C32  1  0.83510000  0.52340000  0.65066000  1.0 -0.1454420722
C  C33  1  0.55100000  0.88670000  0.68384000  1.0 -0.2229953355
C  C34  1  0.44900000  0.11330000  0.68384000  1.0 -0.2229953355
C  C35  1  0.11330000  0.55100000  0.18384000  1.0 -0.2229953355
C  C36  1  0.88670000  0.44900000  0.18384000  1.0 -0.2229953355
C  C37  1  0.44900000  0.88670000  0.81616000  1.0 -0.2229953355
C  C38  1  0.55100000  0.11330000  0.81616000  1.0 -0.2229953355
C  C39  1  0.88670000  0.55100000  0.31616000  1.0 -0.2229953355
C  C40  1  0.11330000  0.44900000  0.31616000  1.0 -0.2229953355
C  C41  1  0.44900000  0.11330000  0.31616000  1.0 -0.2229953355
C  C42  1  0.55100000  0.88670000  0.31616000  1.0 -0.2229953355
C  C43  1  0.88670000  0.44900000  0.81616000  1.0 -0.2229953355
C  C44  1  0.11330000  0.55100000  0.81616000  1.0 -0.2229953355
C  C45  1  0.55100000  0.11330000  0.18384000  1.0 -0.2229953355
C  C46  1  0.44900000  0.88670000  0.18384000  1.0 -0.2229953355
C  C47  1  0.11330000  0.44900000  0.68384000  1.0 -0.2229953355
C  C48  1  0.88670000  0.55100000  0.68384000  1.0 -0.2229953355
C  C49  1  0.63310000  0.91200000  0.68492000  1.0 0.0096157049
C  C50  1  0.36690000  0.08800000  0.68492000  1.0 0.0096157049
C  C51  1  0.08800000  0.63310000  0.18492000  1.0 0.0096157049
C  C52  1  0.91200000  0.36690000  0.18492000  1.0 0.0096157049
C  C53  1  0.36690000  0.91200000  0.81508000  1.0 0.0096157049
C  C54  1  0.63310000  0.08800000  0.81508000  1.0 0.0096157049
C  C55  1  0.91200000  0.63310000  0.31508000  1.0 0.0096157049
C  C56  1  0.08800000  0.36690000  0.31508000  1.0 0.0096157049
C  C57  1  0.36690000  0.08800000  0.31508000  1.0 0.0096157049
C  C58  1  0.63310000  0.91200000  0.31508000  1.0 0.0096157049
C  C59  1  0.91200000  0.36690000  0.81508000  1.0 0.0096157049
C  C60  1  0.08800000  0.63310000  0.81508000  1.0 0.0096157049
C  C61  1  0.63310000  0.08800000  0.18492000  1.0 0.0096157049
C  C62  1  0.36690000  0.91200000  0.18492000  1.0 0.0096157049
C  C63  1  0.08800000  0.36690000  0.68492000  1.0 0.0096157049
C  C64  1  0.91200000  0.63310000  0.68492000  1.0 0.0096157049
C  C65  1  0.68770000  0.88560000  0.65281000  1.0 -0.1415201566
C  C66  1  0.31230000  0.11440000  0.65281000  1.0 -0.1415201566
C  C67  1  0.11440000  0.68770000  0.15281000  1.0 -0.1415201566
C  C68  1  0.88560000  0.31230000  0.15281000  1.0 -0.1415201566
C  C69  1  0.31230000  0.88560000  0.84719000  1.0 -0.1415201566
C  C70  1  0.68770000  0.11440000  0.84719000  1.0 -0.1415201566
C  C71  1  0.88560000  0.68770000  0.34719000  1.0 -0.1415201566
C  C72  1  0.11440000  0.31230000  0.34719000  1.0 -0.1415201566
C  C73  1  0.31230000  0.11440000  0.34719000  1.0 -0.1415201566
C  C74  1  0.68770000  0.88560000  0.34719000  1.0 -0.1415201566
C  C75  1  0.88560000  0.31230000  0.84719000  1.0 -0.1415201566
C  C76  1  0.11440000  0.68770000  0.84719000  1.0 -0.1415201566
C  C77  1  0.68770000  0.11440000  0.15281000  1.0 -0.1415201566
C  C78  1  0.31230000  0.88560000  0.15281000  1.0 -0.1415201566
C  C79  1  0.11440000  0.31230000  0.65281000  1.0 -0.1415201566
C  C80  1  0.88560000  0.68770000  0.65281000  1.0 -0.1415201566
C  C81  1  0.66020000  0.83400000  0.61963000  1.0 -0.120336816
C  C82  1  0.33980000  0.16600000  0.61963000  1.0 -0.120336816
C  C83  1  0.16600000  0.66020000  0.11963000  1.0 -0.120336816
C  C84  1  0.83400000  0.33980000  0.11963000  1.0 -0.120336816
C  C85  1  0.33980000  0.83400000  0.88037000  1.0 -0.120336816
C  C86  1  0.66020000  0.16600000  0.88037000  1.0 -0.120336816
C  C87  1  0.83400000  0.66020000  0.38037000  1.0 -0.120336816
C  C88  1  0.16600000  0.33980000  0.38037000  1.0 -0.120336816
C  C89  1  0.33980000  0.16600000  0.38037000  1.0 -0.120336816
C  C90  1  0.66020000  0.83400000  0.38037000  1.0 -0.120336816
C  C91  1  0.83400000  0.33980000  0.88037000  1.0 -0.120336816
C  C92  1  0.16600000  0.66020000  0.88037000  1.0 -0.120336816
C  C93  1  0.66020000  0.16600000  0.11963000  1.0 -0.120336816
C  C94  1  0.33980000  0.83400000  0.11963000  1.0 -0.120336816
C  C95  1  0.16600000  0.33980000  0.61963000  1.0 -0.120336816
C  C96  1  0.83400000  0.66020000  0.61963000  1.0 -0.120336816
C  C97  1  0.54860000  0.74780000  0.58370000  1.0 0.5421710952
C  C98  1  0.45140000  0.25220000  0.58370000  1.0 0.5421710952
C  C99  1  0.25220000  0.54860000  0.08370000  1.0 0.5421710952
C  C100  1  0.74780000  0.45140000  0.08370000  1.0 0.5421710952
C  C101  1  0.45140000  0.74780000  0.91630000  1.0 0.5421710952
C  C102  1  0.54860000  0.25220000  0.91630000  1.0 0.5421710952
C  C103  1  0.74780000  0.54860000  0.41630000  1.0 0.5421710952
C  C104  1  0.25220000  0.45140000  0.41630000  1.0 0.5421710952
C  C105  1  0.45140000  0.25220000  0.41630000  1.0 0.5421710952
C  C106  1  0.54860000  0.74780000  0.41630000  1.0 0.5421710952
C  C107  1  0.74780000  0.45140000  0.91630000  1.0 0.5421710952
C  C108  1  0.25220000  0.54860000  0.91630000  1.0 0.5421710952
C  C109  1  0.54860000  0.25220000  0.08370000  1.0 0.5421710952
C  C110  1  0.45140000  0.74780000  0.08370000  1.0 0.5421710952
C  C111  1  0.25220000  0.45140000  0.58370000  1.0 0.5421710952
C  C112  1  0.74780000  0.54860000  0.58370000  1.0 0.5421710952
C  C113  1  0.66220000  0.96280000  0.72200000  1.0 0.2435333773
C  C114  1  0.33780000  0.03720000  0.72200000  1.0 0.2435333773
C  C115  1  0.03720000  0.66220000  0.22200000  1.0 0.2435333773
C  C116  1  0.96280000  0.33780000  0.22200000  1.0 0.2435333773
C  C117  1  0.33780000  0.96280000  0.77800000  1.0 0.2435333773
C  C118  1  0.66220000  0.03720000  0.77800000  1.0 0.2435333773
C  C119  1  0.96280000  0.66220000  0.27800000  1.0 0.2435333773
C  C120  1  0.03720000  0.33780000  0.27800000  1.0 0.2435333773
C  C121  1  0.33780000  0.03720000  0.27800000  1.0 0.2435333773
C  C122  1  0.66220000  0.96280000  0.27800000  1.0 0.2435333773
C  C123  1  0.96280000  0.33780000  0.77800000  1.0 0.2435333773
C  C124  1  0.03720000  0.66220000  0.77800000  1.0 0.2435333773
C  C125  1  0.66220000  0.03720000  0.22200000  1.0 0.2435333773
C  C126  1  0.33780000  0.96280000  0.22200000  1.0 0.2435333773
C  C127  1  0.03720000  0.33780000  0.72200000  1.0 0.2435333773
C  C128  1  0.96280000  0.66220000  0.72200000  1.0 0.2435333773
C  C129  1  0.71200000  0.28800000  0.50000000  1.0 0.4160447612
C  C130  1  0.28800000  0.71200000  0.50000000  1.0 0.4160447612
C  C131  1  0.71200000  0.71200000  0.00000000  1.0 0.4130372151
C  C132  1  0.28800000  0.28800000  0.00000000  1.0 0.4130372151
C  C133  1  0.50000000  0.50000000  0.34370000  1.0 0.0841683409
C  C134  1  0.50000000  0.50000000  0.84370000  1.0 0.0894739751
C  C135  1  0.50000000  0.50000000  0.15630000  1.0 0.0841683409
C  C136  1  0.50000000  0.50000000  0.65630000  1.0 0.0894739751
C  C137  1  0.49980000  0.49280000  0.29570000  1.0 -0.0818971016
C  C138  1  0.50020000  0.50720000  0.29570000  1.0 -0.0818971016
C  C139  1  0.50720000  0.49980000  0.79570000  1.0 -0.0818971016
C  C140  1  0.49280000  0.50020000  0.79570000  1.0 -0.0818971016
C  C141  1  0.50020000  0.49280000  0.20430000  1.0 -0.0818971016
C  C142  1  0.49980000  0.50720000  0.20430000  1.0 -0.0818971016
C  C143  1  0.49280000  0.49980000  0.70430000  1.0 -0.0818971016
C  C144  1  0.50720000  0.50020000  0.70430000  1.0 -0.0818971016
C  C145  1  0.50020000  0.50720000  0.70430000  1.0 -0.0818971016
C  C146  1  0.49980000  0.49280000  0.70430000  1.0 -0.0818971016
C  C147  1  0.49280000  0.50020000  0.20430000  1.0 -0.0818971016
C  C148  1  0.50720000  0.49980000  0.20430000  1.0 -0.0818971016
C  C149  1  0.49980000  0.50720000  0.79570000  1.0 -0.0818971016
C  C150  1  0.50020000  0.49280000  0.79570000  1.0 -0.0818971016
C  C151  1  0.50720000  0.50020000  0.29570000  1.0 -0.0818971016
C  C152  1  0.49280000  0.49980000  0.29570000  1.0 -0.0818971016
C  C153  1  0.48740000  0.56220000  0.26980000  1.0 -0.0077987339
C  C154  1  0.51260000  0.43780000  0.26980000  1.0 -0.0077987339
C  C155  1  0.43780000  0.48740000  0.76980000  1.0 -0.0077987339
C  C156  1  0.56220000  0.51260000  0.76980000  1.0 -0.0077987339
C  C157  1  0.51260000  0.56220000  0.23020000  1.0 -0.0077987339
C  C158  1  0.48740000  0.43780000  0.23020000  1.0 -0.0077987339
C  C159  1  0.56220000  0.48740000  0.73020000  1.0 -0.0077987339
C  C160  1  0.43780000  0.51260000  0.73020000  1.0 -0.0077987339
C  C161  1  0.51260000  0.43780000  0.73020000  1.0 -0.0077987339
C  C162  1  0.48740000  0.56220000  0.73020000  1.0 -0.0077987339
C  C163  1  0.56220000  0.51260000  0.23020000  1.0 -0.0077987339
C  C164  1  0.43780000  0.48740000  0.23020000  1.0 -0.0077987339
C  C165  1  0.48740000  0.43780000  0.76980000  1.0 -0.0077987339
C  C166  1  0.51260000  0.56220000  0.76980000  1.0 -0.0077987339
C  C167  1  0.43780000  0.51260000  0.26980000  1.0 -0.0077987339
C  C168  1  0.56220000  0.48740000  0.26980000  1.0 -0.0077987339
C  C169  1  0.48750000  0.55480000  0.22470000  1.0 0.0166979439
C  C170  1  0.51250000  0.44520000  0.22470000  1.0 0.0166979439
C  C171  1  0.44520000  0.48750000  0.72470000  1.0 0.0166979439
C  C172  1  0.55480000  0.51250000  0.72470000  1.0 0.0166979439
C  C173  1  0.51250000  0.55480000  0.27530000  1.0 0.0166979439
C  C174  1  0.48750000  0.44520000  0.27530000  1.0 0.0166979439
C  C175  1  0.55480000  0.48750000  0.77530000  1.0 0.0166979439
C  C176  1  0.44520000  0.51250000  0.77530000  1.0 0.0166979439
C  C177  1  0.51250000  0.44520000  0.77530000  1.0 0.0166979439
C  C178  1  0.48750000  0.55480000  0.77530000  1.0 0.0166979439
C  C179  1  0.55480000  0.51250000  0.27530000  1.0 0.0166979439
C  C180  1  0.44520000  0.48750000  0.27530000  1.0 0.0166979439
C  C181  1  0.48750000  0.44520000  0.72470000  1.0 0.0166979439
C  C182  1  0.51250000  0.55480000  0.72470000  1.0 0.0166979439
C  C183  1  0.44520000  0.51250000  0.22470000  1.0 0.0166979439
C  C184  1  0.55480000  0.48750000  0.22470000  1.0 0.0166979439
C  C185  1  0.50000000  0.47790000  0.20550000  1.0 -0.0077987339
C  C186  1  0.50000000  0.52210000  0.20550000  1.0 -0.0077987339
C  C187  1  0.52210000  0.50000000  0.70550000  1.0 -0.0077987339
C  C188  1  0.47790000  0.50000000  0.70550000  1.0 -0.0077987339
C  C189  1  0.50000000  0.47790000  0.29450000  1.0 -0.0077987339
C  C190  1  0.50000000  0.52210000  0.29450000  1.0 -0.0077987339
C  C191  1  0.47790000  0.50000000  0.79450000  1.0 -0.0077987339
C  C192  1  0.52210000  0.50000000  0.79450000  1.0 -0.0077987339
C  C193  1  0.50000000  0.52210000  0.79450000  1.0 -0.0077987339
C  C194  1  0.50000000  0.47790000  0.79450000  1.0 -0.0077987339
C  C195  1  0.47790000  0.50000000  0.29450000  1.0 -0.0077987339
C  C196  1  0.52210000  0.50000000  0.29450000  1.0 -0.0077987339
C  C197  1  0.50000000  0.52210000  0.70550000  1.0 -0.0077987339
C  C198  1  0.50000000  0.47790000  0.70550000  1.0 -0.0077987339
C  C199  1  0.52210000  0.50000000  0.20550000  1.0 -0.0077987339
C  C200  1  0.47790000  0.50000000  0.20550000  1.0 -0.0077987339
C  C201  1  0.51240000  0.40850000  0.23140000  1.0 -0.021980935
C  C202  1  0.48760000  0.59150000  0.23140000  1.0 -0.021980935
C  C203  1  0.59150000  0.51240000  0.73140000  1.0 -0.021980935
C  C204  1  0.40850000  0.48760000  0.73140000  1.0 -0.021980935
C  C205  1  0.48760000  0.40850000  0.26860000  1.0 -0.021980935
C  C206  1  0.51240000  0.59150000  0.26860000  1.0 -0.021980935
C  C207  1  0.40850000  0.51240000  0.76860000  1.0 -0.021980935
C  C208  1  0.59150000  0.48760000  0.76860000  1.0 -0.021980935
C  C209  1  0.48760000  0.59150000  0.76860000  1.0 -0.021980935
C  C210  1  0.51240000  0.40850000  0.76860000  1.0 -0.021980935
C  C211  1  0.40850000  0.48760000  0.26860000  1.0 -0.021980935
C  C212  1  0.59150000  0.51240000  0.26860000  1.0 -0.021980935
C  C213  1  0.51240000  0.59150000  0.73140000  1.0 -0.021980935
C  C214  1  0.48760000  0.40850000  0.73140000  1.0 -0.021980935
C  C215  1  0.59150000  0.48760000  0.23140000  1.0 -0.021980935
C  C216  1  0.40850000  0.51240000  0.23140000  1.0 -0.021980935
C  C217  1  0.51230000  0.41600000  0.27650000  1.0 0.0096157049
C  C218  1  0.48770000  0.58400000  0.27650000  1.0 0.0096157049
C  C219  1  0.58400000  0.51230000  0.77650000  1.0 0.0096157049
C  C220  1  0.41600000  0.48770000  0.77650000  1.0 0.0096157049
C  C221  1  0.48770000  0.41600000  0.22350000  1.0 0.0096157049
C  C222  1  0.51230000  0.58400000  0.22350000  1.0 0.0096157049
C  C223  1  0.41600000  0.51230000  0.72350000  1.0 0.0096157049
C  C224  1  0.58400000  0.48770000  0.72350000  1.0 0.0096157049
C  C225  1  0.48770000  0.58400000  0.72350000  1.0 0.0096157049
C  C226  1  0.51230000  0.41600000  0.72350000  1.0 0.0096157049
C  C227  1  0.41600000  0.48770000  0.22350000  1.0 0.0096157049
C  C228  1  0.58400000  0.51230000  0.22350000  1.0 0.0096157049
C  C229  1  0.51230000  0.58400000  0.77650000  1.0 0.0096157049
C  C230  1  0.48770000  0.41600000  0.77650000  1.0 0.0096157049
C  C231  1  0.58400000  0.48770000  0.27650000  1.0 0.0096157049
C  C232  1  0.41600000  0.51230000  0.27650000  1.0 0.0096157049
N  N1  1  0.61300000  0.00000000  0.75000000  1.0 -0.3050829128
N  N2  1  0.38700000  0.00000000  0.75000000  1.0 -0.3050829128
N  N3  1  0.00000000  0.61300000  0.25000000  1.0 -0.3047006086
N  N4  1  0.00000000  0.38700000  0.25000000  1.0 -0.3047006086
N  N5  1  0.38700000  0.00000000  0.25000000  1.0 -0.3047006086
N  N6  1  0.61300000  0.00000000  0.25000000  1.0 -0.3047006086
N  N7  1  0.00000000  0.38700000  0.75000000  1.0 -0.3050829128
N  N8  1  0.00000000  0.61300000  0.75000000  1.0 -0.3047006086
N  N9  1  0.73990000  0.97490000  0.73240000  1.0 -0.2229953355
N  N10  1  0.26010000  0.02510000  0.73240000  1.0 -0.2229953355
N  N11  1  0.02510000  0.73990000  0.23240000  1.0 -0.2229953355
N  N12  1  0.97490000  0.26010000  0.23240000  1.0 -0.2229953355
N  N13  1  0.26010000  0.97490000  0.76760000  1.0 -0.2229953355
N  N14  1  0.73990000  0.02510000  0.76760000  1.0 -0.2229953355
N  N15  1  0.97490000  0.73990000  0.26760000  1.0 -0.2229953355
N  N16  1  0.02510000  0.26010000  0.26760000  1.0 -0.2229953355
N  N17  1  0.26010000  0.02510000  0.26760000  1.0 -0.2229953355
N  N18  1  0.73990000  0.97490000  0.26760000  1.0 -0.2229953355
N  N19  1  0.97490000  0.26010000  0.76760000  1.0 -0.2229953355
N  N20  1  0.02510000  0.73990000  0.76760000  1.0 -0.2229953355
N  N21  1  0.73990000  0.02510000  0.23240000  1.0 -0.2229953355
N  N22  1  0.26010000  0.97490000  0.23240000  1.0 -0.2229953355
N  N23  1  0.02510000  0.26010000  0.73240000  1.0 -0.2229953355
N  N24  1  0.97490000  0.73990000  0.73240000  1.0 -0.2229953355
N  N25  1  0.52600000  0.32820000  0.21220000  1.0 -0.3511577502
N  N26  1  0.47400000  0.67180000  0.21220000  1.0 -0.3511577502
N  N27  1  0.67180000  0.52600000  0.71220000  1.0 -0.3511577502
N  N28  1  0.32820000  0.47400000  0.71220000  1.0 -0.3511577502
N  N29  1  0.47400000  0.32820000  0.28780000  1.0 -0.3511577502
N  N30  1  0.52600000  0.67180000  0.28780000  1.0 -0.3511577502
N  N31  1  0.32820000  0.52600000  0.78780000  1.0 -0.3511577502
N  N32  1  0.67180000  0.47400000  0.78780000  1.0 -0.3511577502
N  N33  1  0.47400000  0.67180000  0.78780000  1.0 -0.3511577502
N  N34  1  0.52600000  0.32820000  0.78780000  1.0 -0.3511577502
N  N35  1  0.32820000  0.47400000  0.28780000  1.0 -0.3511577502
N  N36  1  0.67180000  0.52600000  0.28780000  1.0 -0.3511577502
N  N37  1  0.52600000  0.67180000  0.71220000  1.0 -0.3511577502
N  N38  1  0.47400000  0.32820000  0.71220000  1.0 -0.3511577502
N  N39  1  0.67180000  0.47400000  0.21220000  1.0 -0.3511577502
N  N40  1  0.32820000  0.52600000  0.21220000  1.0 -0.3511577502
O  O1  1  0.59880000  0.73510000  0.55300000  1.0 -0.5982116379
O  O2  1  0.40120000  0.26490000  0.55300000  1.0 -0.5982116379
O  O3  1  0.26490000  0.59880000  0.05300000  1.0 -0.5982116379
O  O4  1  0.73510000  0.40120000  0.05300000  1.0 -0.5982116379
O  O5  1  0.40120000  0.73510000  0.94700000  1.0 -0.5982116379
O  O6  1  0.59880000  0.26490000  0.94700000  1.0 -0.5982116379
O  O7  1  0.73510000  0.59880000  0.44700000  1.0 -0.5982116379
O  O8  1  0.26490000  0.40120000  0.44700000  1.0 -0.5982116379
O  O9  1  0.40120000  0.26490000  0.44700000  1.0 -0.5982116379
O  O10  1  0.59880000  0.73510000  0.44700000  1.0 -0.5982116379
O  O11  1  0.73510000  0.40120000  0.94700000  1.0 -0.5982116379
O  O12  1  0.26490000  0.59880000  0.94700000  1.0 -0.5982116379
O  O13  1  0.59880000  0.26490000  0.05300000  1.0 -0.5982116379
O  O14  1  0.40120000  0.73510000  0.05300000  1.0 -0.5982116379
O  O15  1  0.26490000  0.40120000  0.55300000  1.0 -0.5982116379
O  O16  1  0.73510000  0.59880000  0.55300000  1.0 -0.5982116379
O  O17  1  0.56650000  0.56650000  0.42980000  1.0 -0.0900266499
O  O18  1  0.43350000  0.43350000  0.42980000  1.0 -0.0900266499
O  O19  1  0.43350000  0.56650000  0.92980000  1.0 -0.0900266499
O  O20  1  0.56650000  0.43350000  0.92980000  1.0 -0.0900266499
O  O21  1  0.43350000  0.56650000  0.07020000  1.0 -0.0900266499
O  O22  1  0.56650000  0.43350000  0.07020000  1.0 -0.0900266499
O  O23  1  0.56650000  0.56650000  0.57020000  1.0 -0.0900266499
O  O24  1  0.43350000  0.43350000  0.57020000  1.0 -0.0900266499
O  O25  1  0.48060000  0.71600000  0.58879000  1.0 -0.5365241026
O  O26  1  0.51940000  0.28400000  0.58879000  1.0 -0.5365241026
O  O27  1  0.28400000  0.48060000  0.08879000  1.0 -0.5365241026
O  O28  1  0.71600000  0.51940000  0.08879000  1.0 -0.5365241026
O  O29  1  0.51940000  0.71600000  0.91121000  1.0 -0.5365241026
O  O30  1  0.48060000  0.28400000  0.91121000  1.0 -0.5365241026
O  O31  1  0.71600000  0.48060000  0.41121000  1.0 -0.5365241026
O  O32  1  0.28400000  0.51940000  0.41121000  1.0 -0.5365241026
O  O33  1  0.51940000  0.28400000  0.41121000  1.0 -0.5365241026
O  O34  1  0.48060000  0.71600000  0.41121000  1.0 -0.5365241026
O  O35  1  0.71600000  0.51940000  0.91121000  1.0 -0.5365241026
O  O36  1  0.28400000  0.48060000  0.91121000  1.0 -0.5365241026
O  O37  1  0.48060000  0.28400000  0.08879000  1.0 -0.5365241026
O  O38  1  0.51940000  0.71600000  0.08879000  1.0 -0.5365241026
O  O39  1  0.28400000  0.51940000  0.58879000  1.0 -0.5365241026
O  O40  1  0.71600000  0.48060000  0.58879000  1.0 -0.5365241026
O  O41  1  0.64310000  0.47630000  0.50000000  1.0 -1.0442788656
O  O42  1  0.35690000  0.52370000  0.50000000  1.0 -1.0442788656
O  O43  1  0.52370000  0.64310000  0.00000000  1.0 -1.0442788656
O  O44  1  0.47630000  0.35690000  0.00000000  1.0 -1.0486036197
O  O45  1  0.35690000  0.47630000  0.00000000  1.0 -1.0486036197
O  O46  1  0.64310000  0.52370000  0.00000000  1.0 -1.0442788656
O  O47  1  0.47630000  0.64310000  0.50000000  1.0 -1.0442788656
O  O48  1  0.52370000  0.35690000  0.50000000  1.0 -1.0442788656
O  O49  1  0.68810000  0.31190000  0.46310000  1.0 -0.5365241026
O  O50  1  0.31190000  0.68810000  0.46310000  1.0 -0.5365241026
O  O51  1  0.68810000  0.68810000  0.96310000  1.0 -0.5365241026
O  O52  1  0.31190000  0.31190000  0.96310000  1.0 -0.5365241026
O  O53  1  0.31190000  0.31190000  0.03690000  1.0 -0.5365241026
O  O54  1  0.68810000  0.68810000  0.03690000  1.0 -0.5365241026
O  O55  1  0.31190000  0.68810000  0.53690000  1.0 -0.5365241026
O  O56  1  0.68810000  0.31190000  0.53690000  1.0 -0.5365241026
O  O57  1  0.55020000  0.44980000  0.36061000  1.0 -0.3214255378
O  O58  1  0.44980000  0.55020000  0.36061000  1.0 -0.3214255378
O  O59  1  0.55020000  0.55020000  0.86061000  1.0 -0.3214255378
O  O60  1  0.44980000  0.44980000  0.86061000  1.0 -0.3214255378
O  O61  1  0.44980000  0.44980000  0.13939000  1.0 -0.3214255378
O  O62  1  0.55020000  0.55020000  0.13939000  1.0 -0.3214255378
O  O63  1  0.44980000  0.55020000  0.63939000  1.0 -0.3214255378
O  O64  1  0.55020000  0.44980000  0.63939000  1.0 -0.3214255378
O  O65  1  0.54900000  0.54900000  0.44880000  1.0 -0.3770901554
O  O66  1  0.45100000  0.45100000  0.44880000  1.0 -0.3770901554
O  O67  1  0.45100000  0.54900000  0.94880000  1.0 -0.3770901554
O  O68  1  0.54900000  0.45100000  0.94880000  1.0 -0.3770901554
O  O69  1  0.45100000  0.54900000  0.05120000  1.0 -0.3770901554
O  O70  1  0.54900000  0.45100000  0.05120000  1.0 -0.3770901554
O  O71  1  0.54900000  0.54900000  0.55120000  1.0 -0.3770901554
O  O72  1  0.45100000  0.45100000  0.55120000  1.0 -0.3770901554
