# DDEC6 charges by PACMAN v1.1 (https://github.com/mtap-research/PACMAN-charge/)
data_CIFKUA_FSR_pacman
_symmetry_space_group_name_H-M   'P 1'
_cell_length_a   29.46670000
_cell_length_b   29.46670000
_cell_length_c   29.46670000
_cell_angle_alpha   99.30220000
_cell_angle_beta   99.30220000
_cell_angle_gamma   99.30220000
_symmetry_Int_Tables_number   1
_chemical_formula_structural   In2H28C81O16
_chemical_formula_sum   'In12 H168 C486 O96'
_cell_volume   24449.50718910
_cell_formula_units_Z   6
loop_
 _symmetry_equiv_pos_site_id
 _symmetry_equiv_pos_as_xyz
  1  'x, y, z'
loop_
 _atom_site_type_symbol
 _atom_site_label
 _atom_site_symmetry_multiplicity
 _atom_site_fract_x
 _atom_site_fract_y
 _atom_site_fract_z
 _atom_site_occupancy
 _atom_site_charge
In  In1  1  0.27031000  0.40882000  0.69931000  1.0 1.3819914261
In  In2  1  0.98552000  0.85830000  0.56307000  1.0 1.3418738643
In  In3  1  0.69931000  0.27031000  0.40882000  1.0 1.3819914261
In  In4  1  0.56307000  0.98552000  0.85830000  1.0 1.3418738643
In  In5  1  0.40882000  0.69931000  0.27031000  1.0 1.3819914261
In  In6  1  0.85830000  0.56307000  0.98552000  1.0 1.3418738643
In  In7  1  0.72969000  0.59118000  0.30069000  1.0 1.3819914261
In  In8  1  0.01448000  0.14170000  0.43693000  1.0 1.3418738643
In  In9  1  0.30069000  0.72969000  0.59118000  1.0 1.3819914261
In  In10  1  0.43693000  0.01448000  0.14170000  1.0 1.3418738643
In  In11  1  0.59118000  0.30069000  0.72969000  1.0 1.3819914261
In  In12  1  0.14170000  0.43693000  0.01448000  1.0 1.3418738643
H  H1  1  0.22820000  0.24080000  0.64190000  1.0 0.1319948505
H  H2  1  0.23090000  0.16410000  0.64480000  1.0 0.1098052453
H  H3  1  0.32530000  0.20490000  0.76430000  1.0 0.1319948505
H  H4  1  0.32480000  0.28220000  0.75890000  1.0 0.1377120843
H  H5  1  0.21260000  0.10060000  0.67620000  1.0 0.1319948505
H  H6  1  0.28130000  0.99980000  0.70830000  1.0 0.1377120843
H  H7  1  0.34770000  0.13400000  0.73750000  1.0 0.1377120843
H  H8  1  0.14240000  0.90320000  0.66810000  1.0 0.1482012917
H  H9  1  0.21050000  0.95750000  0.70200000  1.0 0.1377120843
H  H10  1  0.41370000  0.41640000  0.63270000  1.0 0.1377120843
H  H11  1  0.45540000  0.42700000  0.57440000  1.0 0.1206676098
H  H12  1  0.34350000  0.45600000  0.49770000  1.0 0.1319948505
H  H13  1  0.30200000  0.44600000  0.55580000  1.0 0.1377120843
H  H14  1  0.39940000  0.49960000  0.46930000  1.0 0.1206676098
H  H15  1  0.34930000  0.49680000  0.84920000  1.0 0.1319948505
H  H16  1  0.38450000  0.56150000  0.90470000  1.0 0.1377120843
H  H17  1  0.34600000  0.64300000  0.81460000  1.0 0.1206676098
H  H18  1  0.31000000  0.57790000  0.76000000  1.0 0.1319948505
H  H19  1  0.37660000  0.62630000  0.95850000  1.0 0.1319948505
H  H20  1  0.44480000  0.75960000  0.99220000  1.0 0.1319948505
H  H21  1  0.41390000  0.69340000  0.85860000  1.0 0.1206676098
H  H22  1  0.44700000  0.75280000  0.84080000  1.0 0.1319948505
H  H23  1  0.48110000  0.82160000  0.82070000  1.0 0.1482012917
H  H24  1  0.39980000  0.76030000  0.04940000  1.0 0.1098052453
H  H25  1  0.41720000  0.62830000  0.03650000  1.0 0.1319948505
H  H26  1  0.39730000  0.76300000  0.12720000  1.0 0.1319948505
H  H27  1  0.41310000  0.63080000  0.11460000  1.0 0.1377120843
H  H28  1  0.80650000  0.87100000  0.76890000  1.0 0.1669118478
H  H29  1  0.64190000  0.22820000  0.24080000  1.0 0.1319948505
H  H30  1  0.64480000  0.23090000  0.16410000  1.0 0.1098052453
H  H31  1  0.76430000  0.32530000  0.20490000  1.0 0.1319948505
H  H32  1  0.75890000  0.32480000  0.28220000  1.0 0.1377120843
H  H33  1  0.67620000  0.21260000  0.10060000  1.0 0.1319948505
H  H34  1  0.70830000  0.28130000  0.99980000  1.0 0.1377120843
H  H35  1  0.73750000  0.34770000  0.13400000  1.0 0.1377120843
H  H36  1  0.66810000  0.14240000  0.90320000  1.0 0.1482012917
H  H37  1  0.70200000  0.21050000  0.95750000  1.0 0.1377120843
H  H38  1  0.63270000  0.41370000  0.41640000  1.0 0.1377120843
H  H39  1  0.57440000  0.45540000  0.42700000  1.0 0.1206676098
H  H40  1  0.49770000  0.34350000  0.45600000  1.0 0.1319948505
H  H41  1  0.55580000  0.30200000  0.44600000  1.0 0.1377120843
H  H42  1  0.46930000  0.39940000  0.49960000  1.0 0.1206676098
H  H43  1  0.84920000  0.34930000  0.49680000  1.0 0.1319948505
H  H44  1  0.90470000  0.38450000  0.56150000  1.0 0.1377120843
H  H45  1  0.81460000  0.34600000  0.64300000  1.0 0.1206676098
H  H46  1  0.76000000  0.31000000  0.57790000  1.0 0.1319948505
H  H47  1  0.95850000  0.37660000  0.62630000  1.0 0.1319948505
H  H48  1  0.99220000  0.44480000  0.75960000  1.0 0.1319948505
H  H49  1  0.85860000  0.41390000  0.69340000  1.0 0.1206676098
H  H50  1  0.84080000  0.44700000  0.75280000  1.0 0.1319948505
H  H51  1  0.82070000  0.48110000  0.82160000  1.0 0.1482012917
H  H52  1  0.04940000  0.39980000  0.76030000  1.0 0.1098052453
H  H53  1  0.03650000  0.41720000  0.62830000  1.0 0.1319948505
H  H54  1  0.12720000  0.39730000  0.76300000  1.0 0.1319948505
H  H55  1  0.11460000  0.41310000  0.63080000  1.0 0.1377120843
H  H56  1  0.76890000  0.80650000  0.87100000  1.0 0.1669118478
H  H57  1  0.24080000  0.64190000  0.22820000  1.0 0.1319948505
H  H58  1  0.16410000  0.64480000  0.23090000  1.0 0.1098052453
H  H59  1  0.20490000  0.76430000  0.32530000  1.0 0.1319948505
H  H60  1  0.28220000  0.75890000  0.32480000  1.0 0.1377120843
H  H61  1  0.10060000  0.67620000  0.21260000  1.0 0.1319948505
H  H62  1  0.99980000  0.70830000  0.28130000  1.0 0.1377120843
H  H63  1  0.13400000  0.73750000  0.34770000  1.0 0.1377120843
H  H64  1  0.90320000  0.66810000  0.14240000  1.0 0.1482012917
H  H65  1  0.95750000  0.70200000  0.21050000  1.0 0.1377120843
H  H66  1  0.41640000  0.63270000  0.41370000  1.0 0.1377120843
H  H67  1  0.42700000  0.57440000  0.45540000  1.0 0.1206676098
H  H68  1  0.45600000  0.49770000  0.34350000  1.0 0.1319948505
H  H69  1  0.44600000  0.55580000  0.30200000  1.0 0.1377120843
H  H70  1  0.49960000  0.46930000  0.39940000  1.0 0.1206676098
H  H71  1  0.49680000  0.84920000  0.34930000  1.0 0.1319948505
H  H72  1  0.56150000  0.90470000  0.38450000  1.0 0.1377120843
H  H73  1  0.64300000  0.81460000  0.34600000  1.0 0.1206676098
H  H74  1  0.57790000  0.76000000  0.31000000  1.0 0.1319948505
H  H75  1  0.62630000  0.95850000  0.37660000  1.0 0.1319948505
H  H76  1  0.75960000  0.99220000  0.44480000  1.0 0.1319948505
H  H77  1  0.69340000  0.85860000  0.41390000  1.0 0.1206676098
H  H78  1  0.75280000  0.84080000  0.44700000  1.0 0.1319948505
H  H79  1  0.82160000  0.82070000  0.48110000  1.0 0.1482012917
H  H80  1  0.76030000  0.04940000  0.39980000  1.0 0.1098052453
H  H81  1  0.62830000  0.03650000  0.41720000  1.0 0.1319948505
H  H82  1  0.76300000  0.12720000  0.39730000  1.0 0.1319948505
H  H83  1  0.63080000  0.11460000  0.41310000  1.0 0.1377120843
H  H84  1  0.87100000  0.76890000  0.80650000  1.0 0.1669118478
H  H85  1  0.77180000  0.75920000  0.35810000  1.0 0.1319948505
H  H86  1  0.76910000  0.83590000  0.35520000  1.0 0.1098052453
H  H87  1  0.67470000  0.79510000  0.23570000  1.0 0.1319948505
H  H88  1  0.67520000  0.71780000  0.24110000  1.0 0.1377120843
H  H89  1  0.78740000  0.89940000  0.32380000  1.0 0.1319948505
H  H90  1  0.71870000  0.00020000  0.29170000  1.0 0.1377120843
H  H91  1  0.65230000  0.86600000  0.26250000  1.0 0.1377120843
H  H92  1  0.85760000  0.09680000  0.33190000  1.0 0.1482012917
H  H93  1  0.78950000  0.04250000  0.29800000  1.0 0.1377120843
H  H94  1  0.58630000  0.58360000  0.36730000  1.0 0.1377120843
H  H95  1  0.54460000  0.57300000  0.42560000  1.0 0.1206676098
H  H96  1  0.65650000  0.54400000  0.50230000  1.0 0.1319948505
H  H97  1  0.69800000  0.55400000  0.44420000  1.0 0.1377120843
H  H98  1  0.60060000  0.50040000  0.53070000  1.0 0.1206676098
H  H99  1  0.65070000  0.50320000  0.15080000  1.0 0.1319948505
H  H100  1  0.61550000  0.43850000  0.09530000  1.0 0.1377120843
H  H101  1  0.65400000  0.35700000  0.18540000  1.0 0.1206676098
H  H102  1  0.69000000  0.42210000  0.24000000  1.0 0.1319948505
H  H103  1  0.62340000  0.37370000  0.04150000  1.0 0.1319948505
H  H104  1  0.55520000  0.24040000  0.00780000  1.0 0.1319948505
H  H105  1  0.58610000  0.30660000  0.14140000  1.0 0.1206676098
H  H106  1  0.55300000  0.24720000  0.15920000  1.0 0.1319948505
H  H107  1  0.51890000  0.17840000  0.17930000  1.0 0.1482012917
H  H108  1  0.60020000  0.23970000  0.95060000  1.0 0.1098052453
H  H109  1  0.58280000  0.37170000  0.96350000  1.0 0.1319948505
H  H110  1  0.60270000  0.23700000  0.87280000  1.0 0.1319948505
H  H111  1  0.58690000  0.36920000  0.88540000  1.0 0.1377120843
H  H112  1  0.19350000  0.12900000  0.23110000  1.0 0.1669118478
H  H113  1  0.35810000  0.77180000  0.75920000  1.0 0.1319948505
H  H114  1  0.35520000  0.76910000  0.83590000  1.0 0.1098052453
H  H115  1  0.23570000  0.67470000  0.79510000  1.0 0.1319948505
H  H116  1  0.24110000  0.67520000  0.71780000  1.0 0.1377120843
H  H117  1  0.32380000  0.78740000  0.89940000  1.0 0.1319948505
H  H118  1  0.29170000  0.71870000  0.00020000  1.0 0.1377120843
H  H119  1  0.26250000  0.65230000  0.86600000  1.0 0.1377120843
H  H120  1  0.33190000  0.85760000  0.09680000  1.0 0.1482012917
H  H121  1  0.29800000  0.78950000  0.04250000  1.0 0.1377120843
H  H122  1  0.36730000  0.58630000  0.58360000  1.0 0.1377120843
H  H123  1  0.42560000  0.54460000  0.57300000  1.0 0.1206676098
H  H124  1  0.50230000  0.65650000  0.54400000  1.0 0.1319948505
H  H125  1  0.44420000  0.69800000  0.55400000  1.0 0.1377120843
H  H126  1  0.53070000  0.60060000  0.50040000  1.0 0.1206676098
H  H127  1  0.15080000  0.65070000  0.50320000  1.0 0.1319948505
H  H128  1  0.09530000  0.61550000  0.43850000  1.0 0.1377120843
H  H129  1  0.18540000  0.65400000  0.35700000  1.0 0.1206676098
H  H130  1  0.24000000  0.69000000  0.42210000  1.0 0.1319948505
H  H131  1  0.04150000  0.62340000  0.37370000  1.0 0.1319948505
H  H132  1  0.00780000  0.55520000  0.24040000  1.0 0.1319948505
H  H133  1  0.14140000  0.58610000  0.30660000  1.0 0.1206676098
H  H134  1  0.15920000  0.55300000  0.24720000  1.0 0.1319948505
H  H135  1  0.17930000  0.51890000  0.17840000  1.0 0.1482012917
H  H136  1  0.95060000  0.60020000  0.23970000  1.0 0.1098052453
H  H137  1  0.96350000  0.58280000  0.37170000  1.0 0.1319948505
H  H138  1  0.87280000  0.60270000  0.23700000  1.0 0.1319948505
H  H139  1  0.88540000  0.58690000  0.36920000  1.0 0.1377120843
H  H140  1  0.23110000  0.19350000  0.12900000  1.0 0.1669118478
H  H141  1  0.75920000  0.35810000  0.77180000  1.0 0.1319948505
H  H142  1  0.83590000  0.35520000  0.76910000  1.0 0.1098052453
H  H143  1  0.79510000  0.23570000  0.67470000  1.0 0.1319948505
H  H144  1  0.71780000  0.24110000  0.67520000  1.0 0.1377120843
H  H145  1  0.89940000  0.32380000  0.78740000  1.0 0.1319948505
H  H146  1  0.00020000  0.29170000  0.71870000  1.0 0.1377120843
H  H147  1  0.86600000  0.26250000  0.65230000  1.0 0.1377120843
H  H148  1  0.09680000  0.33190000  0.85760000  1.0 0.1482012917
H  H149  1  0.04250000  0.29800000  0.78950000  1.0 0.1377120843
H  H150  1  0.58360000  0.36730000  0.58630000  1.0 0.1377120843
H  H151  1  0.57300000  0.42560000  0.54460000  1.0 0.1206676098
H  H152  1  0.54400000  0.50230000  0.65650000  1.0 0.1319948505
H  H153  1  0.55400000  0.44420000  0.69800000  1.0 0.1377120843
H  H154  1  0.50040000  0.53070000  0.60060000  1.0 0.1206676098
H  H155  1  0.50320000  0.15080000  0.65070000  1.0 0.1319948505
H  H156  1  0.43850000  0.09530000  0.61550000  1.0 0.1377120843
H  H157  1  0.35700000  0.18540000  0.65400000  1.0 0.1206676098
H  H158  1  0.42210000  0.24000000  0.69000000  1.0 0.1319948505
H  H159  1  0.37370000  0.04150000  0.62340000  1.0 0.1319948505
H  H160  1  0.24040000  0.00780000  0.55520000  1.0 0.1319948505
H  H161  1  0.30660000  0.14140000  0.58610000  1.0 0.1206676098
H  H162  1  0.24720000  0.15920000  0.55300000  1.0 0.1319948505
H  H163  1  0.17840000  0.17930000  0.51890000  1.0 0.1482012917
H  H164  1  0.23970000  0.95060000  0.60020000  1.0 0.1098052453
H  H165  1  0.37170000  0.96350000  0.58280000  1.0 0.1319948505
H  H166  1  0.23700000  0.87280000  0.60270000  1.0 0.1319948505
H  H167  1  0.36920000  0.88540000  0.58690000  1.0 0.1377120843
H  H168  1  0.12900000  0.23110000  0.19350000  1.0 0.1669118478
C  C1  1  0.27241000  0.31941000  0.69902000  1.0 0.5480589946
C  C2  1  0.27537000  0.26878000  0.70055000  1.0 0.0090807598
C  C3  1  0.24805000  0.23355000  0.66647000  1.0 -0.0793052648
C  C4  1  0.24970000  0.18757000  0.66832000  1.0 -0.1516950739
C  C5  1  0.27873000  0.17529000  0.70446000  1.0 0.0809993011
C  C6  1  0.30610000  0.21179000  0.73899000  1.0 -0.1417226428
C  C7  1  0.30515000  0.25820000  0.73631000  1.0 -0.0793052648
C  C8  1  0.28042000  0.12588000  0.70694000  1.0 0.0982319703
C  C9  1  0.23995000  0.09157000  0.68890000  1.0 -0.1902067865
C  C10  1  0.23932000  0.04434000  0.68927000  1.0 0.0982319703
C  C11  1  0.28095000  0.03124000  0.70787000  1.0 -0.1902067865
C  C12  1  0.32142000  0.06443000  0.72562000  1.0 0.1206676098
C  C13  1  0.32050000  0.11163000  0.72518000  1.0 -0.1811587836
C  C14  1  0.19459000  0.00904000  0.66811000  1.0 0.0583876381
C  C15  1  0.16060000  0.02039000  0.63564000  1.0 -0.0082730111
C  C16  1  0.11982000  0.98782000  0.61533000  1.0 -0.0313937795
C  C17  1  0.11303000  0.94391000  0.62748000  1.0 0.0506796164
C  C18  1  0.14701000  0.93256000  0.65996000  1.0 -0.1030697177
C  C19  1  0.18779000  0.96513000  0.68027000  1.0 -0.1417226428
C  C20  1  0.06836000  0.91095000  0.60434000  1.0 0.5480589946
C  C21  1  0.36543000  0.04974000  0.74649000  1.0 0.0374003313
C  C22  1  0.40793000  0.06740000  0.73517000  1.0 -0.1328502695
C  C23  1  0.36328000  0.02080000  0.77932000  1.0 -0.0399663801
C  C24  1  0.32378000  0.42166000  0.63654000  1.0 0.5480589946
C  C25  1  0.35244000  0.42933000  0.60012000  1.0 0.0027842141
C  C26  1  0.39921000  0.42423000  0.60534000  1.0 -0.0727999917
C  C27  1  0.42431000  0.43059000  0.57040000  1.0 -0.1516950739
C  C28  1  0.40338000  0.44216000  0.52945000  1.0 0.0705889534
C  C29  1  0.35791000  0.44782000  0.52486000  1.0 -0.1417226428
C  C30  1  0.33286000  0.44167000  0.55981000  1.0 -0.0793052648
C  C31  1  0.43103000  0.44989000  0.49260000  1.0 0.0894546263
C  C32  1  0.42313000  0.48311000  0.46506000  1.0 -0.1902067865
C  C33  1  0.30595000  0.48738000  0.76181000  1.0 0.5480589946
C  C34  1  0.32690000  0.52999000  0.79749000  1.0 -0.0082730111
C  C35  1  0.34887000  0.52644000  0.84210000  1.0 -0.0727999917
C  C36  1  0.36975000  0.56511000  0.87549000  1.0 -0.1417226428
C  C37  1  0.36921000  0.61061000  0.86626000  1.0 0.0894546263
C  C38  1  0.34676000  0.61356000  0.82198000  1.0 -0.1516950739
C  C39  1  0.32566000  0.57443000  0.78897000  1.0 -0.0727999917
C  C40  1  0.39186000  0.65269000  0.90257000  1.0 0.0982319703
C  C41  1  0.39073000  0.65324000  0.94962000  1.0 -0.1811587836
C  C42  1  0.41024000  0.69299000  0.98357000  1.0 0.1098052453
C  C43  1  0.43170000  0.73285000  0.96956000  1.0 -0.1984476949
C  C44  1  0.43413000  0.73385000  0.92308000  1.0 0.0894546263
C  C45  1  0.41339000  0.69335000  0.89012000  1.0 -0.1811587836
C  C46  1  0.45930000  0.77732000  0.91066000  1.0 0.0506796164
C  C47  1  0.46014000  0.77915000  0.86395000  1.0 -0.1902067865
C  C48  1  0.48059000  0.82033000  0.85194000  1.0 -0.1417226428
C  C49  1  0.50023000  0.85966000  0.88663000  1.0 0.0090807598
C  C50  1  0.49940000  0.85783000  0.93333000  1.0 0.0506796164
C  C51  1  0.47893000  0.81666000  0.94535000  1.0 0.0090807598
C  C52  1  0.40821000  0.69424000  0.03409000  1.0 0.0894546263
C  C53  1  0.40280000  0.73378000  0.06215000  1.0 -0.1417226428
C  C54  1  0.41285000  0.65570000  0.05452000  1.0 -0.1417226428
C  C55  1  0.40670000  0.69888000  0.17991000  1.0 0.5480589946
C  C56  1  0.40638000  0.69718000  0.12871000  1.0 0.0090807598
C  C57  1  0.40155000  0.73565000  0.10905000  1.0 -0.0727999917
C  C58  1  0.41111000  0.65735000  0.10162000  1.0 -0.0727999917
C  C59  1  0.95170000  0.84421000  0.63759000  1.0 0.5789421498
C  C60  1  0.92584000  0.83730000  0.67603000  1.0 -0.0313937795
C  C61  1  0.91342000  0.87595000  0.70128000  1.0 0.1629507492
C  C62  1  0.88690000  0.87015000  0.73561000  1.0 -0.2601004674
C  C63  1  0.87280000  0.82573000  0.74472000  1.0 0.0982319703
C  C64  1  0.88521000  0.78710000  0.71949000  1.0 -0.0082730111
C  C65  1  0.91173000  0.79288000  0.68515000  1.0 0.0583876381
C  C66  1  0.84349000  0.82121000  0.78257000  1.0 0.1482012917
C  C67  1  0.48919000  0.00949000  0.81259000  1.0 0.5293365717
C  C68  1  0.44657000  0.02376000  0.78880000  1.0 0.0196848707
C  C69  1  0.40290000  0.00730000  0.80090000  1.0 0.0705889534
C  C70  1  0.44976000  0.05323000  0.75671000  1.0 0.0705889534
C  C71  1  0.81025000  0.84888000  0.78772000  1.0 -0.1564695428
C  C72  1  0.52074000  0.90469000  0.87449000  1.0 0.5480589946
C  C73  1  0.45560000  0.82060000  0.93510000  1.0 -0.0313937795
C  C74  1  0.47520000  0.86190000  0.92280000  1.0 0.0196848707
C  C75  1  0.40129000  0.07879000  0.78019000  1.0 -0.0313937795
C  C76  1  0.43810000  0.06700000  0.80860000  1.0 -0.0194543206
C  C77  1  0.37570000  0.00530000  0.73590000  1.0 -0.0898631613
C  C78  1  0.42140000  0.00160000  0.75390000  1.0 -0.0194543206
C  C79  1  0.16830000  0.01380000  0.62610000  1.0 -0.0023188371
C  C80  1  0.12440000  0.98480000  0.61050000  1.0 -0.0641649714
C  C81  1  0.89331000  0.87030000  0.74009000  1.0 -0.2601004674
C  C82  1  0.69902000  0.27241000  0.31941000  1.0 0.5480589946
C  C83  1  0.70055000  0.27537000  0.26878000  1.0 0.0090807598
C  C84  1  0.66647000  0.24805000  0.23355000  1.0 -0.0793052648
C  C85  1  0.66832000  0.24970000  0.18757000  1.0 -0.1516950739
C  C86  1  0.70446000  0.27873000  0.17529000  1.0 0.0809993011
C  C87  1  0.73899000  0.30610000  0.21179000  1.0 -0.1417226428
C  C88  1  0.73631000  0.30515000  0.25820000  1.0 -0.0793052648
C  C89  1  0.70694000  0.28042000  0.12588000  1.0 0.0982319703
C  C90  1  0.68890000  0.23995000  0.09157000  1.0 -0.1902067865
C  C91  1  0.68927000  0.23932000  0.04434000  1.0 0.0982319703
C  C92  1  0.70787000  0.28095000  0.03124000  1.0 -0.1902067865
C  C93  1  0.72562000  0.32142000  0.06443000  1.0 0.1206676098
C  C94  1  0.72518000  0.32050000  0.11163000  1.0 -0.1811587836
C  C95  1  0.66811000  0.19459000  0.00904000  1.0 0.0583876381
C  C96  1  0.63564000  0.16060000  0.02039000  1.0 -0.0023188371
C  C97  1  0.61533000  0.11982000  0.98782000  1.0 -0.0313937795
C  C98  1  0.62748000  0.11303000  0.94391000  1.0 0.0506796164
C  C99  1  0.65996000  0.14701000  0.93256000  1.0 -0.1030697177
C  C100  1  0.68027000  0.18779000  0.96513000  1.0 -0.1417226428
C  C101  1  0.60434000  0.06836000  0.91095000  1.0 0.5480589946
C  C102  1  0.74649000  0.36543000  0.04974000  1.0 0.0374003313
C  C103  1  0.73517000  0.40793000  0.06740000  1.0 -0.1417226428
C  C104  1  0.77932000  0.36328000  0.02080000  1.0 -0.0399663801
C  C105  1  0.63654000  0.32378000  0.42166000  1.0 0.5480589946
C  C106  1  0.60012000  0.35244000  0.42933000  1.0 0.0027842141
C  C107  1  0.60534000  0.39921000  0.42423000  1.0 -0.0727999917
C  C108  1  0.57040000  0.42431000  0.43059000  1.0 -0.1516950739
C  C109  1  0.52945000  0.40338000  0.44216000  1.0 0.0705889534
C  C110  1  0.52486000  0.35791000  0.44782000  1.0 -0.1417226428
C  C111  1  0.55981000  0.33286000  0.44167000  1.0 -0.0793052648
C  C112  1  0.49260000  0.43103000  0.44989000  1.0 0.0894546263
C  C113  1  0.46506000  0.42313000  0.48311000  1.0 -0.1902067865
C  C114  1  0.76181000  0.30595000  0.48738000  1.0 0.5480589946
C  C115  1  0.79749000  0.32690000  0.52999000  1.0 -0.0082730111
C  C116  1  0.84210000  0.34887000  0.52644000  1.0 -0.0641649714
C  C117  1  0.87549000  0.36975000  0.56511000  1.0 -0.1417226428
C  C118  1  0.86626000  0.36921000  0.61061000  1.0 0.0894546263
C  C119  1  0.82198000  0.34676000  0.61356000  1.0 -0.1417226428
C  C120  1  0.78897000  0.32566000  0.57443000  1.0 -0.0727999917
C  C121  1  0.90257000  0.39186000  0.65269000  1.0 0.0982319703
C  C122  1  0.94962000  0.39073000  0.65324000  1.0 -0.1811587836
C  C123  1  0.98357000  0.41024000  0.69299000  1.0 0.1098052453
C  C124  1  0.96956000  0.43170000  0.73285000  1.0 -0.1984476949
C  C125  1  0.92308000  0.43413000  0.73385000  1.0 0.0894546263
C  C126  1  0.89012000  0.41339000  0.69335000  1.0 -0.1811587836
C  C127  1  0.91066000  0.45930000  0.77732000  1.0 0.0506796164
C  C128  1  0.86395000  0.46014000  0.77915000  1.0 -0.1902067865
C  C129  1  0.85194000  0.48059000  0.82033000  1.0 -0.1417226428
C  C130  1  0.88663000  0.50023000  0.85966000  1.0 0.0090807598
C  C131  1  0.93333000  0.49940000  0.85783000  1.0 0.0583876381
C  C132  1  0.94535000  0.47893000  0.81666000  1.0 0.0196848707
C  C133  1  0.03409000  0.40821000  0.69424000  1.0 0.0894546263
C  C134  1  0.06215000  0.40280000  0.73378000  1.0 -0.1417226428
C  C135  1  0.05452000  0.41285000  0.65570000  1.0 -0.1417226428
C  C136  1  0.17991000  0.40670000  0.69888000  1.0 0.5480589946
C  C137  1  0.12871000  0.40638000  0.69718000  1.0 0.0090807598
C  C138  1  0.10905000  0.40155000  0.73565000  1.0 -0.0727999917
C  C139  1  0.10162000  0.41111000  0.65735000  1.0 -0.0727999917
C  C140  1  0.63759000  0.95170000  0.84421000  1.0 0.5789421498
C  C141  1  0.67603000  0.92584000  0.83730000  1.0 -0.0194543206
C  C142  1  0.70128000  0.91342000  0.87595000  1.0 0.1629507492
C  C143  1  0.73561000  0.88690000  0.87015000  1.0 -0.2601004674
C  C144  1  0.74472000  0.87280000  0.82573000  1.0 0.0894546263
C  C145  1  0.71949000  0.88521000  0.78710000  1.0 -0.0082730111
C  C146  1  0.68515000  0.91173000  0.79288000  1.0 0.0583876381
C  C147  1  0.78257000  0.84349000  0.82121000  1.0 0.1482012917
C  C148  1  0.81259000  0.48919000  0.00949000  1.0 0.5293365717
C  C149  1  0.78880000  0.44657000  0.02376000  1.0 0.0196848707
C  C150  1  0.80090000  0.40290000  0.00730000  1.0 0.0705889534
C  C151  1  0.75671000  0.44976000  0.05323000  1.0 0.0705889534
C  C152  1  0.78772000  0.81025000  0.84888000  1.0 -0.1564695428
C  C153  1  0.87449000  0.52074000  0.90469000  1.0 0.5480589946
C  C154  1  0.93510000  0.45560000  0.82060000  1.0 -0.0399663801
C  C155  1  0.92280000  0.47520000  0.86190000  1.0 0.0196848707
C  C156  1  0.78019000  0.40129000  0.07879000  1.0 -0.0313937795
C  C157  1  0.80860000  0.43810000  0.06700000  1.0 -0.0313937795
C  C158  1  0.73590000  0.37570000  0.00530000  1.0 -0.0898631613
C  C159  1  0.75390000  0.42140000  0.00160000  1.0 -0.0194543206
C  C160  1  0.62610000  0.16830000  0.01380000  1.0 -0.0023188371
C  C161  1  0.61050000  0.12440000  0.98480000  1.0 -0.0641649714
C  C162  1  0.74009000  0.89331000  0.87030000  1.0 -0.2545083563
C  C163  1  0.31941000  0.69902000  0.27241000  1.0 0.5480589946
C  C164  1  0.26878000  0.70055000  0.27537000  1.0 0.0090807598
C  C165  1  0.23355000  0.66647000  0.24805000  1.0 -0.0793052648
C  C166  1  0.18757000  0.66832000  0.24970000  1.0 -0.1516950739
C  C167  1  0.17529000  0.70446000  0.27873000  1.0 0.0809993011
C  C168  1  0.21179000  0.73899000  0.30610000  1.0 -0.1417226428
C  C169  1  0.25820000  0.73631000  0.30515000  1.0 -0.0793052648
C  C170  1  0.12588000  0.70694000  0.28042000  1.0 0.0982319703
C  C171  1  0.09157000  0.68890000  0.23995000  1.0 -0.1984476949
C  C172  1  0.04434000  0.68927000  0.23932000  1.0 0.0982319703
C  C173  1  0.03124000  0.70787000  0.28095000  1.0 -0.1902067865
C  C174  1  0.06443000  0.72562000  0.32142000  1.0 0.1206676098
C  C175  1  0.11163000  0.72518000  0.32050000  1.0 -0.1811587836
C  C176  1  0.00904000  0.66811000  0.19459000  1.0 0.0583876381
C  C177  1  0.02039000  0.63564000  0.16060000  1.0 -0.0023188371
C  C178  1  0.98782000  0.61533000  0.11982000  1.0 -0.0313937795
C  C179  1  0.94391000  0.62748000  0.11303000  1.0 0.0506796164
C  C180  1  0.93256000  0.65996000  0.14701000  1.0 -0.1030697177
C  C181  1  0.96513000  0.68027000  0.18779000  1.0 -0.1417226428
C  C182  1  0.91095000  0.60434000  0.06836000  1.0 0.5480589946
C  C183  1  0.04974000  0.74649000  0.36543000  1.0 0.0374003313
C  C184  1  0.06740000  0.73517000  0.40793000  1.0 -0.1328502695
C  C185  1  0.02080000  0.77932000  0.36328000  1.0 -0.0399663801
C  C186  1  0.42166000  0.63654000  0.32378000  1.0 0.5480589946
C  C187  1  0.42933000  0.60012000  0.35244000  1.0 0.0027842141
C  C188  1  0.42423000  0.60534000  0.39921000  1.0 -0.0727999917
C  C189  1  0.43059000  0.57040000  0.42431000  1.0 -0.1516950739
C  C190  1  0.44216000  0.52945000  0.40338000  1.0 0.0705889534
C  C191  1  0.44782000  0.52486000  0.35791000  1.0 -0.1417226428
C  C192  1  0.44167000  0.55981000  0.33286000  1.0 -0.0793052648
C  C193  1  0.44989000  0.49260000  0.43103000  1.0 0.0894546263
C  C194  1  0.48311000  0.46506000  0.42313000  1.0 -0.1902067865
C  C195  1  0.48738000  0.76181000  0.30595000  1.0 0.5480589946
C  C196  1  0.52999000  0.79749000  0.32690000  1.0 -0.0082730111
C  C197  1  0.52644000  0.84210000  0.34887000  1.0 -0.0641649714
C  C198  1  0.56511000  0.87549000  0.36975000  1.0 -0.1417226428
C  C199  1  0.61061000  0.86626000  0.36921000  1.0 0.0894546263
C  C200  1  0.61356000  0.82198000  0.34676000  1.0 -0.1417226428
C  C201  1  0.57443000  0.78897000  0.32566000  1.0 -0.0727999917
C  C202  1  0.65269000  0.90257000  0.39186000  1.0 0.0982319703
C  C203  1  0.65324000  0.94962000  0.39073000  1.0 -0.1811587836
C  C204  1  0.69299000  0.98357000  0.41024000  1.0 0.1098052453
C  C205  1  0.73285000  0.96956000  0.43170000  1.0 -0.1984476949
C  C206  1  0.73385000  0.92308000  0.43413000  1.0 0.0894546263
C  C207  1  0.69335000  0.89012000  0.41339000  1.0 -0.1811587836
C  C208  1  0.77732000  0.91066000  0.45930000  1.0 0.0506796164
C  C209  1  0.77915000  0.86395000  0.46014000  1.0 -0.1902067865
C  C210  1  0.82033000  0.85194000  0.48059000  1.0 -0.1417226428
C  C211  1  0.85966000  0.88663000  0.50023000  1.0 0.0090807598
C  C212  1  0.85783000  0.93333000  0.49940000  1.0 0.0583876381
C  C213  1  0.81666000  0.94535000  0.47893000  1.0 0.0196848707
C  C214  1  0.69424000  0.03409000  0.40821000  1.0 0.0894546263
C  C215  1  0.73378000  0.06215000  0.40280000  1.0 -0.1417226428
C  C216  1  0.65570000  0.05452000  0.41285000  1.0 -0.1417226428
C  C217  1  0.69888000  0.17991000  0.40670000  1.0 0.5480589946
C  C218  1  0.69718000  0.12871000  0.40638000  1.0 0.0090807598
C  C219  1  0.73565000  0.10905000  0.40155000  1.0 -0.0727999917
C  C220  1  0.65735000  0.10162000  0.41111000  1.0 -0.0727999917
C  C221  1  0.84421000  0.63759000  0.95170000  1.0 0.5789421498
C  C222  1  0.83730000  0.67603000  0.92584000  1.0 -0.0313937795
C  C223  1  0.87595000  0.70128000  0.91342000  1.0 0.1629507492
C  C224  1  0.87015000  0.73561000  0.88690000  1.0 -0.2601004674
C  C225  1  0.82573000  0.74472000  0.87280000  1.0 0.0982319703
C  C226  1  0.78710000  0.71949000  0.88521000  1.0 -0.0082730111
C  C227  1  0.79288000  0.68515000  0.91173000  1.0 0.0583876381
C  C228  1  0.82121000  0.78257000  0.84349000  1.0 0.1482012917
C  C229  1  0.00949000  0.81259000  0.48919000  1.0 0.5293365717
C  C230  1  0.02376000  0.78880000  0.44657000  1.0 0.0196848707
C  C231  1  0.00730000  0.80090000  0.40290000  1.0 0.0705889534
C  C232  1  0.05323000  0.75671000  0.44976000  1.0 0.0705889534
C  C233  1  0.84888000  0.78772000  0.81025000  1.0 -0.1564695428
C  C234  1  0.90469000  0.87449000  0.52074000  1.0 0.5480589946
C  C235  1  0.82060000  0.93510000  0.45560000  1.0 -0.0313937795
C  C236  1  0.86190000  0.92280000  0.47520000  1.0 0.0196848707
C  C237  1  0.07879000  0.78019000  0.40129000  1.0 -0.0313937795
C  C238  1  0.06700000  0.80860000  0.43810000  1.0 -0.0313937795
C  C239  1  0.00530000  0.73590000  0.37570000  1.0 -0.0898631613
C  C240  1  0.00160000  0.75390000  0.42140000  1.0 -0.0194543206
C  C241  1  0.01380000  0.62610000  0.16830000  1.0 -0.0023188371
C  C242  1  0.98480000  0.61050000  0.12440000  1.0 -0.0641649714
C  C243  1  0.87030000  0.74009000  0.89331000  1.0 -0.2601004674
C  C244  1  0.72759000  0.68059000  0.30098000  1.0 0.5480589946
C  C245  1  0.72463000  0.73122000  0.29945000  1.0 0.0090807598
C  C246  1  0.75195000  0.76645000  0.33353000  1.0 -0.0793052648
C  C247  1  0.75030000  0.81243000  0.33168000  1.0 -0.1516950739
C  C248  1  0.72127000  0.82471000  0.29554000  1.0 0.0809993011
C  C249  1  0.69390000  0.78821000  0.26101000  1.0 -0.1417226428
C  C250  1  0.69485000  0.74180000  0.26369000  1.0 -0.0793052648
C  C251  1  0.71958000  0.87412000  0.29306000  1.0 0.0982319703
C  C252  1  0.76005000  0.90843000  0.31110000  1.0 -0.1984476949
C  C253  1  0.76068000  0.95566000  0.31073000  1.0 0.0982319703
C  C254  1  0.71905000  0.96876000  0.29213000  1.0 -0.1902067865
C  C255  1  0.67858000  0.93557000  0.27438000  1.0 0.1206676098
C  C256  1  0.67950000  0.88837000  0.27482000  1.0 -0.1811587836
C  C257  1  0.80541000  0.99096000  0.33189000  1.0 0.0583876381
C  C258  1  0.83940000  0.97961000  0.36436000  1.0 -0.0023188371
C  C259  1  0.88018000  0.01218000  0.38467000  1.0 -0.0313937795
C  C260  1  0.88697000  0.05609000  0.37252000  1.0 0.0506796164
C  C261  1  0.85299000  0.06744000  0.34004000  1.0 -0.1030697177
C  C262  1  0.81221000  0.03487000  0.31973000  1.0 -0.1417226428
C  C263  1  0.93164000  0.08905000  0.39566000  1.0 0.5480589946
C  C264  1  0.63457000  0.95026000  0.25351000  1.0 0.0374003313
C  C265  1  0.59207000  0.93260000  0.26483000  1.0 -0.1328502695
C  C266  1  0.63672000  0.97920000  0.22068000  1.0 -0.0399663801
C  C267  1  0.67622000  0.57834000  0.36346000  1.0 0.5480589946
C  C268  1  0.64756000  0.57067000  0.39988000  1.0 0.0027842141
C  C269  1  0.60079000  0.57577000  0.39466000  1.0 -0.0727999917
C  C270  1  0.57569000  0.56941000  0.42960000  1.0 -0.1516950739
C  C271  1  0.59662000  0.55784000  0.47055000  1.0 0.0705889534
C  C272  1  0.64209000  0.55218000  0.47514000  1.0 -0.1417226428
C  C273  1  0.66714000  0.55833000  0.44019000  1.0 -0.0793052648
C  C274  1  0.56897000  0.55011000  0.50740000  1.0 0.0894546263
C  C275  1  0.57687000  0.51689000  0.53494000  1.0 -0.1902067865
C  C276  1  0.69405000  0.51262000  0.23819000  1.0 0.5480589946
C  C277  1  0.67310000  0.47001000  0.20251000  1.0 -0.0082730111
C  C278  1  0.65113000  0.47356000  0.15790000  1.0 -0.0641649714
C  C279  1  0.63025000  0.43489000  0.12451000  1.0 -0.1417226428
C  C280  1  0.63079000  0.38939000  0.13374000  1.0 0.0894546263
C  C281  1  0.65324000  0.38644000  0.17802000  1.0 -0.1417226428
C  C282  1  0.67434000  0.42557000  0.21103000  1.0 -0.0727999917
C  C283  1  0.60814000  0.34731000  0.09743000  1.0 0.0982319703
C  C284  1  0.60927000  0.34676000  0.05038000  1.0 -0.1747005831
C  C285  1  0.58976000  0.30701000  0.01643000  1.0 0.1098052453
C  C286  1  0.56830000  0.26715000  0.03044000  1.0 -0.1984476949
C  C287  1  0.56587000  0.26615000  0.07692000  1.0 0.0894546263
C  C288  1  0.58661000  0.30665000  0.10988000  1.0 -0.1811587836
C  C289  1  0.54070000  0.22268000  0.08934000  1.0 0.0506796164
C  C290  1  0.53986000  0.22085000  0.13605000  1.0 -0.1902067865
C  C291  1  0.51941000  0.17967000  0.14806000  1.0 -0.1516950739
C  C292  1  0.49977000  0.14034000  0.11337000  1.0 0.0090807598
C  C293  1  0.50060000  0.14217000  0.06667000  1.0 0.0583876381
C  C294  1  0.52107000  0.18334000  0.05465000  1.0 0.0090807598
C  C295  1  0.59179000  0.30576000  0.96591000  1.0 0.0894546263
C  C296  1  0.59720000  0.26622000  0.93785000  1.0 -0.1417226428
C  C297  1  0.58715000  0.34430000  0.94548000  1.0 -0.1417226428
C  C298  1  0.59330000  0.30112000  0.82009000  1.0 0.5480589946
C  C299  1  0.59362000  0.30282000  0.87129000  1.0 0.0090807598
C  C300  1  0.59845000  0.26435000  0.89095000  1.0 -0.0727999917
C  C301  1  0.58889000  0.34265000  0.89838000  1.0 -0.0727999917
C  C302  1  0.04830000  0.15579000  0.36241000  1.0 0.5789421498
C  C303  1  0.07416000  0.16270000  0.32397000  1.0 -0.0194543206
C  C304  1  0.08658000  0.12405000  0.29872000  1.0 0.1629507492
C  C305  1  0.11310000  0.12985000  0.26439000  1.0 -0.2601004674
C  C306  1  0.12720000  0.17427000  0.25528000  1.0 0.0982319703
C  C307  1  0.11479000  0.21290000  0.28051000  1.0 -0.0082730111
C  C308  1  0.08827000  0.20712000  0.31485000  1.0 0.0583876381
C  C309  1  0.15651000  0.17879000  0.21743000  1.0 0.1482012917
C  C310  1  0.51081000  0.99051000  0.18741000  1.0 0.5293365717
C  C311  1  0.55343000  0.97624000  0.21120000  1.0 0.0196848707
C  C312  1  0.59710000  0.99270000  0.19910000  1.0 0.0705889534
C  C313  1  0.55024000  0.94677000  0.24329000  1.0 0.0705889534
C  C314  1  0.18975000  0.15112000  0.21228000  1.0 -0.1516950739
C  C315  1  0.47926000  0.09531000  0.12551000  1.0 0.5446012814
C  C316  1  0.54440000  0.17940000  0.06490000  1.0 -0.0313937795
C  C317  1  0.52480000  0.13810000  0.07720000  1.0 0.0196848707
C  C318  1  0.59871000  0.92121000  0.21981000  1.0 -0.0313937795
C  C319  1  0.56190000  0.93300000  0.19140000  1.0 -0.0313937795
C  C320  1  0.62430000  0.99470000  0.26410000  1.0 -0.0898631613
C  C321  1  0.57860000  0.99840000  0.24610000  1.0 -0.0194543206
C  C322  1  0.83170000  0.98620000  0.37390000  1.0 -0.0023188371
C  C323  1  0.87560000  0.01520000  0.38950000  1.0 -0.0641649714
C  C324  1  0.10669000  0.12970000  0.25991000  1.0 -0.2687355529
C  C325  1  0.30098000  0.72759000  0.68059000  1.0 0.5480589946
C  C326  1  0.29945000  0.72463000  0.73122000  1.0 0.0090807598
C  C327  1  0.33353000  0.75195000  0.76645000  1.0 -0.0793052648
C  C328  1  0.33168000  0.75030000  0.81243000  1.0 -0.1516950739
C  C329  1  0.29554000  0.72127000  0.82471000  1.0 0.0809993011
C  C330  1  0.26101000  0.69390000  0.78821000  1.0 -0.1417226428
C  C331  1  0.26369000  0.69485000  0.74180000  1.0 -0.0793052648
C  C332  1  0.29306000  0.71958000  0.87412000  1.0 0.0982319703
C  C333  1  0.31110000  0.76005000  0.90843000  1.0 -0.1984476949
C  C334  1  0.31073000  0.76068000  0.95566000  1.0 0.0982319703
C  C335  1  0.29213000  0.71905000  0.96876000  1.0 -0.1902067865
C  C336  1  0.27438000  0.67858000  0.93557000  1.0 0.1206676098
C  C337  1  0.27482000  0.67950000  0.88837000  1.0 -0.1811587836
C  C338  1  0.33189000  0.80541000  0.99096000  1.0 0.0583876381
C  C339  1  0.36436000  0.83940000  0.97961000  1.0 -0.0023188371
C  C340  1  0.38467000  0.88018000  0.01218000  1.0 -0.0313937795
C  C341  1  0.37252000  0.88697000  0.05609000  1.0 0.0506796164
C  C342  1  0.34004000  0.85299000  0.06744000  1.0 -0.1030697177
C  C343  1  0.31973000  0.81221000  0.03487000  1.0 -0.1417226428
C  C344  1  0.39566000  0.93164000  0.08905000  1.0 0.5480589946
C  C345  1  0.25351000  0.63457000  0.95026000  1.0 0.0374003313
C  C346  1  0.26483000  0.59207000  0.93260000  1.0 -0.1328502695
C  C347  1  0.22068000  0.63672000  0.97920000  1.0 -0.0399663801
C  C348  1  0.36346000  0.67622000  0.57834000  1.0 0.5480589946
C  C349  1  0.39988000  0.64756000  0.57067000  1.0 0.0027842141
C  C350  1  0.39466000  0.60079000  0.57577000  1.0 -0.0727999917
C  C351  1  0.42960000  0.57569000  0.56941000  1.0 -0.1516950739
C  C352  1  0.47055000  0.59662000  0.55784000  1.0 0.0705889534
C  C353  1  0.47514000  0.64209000  0.55218000  1.0 -0.1417226428
C  C354  1  0.44019000  0.66714000  0.55833000  1.0 -0.0793052648
C  C355  1  0.50740000  0.56897000  0.55011000  1.0 0.0894546263
C  C356  1  0.53494000  0.57687000  0.51689000  1.0 -0.1902067865
C  C357  1  0.23819000  0.69405000  0.51262000  1.0 0.5480589946
C  C358  1  0.20251000  0.67310000  0.47001000  1.0 -0.0082730111
C  C359  1  0.15790000  0.65113000  0.47356000  1.0 -0.0727999917
C  C360  1  0.12451000  0.63025000  0.43489000  1.0 -0.1417226428
C  C361  1  0.13374000  0.63079000  0.38939000  1.0 0.0894546263
C  C362  1  0.17802000  0.65324000  0.38644000  1.0 -0.1417226428
C  C363  1  0.21103000  0.67434000  0.42557000  1.0 -0.0727999917
C  C364  1  0.09743000  0.60814000  0.34731000  1.0 0.0982319703
C  C365  1  0.05038000  0.60927000  0.34676000  1.0 -0.1811587836
C  C366  1  0.01643000  0.58976000  0.30701000  1.0 0.1098052453
C  C367  1  0.03044000  0.56830000  0.26715000  1.0 -0.1984476949
C  C368  1  0.07692000  0.56587000  0.26615000  1.0 0.0894546263
C  C369  1  0.10988000  0.58661000  0.30665000  1.0 -0.1811587836
C  C370  1  0.08934000  0.54070000  0.22268000  1.0 0.0506796164
C  C371  1  0.13605000  0.53986000  0.22085000  1.0 -0.1902067865
C  C372  1  0.14806000  0.51941000  0.17967000  1.0 -0.1516950739
C  C373  1  0.11337000  0.49977000  0.14034000  1.0 0.0090807598
C  C374  1  0.06667000  0.50060000  0.14217000  1.0 0.0583876381
C  C375  1  0.05465000  0.52107000  0.18334000  1.0 0.0090807598
C  C376  1  0.96591000  0.59179000  0.30576000  1.0 0.0894546263
C  C377  1  0.93785000  0.59720000  0.26622000  1.0 -0.1417226428
C  C378  1  0.94548000  0.58715000  0.34430000  1.0 -0.1417226428
C  C379  1  0.82009000  0.59330000  0.30112000  1.0 0.5480589946
C  C380  1  0.87129000  0.59362000  0.30282000  1.0 0.0090807598
C  C381  1  0.89095000  0.59845000  0.26435000  1.0 -0.0727999917
C  C382  1  0.89838000  0.58889000  0.34265000  1.0 -0.0727999917
C  C383  1  0.36241000  0.04830000  0.15579000  1.0 0.5789421498
C  C384  1  0.32397000  0.07416000  0.16270000  1.0 -0.0194543206
C  C385  1  0.29872000  0.08658000  0.12405000  1.0 0.1629507492
C  C386  1  0.26439000  0.11310000  0.12985000  1.0 -0.2601004674
C  C387  1  0.25528000  0.12720000  0.17427000  1.0 0.0982319703
C  C388  1  0.28051000  0.11479000  0.21290000  1.0 -0.0082730111
C  C389  1  0.31485000  0.08827000  0.20712000  1.0 0.0583876381
C  C390  1  0.21743000  0.15651000  0.17879000  1.0 0.1482012917
C  C391  1  0.18741000  0.51081000  0.99051000  1.0 0.5293365717
C  C392  1  0.21120000  0.55343000  0.97624000  1.0 0.0196848707
C  C393  1  0.19910000  0.59710000  0.99270000  1.0 0.0705889534
C  C394  1  0.24329000  0.55024000  0.94677000  1.0 0.0705889534
C  C395  1  0.21228000  0.18975000  0.15112000  1.0 -0.1564695428
C  C396  1  0.12551000  0.47926000  0.09531000  1.0 0.5480589946
C  C397  1  0.06490000  0.54440000  0.17940000  1.0 -0.0399663801
C  C398  1  0.07720000  0.52480000  0.13810000  1.0 0.0196848707
C  C399  1  0.21981000  0.59871000  0.92121000  1.0 -0.0313937795
C  C400  1  0.19140000  0.56190000  0.93300000  1.0 -0.0313937795
C  C401  1  0.26410000  0.62430000  0.99470000  1.0 -0.0898631613
C  C402  1  0.24610000  0.57860000  0.99840000  1.0 -0.0194543206
C  C403  1  0.37390000  0.83170000  0.98620000  1.0 -0.0023188371
C  C404  1  0.38950000  0.87560000  0.01520000  1.0 -0.0641649714
C  C405  1  0.25991000  0.10669000  0.12970000  1.0 -0.2601004674
C  C406  1  0.68059000  0.30098000  0.72759000  1.0 0.5480589946
C  C407  1  0.73122000  0.29945000  0.72463000  1.0 0.0090807598
C  C408  1  0.76645000  0.33353000  0.75195000  1.0 -0.0793052648
C  C409  1  0.81243000  0.33168000  0.75030000  1.0 -0.1516950739
C  C410  1  0.82471000  0.29554000  0.72127000  1.0 0.0809993011
C  C411  1  0.78821000  0.26101000  0.69390000  1.0 -0.1417226428
C  C412  1  0.74180000  0.26369000  0.69485000  1.0 -0.0793052648
C  C413  1  0.87412000  0.29306000  0.71958000  1.0 0.0982319703
C  C414  1  0.90843000  0.31110000  0.76005000  1.0 -0.1984476949
C  C415  1  0.95566000  0.31073000  0.76068000  1.0 0.0982319703
C  C416  1  0.96876000  0.29213000  0.71905000  1.0 -0.1902067865
C  C417  1  0.93557000  0.27438000  0.67858000  1.0 0.1206676098
C  C418  1  0.88837000  0.27482000  0.67950000  1.0 -0.1811587836
C  C419  1  0.99096000  0.33189000  0.80541000  1.0 0.0583876381
C  C420  1  0.97961000  0.36436000  0.83940000  1.0 -0.0023188371
C  C421  1  0.01218000  0.38467000  0.88018000  1.0 -0.0313937795
C  C422  1  0.05609000  0.37252000  0.88697000  1.0 0.0506796164
C  C423  1  0.06744000  0.34004000  0.85299000  1.0 -0.1030697177
C  C424  1  0.03487000  0.31973000  0.81221000  1.0 -0.1417226428
C  C425  1  0.08905000  0.39566000  0.93164000  1.0 0.5480589946
C  C426  1  0.95026000  0.25351000  0.63457000  1.0 0.0374003313
C  C427  1  0.93260000  0.26483000  0.59207000  1.0 -0.1328502695
C  C428  1  0.97920000  0.22068000  0.63672000  1.0 -0.0399663801
C  C429  1  0.57834000  0.36346000  0.67622000  1.0 0.5480589946
C  C430  1  0.57067000  0.39988000  0.64756000  1.0 0.0027842141
C  C431  1  0.57577000  0.39466000  0.60079000  1.0 -0.0727999917
C  C432  1  0.56941000  0.42960000  0.57569000  1.0 -0.1516950739
C  C433  1  0.55784000  0.47055000  0.59662000  1.0 0.0705889534
C  C434  1  0.55218000  0.47514000  0.64209000  1.0 -0.1417226428
C  C435  1  0.55833000  0.44019000  0.66714000  1.0 -0.0793052648
C  C436  1  0.55011000  0.50740000  0.56897000  1.0 0.0894546263
C  C437  1  0.51689000  0.53494000  0.57687000  1.0 -0.1902067865
C  C438  1  0.51262000  0.23819000  0.69405000  1.0 0.5480589946
C  C439  1  0.47001000  0.20251000  0.67310000  1.0 -0.0082730111
C  C440  1  0.47356000  0.15790000  0.65113000  1.0 -0.0727999917
C  C441  1  0.43489000  0.12451000  0.63025000  1.0 -0.1417226428
C  C442  1  0.38939000  0.13374000  0.63079000  1.0 0.0894546263
C  C443  1  0.38644000  0.17802000  0.65324000  1.0 -0.1516950739
C  C444  1  0.42557000  0.21103000  0.67434000  1.0 -0.0727999917
C  C445  1  0.34731000  0.09743000  0.60814000  1.0 0.0982319703
C  C446  1  0.34676000  0.05038000  0.60927000  1.0 -0.1747005831
C  C447  1  0.30701000  0.01643000  0.58976000  1.0 0.1098052453
C  C448  1  0.26715000  0.03044000  0.56830000  1.0 -0.1984476949
C  C449  1  0.26615000  0.07692000  0.56587000  1.0 0.0894546263
C  C450  1  0.30665000  0.10988000  0.58661000  1.0 -0.1811587836
C  C451  1  0.22268000  0.08934000  0.54070000  1.0 0.0506796164
C  C452  1  0.22085000  0.13605000  0.53986000  1.0 -0.1902067865
C  C453  1  0.17967000  0.14806000  0.51941000  1.0 -0.1417226428
C  C454  1  0.14034000  0.11337000  0.49977000  1.0 0.0090807598
C  C455  1  0.14217000  0.06667000  0.50060000  1.0 0.0583876381
C  C456  1  0.18334000  0.05465000  0.52107000  1.0 0.0090807598
C  C457  1  0.30576000  0.96591000  0.59179000  1.0 0.0894546263
C  C458  1  0.26622000  0.93785000  0.59720000  1.0 -0.1417226428
C  C459  1  0.34430000  0.94548000  0.58715000  1.0 -0.1417226428
C  C460  1  0.30112000  0.82009000  0.59330000  1.0 0.5480589946
C  C461  1  0.30282000  0.87129000  0.59362000  1.0 0.0090807598
C  C462  1  0.26435000  0.89095000  0.59845000  1.0 -0.0727999917
C  C463  1  0.34265000  0.89838000  0.58889000  1.0 -0.0727999917
C  C464  1  0.15579000  0.36241000  0.04830000  1.0 0.5789421498
C  C465  1  0.16270000  0.32397000  0.07416000  1.0 -0.0313937795
C  C466  1  0.12405000  0.29872000  0.08658000  1.0 0.1629507492
C  C467  1  0.12985000  0.26439000  0.11310000  1.0 -0.2601004674
C  C468  1  0.17427000  0.25528000  0.12720000  1.0 0.0982319703
C  C469  1  0.21290000  0.28051000  0.11479000  1.0 -0.0082730111
C  C470  1  0.20712000  0.31485000  0.08827000  1.0 0.0583876381
C  C471  1  0.17879000  0.21743000  0.15651000  1.0 0.1482012917
C  C472  1  0.99051000  0.18741000  0.51081000  1.0 0.5293365717
C  C473  1  0.97624000  0.21120000  0.55343000  1.0 0.0196848707
C  C474  1  0.99270000  0.19910000  0.59710000  1.0 0.0705889534
C  C475  1  0.94677000  0.24329000  0.55024000  1.0 0.0705889534
C  C476  1  0.15112000  0.21228000  0.18975000  1.0 -0.1564695428
C  C477  1  0.09531000  0.12551000  0.47926000  1.0 0.5480589946
C  C478  1  0.17940000  0.06490000  0.54440000  1.0 -0.0399663801
C  C479  1  0.13810000  0.07720000  0.52480000  1.0 0.0196848707
C  C480  1  0.92121000  0.21981000  0.59871000  1.0 -0.0313937795
C  C481  1  0.93300000  0.19140000  0.56190000  1.0 -0.0313937795
C  C482  1  0.99470000  0.26410000  0.62430000  1.0 -0.0898631613
C  C483  1  0.99840000  0.24610000  0.57860000  1.0 -0.0194543206
C  C484  1  0.98620000  0.37390000  0.83170000  1.0 -0.0023188371
C  C485  1  0.01520000  0.38950000  0.87560000  1.0 -0.0641649714
C  C486  1  0.12970000  0.25991000  0.10669000  1.0 -0.2687355529
O  O1  1  0.24956000  0.32980000  0.66411000  1.0 -0.5206693117
O  O2  1  0.29414000  0.35074000  0.73347000  1.0 -0.5206693117
O  O3  1  0.03824000  0.92354000  0.57762000  1.0 -0.4412114422
O  O4  1  0.06192000  0.86970000  0.61351000  1.0 -0.5206693117
O  O5  1  0.28135000  0.42275000  0.62955000  1.0 -0.5016359166
O  O6  1  0.34353000  0.41480000  0.67534000  1.0 -0.5206693117
O  O7  1  0.28299000  0.49007000  0.72268000  1.0 -0.527818305
O  O8  1  0.31020000  0.44771000  0.76987000  1.0 -0.5016359166
O  O9  1  0.41345000  0.66416000  0.19747000  1.0 -0.5016359166
O  O10  1  0.39983000  0.73465000  0.20516000  1.0 -0.527818305
O  O11  1  0.96076000  0.88474000  0.62892000  1.0 -0.527818305
O  O12  1  0.96127000  0.80992000  0.61191000  1.0 -0.527818305
O  O13  1  0.52328000  0.00671000  0.79553000  1.0 -0.4226579716
O  O14  1  0.48979000  0.00159000  0.85199000  1.0 -0.4513293183
O  O15  1  0.52653000  0.90605000  0.83293000  1.0 -0.5016359166
O  O16  1  0.53520000  0.94024000  0.90554000  1.0 -0.4513293183
O  O17  1  0.66411000  0.24956000  0.32980000  1.0 -0.5206693117
O  O18  1  0.73347000  0.29414000  0.35074000  1.0 -0.5206693117
O  O19  1  0.57762000  0.03824000  0.92354000  1.0 -0.4412114422
O  O20  1  0.61351000  0.06192000  0.86970000  1.0 -0.5206693117
O  O21  1  0.62955000  0.28135000  0.42275000  1.0 -0.5016359166
O  O22  1  0.67534000  0.34353000  0.41480000  1.0 -0.5206693117
O  O23  1  0.72268000  0.28299000  0.49007000  1.0 -0.527818305
O  O24  1  0.76987000  0.31020000  0.44771000  1.0 -0.5016359166
O  O25  1  0.19747000  0.41345000  0.66416000  1.0 -0.5016359166
O  O26  1  0.20516000  0.39983000  0.73465000  1.0 -0.527818305
O  O27  1  0.62892000  0.96076000  0.88474000  1.0 -0.527818305
O  O28  1  0.61191000  0.96127000  0.80992000  1.0 -0.527818305
O  O29  1  0.79553000  0.52328000  0.00671000  1.0 -0.4226579716
O  O30  1  0.85199000  0.48979000  0.00159000  1.0 -0.4513293183
O  O31  1  0.83293000  0.52653000  0.90605000  1.0 -0.5016359166
O  O32  1  0.90554000  0.53520000  0.94024000  1.0 -0.4513293183
O  O33  1  0.32980000  0.66411000  0.24956000  1.0 -0.5206693117
O  O34  1  0.35074000  0.73347000  0.29414000  1.0 -0.5206693117
O  O35  1  0.92354000  0.57762000  0.03824000  1.0 -0.4412114422
O  O36  1  0.86970000  0.61351000  0.06192000  1.0 -0.5206693117
O  O37  1  0.42275000  0.62955000  0.28135000  1.0 -0.5016359166
O  O38  1  0.41480000  0.67534000  0.34353000  1.0 -0.5206693117
O  O39  1  0.49007000  0.72268000  0.28299000  1.0 -0.527818305
O  O40  1  0.44771000  0.76987000  0.31020000  1.0 -0.5016359166
O  O41  1  0.66416000  0.19747000  0.41345000  1.0 -0.5016359166
O  O42  1  0.73465000  0.20516000  0.39983000  1.0 -0.527818305
O  O43  1  0.88474000  0.62892000  0.96076000  1.0 -0.527818305
O  O44  1  0.80992000  0.61191000  0.96127000  1.0 -0.5206693117
O  O45  1  0.00671000  0.79553000  0.52328000  1.0 -0.4226579716
O  O46  1  0.00159000  0.85199000  0.48979000  1.0 -0.4513293183
O  O47  1  0.90605000  0.83293000  0.52653000  1.0 -0.5016359166
O  O48  1  0.94024000  0.90554000  0.53520000  1.0 -0.4513293183
O  O49  1  0.75044000  0.67020000  0.33589000  1.0 -0.5206693117
O  O50  1  0.70586000  0.64926000  0.26653000  1.0 -0.5206693117
O  O51  1  0.96176000  0.07646000  0.42238000  1.0 -0.4412114422
O  O52  1  0.93808000  0.13030000  0.38649000  1.0 -0.5206693117
O  O53  1  0.71865000  0.57725000  0.37045000  1.0 -0.5016359166
O  O54  1  0.65647000  0.58520000  0.32466000  1.0 -0.5206693117
O  O55  1  0.71701000  0.50993000  0.27732000  1.0 -0.527818305
O  O56  1  0.68980000  0.55229000  0.23013000  1.0 -0.5016359166
O  O57  1  0.58655000  0.33584000  0.80253000  1.0 -0.5016359166
O  O58  1  0.60017000  0.26535000  0.79484000  1.0 -0.527818305
O  O59  1  0.03924000  0.11526000  0.37108000  1.0 -0.527818305
O  O60  1  0.03873000  0.19008000  0.38809000  1.0 -0.527818305
O  O61  1  0.47672000  0.99329000  0.20447000  1.0 -0.4226579716
O  O62  1  0.51021000  0.99841000  0.14801000  1.0 -0.4513293183
O  O63  1  0.47347000  0.09395000  0.16707000  1.0 -0.5016359166
O  O64  1  0.46480000  0.05976000  0.09446000  1.0 -0.4513293183
O  O65  1  0.33589000  0.75044000  0.67020000  1.0 -0.5206693117
O  O66  1  0.26653000  0.70586000  0.64926000  1.0 -0.5206693117
O  O67  1  0.42238000  0.96176000  0.07646000  1.0 -0.4412114422
O  O68  1  0.38649000  0.93808000  0.13030000  1.0 -0.5206693117
O  O69  1  0.37045000  0.71865000  0.57725000  1.0 -0.5016359166
O  O70  1  0.32466000  0.65647000  0.58520000  1.0 -0.5206693117
O  O71  1  0.27732000  0.71701000  0.50993000  1.0 -0.527818305
O  O72  1  0.23013000  0.68980000  0.55229000  1.0 -0.5016359166
O  O73  1  0.80253000  0.58655000  0.33584000  1.0 -0.5016359166
O  O74  1  0.79484000  0.60017000  0.26535000  1.0 -0.527818305
O  O75  1  0.37108000  0.03924000  0.11526000  1.0 -0.527818305
O  O76  1  0.38809000  0.03873000  0.19008000  1.0 -0.527818305
O  O77  1  0.20447000  0.47672000  0.99329000  1.0 -0.4226579716
O  O78  1  0.14801000  0.51021000  0.99841000  1.0 -0.4513293183
O  O79  1  0.16707000  0.47347000  0.09395000  1.0 -0.5016359166
O  O80  1  0.09446000  0.46480000  0.05976000  1.0 -0.4513293183
O  O81  1  0.67020000  0.33589000  0.75044000  1.0 -0.5206693117
O  O82  1  0.64926000  0.26653000  0.70586000  1.0 -0.5206693117
O  O83  1  0.07646000  0.42238000  0.96176000  1.0 -0.4412114422
O  O84  1  0.13030000  0.38649000  0.93808000  1.0 -0.5206693117
O  O85  1  0.57725000  0.37045000  0.71865000  1.0 -0.5016359166
O  O86  1  0.58520000  0.32466000  0.65647000  1.0 -0.5206693117
O  O87  1  0.50993000  0.27732000  0.71701000  1.0 -0.527818305
O  O88  1  0.55229000  0.23013000  0.68980000  1.0 -0.5016359166
O  O89  1  0.33584000  0.80253000  0.58655000  1.0 -0.5016359166
O  O90  1  0.26535000  0.79484000  0.60017000  1.0 -0.527818305
O  O91  1  0.11526000  0.37108000  0.03924000  1.0 -0.527818305
O  O92  1  0.19008000  0.38809000  0.03873000  1.0 -0.527818305
O  O93  1  0.99329000  0.20447000  0.47672000  1.0 -0.4226579716
O  O94  1  0.99841000  0.14801000  0.51021000  1.0 -0.4513293183
O  O95  1  0.09395000  0.16707000  0.47347000  1.0 -0.5016359166
O  O96  1  0.05976000  0.09446000  0.46480000  1.0 -0.4513293183
