# DDEC6 charges by PACMAN v1.1 (https://github.com/mtap-research/PACMAN-charge/)
data_CIFKOV_FSR_pacman
_symmetry_space_group_name_H-M   'P 1'
_cell_length_a   19.33400000
_cell_length_b   20.37490000
_cell_length_c   22.10400000
_cell_angle_alpha   90.76000000
_cell_angle_beta   93.85400000
_cell_angle_gamma   114.23400000
_symmetry_Int_Tables_number   1
_chemical_formula_structural   Sm4H115C146(N4O15)2
_chemical_formula_sum   'Sm8 H230 C292 N16 O60'
_cell_volume   7914.12096422
_cell_formula_units_Z   2
loop_
 _symmetry_equiv_pos_site_id
 _symmetry_equiv_pos_as_xyz
  1  'x, y, z'
loop_
 _atom_site_type_symbol
 _atom_site_label
 _atom_site_symmetry_multiplicity
 _atom_site_fract_x
 _atom_site_fract_y
 _atom_site_fract_z
 _atom_site_occupancy
 _atom_site_charge
Sm  Sm1  1  0.53294000  0.75737000  0.21753000  1.0 2.0161362007
Sm  Sm2  1  0.46706000  0.24263000  0.78247000  1.0 2.0161362007
Sm  Sm3  1  0.40184000  0.84803000  0.29648000  1.0 2.0681876257
Sm  Sm4  1  0.59816000  0.15197000  0.70352000  1.0 2.0681876257
Sm  Sm5  1  0.46649000  0.73942000  0.71241000  1.0 2.0348681524
Sm  Sm6  1  0.53351000  0.26058000  0.28759000  1.0 2.0350364759
Sm  Sm7  1  0.59306000  0.65231000  0.81252000  1.0 2.0681876257
Sm  Sm8  1  0.40694000  0.34769000  0.18748000  1.0 2.0681876257
H  H1  1  0.30043000  0.84428000  0.39432000  1.0 0.3765975847
H  H2  1  0.69957000  0.15572000  0.60568000  1.0 0.3765975847
H  H3  1  0.38168000  0.86903000  0.40422000  1.0 0.3572239989
H  H4  1  0.61832000  0.13097000  0.59578000  1.0 0.3572239989
H  H5  1  0.37925000  0.86027000  0.16044000  1.0 0.3743458106
H  H6  1  0.62075000  0.13973000  0.83956000  1.0 0.3743458106
H  H7  1  0.38608000  0.80141000  0.18466000  1.0 0.3572239989
H  H8  1  0.61392000  0.19859000  0.81534000  1.0 0.3487816368
H  H9  1  0.61661000  0.69191000  0.92895000  1.0 0.2948710933
H  H10  1  0.38339000  0.30809000  0.07105000  1.0 0.2998002583
H  H11  1  0.67840000  0.73487000  0.90807000  1.0 0.2998002583
H  H12  1  0.32160000  0.26513000  0.09193000  1.0 0.2998002583
H  H13  1  0.59486000  0.65103000  0.68001000  1.0 0.3866330697
H  H14  1  0.40514000  0.34897000  0.31999000  1.0 0.3866330697
H  H15  1  0.66425000  0.65086000  0.69973000  1.0 0.3487816368
H  H16  1  0.33575000  0.34914000  0.30027000  1.0 0.3487816368
H  H17  1  0.28773000  0.82482000  0.99601000  1.0 0.2518786206
H  H18  1  0.71227000  0.17518000  0.00399000  1.0 0.2518786206
H  H19  1  0.84897000  0.09488000  0.23151000  1.0 0.2665361478
H  H20  1  0.15103000  0.90512000  0.76849000  1.0 0.2665361478
H  H21  1  0.07689000  0.50933000  0.23403000  1.0 0.2583623804
H  H22  1  0.92311000  0.49067000  0.76597000  1.0 0.2583623804
H  H23  1  0.71761000  0.69313000  0.48879000  1.0 0.2583623804
H  H24  1  0.28239000  0.30687000  0.51121000  1.0 0.2583623804
H  H25  1  0.92849000  0.05960000  0.74143000  1.0 0.2583623804
H  H26  1  0.07151000  0.94040000  0.25857000  1.0 0.2583623804
H  H27  1  0.13554000  0.33340000  0.74636000  1.0 0.2583623804
H  H28  1  0.86446000  0.66666667  0.25364000  1.0 0.2583623804
H  H29  1  0.36276000  0.76896000  0.87611000  1.0 0.1292769306
H  H30  1  0.63724000  0.23104000  0.12389000  1.0 0.1292769306
H  H31  1  0.51482000  0.72163000  0.98320000  1.0 0.1292769306
H  H32  1  0.48518000  0.27837000  0.01680000  1.0 0.1292769306
H  H33  1  0.24014000  0.78065000  0.88500000  1.0 0.1111698073
H  H34  1  0.75986000  0.21935000  0.11500000  1.0 0.1111698073
H  H35  1  0.31121000  0.85397000  0.87998000  1.0 0.1111698073
H  H36  1  0.68879000  0.14603000  0.12002000  1.0 0.1111698073
H  H37  1  0.12995000  0.72407000  0.92406000  1.0 0.1111698073
H  H38  1  0.87005000  0.27593000  0.07594000  1.0 0.1111698073
H  H39  1  0.99963000  0.67360000  0.93641000  1.0 0.120231695
H  H40  1  0.00037000  0.32640000  0.06359000  1.0 0.120231695
H  H41  1  0.93356000  0.74464000  0.94145000  1.0 0.120231695
H  H42  1  0.06644000  0.25536000  0.05855000  1.0 0.120231695
H  H43  1  0.98639000  0.86410000  0.93042000  1.0 0.120231695
H  H44  1  0.01361000  0.13590000  0.06958000  1.0 0.120231695
H  H45  1  0.10818000  0.97948000  0.93230000  1.0 0.1292769306
H  H46  1  0.89182000  0.02052000  0.06770000  1.0 0.1292769306
H  H47  1  0.22172000  0.08805000  0.93144000  1.0 0.120231695
H  H48  1  0.77828000  0.91195000  0.06856000  1.0 0.120231695
H  H49  1  0.34804000  0.14438000  0.92600000  1.0 0.120231695
H  H50  1  0.65196000  0.85562000  0.07400000  1.0 0.120231695
H  H51  1  0.42413000  0.07865000  0.92408000  1.0 0.120231695
H  H52  1  0.57587000  0.92135000  0.07592000  1.0 0.120231695
H  H53  1  0.36508000  0.95656000  0.91711000  1.0 0.120231695
H  H54  1  0.63492000  0.04344000  0.08289000  1.0 0.120231695
H  H55  1  0.54077000  0.01939000  0.25413000  1.0 0.1403012814
H  H56  1  0.45923000  0.98061000  0.74587000  1.0 0.1403012814
H  H57  1  0.74360000  0.19120000  0.26621000  1.0 0.1292769306
H  H58  1  0.25640000  0.80880000  0.73379000  1.0 0.1292769306
H  H59  1  0.73245000  0.99321000  0.23142000  1.0 0.1292769306
H  H60  1  0.26755000  0.00679000  0.76858000  1.0 0.1292769306
H  H61  1  0.85849000  0.22357000  0.27738000  1.0 0.1017231158
H  H62  1  0.14151000  0.77643000  0.72262000  1.0 0.1017231158
H  H63  1  0.90555000  0.22070000  0.22312000  1.0 0.1017231158
H  H64  1  0.09445000  0.77930000  0.77688000  1.0 0.1017231158
H  H65  1  0.99971000  0.20876000  0.19458000  1.0 0.1111698073
H  H66  1  0.00029000  0.79124000  0.80542000  1.0 0.1111698073
H  H67  1  0.12020000  0.23526000  0.16967000  1.0 0.120231695
H  H68  1  0.87980000  0.76474000  0.83033000  1.0 0.120231695
H  H69  1  0.21911000  0.26996000  0.24304000  1.0 0.1292769306
H  H70  1  0.78089000  0.73004000  0.75696000  1.0 0.1292769306
H  H71  1  0.20097000  0.26278000  0.34184000  1.0 0.1292769306
H  H72  1  0.79903000  0.73722000  0.65816000  1.0 0.1292769306
H  H73  1  0.11291000  0.23288000  0.42506000  1.0 0.1292769306
H  H74  1  0.88709000  0.76712000  0.57494000  1.0 0.1292769306
H  H75  1  0.02200000  0.20445000  0.50645000  1.0 0.1111698073
H  H76  1  0.97800000  0.79555000  0.49355000  1.0 0.1111698073
H  H77  1  0.89884000  0.16028000  0.53156000  1.0 0.1111698073
H  H78  1  0.10116000  0.83972000  0.46844000  1.0 0.1111698073
H  H79  1  0.79917000  0.14490000  0.46097000  1.0 0.1111698073
H  H80  1  0.20083000  0.85510000  0.53903000  1.0 0.1111698073
H  H81  1  0.81551000  0.15678000  0.35872000  1.0 0.1111698073
H  H82  1  0.18449000  0.84322000  0.64128000  1.0 0.1111698073
H  H83  1  0.19438000  0.60870000  0.25017000  1.0 0.1292769306
H  H84  1  0.80562000  0.39130000  0.74983000  1.0 0.1292769306
H  H85  1  0.18335000  0.41064000  0.20420000  1.0 0.1292769306
H  H86  1  0.81665000  0.58936000  0.79580000  1.0 0.1292769306
H  H87  1  0.38871000  0.58243000  0.23415000  1.0 0.1403012814
H  H88  1  0.61129000  0.41757000  0.76585000  1.0 0.1403012814
H  H89  1  0.06964000  0.37509000  0.24040000  1.0 0.1111698073
H  H90  1  0.93036000  0.62491000  0.75960000  1.0 0.1111698073
H  H91  1  0.03617000  0.38915000  0.17762000  1.0 0.1111698073
H  H92  1  0.96383000  0.61085000  0.82238000  1.0 0.1111698073
H  H93  1  0.06553000  0.38574000  0.33556000  1.0 0.1111698073
H  H94  1  0.93447000  0.61426000  0.66444000  1.0 0.1111698073
H  H95  1  0.05466000  0.37349000  0.43944000  1.0 0.1111698073
H  H96  1  0.94534000  0.62651000  0.56056000  1.0 0.1111698073
H  H97  1  0.93438000  0.34316000  0.47510000  1.0 0.1111698073
H  H98  1  0.06562000  0.65684000  0.52490000  1.0 0.1111698073
H  H99  1  0.82994000  0.32701000  0.40840000  1.0 0.120231695
H  H100  1  0.17006000  0.67299000  0.59160000  1.0 0.120231695
H  H101  1  0.78073000  0.34502000  0.30687000  1.0 0.1494366218
H  H102  1  0.21927000  0.65498000  0.69313000  1.0 0.1494366218
H  H103  1  0.72610000  0.35603000  0.20591000  1.0 0.1403012814
H  H104  1  0.27390000  0.64397000  0.79409000  1.0 0.1403012814
H  H105  1  0.74135000  0.39485000  0.10829000  1.0 0.120231695
H  H106  1  0.25865000  0.60515000  0.89171000  1.0 0.120231695
H  H107  1  0.86178000  0.42689000  0.07096000  1.0 0.1111698073
H  H108  1  0.13822000  0.57311000  0.92904000  1.0 0.1111698073
H  H109  1  0.96389000  0.42795000  0.13128000  1.0 0.1111698073
H  H110  1  0.03611000  0.57205000  0.86872000  1.0 0.1111698073
H  H111  1  0.47717000  0.07290000  0.44094000  1.0 0.1581586092
H  H112  1  0.52283000  0.92710000  0.55906000  1.0 0.1581586092
H  H113  1  0.40635000  0.01282000  0.40498000  1.0 0.1581586092
H  H114  1  0.59365000  0.98718000  0.59502000  1.0 0.1581586092
H  H115  1  0.46435000  0.07611000  0.37045000  1.0 0.1910777702
H  H116  1  0.53565000  0.92389000  0.62955000  1.0 0.1910777702
H  H117  1  0.64082000  0.10236000  0.48355000  1.0 0.1017231158
H  H118  1  0.35918000  0.89764000  0.51645000  1.0 0.1017231158
H  H119  1  0.58984000  0.13364000  0.46645000  1.0 0.120231695
H  H120  1  0.41016000  0.86636000  0.53355000  1.0 0.120231695
H  H121  1  0.64782000  0.13706000  0.42013000  1.0 0.1403012814
H  H122  1  0.35218000  0.86294000  0.57987000  1.0 0.1403012814
H  H123  1  0.59280000  0.94151000  0.39498000  1.0 0.1494366218
H  H124  1  0.40720000  0.05849000  0.60502000  1.0 0.1494366218
H  H125  1  0.64943000  0.99002000  0.44800000  1.0 0.1292769306
H  H126  1  0.35057000  0.00998000  0.55200000  1.0 0.1292769306
H  H127  1  0.65987000  0.01411000  0.38093000  1.0 0.1292769306
H  H128  1  0.34013000  0.98589000  0.61907000  1.0 0.1292769306
H  H129  1  0.48124000  0.77724000  0.48429000  1.0 0.1403012814
H  H130  1  0.51876000  0.22276000  0.51571000  1.0 0.1403012814
H  H131  1  0.61349000  0.68602000  0.56225000  1.0 0.1292769306
H  H132  1  0.38651000  0.31398000  0.43775000  1.0 0.1292769306
H  H133  1  0.62026000  0.72443000  0.38425000  1.0 0.1292769306
H  H134  1  0.37974000  0.27557000  0.61575000  1.0 0.1292769306
H  H135  1  0.71006000  0.69675000  0.38408000  1.0 0.1017231158
H  H136  1  0.28994000  0.30325000  0.61592000  1.0 0.1017231158
H  H137  1  0.65574000  0.61471000  0.38618000  1.0 0.1111698073
H  H138  1  0.34426000  0.38529000  0.61382000  1.0 0.1111698073
H  H139  1  0.84925000  0.46600000  0.46217000  1.0 0.1111698073
H  H140  1  0.15075000  0.53400000  0.53783000  1.0 0.1111698073
H  H141  1  0.81496000  0.77068000  0.37298000  1.0 0.1111698073
H  H142  1  0.18504000  0.22932000  0.62702000  1.0 0.1111698073
H  H143  1  0.93517000  0.84748000  0.34811000  1.0 0.1111698073
H  H144  1  0.06483000  0.15252000  0.65189000  1.0 0.1111698073
H  H145  1  0.03777000  0.81383000  0.35475000  1.0 0.1111698073
H  H146  1  0.96223000  0.18617000  0.64525000  1.0 0.1111698073
H  H147  1  0.01633000  0.70080000  0.39460000  1.0 0.1111698073
H  H148  1  0.98367000  0.29920000  0.60540000  1.0 0.1111698073
H  H149  1  0.93034000  0.58932000  0.44035000  1.0 0.120231695
H  H150  1  0.06966000  0.41068000  0.55965000  1.0 0.120231695
H  H151  1  0.72491000  0.37814000  0.46350000  1.0 0.120231695
H  H152  1  0.27509000  0.62186000  0.53650000  1.0 0.120231695
H  H153  1  0.62129000  0.40646000  0.45278000  1.0 0.120231695
H  H154  1  0.37871000  0.59354000  0.54722000  1.0 0.120231695
H  H155  1  0.63742000  0.52397000  0.43178000  1.0 0.1111698073
H  H156  1  0.36258000  0.47603000  0.56822000  1.0 0.1111698073
H  H157  1  0.45211000  0.47843000  0.75003000  1.0 0.1494366218
H  H158  1  0.54789000  0.52157000  0.24997000  1.0 0.1494366218
H  H159  1  0.25115000  0.31310000  0.76796000  1.0 0.1403012814
H  H160  1  0.74885000  0.68690000  0.23204000  1.0 0.1403012814
H  H161  1  0.26029000  0.51109000  0.73407000  1.0 0.1292769306
H  H162  1  0.73971000  0.48891000  0.26593000  1.0 0.1292769306
H  H163  1  0.13226000  0.45954000  0.72907000  1.0 0.1111698073
H  H164  1  0.86774000  0.54046000  0.27093000  1.0 0.1111698073
H  H165  1  0.13853000  0.45001000  0.79932000  1.0 0.1111698073
H  H166  1  0.86147000  0.54999000  0.20068000  1.0 0.1111698073
H  H167  1  0.09944000  0.34835000  0.85459000  1.0 0.120231695
H  H168  1  0.90056000  0.65165000  0.14541000  1.0 0.120231695
H  H169  1  0.04671000  0.27145000  0.92893000  1.0 0.1017231158
H  H170  1  0.95329000  0.72855000  0.07107000  1.0 0.1017231158
H  H171  1  0.91514000  0.19018000  0.91957000  1.0 0.1111698073
H  H172  1  0.08486000  0.80982000  0.08043000  1.0 0.1111698073
H  H173  1  0.83943000  0.19438000  0.83128000  1.0 0.1292769306
H  H174  1  0.16057000  0.80562000  0.16872000  1.0 0.1292769306
H  H175  1  0.82725000  0.24857000  0.73820000  1.0 0.1403012814
H  H176  1  0.17275000  0.75143000  0.26180000  1.0 0.1403012814
H  H177  1  0.80687000  0.30813000  0.64557000  1.0 0.1403012814
H  H178  1  0.19313000  0.69187000  0.35443000  1.0 0.1403012814
H  H179  1  0.85177000  0.39885000  0.58286000  1.0 0.120231695
H  H180  1  0.14823000  0.60115000  0.41714000  1.0 0.120231695
H  H181  1  0.97860000  0.47803000  0.59313000  1.0 0.1111698073
H  H182  1  0.02140000  0.52197000  0.40687000  1.0 0.1111698073
H  H183  1  0.05868000  0.48034000  0.67538000  1.0 0.120231695
H  H184  1  0.94132000  0.51966000  0.32462000  1.0 0.1111698073
H  H185  1  0.80678000  0.88575000  0.77765000  1.0 0.1292769306
H  H186  1  0.19322000  0.11425000  0.22235000  1.0 0.1292769306
H  H187  1  0.81771000  0.08146000  0.74000000  1.0 0.1292769306
H  H188  1  0.18229000  0.91854000  0.26000000  1.0 0.1292769306
H  H189  1  0.61400000  0.91815000  0.75750000  1.0 0.1494366218
H  H190  1  0.38600000  0.08185000  0.24250000  1.0 0.1494366218
H  H191  1  0.94190000  0.93920000  0.73939000  1.0 0.1111698073
H  H192  1  0.05810000  0.06080000  0.26061000  1.0 0.1111698073
H  H193  1  0.93683000  0.95517000  0.80834000  1.0 0.1111698073
H  H194  1  0.06317000  0.04483000  0.19166000  1.0 0.1111698073
H  H195  1  0.00168000  0.95217000  0.66966000  1.0 0.1111698073
H  H196  1  0.99832000  0.04783000  0.33034000  1.0 0.1111698073
H  H197  1  0.08506000  0.96572000  0.59432000  1.0 0.1111698073
H  H198  1  0.91494000  0.03428000  0.40568000  1.0 0.1111698073
H  H199  1  0.21342000  0.04087000  0.60747000  1.0 0.120231695
H  H200  1  0.78658000  0.95913000  0.39253000  1.0 0.120231695
H  H201  1  0.25061000  0.13604000  0.68227000  1.0 0.1292769306
H  H202  1  0.74939000  0.86396000  0.31773000  1.0 0.1292769306
H  H203  1  0.23591000  0.16375000  0.77959000  1.0 0.1403012814
H  H204  1  0.76409000  0.83625000  0.22041000  1.0 0.1403012814
H  H205  1  0.22158000  0.22376000  0.87161000  1.0 0.1292769306
H  H206  1  0.77842000  0.77624000  0.12839000  1.0 0.1292769306
H  H207  1  0.15803000  0.21536000  0.96162000  1.0 0.120231695
H  H208  1  0.84197000  0.78464000  0.03838000  1.0 0.120231695
H  H209  1  0.03517000  0.12492000  0.95866000  1.0 0.1111698073
H  H210  1  0.96483000  0.87508000  0.04134000  1.0 0.1111698073
H  H211  1  0.97322000  0.04463000  0.87717000  1.0 0.120231695
H  H212  1  0.02678000  0.95537000  0.12283000  1.0 0.120231695
H  H213  1  0.53724000  0.43049000  0.87279000  1.0 0.1785979881
H  H214  1  0.46276000  0.56951000  0.12721000  1.0 0.1785979881
H  H215  1  0.52664000  0.42997000  0.94251000  1.0 0.1494366218
H  H216  1  0.47336000  0.57003000  0.05749000  1.0 0.1494366218
H  H217  1  0.59396000  0.49392000  0.91625000  1.0 0.1738053574
H  H218  1  0.40604000  0.50608000  0.08375000  1.0 0.1738053574
H  H219  1  0.40297000  0.36084000  0.91327000  1.0 0.1403012814
H  H220  1  0.59703000  0.63916000  0.08673000  1.0 0.1403012814
H  H221  1  0.34113000  0.37814000  0.94381000  1.0 0.1403012814
H  H222  1  0.65887000  0.62186000  0.05619000  1.0 0.1403012814
H  H223  1  0.41999000  0.39544000  0.97937000  1.0 0.1403012814
H  H224  1  0.58001000  0.60456000  0.02063000  1.0 0.1403012814
H  H225  1  0.33061000  0.48084000  0.87766000  1.0 0.1292769306
H  H226  1  0.66939000  0.51916000  0.12234000  1.0 0.1292769306
H  H227  1  0.40087000  0.55531000  0.88817000  1.0 0.1494366218
H  H228  1  0.59913000  0.44469000  0.11183000  1.0 0.1494366218
H  H229  1  0.35655000  0.51636000  0.94331000  1.0 0.1292769306
H  H230  1  0.64345000  0.48364000  0.05669000  1.0 0.1403012814
C  C1  1  0.48270000  0.75650000  0.09260000  1.0 0.5574979299
C  C2  1  0.51730000  0.24350000  0.90740000  1.0 0.5574979299
C  C3  1  0.45028000  0.76069000  0.02991000  1.0 -0.0081477469
C  C4  1  0.54972000  0.23931000  0.97009000  1.0 -0.0081477469
C  C5  1  0.39422000  0.78812000  0.02441000  1.0 -0.2125577213
C  C6  1  0.60578000  0.21188000  0.97559000  1.0 -0.2125577213
C  C7  1  0.36156000  0.79161000  0.96631000  1.0 0.2207350447
C  C8  1  0.63844000  0.20839000  0.03369000  1.0 0.2207350447
C  C9  1  0.38523000  0.76823000  0.91449000  1.0 -0.2125577213
C  C10  1  0.61477000  0.23177000  0.08551000  1.0 -0.2125577213
C  C11  1  0.44349000  0.74373000  0.92177000  1.0 -0.0081477469
C  C12  1  0.55651000  0.25627000  0.07823000  1.0 -0.0081477469
C  C13  1  0.47700000  0.73870000  0.97910000  1.0 -0.1509384985
C  C14  1  0.52300000  0.26130000  0.02090000  1.0 -0.1509384985
C  C15  1  0.47200000  0.72420000  0.86520000  1.0 0.6327843084
C  C16  1  0.52800000  0.27580000  0.13480000  1.0 0.6327843084
C  C17  1  0.27118000  0.82682000  0.90559000  1.0 -0.1109132793
C  C18  1  0.72882000  0.17318000  0.09441000  1.0 -0.1109132793
C  C19  1  0.22214000  0.86811000  0.91680000  1.0 -0.0081477469
C  C20  1  0.77786000  0.13189000  0.08320000  1.0 -0.0081477469
C  C21  1  0.14130000  0.82940000  0.92100000  1.0 0.0274377017
C  C22  1  0.85870000  0.17060000  0.07900000  1.0 0.0274377017
C  C23  1  0.10340000  0.75310000  0.92580000  1.0 -0.1607442856
C  C24  1  0.89660000  0.24690000  0.07420000  1.0 -0.1509384985
C  C25  1  0.02530000  0.72310000  0.93320000  1.0 -0.1109132793
C  C26  1  0.97470000  0.27690000  0.06680000  1.0 -0.1109132793
C  C27  1  0.98520000  0.76680000  0.93590000  1.0 -0.1009262365
C  C28  1  0.01480000  0.23320000  0.06410000  1.0 -0.1009262365
C  C29  1  0.01640000  0.83820000  0.93100000  1.0 -0.1607442856
C  C30  1  0.98360000  0.16180000  0.06900000  1.0 -0.168957409
C  C31  1  0.09860000  0.87510000  0.92670000  1.0 0.07863046
C  C32  1  0.90140000  0.12490000  0.07330000  1.0 0.07863046
C  C33  1  0.13590000  0.95190000  0.92800000  1.0 -0.2188704562
C  C34  1  0.86410000  0.04810000  0.07200000  1.0 -0.2188704562
C  C35  1  0.21160000  0.98450000  0.92290000  1.0 0.0879853556
C  C36  1  0.78840000  0.01550000  0.07710000  1.0 0.0879853556
C  C37  1  0.24980000  0.06080000  0.92730000  1.0 -0.1404208052
C  C38  1  0.75020000  0.93920000  0.07270000  1.0 -0.1404208052
C  C39  1  0.32520000  0.09430000  0.92550000  1.0 -0.0728839264
C  C40  1  0.67480000  0.90570000  0.07450000  1.0 -0.0728839264
C  C41  1  0.37140000  0.05520000  0.92300000  1.0 -0.0728839264
C  C42  1  0.62860000  0.94480000  0.07700000  1.0 -0.0728839264
C  C43  1  0.33540000  0.98260000  0.91910000  1.0 -0.1299598327
C  C44  1  0.66460000  0.01740000  0.08090000  1.0 -0.1299598327
C  C45  1  0.25810000  0.94470000  0.91770000  1.0 0.0274377017
C  C46  1  0.74190000  0.05530000  0.08230000  1.0 0.0274377017
C  C47  1  0.58780000  0.91220000  0.23440000  1.0 0.6227636054
C  C48  1  0.41220000  0.08780000  0.76560000  1.0 0.6227636054
C  C49  1  0.62924000  0.99265000  0.24150000  1.0 -0.0015503838
C  C50  1  0.37076000  0.00735000  0.75850000  1.0 -0.0015503838
C  C51  1  0.59335000  0.03839000  0.25290000  1.0 -0.1299598327
C  C52  1  0.40665000  0.96161000  0.74710000  1.0 -0.1299598327
C  C53  1  0.63641000  0.11267000  0.26240000  1.0 -0.0015503838
C  C54  1  0.36359000  0.88733000  0.73760000  1.0 -0.0015503838
C  C55  1  0.71549000  0.14182000  0.25970000  1.0 -0.2281416581
C  C56  1  0.28451000  0.85818000  0.74030000  1.0 -0.2281416581
C  C57  1  0.75275000  0.09753000  0.24740000  1.0 0.2207350447
C  C58  1  0.24725000  0.90247000  0.75260000  1.0 0.2207350447
C  C59  1  0.70836000  0.02335000  0.23900000  1.0 -0.2125577213
C  C60  1  0.29164000  0.97665000  0.76100000  1.0 -0.2125577213
C  C61  1  0.60110000  0.16340000  0.27690000  1.0 0.5574979299
C  C62  1  0.39890000  0.83660000  0.72310000  1.0 0.5650939062
C  C63  1  0.88479000  0.19731000  0.25976000  1.0 -0.1109132793
C  C64  1  0.11521000  0.80269000  0.74024000  1.0 -0.1109132793
C  C65  1  0.95020000  0.20080000  0.30476000  1.0 0.010415997
C  C66  1  0.04980000  0.79920000  0.69524000  1.0 0.010415997
C  C67  1  0.02370000  0.21310000  0.28760000  1.0 0.0204850312
C  C68  1  0.97630000  0.78690000  0.71240000  1.0 0.0204850312
C  C69  1  0.03880000  0.21780000  0.22470000  1.0 -0.1607442856
C  C70  1  0.96120000  0.78220000  0.77530000  1.0 -0.1607442856
C  C71  1  0.11040000  0.23550000  0.21030000  1.0 -0.0899999679
C  C72  1  0.88960000  0.76450000  0.78970000  1.0 -0.0899999679
C  C73  1  0.16970000  0.25410000  0.25480000  1.0 -0.0899999679
C  C74  1  0.83030000  0.74590000  0.74520000  1.0 -0.0899999679
C  C75  1  0.15930000  0.25020000  0.31350000  1.0 -0.1509384985
C  C76  1  0.84070000  0.74980000  0.68650000  1.0 -0.1509384985
C  C77  1  0.08580000  0.22710000  0.33311000  1.0 0.07863046
C  C78  1  0.91420000  0.77290000  0.66689000  1.0 0.07863046
C  C79  1  0.07257000  0.22060000  0.39549000  1.0 -0.2281416581
C  C80  1  0.92743000  0.77940000  0.60451000  1.0 -0.2281416581
C  C81  1  0.99657000  0.19490000  0.41190000  1.0 0.0879853556
C  C82  1  0.00343000  0.80510000  0.58810000  1.0 0.0879853556
C  C83  1  0.98210000  0.19150000  0.47640000  1.0 -0.1607442856
C  C84  1  0.01790000  0.80850000  0.52360000  1.0 -0.1607442856
C  C85  1  0.90900000  0.16900000  0.49120000  1.0 -0.0899999679
C  C86  1  0.09100000  0.83100000  0.50880000  1.0 -0.0899999679
C  C87  1  0.84760000  0.15820000  0.44780000  1.0 -0.1109132793
C  C88  1  0.15240000  0.84180000  0.55220000  1.0 -0.1109132793
C  C89  1  0.85710000  0.16660000  0.38660000  1.0 -0.1404208052
C  C90  1  0.14290000  0.83340000  0.61340000  1.0 -0.1404208052
C  C91  1  0.93410000  0.19140000  0.36648000  1.0 0.0274377017
C  C92  1  0.06590000  0.80860000  0.63352000  1.0 0.0274377017
C  C93  1  0.33930000  0.68630000  0.25820000  1.0 0.6327843084
C  C94  1  0.66070000  0.31370000  0.74180000  1.0 0.6327843084
C  C95  1  0.29740000  0.60680000  0.24430000  1.0 -0.0015503838
C  C96  1  0.70260000  0.39320000  0.75570000  1.0 -0.0015503838
C  C97  1  0.21850000  0.57880000  0.24150000  1.0 -0.2188704562
C  C98  1  0.78150000  0.42120000  0.75850000  1.0 -0.2188704562
C  C99  1  0.17474000  0.50520000  0.22550000  1.0 0.2383371904
C  C100  1  0.82526000  0.49480000  0.77450000  1.0 0.2383371904
C  C101  1  0.21130000  0.45930000  0.21440000  1.0 -0.2281416581
C  C102  1  0.78870000  0.54070000  0.78560000  1.0 -0.2281416581
C  C103  1  0.29190000  0.48990000  0.21920000  1.0 0.0204850312
C  C104  1  0.70810000  0.51010000  0.78080000  1.0 0.0204850312
C  C105  1  0.33590000  0.56320000  0.23280000  1.0 -0.1509384985
C  C106  1  0.66410000  0.43680000  0.76720000  1.0 -0.1509384985
C  C107  1  0.33260000  0.44100000  0.20800000  1.0 0.552197726
C  C108  1  0.66740000  0.55900000  0.79200000  1.0 0.552197726
C  C109  1  0.04593000  0.40361000  0.22040000  1.0 -0.1109132793
C  C110  1  0.95407000  0.59639000  0.77960000  1.0 -0.1109132793
C  C111  1  0.97075000  0.38990000  0.24785000  1.0 -0.0193245923
C  C112  1  0.02925000  0.61010000  0.75215000  1.0 -0.0193245923
C  C113  1  0.95900000  0.37400000  0.30985000  1.0 0.0204850312
C  C114  1  0.04100000  0.62600000  0.69015000  1.0 0.0204850312
C  C115  1  0.01900000  0.37710000  0.35070000  1.0 -0.1404208052
C  C116  1  0.98100000  0.62290000  0.64930000  1.0 -0.1404208052
C  C117  1  0.01280000  0.36790000  0.41310000  1.0 -0.1109132793
C  C118  1  0.98720000  0.63210000  0.58690000  1.0 -0.1109132793
C  C119  1  0.94070000  0.34980000  0.43400000  1.0 -0.1009262365
C  C120  1  0.05930000  0.65020000  0.56600000  1.0 -0.1009262365
C  C121  1  0.87800000  0.34160000  0.39410000  1.0 -0.1509384985
C  C122  1  0.12200000  0.65840000  0.60590000  1.0 -0.1509384985
C  C123  1  0.88787000  0.35560000  0.33270000  1.0 0.07863046
C  C124  1  0.11213000  0.64440000  0.66730000  1.0 0.07863046
C  C125  1  0.82790000  0.35620000  0.29191000  1.0 -0.2188704562
C  C126  1  0.17210000  0.64380000  0.70809000  1.0 -0.2188704562
C  C127  1  0.83563000  0.37280000  0.22967000  1.0 0.07863046
C  C128  1  0.16437000  0.62720000  0.77033000  1.0 0.07863046
C  C129  1  0.77390000  0.37190000  0.19100000  1.0 -0.1404208052
C  C130  1  0.22610000  0.62810000  0.80900000  1.0 -0.1404208052
C  C131  1  0.78180000  0.39340000  0.13260000  1.0 -0.1009262365
C  C132  1  0.21820000  0.60660000  0.86740000  1.0 -0.1109132793
C  C133  1  0.85490000  0.41330000  0.11090000  1.0 -0.1109132793
C  C134  1  0.14510000  0.58670000  0.88910000  1.0 -0.1202373088
C  C135  1  0.91680000  0.41320000  0.14720000  1.0 -0.168957409
C  C136  1  0.08320000  0.58680000  0.85280000  1.0 -0.168957409
C  C137  1  0.90923000  0.39080000  0.20912000  1.0 0.0204850312
C  C138  1  0.09077000  0.60920000  0.79088000  1.0 0.0204850312
C  C139  1  0.50150000  0.00251000  0.39350000  1.0 0.5060638502
C  C140  1  0.49850000  0.99749000  0.60650000  1.0 0.5060638502
C  C141  1  0.45898000  0.04469000  0.40350000  1.0 -0.6206757412
C  C142  1  0.54102000  0.95531000  0.59650000  1.0 -0.6206757412
C  C143  1  0.61290000  0.10710000  0.44750000  1.0 -0.3425295637
C  C144  1  0.38710000  0.89290000  0.55250000  1.0 -0.3425295637
C  C145  1  0.62330000  0.99020000  0.40950000  1.0 -0.358341024
C  C146  1  0.37670000  0.00980000  0.59050000  1.0 -0.358341024
C  C147  1  0.51940000  0.77690000  0.36810000  1.0 0.6408838346
C  C148  1  0.48060000  0.22310000  0.63190000  1.0 0.6408838346
C  C149  1  0.54475000  0.75196000  0.42555000  1.0 -0.0081477469
C  C150  1  0.45525000  0.24804000  0.57445000  1.0 -0.0081477469
C  C151  1  0.51540000  0.75620000  0.48099000  1.0 -0.1509384985
C  C152  1  0.48460000  0.24380000  0.51901000  1.0 -0.1509384985
C  C153  1  0.53945000  0.72760000  0.53130000  1.0 -0.0081477469
C  C154  1  0.46055000  0.27240000  0.46870000  1.0 -0.0081477469
C  C155  1  0.59546000  0.70112000  0.52749000  1.0 -0.2125577213
C  C156  1  0.40454000  0.29888000  0.47251000  1.0 -0.2125577213
C  C157  1  0.62461000  0.69711000  0.47192000  1.0 0.229598774
C  C158  1  0.37539000  0.30289000  0.52808000  1.0 0.229598774
C  C159  1  0.59989000  0.72449000  0.42117000  1.0 -0.2125577213
C  C160  1  0.40011000  0.27551000  0.57883000  1.0 -0.2125577213
C  C161  1  0.51280000  0.73450000  0.59230000  1.0 0.5574979299
C  C162  1  0.48720000  0.26550000  0.40770000  1.0 0.5574979299
C  C163  1  0.69810000  0.65420000  0.40768000  1.0 -0.1202373088
C  C164  1  0.30190000  0.34580000  0.59232000  1.0 -0.1202373088
C  C165  1  0.80730000  0.47640000  0.45280000  1.0 -0.1607442856
C  C166  1  0.19270000  0.52360000  0.54720000  1.0 -0.1607442856
C  C167  1  0.84101000  0.68780000  0.40020000  1.0 0.0204850312
C  C168  1  0.15899000  0.31220000  0.59980000  1.0 0.0204850312
C  C169  1  0.85460000  0.75610000  0.37760000  1.0 -0.1755830681
C  C170  1  0.14540000  0.24390000  0.62240000  1.0 -0.168957409
C  C171  1  0.92780000  0.80240000  0.36210000  1.0 -0.1009262365
C  C172  1  0.07220000  0.19760000  0.63790000  1.0 -0.1009262365
C  C173  1  0.99040000  0.78340000  0.36670000  1.0 -0.1202373088
C  C174  1  0.00960000  0.21660000  0.63330000  1.0 -0.1202373088
C  C175  1  0.97690000  0.71580000  0.39060000  1.0 -0.1509384985
C  C176  1  0.02310000  0.28420000  0.60940000  1.0 -0.1509384985
C  C177  1  0.90450000  0.67056000  0.40850000  1.0 0.07863046
C  C178  1  0.09550000  0.32944000  0.59150000  1.0 0.07863046
C  C179  1  0.88880000  0.59981000  0.42930000  1.0 -0.2397207902
C  C180  1  0.11120000  0.40019000  0.57070000  1.0 -0.2397207902
C  C181  1  0.81449000  0.54390000  0.43440000  1.0 0.07863046
C  C182  1  0.18551000  0.45610000  0.56560000  1.0 0.07863046
C  C183  1  0.73280000  0.42540000  0.45610000  1.0 -0.0899999679
C  C184  1  0.26720000  0.57460000  0.54390000  1.0 -0.0899999679
C  C185  1  0.66970000  0.44210000  0.44890000  1.0 -0.0728839264
C  C186  1  0.33030000  0.55790000  0.55110000  1.0 -0.0752234519
C  C187  1  0.67880000  0.51180000  0.43590000  1.0 -0.1299598327
C  C188  1  0.32120000  0.48820000  0.56410000  1.0 -0.1299598327
C  C189  1  0.75260000  0.56253000  0.42930000  1.0 0.0274377017
C  C190  1  0.24740000  0.43747000  0.57070000  1.0 0.0274377017
C  C191  1  0.76820000  0.63537000  0.41460000  1.0 -0.0193245923
C  C192  1  0.23180000  0.36463000  0.58540000  1.0 -0.0193245923
C  C193  1  0.40630000  0.58450000  0.73000000  1.0 0.6227636054
C  C194  1  0.59370000  0.41550000  0.27000000  1.0 0.6227636054
C  C195  1  0.36240000  0.50580000  0.73970000  1.0 0.0025706804
C  C196  1  0.63760000  0.49420000  0.26030000  1.0 0.0025706804
C  C197  1  0.39940000  0.46020000  0.74930000  1.0 -0.1299598327
C  C198  1  0.60060000  0.53980000  0.25070000  1.0 -0.1299598327
C  C199  1  0.35700000  0.38760000  0.75770000  1.0 0.010415997
C  C200  1  0.64300000  0.61240000  0.24230000  1.0 0.010415997
C  C201  1  0.27880000  0.36110000  0.75970000  1.0 -0.2281416581
C  C202  1  0.72120000  0.63890000  0.24030000  1.0 -0.2281416581
C  C203  1  0.23966000  0.40760000  0.74900000  1.0 0.229598774
C  C204  1  0.76034000  0.59240000  0.25100000  1.0 0.2207350447
C  C205  1  0.28380000  0.47970000  0.74000000  1.0 -0.2125577213
C  C206  1  0.71620000  0.52030000  0.26000000  1.0 -0.2125577213
C  C207  1  0.39540000  0.33700000  0.76890000  1.0 0.5574979299
C  C208  1  0.60460000  0.66300000  0.23110000  1.0 0.5574979299
C  C209  1  0.12117000  0.42429000  0.76020000  1.0 -0.1109132793
C  C210  1  0.87883000  0.57571000  0.23980000  1.0 -0.1109132793
C  C211  1  0.03515000  0.37883000  0.75769000  1.0 0.0025706804
C  C212  1  0.96485000  0.62117000  0.24231000  1.0 0.0025706804
C  C213  1  0.00230000  0.32550000  0.80108000  1.0 0.0204850312
C  C214  1  0.99770000  0.67450000  0.19892000  1.0 0.0204850312
C  C215  1  0.04740000  0.31960000  0.85120000  1.0 -0.1404208052
C  C216  1  0.95260000  0.68040000  0.14880000  1.0 -0.1404208052
C  C217  1  0.01610000  0.27230000  0.89490000  1.0 -0.1009262365
C  C218  1  0.98390000  0.72770000  0.10510000  1.0 -0.1009262365
C  C219  1  0.93590000  0.22290000  0.88980000  1.0 -0.1009262365
C  C220  1  0.06410000  0.77710000  0.11020000  1.0 -0.1009262365
C  C221  1  0.89030000  0.22640000  0.83770000  1.0 -0.1509384985
C  C222  1  0.10970000  0.77360000  0.16230000  1.0 -0.1509384985
C  C223  1  0.92500000  0.28040000  0.79565000  1.0 0.0879853556
C  C224  1  0.07500000  0.71960000  0.20435000  1.0 0.0879853556
C  C225  1  0.87720000  0.28290000  0.74428000  1.0 -0.2125577213
C  C226  1  0.12280000  0.71710000  0.25572000  1.0 -0.2188704562
C  C227  1  0.90690000  0.33870000  0.70237000  1.0 0.07863046
C  C228  1  0.09310000  0.66130000  0.29763000  1.0 0.07863046
C  C229  1  0.85690000  0.34230000  0.65140000  1.0 -0.1404208052
C  C230  1  0.14310000  0.65770000  0.34860000  1.0 -0.1404208052
C  C231  1  0.88350000  0.39420000  0.61440000  1.0 -0.1009262365
C  C232  1  0.11650000  0.60580000  0.38560000  1.0 -0.1009262365
C  C233  1  0.96030000  0.44350000  0.62200000  1.0 -0.1009262365
C  C234  1  0.03970000  0.55650000  0.37800000  1.0 -0.1009262365
C  C235  1  0.01010000  0.44340000  0.66980000  1.0 -0.1607442856
C  C236  1  0.98990000  0.55660000  0.33020000  1.0 -0.1607442856
C  C237  1  0.98700000  0.38750000  0.70941000  1.0 0.0204850312
C  C238  1  0.01300000  0.61250000  0.29059000  1.0 0.0204850312
C  C239  1  0.65980000  0.81230000  0.78100000  1.0 0.6327843084
C  C240  1  0.34020000  0.18770000  0.21900000  1.0 0.6327843084
C  C241  1  0.70370000  0.89010000  0.76840000  1.0 -0.0081477469
C  C242  1  0.29630000  0.10990000  0.23160000  1.0 -0.0081477469
C  C243  1  0.78300000  0.91630000  0.76840000  1.0 -0.2188704562
C  C244  1  0.21700000  0.08370000  0.23160000  1.0 -0.2188704562
C  C245  1  0.82711000  0.98770000  0.75450000  1.0 0.229598774
C  C246  1  0.17289000  0.01230000  0.24550000  1.0 0.229598774
C  C247  1  0.78910000  0.03280000  0.74540000  1.0 -0.2281416581
C  C248  1  0.21090000  0.96720000  0.25460000  1.0 -0.2281416581
C  C249  1  0.70970000  0.00760000  0.74410000  1.0 0.010415997
C  C250  1  0.29030000  0.99240000  0.25590000  1.0 0.010415997
C  C251  1  0.66666667  0.93550000  0.75680000  1.0 -0.1404208052
C  C252  1  0.33333333  0.06450000  0.24320000  1.0 -0.1404208052
C  C253  1  0.67320000  0.05970000  0.73400000  1.0 0.5574979299
C  C254  1  0.32680000  0.94030000  0.26600000  1.0 0.5574979299
C  C255  1  0.95096000  0.97717000  0.76980000  1.0 -0.1109132793
C  C256  1  0.04904000  0.02283000  0.23020000  1.0 -0.1109132793
C  C257  1  0.03532000  0.02920000  0.77510000  1.0 -0.0499936496
C  C258  1  0.96468000  0.97080000  0.22490000  1.0 -0.0499936496
C  C259  1  0.08280000  0.03320000  0.72500000  1.0 0.0204850312
C  C260  1  0.91720000  0.96680000  0.27500000  1.0 0.0204850312
C  C261  1  0.05190000  0.98610000  0.67390000  1.0 -0.168957409
C  C262  1  0.94810000  0.01390000  0.32610000  1.0 -0.168957409
C  C263  1  0.10330000  0.99460000  0.62980000  1.0 -0.0899999679
C  C264  1  0.89670000  0.00540000  0.37020000  1.0 -0.0899999679
C  C265  1  0.18000000  0.04330000  0.63484000  1.0 -0.1109132793
C  C266  1  0.82000000  0.95670000  0.36516000  1.0 -0.1109132793
C  C267  1  0.20470000  0.09580000  0.68245000  1.0 -0.1299598327
C  C268  1  0.79530000  0.90420000  0.31755000  1.0 -0.1299598327
C  C269  1  0.15790000  0.08560000  0.73030000  1.0 0.0710460893
C  C270  1  0.84210000  0.91440000  0.26970000  1.0 0.0710460893
C  C271  1  0.18540000  0.13050000  0.77850000  1.0 -0.1755830681
C  C272  1  0.81460000  0.86950000  0.22150000  1.0 -0.1755830681
C  C273  1  0.14360000  0.13170000  0.82850000  1.0 0.0710460893
C  C274  1  0.85640000  0.86830000  0.17150000  1.0 0.0710460893
C  C275  1  0.17470000  0.18570000  0.87550000  1.0 -0.1404208052
C  C276  1  0.82530000  0.81430000  0.12450000  1.0 -0.1404208052
C  C277  1  0.13650000  0.18350000  0.92820000  1.0 -0.1299598327
C  C278  1  0.86350000  0.81650000  0.07180000  1.0 -0.1299598327
C  C279  1  0.06230000  0.12810000  0.92480000  1.0 -0.1009262365
C  C280  1  0.93770000  0.87190000  0.07520000  1.0 -0.1009262365
C  C281  1  0.02400000  0.07680000  0.87690000  1.0 -0.168957409
C  C282  1  0.97600000  0.92320000  0.12310000  1.0 -0.168957409
C  C283  1  0.06860000  0.07820000  0.82860000  1.0 0.0274377017
C  C284  1  0.93140000  0.92180000  0.17140000  1.0 0.0274377017
C  C285  1  0.49422000  0.49799000  0.89910000  1.0 0.4865616574
C  C286  1  0.50578000  0.50201000  0.10090000  1.0 0.4865616574
C  C287  1  0.54197000  0.45994000  0.90840000  1.0 -0.602763254
C  C288  1  0.45803000  0.54006000  0.09160000  1.0 -0.602763254
C  C289  1  0.39470000  0.39390000  0.94010000  1.0 -0.358341024
C  C290  1  0.60530000  0.60610000  0.05990000  1.0 -0.358341024
C  C291  1  0.37370000  0.50940000  0.90500000  1.0 -0.358341024
C  C292  1  0.62630000  0.49060000  0.09500000  1.0 -0.358341024
N  N1  1  0.30409000  0.81598000  0.96299000  1.0 -0.3131300942
N  N2  1  0.69591000  0.18402000  0.03701000  1.0 -0.3131300942
N  N3  1  0.83099000  0.12440000  0.24410000  1.0 -0.3534122393
N  N4  1  0.16901000  0.87560000  0.75590000  1.0 -0.358341024
N  N5  1  0.09638000  0.47897000  0.22780000  1.0 -0.3287268267
N  N6  1  0.90362000  0.52103000  0.77220000  1.0 -0.3287268267
N  N7  1  0.67699000  0.66727000  0.46647000  1.0 -0.3287268267
N  N8  1  0.32301000  0.33273000  0.53353000  1.0 -0.3287268267
N  N9  1  0.90569000  0.01632000  0.75300000  1.0 -0.3287268267
N  N10  1  0.09431000  0.98368000  0.24700000  1.0 -0.3287268267
N  N11  1  0.16113000  0.37927000  0.75090000  1.0 -0.3287268267
N  N12  1  0.83887000  0.62073000  0.24910000  1.0 -0.3287268267
N  N13  1  0.42700000  0.47000000  0.91430000  1.0 0.0204850312
N  N14  1  0.57300000  0.53000000  0.08570000  1.0 0.0204850312
N  N15  1  0.57150000  0.03050000  0.41710000  1.0 0.010415997
N  N16  1  0.42850000  0.96950000  0.58290000  1.0 0.010415997
O  O1  1  0.52880000  0.73100000  0.10320000  1.0 -0.560023515
O  O2  1  0.47120000  0.26900000  0.89680000  1.0 -0.560023515
O  O3  1  0.46360000  0.78660000  0.13560000  1.0 -0.6206757412
O  O4  1  0.53640000  0.21340000  0.86440000  1.0 -0.6206757412
O  O5  1  0.62410000  0.87730000  0.21740000  1.0 -0.6206757412
O  O6  1  0.37590000  0.12270000  0.78260000  1.0 -0.6206757412
O  O7  1  0.55310000  0.77760000  0.32200000  1.0 -0.6528194383
O  O8  1  0.44690000  0.22240000  0.67800000  1.0 -0.6528194383
O  O9  1  0.46470000  0.79660000  0.37030000  1.0 -0.6613917188
O  O10  1  0.53530000  0.20340000  0.62970000  1.0 -0.6613917188
O  O11  1  0.30980000  0.72140000  0.28520000  1.0 -0.5885865376
O  O12  1  0.69020000  0.27860000  0.71480000  1.0 -0.5885865376
O  O13  1  0.40910000  0.71740000  0.24800000  1.0 -0.7295525358
O  O14  1  0.59090000  0.28260000  0.75200000  1.0 -0.7295525358
O  O15  1  0.48290000  0.94280000  0.36490000  1.0 -0.6613917188
O  O16  1  0.51710000  0.05720000  0.63510000  1.0 -0.6613917188
O  O17  1  0.33290000  0.82210000  0.39240000  1.0 -0.7507543848
O  O18  1  0.66710000  0.17790000  0.60760000  1.0 -0.7507543848
O  O19  1  0.35990000  0.82370000  0.18740000  1.0 -0.7295525358
O  O20  1  0.64010000  0.17630000  0.81260000  1.0 -0.7295525358
O  O21  1  0.52680000  0.70560000  0.87200000  1.0 -0.6613917188
O  O22  1  0.47320000  0.29440000  0.12800000  1.0 -0.6613917188
O  O23  1  0.44110000  0.72750000  0.81530000  1.0 -0.6206757412
O  O24  1  0.55890000  0.27250000  0.18470000  1.0 -0.6206757412
O  O25  1  0.52690000  0.14050000  0.27210000  1.0 -0.6613917188
O  O26  1  0.47310000  0.85950000  0.72790000  1.0 -0.6613917188
O  O27  1  0.64180000  0.22860000  0.29510000  1.0 -0.6364490674
O  O28  1  0.35820000  0.77140000  0.70490000  1.0 -0.6364490674
O  O29  1  0.46370000  0.75850000  0.60030000  1.0 -0.602763254
O  O30  1  0.53630000  0.24150000  0.39970000  1.0 -0.602763254
O  O31  1  0.53410000  0.70730000  0.63620000  1.0 -0.6094727502
O  O32  1  0.46590000  0.29270000  0.36380000  1.0 -0.6094727502
O  O33  1  0.36980000  0.61860000  0.70490000  1.0 -0.6349386261
O  O34  1  0.63020000  0.38140000  0.29510000  1.0 -0.6349386261
O  O35  1  0.47700000  0.61720000  0.74750000  1.0 -0.7507543848
O  O36  1  0.52300000  0.38280000  0.25250000  1.0 -0.7507543848
O  O37  1  0.59040000  0.77910000  0.76030000  1.0 -0.718870847
O  O38  1  0.40960000  0.22090000  0.23970000  1.0 -0.718870847
O  O39  1  0.68940000  0.77850000  0.81180000  1.0 -0.6094727502
O  O40  1  0.31060000  0.22150000  0.18820000  1.0 -0.6094727502
O  O41  1  0.71120000  0.12210000  0.71600000  1.0 -0.6528194383
O  O42  1  0.28880000  0.87790000  0.28400000  1.0 -0.6528194383
O  O43  1  0.60300000  0.03740000  0.74090000  1.0 -0.6094727502
O  O44  1  0.39700000  0.96260000  0.25910000  1.0 -0.6094727502
O  O45  1  0.46590000  0.36010000  0.76700000  1.0 -0.602763254
O  O46  1  0.53410000  0.63990000  0.23300000  1.0 -0.602763254
O  O47  1  0.35560000  0.27210000  0.77730000  1.0 -0.6094727502
O  O48  1  0.64440000  0.72790000  0.22270000  1.0 -0.6094727502
O  O49  1  0.51620000  0.55930000  0.87300000  1.0 -0.6933132098
O  O50  1  0.48380000  0.44070000  0.12700000  1.0 -0.6933132098
O  O51  1  0.65960000  0.68630000  0.91840000  1.0 -0.7355906651
O  O52  1  0.34040000  0.31370000  0.08160000  1.0 -0.7355906651
O  O53  1  0.63400000  0.67240000  0.70700000  1.0 -0.7507543848
O  O54  1  0.36600000  0.32760000  0.29300000  1.0 -0.7507543848
O  O55  1  0.29550000  0.38050000  0.17990000  1.0 -0.6364490674
O  O56  1  0.70450000  0.61950000  0.82010000  1.0 -0.6349386261
O  O57  1  0.40090000  0.46080000  0.22880000  1.0 -0.6206757412
O  O58  1  0.59910000  0.53920000  0.77120000  1.0 -0.6206757412
O  O59  1  0.51720000  0.88170000  0.24610000  1.0 -0.7658082232
O  O60  1  0.48280000  0.11830000  0.75390000  1.0 -0.7658082232
