# DDEC6 charges by PACMAN v1.1 (https://github.com/mtap-research/PACMAN-charge/)
data_CIFLAH_ASR_pacman
_symmetry_space_group_name_H-M   'P 1'
_cell_length_a   29.50350000
_cell_length_b   29.50350000
_cell_length_c   29.50350000
_cell_angle_alpha   99.44030000
_cell_angle_beta   99.44030000
_cell_angle_gamma   99.44030000
_symmetry_Int_Tables_number   1
_chemical_formula_structural   In2H31C81O19
_chemical_formula_sum   'In12 H186 C486 O114'
_cell_volume   24504.89317592
_cell_formula_units_Z   6
loop_
 _symmetry_equiv_pos_site_id
 _symmetry_equiv_pos_as_xyz
  1  'x, y, z'
loop_
 _atom_site_type_symbol
 _atom_site_label
 _atom_site_symmetry_multiplicity
 _atom_site_fract_x
 _atom_site_fract_y
 _atom_site_fract_z
 _atom_site_occupancy
 _atom_site_charge
In  In1  1  0.80270000  0.23070000  0.09332000  1.0 1.3853502842
In  In2  1  0.64540000  0.94076000  0.51797000  1.0 1.0818003587
In  In3  1  0.23070000  0.09332000  0.80270000  1.0 1.3824177952
In  In4  1  0.94076000  0.51797000  0.64540000  1.0 1.0818003587
In  In5  1  0.09332000  0.80270000  0.23070000  1.0 1.3824177952
In  In6  1  0.51797000  0.64540000  0.94076000  1.0 1.0818003587
In  In7  1  0.19730000  0.76930000  0.90668000  1.0 1.3824177952
In  In8  1  0.35460000  0.05924000  0.48203000  1.0 1.0818003587
In  In9  1  0.76930000  0.90668000  0.19730000  1.0 1.3853502842
In  In10  1  0.05924000  0.48203000  0.35460000  1.0 1.0818003587
In  In11  1  0.90668000  0.19730000  0.76930000  1.0 1.3824177952
In  In12  1  0.48203000  0.35460000  0.05924000  1.0 1.0818003587
H  H1  1  0.74100000  0.17920000  0.21930000  1.0 0.1288816309
H  H2  1  0.86090000  0.27570000  0.26240000  1.0 0.1288816309
H  H3  1  0.87220000  0.38710000  0.08810000  1.0 0.1198412572
H  H4  1  0.73750000  0.37250000  0.10330000  1.0 0.1288816309
H  H5  1  0.94420000  0.19900000  0.05270000  1.0 0.1288816309
H  H6  1  0.86840000  0.08770000  0.08740000  1.0 0.1288816309
H  H7  1  0.73670000  0.17660000  0.29700000  1.0 0.1288816309
H  H8  1  0.85660000  0.27310000  0.34010000  1.0 0.1009633146
H  H9  1  0.87480000  0.46630000  0.08700000  1.0 0.1288816309
H  H10  1  0.74010000  0.45170000  0.10220000  1.0 0.1009633146
H  H11  1  0.00280000  0.15650000  0.04140000  1.0 0.1198412572
H  H12  1  0.92690000  0.04520000  0.07620000  1.0 0.1198412572
H  H13  1  0.76270000  0.15590000  0.36760000  1.0 0.1288816309
H  H14  1  0.82490000  0.29260000  0.40150000  1.0 0.1198412572
H  H15  1  0.87630000  0.54250000  0.12720000  1.0 0.1288816309
H  H16  1  0.74160000  0.50850000  0.05890000  1.0 0.1288816309
H  H17  1  0.99920000  0.02990000  0.09990000  1.0 0.1198412572
H  H18  1  0.79060000  0.22390000  0.50240000  1.0 0.1288816309
H  H19  1  0.80900000  0.64360000  0.09100000  1.0 0.1198412572
H  H20  1  0.79680000  0.29440000  0.54450000  1.0 0.1288816309
H  H21  1  0.93950000  0.59780000  0.11730000  1.0 0.1288816309
H  H22  1  0.85840000  0.68510000  0.15820000  1.0 0.1198412572
H  H23  1  0.75210000  0.65970000  0.05080000  1.0 0.1288816309
H  H24  1  0.83130000  0.36300000  0.59890000  1.0 0.1481703504
H  H25  1  0.00570000  0.65390000  0.15070000  1.0 0.1288816309
H  H26  1  0.92460000  0.74210000  0.19370000  1.0 0.1288816309
H  H27  1  0.68460000  0.68010000  0.01450000  1.0 0.1481703504
H  H28  1  0.81360000  0.59050000  0.60120000  1.0 0.1378385322
H  H29  1  0.83860000  0.58400000  0.73840000  1.0 0.1288816309
H  H30  1  0.75870000  0.63720000  0.61420000  1.0 0.1198412572
H  H31  1  0.78360000  0.63060000  0.75130000  1.0 0.1288816309
H  H32  1  0.17920000  0.21930000  0.74100000  1.0 0.1288816309
H  H33  1  0.27570000  0.26240000  0.86090000  1.0 0.1288816309
H  H34  1  0.38710000  0.08810000  0.87220000  1.0 0.1198412572
H  H35  1  0.37250000  0.10330000  0.73750000  1.0 0.1288816309
H  H36  1  0.19900000  0.05270000  0.94420000  1.0 0.1288816309
H  H37  1  0.08770000  0.08740000  0.86840000  1.0 0.1288816309
H  H38  1  0.17660000  0.29700000  0.73670000  1.0 0.1288816309
H  H39  1  0.27310000  0.34010000  0.85660000  1.0 0.1009633146
H  H40  1  0.46630000  0.08700000  0.87480000  1.0 0.1288816309
H  H41  1  0.45170000  0.10220000  0.74010000  1.0 0.1009633146
H  H42  1  0.15650000  0.04140000  0.00280000  1.0 0.1198412572
H  H43  1  0.04520000  0.07620000  0.92690000  1.0 0.1198412572
H  H44  1  0.15590000  0.36760000  0.76270000  1.0 0.1288816309
H  H45  1  0.29260000  0.40150000  0.82490000  1.0 0.1198412572
H  H46  1  0.54250000  0.12720000  0.87630000  1.0 0.1288816309
H  H47  1  0.50850000  0.05890000  0.74160000  1.0 0.1288816309
H  H48  1  0.02990000  0.09990000  0.99920000  1.0 0.1198412572
H  H49  1  0.22390000  0.50240000  0.79060000  1.0 0.1288816309
H  H50  1  0.64360000  0.09100000  0.80900000  1.0 0.1198412572
H  H51  1  0.29440000  0.54450000  0.79680000  1.0 0.1288816309
H  H52  1  0.59780000  0.11730000  0.93950000  1.0 0.1288816309
H  H53  1  0.68510000  0.15820000  0.85840000  1.0 0.1198412572
H  H54  1  0.65970000  0.05080000  0.75210000  1.0 0.1288816309
H  H55  1  0.36300000  0.59890000  0.83130000  1.0 0.1481703504
H  H56  1  0.65390000  0.15070000  0.00570000  1.0 0.1288816309
H  H57  1  0.74210000  0.19370000  0.92460000  1.0 0.1288816309
H  H58  1  0.68010000  0.01450000  0.68460000  1.0 0.1481703504
H  H59  1  0.59050000  0.60120000  0.81360000  1.0 0.1378385322
H  H60  1  0.58400000  0.73840000  0.83860000  1.0 0.1288816309
H  H61  1  0.63720000  0.61420000  0.75870000  1.0 0.1198412572
H  H62  1  0.63060000  0.75130000  0.78360000  1.0 0.1288816309
H  H63  1  0.21930000  0.74100000  0.17920000  1.0 0.1288816309
H  H64  1  0.26240000  0.86090000  0.27570000  1.0 0.1288816309
H  H65  1  0.08810000  0.87220000  0.38710000  1.0 0.1198412572
H  H66  1  0.10330000  0.73750000  0.37250000  1.0 0.1288816309
H  H67  1  0.05270000  0.94420000  0.19900000  1.0 0.1288816309
H  H68  1  0.08740000  0.86840000  0.08770000  1.0 0.1288816309
H  H69  1  0.29700000  0.73670000  0.17660000  1.0 0.1288816309
H  H70  1  0.34010000  0.85660000  0.27310000  1.0 0.1009633146
H  H71  1  0.08700000  0.87480000  0.46630000  1.0 0.1288816309
H  H72  1  0.10220000  0.74010000  0.45170000  1.0 0.1009633146
H  H73  1  0.04140000  0.00280000  0.15650000  1.0 0.1198412572
H  H74  1  0.07620000  0.92690000  0.04520000  1.0 0.1198412572
H  H75  1  0.36760000  0.76270000  0.15590000  1.0 0.1288816309
H  H76  1  0.40150000  0.82490000  0.29260000  1.0 0.1198412572
H  H77  1  0.12720000  0.87630000  0.54250000  1.0 0.1288816309
H  H78  1  0.05890000  0.74160000  0.50850000  1.0 0.1288816309
H  H79  1  0.09990000  0.99920000  0.02990000  1.0 0.1198412572
H  H80  1  0.50240000  0.79060000  0.22390000  1.0 0.1288816309
H  H81  1  0.09100000  0.80900000  0.64360000  1.0 0.1198412572
H  H82  1  0.54450000  0.79680000  0.29440000  1.0 0.1288816309
H  H83  1  0.11730000  0.93950000  0.59780000  1.0 0.1288816309
H  H84  1  0.15820000  0.85840000  0.68510000  1.0 0.1079676616
H  H85  1  0.05080000  0.75210000  0.65970000  1.0 0.1288816309
H  H86  1  0.59890000  0.83130000  0.36300000  1.0 0.1481703504
H  H87  1  0.15070000  0.00570000  0.65390000  1.0 0.1288816309
H  H88  1  0.19370000  0.92460000  0.74210000  1.0 0.1288816309
H  H89  1  0.01450000  0.68460000  0.68010000  1.0 0.1481703504
H  H90  1  0.60120000  0.81360000  0.59050000  1.0 0.1378385322
H  H91  1  0.73840000  0.83860000  0.58400000  1.0 0.1288816309
H  H92  1  0.61420000  0.75870000  0.63720000  1.0 0.1198412572
H  H93  1  0.75130000  0.78360000  0.63060000  1.0 0.1288816309
H  H94  1  0.25900000  0.82080000  0.78070000  1.0 0.1288816309
H  H95  1  0.13910000  0.72430000  0.73760000  1.0 0.1288816309
H  H96  1  0.12780000  0.61290000  0.91190000  1.0 0.1198412572
H  H97  1  0.26250000  0.62750000  0.89670000  1.0 0.1288816309
H  H98  1  0.05580000  0.80100000  0.94730000  1.0 0.1288816309
H  H99  1  0.13160000  0.91230000  0.91260000  1.0 0.1288816309
H  H100  1  0.26330000  0.82340000  0.70300000  1.0 0.1288816309
H  H101  1  0.14340000  0.72690000  0.65990000  1.0 0.1009633146
H  H102  1  0.12520000  0.53370000  0.91300000  1.0 0.1288816309
H  H103  1  0.25990000  0.54830000  0.89780000  1.0 0.1009633146
H  H104  1  0.99720000  0.84350000  0.95860000  1.0 0.1198412572
H  H105  1  0.07310000  0.95480000  0.92380000  1.0 0.1198412572
H  H106  1  0.23730000  0.84410000  0.63240000  1.0 0.1288816309
H  H107  1  0.17510000  0.70740000  0.59850000  1.0 0.1198412572
H  H108  1  0.12370000  0.45750000  0.87280000  1.0 0.1288816309
H  H109  1  0.25840000  0.49150000  0.94110000  1.0 0.1288816309
H  H110  1  0.00080000  0.97010000  0.90010000  1.0 0.1198412572
H  H111  1  0.20940000  0.77610000  0.49760000  1.0 0.1288816309
H  H112  1  0.19100000  0.35640000  0.90900000  1.0 0.1198412572
H  H113  1  0.20320000  0.70560000  0.45550000  1.0 0.1288816309
H  H114  1  0.06050000  0.40220000  0.88270000  1.0 0.1288816309
H  H115  1  0.14160000  0.31490000  0.84180000  1.0 0.1198412572
H  H116  1  0.24790000  0.34030000  0.94920000  1.0 0.1288816309
H  H117  1  0.16870000  0.63700000  0.40110000  1.0 0.1481703504
H  H118  1  0.99430000  0.34610000  0.84930000  1.0 0.1288816309
H  H119  1  0.07540000  0.25790000  0.80630000  1.0 0.1288816309
H  H120  1  0.31540000  0.31990000  0.98550000  1.0 0.1481703504
H  H121  1  0.18640000  0.40950000  0.39880000  1.0 0.1378385322
H  H122  1  0.16140000  0.41600000  0.26160000  1.0 0.1288816309
H  H123  1  0.24130000  0.36280000  0.38580000  1.0 0.1198412572
H  H124  1  0.21640000  0.36940000  0.24870000  1.0 0.1198412572
H  H125  1  0.82080000  0.78070000  0.25900000  1.0 0.1288816309
H  H126  1  0.72430000  0.73760000  0.13910000  1.0 0.1288816309
H  H127  1  0.61290000  0.91190000  0.12780000  1.0 0.1198412572
H  H128  1  0.62750000  0.89670000  0.26250000  1.0 0.1288816309
H  H129  1  0.80100000  0.94730000  0.05580000  1.0 0.1288816309
H  H130  1  0.91230000  0.91260000  0.13160000  1.0 0.1288816309
H  H131  1  0.82340000  0.70300000  0.26330000  1.0 0.1288816309
H  H132  1  0.72690000  0.65990000  0.14340000  1.0 0.1009633146
H  H133  1  0.53370000  0.91300000  0.12520000  1.0 0.1288816309
H  H134  1  0.54830000  0.89780000  0.25990000  1.0 0.1009633146
H  H135  1  0.84350000  0.95860000  0.99720000  1.0 0.1198412572
H  H136  1  0.95480000  0.92380000  0.07310000  1.0 0.1198412572
H  H137  1  0.84410000  0.63240000  0.23730000  1.0 0.1288816309
H  H138  1  0.70740000  0.59850000  0.17510000  1.0 0.1198412572
H  H139  1  0.45750000  0.87280000  0.12370000  1.0 0.1288816309
H  H140  1  0.49150000  0.94110000  0.25840000  1.0 0.1288816309
H  H141  1  0.97010000  0.90010000  0.00080000  1.0 0.1198412572
H  H142  1  0.77610000  0.49760000  0.20940000  1.0 0.1288816309
H  H143  1  0.35640000  0.90900000  0.19100000  1.0 0.1198412572
H  H144  1  0.70560000  0.45550000  0.20320000  1.0 0.1288816309
H  H145  1  0.40220000  0.88270000  0.06050000  1.0 0.1288816309
H  H146  1  0.31490000  0.84180000  0.14160000  1.0 0.1198412572
H  H147  1  0.34030000  0.94920000  0.24790000  1.0 0.1288816309
H  H148  1  0.63700000  0.40110000  0.16870000  1.0 0.1481703504
H  H149  1  0.34610000  0.84930000  0.99430000  1.0 0.1288816309
H  H150  1  0.25790000  0.80630000  0.07540000  1.0 0.1288816309
H  H151  1  0.31990000  0.98550000  0.31540000  1.0 0.1481703504
H  H152  1  0.40950000  0.39880000  0.18640000  1.0 0.1378385322
H  H153  1  0.41600000  0.26160000  0.16140000  1.0 0.1288816309
H  H154  1  0.36280000  0.38580000  0.24130000  1.0 0.1198412572
H  H155  1  0.36940000  0.24870000  0.21640000  1.0 0.1288816309
H  H156  1  0.78070000  0.25900000  0.82080000  1.0 0.1288816309
H  H157  1  0.73760000  0.13910000  0.72430000  1.0 0.1288816309
H  H158  1  0.91190000  0.12780000  0.61290000  1.0 0.1198412572
H  H159  1  0.89670000  0.26250000  0.62750000  1.0 0.1288816309
H  H160  1  0.94730000  0.05580000  0.80100000  1.0 0.1288816309
H  H161  1  0.91260000  0.13160000  0.91230000  1.0 0.1288816309
H  H162  1  0.70300000  0.26330000  0.82340000  1.0 0.1288816309
H  H163  1  0.65990000  0.14340000  0.72690000  1.0 0.1009633146
H  H164  1  0.91300000  0.12520000  0.53370000  1.0 0.1288816309
H  H165  1  0.89780000  0.25990000  0.54830000  1.0 0.1009633146
H  H166  1  0.95860000  0.99720000  0.84350000  1.0 0.1198412572
H  H167  1  0.92380000  0.07310000  0.95480000  1.0 0.1198412572
H  H168  1  0.63240000  0.23730000  0.84410000  1.0 0.1288816309
H  H169  1  0.59850000  0.17510000  0.70740000  1.0 0.1198412572
H  H170  1  0.87280000  0.12370000  0.45750000  1.0 0.1288816309
H  H171  1  0.94110000  0.25840000  0.49150000  1.0 0.1288816309
H  H172  1  0.90010000  0.00080000  0.97010000  1.0 0.1198412572
H  H173  1  0.49760000  0.20940000  0.77610000  1.0 0.1288816309
H  H174  1  0.90900000  0.19100000  0.35640000  1.0 0.1198412572
H  H175  1  0.45550000  0.20320000  0.70560000  1.0 0.1288816309
H  H176  1  0.88270000  0.06050000  0.40220000  1.0 0.1288816309
H  H177  1  0.84180000  0.14160000  0.31490000  1.0 0.1198412572
H  H178  1  0.94920000  0.24790000  0.34030000  1.0 0.1288816309
H  H179  1  0.40110000  0.16870000  0.63700000  1.0 0.1481703504
H  H180  1  0.84930000  0.99430000  0.34610000  1.0 0.1288816309
H  H181  1  0.80630000  0.07540000  0.25790000  1.0 0.1288816309
H  H182  1  0.98550000  0.31540000  0.31990000  1.0 0.1481703504
H  H183  1  0.39880000  0.18640000  0.40950000  1.0 0.1378385322
H  H184  1  0.26160000  0.16140000  0.41600000  1.0 0.1288816309
H  H185  1  0.38580000  0.24130000  0.36280000  1.0 0.1198412572
H  H186  1  0.24870000  0.21640000  0.36940000  1.0 0.1288816309
C  C1  1  0.80278000  0.22922000  0.18241000  1.0 0.5387178085
C  C2  1  0.80212000  0.32018000  0.09508000  1.0 0.5387178085
C  C3  1  0.86433000  0.17659000  0.07986000  1.0 0.5387178085
C  C4  1  0.80129000  0.22767000  0.23333000  1.0 0.0097129126
C  C5  1  0.80463000  0.37213000  0.09579000  1.0 0.0097129126
C  C6  1  0.90065000  0.14739000  0.07112000  1.0 0.0097129126
C  C7  1  0.76426000  0.19811000  0.24367000  1.0 -0.0872339593
C  C8  1  0.83582000  0.25571000  0.26937000  1.0 -0.0872339593
C  C9  1  0.84560000  0.40009000  0.09091000  1.0 -0.0807282866
C  C10  1  0.76520000  0.39138000  0.09998000  1.0 -0.0807282866
C  C11  1  0.94074000  0.16792000  0.05739000  1.0 -0.0872339593
C  C12  1  0.89550000  0.10152000  0.07813000  1.0 -0.0807282866
C  C13  1  0.76174000  0.19658000  0.29005000  1.0 -0.1528553507
C  C14  1  0.83331000  0.25417000  0.31575000  1.0 -0.1597156959
C  C15  1  0.84715000  0.44732000  0.09022000  1.0 -0.1528553507
C  C16  1  0.76675000  0.43860000  0.09930000  1.0 -0.1528553507
C  C17  1  0.97566000  0.14256000  0.05065000  1.0 -0.1528553507
C  C18  1  0.93042000  0.07617000  0.07138000  1.0 -0.1528553507
C  C19  1  0.79626000  0.22461000  0.32608000  1.0 0.077131837
C  C20  1  0.80773000  0.46658000  0.09442000  1.0 0.0897126468
C  C21  1  0.97050000  0.09668000  0.05765000  1.0 0.070488085
C  C22  1  0.79410000  0.22425000  0.37696000  1.0 0.1009633146
C  C23  1  0.80896000  0.51789000  0.09318000  1.0 0.1079676616
C  C24  1  0.00769000  0.06915000  0.05069000  1.0 0.0897126468
C  C25  1  0.77488000  0.18340000  0.39026000  1.0 -0.1899800437
C  C26  1  0.81199000  0.26496000  0.41052000  1.0 -0.2095330348
C  C27  1  0.84917000  0.55153000  0.11320000  1.0 -0.1899800437
C  C28  1  0.76877000  0.53123000  0.07236000  1.0 -0.2095330348
C  C29  1  0.01657000  0.03495000  0.07661000  1.0 -0.1899800437
C  C30  1  0.77354000  0.18325000  0.43711000  1.0 0.1079676616
C  C31  1  0.81067000  0.26481000  0.45738000  1.0 0.0897126468
C  C32  1  0.84917000  0.59850000  0.11240000  1.0 0.1009633146
C  C33  1  0.76878000  0.57820000  0.07155000  1.0 0.0897126468
C  C34  1  0.79144000  0.22395000  0.47067000  1.0 -0.1849465398
C  C35  1  0.75273000  0.13862000  0.45122000  1.0 0.0289850437
C  C36  1  0.83419000  0.30802000  0.49457000  1.0 0.0498105967
C  C37  1  0.80898000  0.61184000  0.09158000  1.0 -0.1899800437
C  C38  1  0.89170000  0.63484000  0.13499000  1.0 0.077131837
C  C39  1  0.72445000  0.59272000  0.04940000  1.0 0.0498105967
C  C40  1  0.76121000  0.09507000  0.43274000  1.0 -0.0407289972
C  C41  1  0.72165000  0.14390000  0.48155000  1.0 -0.017272749
C  C42  1  0.86873000  0.34058000  0.48420000  1.0 -0.017272749
C  C43  1  0.82019000  0.31638000  0.53744000  1.0 -0.1899800437
C  C44  1  0.93618000  0.62713000  0.13287000  1.0 -0.1528553507
C  C45  1  0.88824000  0.67825000  0.15702000  1.0 -0.1597156959
C  C46  1  0.68060000  0.56680000  0.04930000  1.0 -0.0807282866
C  C47  1  0.72421000  0.63711000  0.04158000  1.0 -0.1899800437
C  C48  1  0.74040000  0.05550000  0.44710000  1.0 -0.0011705296
C  C49  1  0.69970000  0.10430000  0.49510000  1.0 -0.0487337094
C  C50  1  0.88927000  0.38148000  0.51669000  1.0 -0.017272749
C  C51  1  0.84074000  0.35728000  0.56992000  1.0 -0.140190634
C  C52  1  0.97609000  0.66077000  0.15277000  1.0 -0.0710814429
C  C53  1  0.92808000  0.71284000  0.17796000  1.0 -0.0710814429
C  C54  1  0.64234000  0.57043000  0.00443000  1.0 0.0897126468
C  C55  1  0.68354000  0.64957000  0.02020000  1.0 -0.1313863872
C  C56  1  0.71155000  0.05763000  0.47751000  1.0 -0.017272749
C  C57  1  0.87527000  0.38983000  0.55954000  1.0 -0.017272749
C  C58  1  0.97234000  0.70398000  0.17544000  1.0 -0.017272749
C  C59  1  0.64256000  0.61798000  0.00748000  1.0 0.0097129126
C  C60  1  0.68723000  0.01533000  0.49112000  1.0 0.393976462
C  C61  1  0.89638000  0.43666000  0.59258000  1.0 0.4534153612
C  C62  1  0.01460000  0.73988000  0.19556000  1.0 0.5496892802
C  C63  1  0.59864000  0.63049000  0.98459000  1.0 0.5387178085
C  C64  1  0.86899000  0.55596000  0.66138000  1.0 0.5496892802
C  C65  1  0.83140000  0.58278000  0.66861000  1.0 -0.0278627807
C  C66  1  0.80758000  0.59862000  0.63153000  1.0 -0.0710814429
C  C67  1  0.82243000  0.59475000  0.71337000  1.0 -0.0611236985
C  C68  1  0.77480000  0.62644000  0.63922000  1.0 -0.1597156959
C  C69  1  0.78964000  0.62257000  0.72107000  1.0 -0.1597156959
C  C70  1  0.76583000  0.63842000  0.68400000  1.0 0.1009633146
C  C71  1  0.73065000  0.67000000  0.69117000  1.0 0.0439295542
C  C72  1  0.71982000  0.69828000  0.65920000  1.0 -0.0407289972
C  C73  1  0.75780000  0.08200000  0.50220000  1.0 -0.0710814429
C  C74  1  0.71114000  0.11054000  0.42504000  1.0 -0.0125113473
C  C75  1  0.77665000  0.12265000  0.48830000  1.0 -0.0710814429
C  C76  1  0.69210000  0.07050000  0.43990000  1.0 0.0027815348
C  C77  1  0.68647000  0.55797000  0.02517000  1.0 0.0570418459
C  C78  1  0.64124000  0.57975000  0.02951000  1.0 -0.017272749
C  C79  1  0.85120000  0.34980000  0.48150000  1.0 0.0027815348
C  C80  1  0.87130000  0.39190000  0.51230000  1.0 0.0498105967
C  C81  1  0.73098000  0.70912000  0.67050000  1.0 -0.0407289972
C  C82  1  0.22922000  0.18241000  0.80278000  1.0 0.5387178085
C  C83  1  0.32018000  0.09508000  0.80212000  1.0 0.5387178085
C  C84  1  0.17659000  0.07986000  0.86433000  1.0 0.5387178085
C  C85  1  0.22767000  0.23333000  0.80129000  1.0 0.0097129126
C  C86  1  0.37213000  0.09579000  0.80463000  1.0 0.0097129126
C  C87  1  0.14739000  0.07112000  0.90065000  1.0 0.0097129126
C  C88  1  0.19811000  0.24367000  0.76426000  1.0 -0.0872339593
C  C89  1  0.25571000  0.26937000  0.83582000  1.0 -0.0872339593
C  C90  1  0.40009000  0.09091000  0.84560000  1.0 -0.0807282866
C  C91  1  0.39138000  0.09998000  0.76520000  1.0 -0.0807282866
C  C92  1  0.16792000  0.05739000  0.94074000  1.0 -0.0872339593
C  C93  1  0.10152000  0.07813000  0.89550000  1.0 -0.0807282866
C  C94  1  0.19658000  0.29005000  0.76174000  1.0 -0.1528553507
C  C95  1  0.25417000  0.31575000  0.83331000  1.0 -0.1597156959
C  C96  1  0.44732000  0.09022000  0.84715000  1.0 -0.1528553507
C  C97  1  0.43860000  0.09930000  0.76675000  1.0 -0.1528553507
C  C98  1  0.14256000  0.05065000  0.97566000  1.0 -0.1528553507
C  C99  1  0.07617000  0.07138000  0.93042000  1.0 -0.1528553507
C  C100  1  0.22461000  0.32608000  0.79626000  1.0 0.077131837
C  C101  1  0.46658000  0.09442000  0.80773000  1.0 0.0897126468
C  C102  1  0.09668000  0.05765000  0.97050000  1.0 0.070488085
C  C103  1  0.22425000  0.37696000  0.79410000  1.0 0.1009633146
C  C104  1  0.51789000  0.09318000  0.80896000  1.0 0.1079676616
C  C105  1  0.06915000  0.05069000  0.00769000  1.0 0.0897126468
C  C106  1  0.18340000  0.39026000  0.77488000  1.0 -0.1899800437
C  C107  1  0.26496000  0.41052000  0.81199000  1.0 -0.2095330348
C  C108  1  0.55153000  0.11320000  0.84917000  1.0 -0.1899800437
C  C109  1  0.53123000  0.07236000  0.76877000  1.0 -0.2095330348
C  C110  1  0.03495000  0.07661000  0.01657000  1.0 -0.1899800437
C  C111  1  0.18325000  0.43711000  0.77354000  1.0 0.1079676616
C  C112  1  0.26481000  0.45738000  0.81067000  1.0 0.0897126468
C  C113  1  0.59850000  0.11240000  0.84917000  1.0 0.1009633146
C  C114  1  0.57820000  0.07155000  0.76878000  1.0 0.0897126468
C  C115  1  0.22395000  0.47067000  0.79144000  1.0 -0.1899800437
C  C116  1  0.13862000  0.45122000  0.75273000  1.0 0.0289850437
C  C117  1  0.30802000  0.49457000  0.83419000  1.0 0.0498105967
C  C118  1  0.61184000  0.09158000  0.80898000  1.0 -0.1899800437
C  C119  1  0.63484000  0.13499000  0.89170000  1.0 0.077131837
C  C120  1  0.59272000  0.04940000  0.72445000  1.0 0.0570418459
C  C121  1  0.09507000  0.43274000  0.76121000  1.0 -0.0407289972
C  C122  1  0.14390000  0.48155000  0.72165000  1.0 -0.017272749
C  C123  1  0.34058000  0.48420000  0.86873000  1.0 -0.017272749
C  C124  1  0.31638000  0.53744000  0.82019000  1.0 -0.1899800437
C  C125  1  0.62713000  0.13287000  0.93618000  1.0 -0.1528553507
C  C126  1  0.67825000  0.15702000  0.88824000  1.0 -0.1597156959
C  C127  1  0.56680000  0.04930000  0.68060000  1.0 -0.0710814429
C  C128  1  0.63711000  0.04158000  0.72421000  1.0 -0.1899800437
C  C129  1  0.05550000  0.44710000  0.74040000  1.0 -0.0011705296
C  C130  1  0.10430000  0.49510000  0.69970000  1.0 -0.0407289972
C  C131  1  0.38148000  0.51669000  0.88927000  1.0 -0.017272749
C  C132  1  0.35728000  0.56992000  0.84074000  1.0 -0.140190634
C  C133  1  0.66077000  0.15277000  0.97609000  1.0 -0.0710814429
C  C134  1  0.71284000  0.17796000  0.92808000  1.0 -0.0710814429
C  C135  1  0.57043000  0.00443000  0.64234000  1.0 0.0897126468
C  C136  1  0.64957000  0.02020000  0.68354000  1.0 -0.1313863872
C  C137  1  0.05763000  0.47751000  0.71155000  1.0 -0.0125113473
C  C138  1  0.38983000  0.55954000  0.87527000  1.0 -0.017272749
C  C139  1  0.70398000  0.17544000  0.97234000  1.0 -0.017272749
C  C140  1  0.61798000  0.00748000  0.64256000  1.0 0.0097129126
C  C141  1  0.01533000  0.49112000  0.68723000  1.0 0.3979012491
C  C142  1  0.43666000  0.59258000  0.89638000  1.0 0.4534153612
C  C143  1  0.73988000  0.19556000  0.01460000  1.0 0.5496892802
C  C144  1  0.63049000  0.98459000  0.59864000  1.0 0.5387178085
C  C145  1  0.55596000  0.66138000  0.86899000  1.0 0.5496892802
C  C146  1  0.58278000  0.66861000  0.83140000  1.0 -0.0278627807
C  C147  1  0.59862000  0.63153000  0.80758000  1.0 -0.0710814429
C  C148  1  0.59475000  0.71337000  0.82243000  1.0 -0.0611236985
C  C149  1  0.62644000  0.63922000  0.77480000  1.0 -0.1528553507
C  C150  1  0.62257000  0.72107000  0.78964000  1.0 -0.1597156959
C  C151  1  0.63842000  0.68400000  0.76583000  1.0 0.0897126468
C  C152  1  0.67000000  0.69117000  0.73065000  1.0 0.0498105967
C  C153  1  0.69828000  0.65920000  0.71982000  1.0 -0.0407289972
C  C154  1  0.08200000  0.50220000  0.75780000  1.0 -0.0710814429
C  C155  1  0.11054000  0.42504000  0.71114000  1.0 -0.0125113473
C  C156  1  0.12265000  0.48830000  0.77665000  1.0 -0.0710814429
C  C157  1  0.07050000  0.43990000  0.69210000  1.0 -0.0011705296
C  C158  1  0.55797000  0.02517000  0.68647000  1.0 0.0570418459
C  C159  1  0.57975000  0.02951000  0.64124000  1.0 -0.017272749
C  C160  1  0.34980000  0.48150000  0.85120000  1.0 0.0027815348
C  C161  1  0.39190000  0.51230000  0.87130000  1.0 0.0498105967
C  C162  1  0.70912000  0.67050000  0.73098000  1.0 -0.0407289972
C  C163  1  0.18241000  0.80278000  0.22922000  1.0 0.5387178085
C  C164  1  0.09508000  0.80212000  0.32018000  1.0 0.5387178085
C  C165  1  0.07986000  0.86433000  0.17659000  1.0 0.5387178085
C  C166  1  0.23333000  0.80129000  0.22767000  1.0 0.0097129126
C  C167  1  0.09579000  0.80463000  0.37213000  1.0 0.0097129126
C  C168  1  0.07112000  0.90065000  0.14739000  1.0 0.0097129126
C  C169  1  0.24367000  0.76426000  0.19811000  1.0 -0.0872339593
C  C170  1  0.26937000  0.83582000  0.25571000  1.0 -0.0872339593
C  C171  1  0.09091000  0.84560000  0.40009000  1.0 -0.0807282866
C  C172  1  0.09998000  0.76520000  0.39138000  1.0 -0.0807282866
C  C173  1  0.05739000  0.94074000  0.16792000  1.0 -0.0872339593
C  C174  1  0.07813000  0.89550000  0.10152000  1.0 -0.0807282866
C  C175  1  0.29005000  0.76174000  0.19658000  1.0 -0.1528553507
C  C176  1  0.31575000  0.83331000  0.25417000  1.0 -0.1597156959
C  C177  1  0.09022000  0.84715000  0.44732000  1.0 -0.1528553507
C  C178  1  0.09930000  0.76675000  0.43860000  1.0 -0.1528553507
C  C179  1  0.05065000  0.97566000  0.14256000  1.0 -0.1528553507
C  C180  1  0.07138000  0.93042000  0.07617000  1.0 -0.1528553507
C  C181  1  0.32608000  0.79626000  0.22461000  1.0 0.077131837
C  C182  1  0.09442000  0.80773000  0.46658000  1.0 0.0897126468
C  C183  1  0.05765000  0.97050000  0.09668000  1.0 0.070488085
C  C184  1  0.37696000  0.79410000  0.22425000  1.0 0.1009633146
C  C185  1  0.09318000  0.80896000  0.51789000  1.0 0.1079676616
C  C186  1  0.05069000  0.00769000  0.06915000  1.0 0.0897126468
C  C187  1  0.39026000  0.77488000  0.18340000  1.0 -0.1899800437
C  C188  1  0.41052000  0.81199000  0.26496000  1.0 -0.2095330348
C  C189  1  0.11320000  0.84917000  0.55153000  1.0 -0.1899800437
C  C190  1  0.07236000  0.76877000  0.53123000  1.0 -0.2095330348
C  C191  1  0.07661000  0.01657000  0.03495000  1.0 -0.1899800437
C  C192  1  0.43711000  0.77354000  0.18325000  1.0 0.1079676616
C  C193  1  0.45738000  0.81067000  0.26481000  1.0 0.0897126468
C  C194  1  0.11240000  0.84917000  0.59850000  1.0 0.1009633146
C  C195  1  0.07155000  0.76878000  0.57820000  1.0 0.0897126468
C  C196  1  0.47067000  0.79144000  0.22395000  1.0 -0.1899800437
C  C197  1  0.45122000  0.75273000  0.13862000  1.0 0.0289850437
C  C198  1  0.49457000  0.83419000  0.30802000  1.0 0.0498105967
C  C199  1  0.09158000  0.80898000  0.61184000  1.0 -0.1899800437
C  C200  1  0.13499000  0.89170000  0.63484000  1.0 0.070488085
C  C201  1  0.04940000  0.72445000  0.59272000  1.0 0.0498105967
C  C202  1  0.43274000  0.76121000  0.09507000  1.0 -0.0407289972
C  C203  1  0.48155000  0.72165000  0.14390000  1.0 -0.017272749
C  C204  1  0.48420000  0.86873000  0.34058000  1.0 -0.0125113473
C  C205  1  0.53744000  0.82019000  0.31638000  1.0 -0.1899800437
C  C206  1  0.13287000  0.93618000  0.62713000  1.0 -0.1528553507
C  C207  1  0.15702000  0.88824000  0.67825000  1.0 -0.1597156959
C  C208  1  0.04930000  0.68060000  0.56680000  1.0 -0.0807282866
C  C209  1  0.04158000  0.72421000  0.63711000  1.0 -0.1899800437
C  C210  1  0.44710000  0.74040000  0.05550000  1.0 -0.0011705296
C  C211  1  0.49510000  0.69970000  0.10430000  1.0 -0.0407289972
C  C212  1  0.51669000  0.88927000  0.38148000  1.0 -0.017272749
C  C213  1  0.56992000  0.84074000  0.35728000  1.0 -0.140190634
C  C214  1  0.15277000  0.97609000  0.66077000  1.0 -0.0710814429
C  C215  1  0.17796000  0.92808000  0.71284000  1.0 -0.0710814429
C  C216  1  0.00443000  0.64234000  0.57043000  1.0 0.0897126468
C  C217  1  0.02020000  0.68354000  0.64957000  1.0 -0.1313863872
C  C218  1  0.47751000  0.71155000  0.05763000  1.0 -0.017272749
C  C219  1  0.55954000  0.87527000  0.38983000  1.0 -0.017272749
C  C220  1  0.17544000  0.97234000  0.70398000  1.0 -0.017272749
C  C221  1  0.00748000  0.64256000  0.61798000  1.0 0.0097129126
C  C222  1  0.49112000  0.68723000  0.01533000  1.0 0.3979012491
C  C223  1  0.59258000  0.89638000  0.43666000  1.0 0.4534153612
C  C224  1  0.19556000  0.01460000  0.73988000  1.0 0.5496892802
C  C225  1  0.98459000  0.59864000  0.63049000  1.0 0.5387178085
C  C226  1  0.66138000  0.86899000  0.55596000  1.0 0.5496892802
C  C227  1  0.66861000  0.83140000  0.58278000  1.0 -0.0278627807
C  C228  1  0.63153000  0.80758000  0.59862000  1.0 -0.0710814429
C  C229  1  0.71337000  0.82243000  0.59475000  1.0 -0.0611236985
C  C230  1  0.63922000  0.77480000  0.62644000  1.0 -0.1597156959
C  C231  1  0.72107000  0.78964000  0.62257000  1.0 -0.1597156959
C  C232  1  0.68400000  0.76583000  0.63842000  1.0 0.1009633146
C  C233  1  0.69117000  0.73065000  0.67000000  1.0 0.0498105967
C  C234  1  0.65920000  0.71982000  0.69828000  1.0 -0.0487337094
C  C235  1  0.50220000  0.75780000  0.08200000  1.0 -0.0710814429
C  C236  1  0.42504000  0.71114000  0.11054000  1.0 -0.0125113473
C  C237  1  0.48830000  0.77665000  0.12265000  1.0 -0.0807282866
C  C238  1  0.43990000  0.69210000  0.07050000  1.0 0.0027815348
C  C239  1  0.02517000  0.68647000  0.55797000  1.0 0.0498105967
C  C240  1  0.02951000  0.64124000  0.57975000  1.0 -0.017272749
C  C241  1  0.48150000  0.85120000  0.34980000  1.0 0.0027815348
C  C242  1  0.51230000  0.87130000  0.39190000  1.0 0.0498105967
C  C243  1  0.67050000  0.73098000  0.70912000  1.0 -0.0407289972
C  C244  1  0.19722000  0.77078000  0.81759000  1.0 0.5387178085
C  C245  1  0.19788000  0.67982000  0.90492000  1.0 0.5387178085
C  C246  1  0.13567000  0.82341000  0.92014000  1.0 0.5387178085
C  C247  1  0.19871000  0.77233000  0.76667000  1.0 0.0097129126
C  C248  1  0.19537000  0.62787000  0.90421000  1.0 0.0097129126
C  C249  1  0.09935000  0.85261000  0.92888000  1.0 0.0097129126
C  C250  1  0.23574000  0.80189000  0.75633000  1.0 -0.0872339593
C  C251  1  0.16418000  0.74429000  0.73063000  1.0 -0.0872339593
C  C252  1  0.15440000  0.59991000  0.90909000  1.0 -0.0807282866
C  C253  1  0.23480000  0.60862000  0.90002000  1.0 -0.0807282866
C  C254  1  0.05926000  0.83208000  0.94261000  1.0 -0.0872339593
C  C255  1  0.10450000  0.89848000  0.92187000  1.0 -0.0807282866
C  C256  1  0.23826000  0.80342000  0.70995000  1.0 -0.1528553507
C  C257  1  0.16669000  0.74583000  0.68425000  1.0 -0.1597156959
C  C258  1  0.15285000  0.55268000  0.90978000  1.0 -0.1597156959
C  C259  1  0.23325000  0.56140000  0.90070000  1.0 -0.1528553507
C  C260  1  0.02434000  0.85744000  0.94935000  1.0 -0.1528553507
C  C261  1  0.06958000  0.92383000  0.92862000  1.0 -0.1528553507
C  C262  1  0.20374000  0.77539000  0.67392000  1.0 0.077131837
C  C263  1  0.19227000  0.53342000  0.90558000  1.0 0.0897126468
C  C264  1  0.02950000  0.90332000  0.94235000  1.0 0.070488085
C  C265  1  0.20590000  0.77575000  0.62304000  1.0 0.1009633146
C  C266  1  0.19104000  0.48211000  0.90682000  1.0 0.1079676616
C  C267  1  0.99231000  0.93085000  0.94931000  1.0 0.0897126468
C  C268  1  0.22512000  0.81660000  0.60974000  1.0 -0.1899800437
C  C269  1  0.18801000  0.73504000  0.58948000  1.0 -0.2095330348
C  C270  1  0.15083000  0.44847000  0.88680000  1.0 -0.1899800437
C  C271  1  0.23123000  0.46877000  0.92764000  1.0 -0.2095330348
C  C272  1  0.98343000  0.96505000  0.92339000  1.0 -0.1899800437
C  C273  1  0.22646000  0.81675000  0.56289000  1.0 0.1079676616
C  C274  1  0.18933000  0.73519000  0.54262000  1.0 0.0897126468
C  C275  1  0.15083000  0.40150000  0.88760000  1.0 0.1009633146
C  C276  1  0.23122000  0.42180000  0.92845000  1.0 0.0897126468
C  C277  1  0.20856000  0.77605000  0.52933000  1.0 -0.1899800437
C  C278  1  0.24727000  0.86138000  0.54878000  1.0 0.0289850437
C  C279  1  0.16581000  0.69198000  0.50543000  1.0 0.0498105967
C  C280  1  0.19102000  0.38816000  0.90842000  1.0 -0.1899800437
C  C281  1  0.10830000  0.36516000  0.86501000  1.0 0.070488085
C  C282  1  0.27555000  0.40728000  0.95060000  1.0 0.0570418459
C  C283  1  0.23879000  0.90493000  0.56726000  1.0 -0.0407289972
C  C284  1  0.27835000  0.85610000  0.51845000  1.0 -0.017272749
C  C285  1  0.13127000  0.65942000  0.51580000  1.0 -0.017272749
C  C286  1  0.17981000  0.68362000  0.46256000  1.0 -0.1899800437
C  C287  1  0.06382000  0.37287000  0.86713000  1.0 -0.1528553507
C  C288  1  0.11176000  0.32175000  0.84298000  1.0 -0.1597156959
C  C289  1  0.31940000  0.43320000  0.95070000  1.0 -0.0807282866
C  C290  1  0.27579000  0.36289000  0.95842000  1.0 -0.1899800437
C  C291  1  0.25960000  0.94450000  0.55290000  1.0 -0.0011705296
C  C292  1  0.30030000  0.89570000  0.50490000  1.0 -0.0407289972
C  C293  1  0.11073000  0.61852000  0.48331000  1.0 -0.017272749
C  C294  1  0.15926000  0.64272000  0.43008000  1.0 -0.140190634
C  C295  1  0.02391000  0.33923000  0.84723000  1.0 -0.0710814429
C  C296  1  0.07192000  0.28716000  0.82204000  1.0 -0.0710814429
C  C297  1  0.35766000  0.42957000  0.99557000  1.0 0.0897126468
C  C298  1  0.31646000  0.35043000  0.97980000  1.0 -0.1313863872
C  C299  1  0.28845000  0.94237000  0.52249000  1.0 -0.0125113473
C  C300  1  0.12473000  0.61017000  0.44046000  1.0 -0.017272749
C  C301  1  0.02766000  0.29602000  0.82456000  1.0 -0.017272749
C  C302  1  0.35744000  0.38202000  0.99252000  1.0 0.0097129126
C  C303  1  0.31277000  0.98467000  0.50888000  1.0 0.393976462
C  C304  1  0.10362000  0.56334000  0.40742000  1.0 0.4534153612
C  C305  1  0.98540000  0.26012000  0.80444000  1.0 0.5496892802
C  C306  1  0.40136000  0.36951000  0.01541000  1.0 0.5387178085
C  C307  1  0.13101000  0.44404000  0.33862000  1.0 0.5496892802
C  C308  1  0.16860000  0.41722000  0.33139000  1.0 -0.0278627807
C  C309  1  0.19242000  0.40138000  0.36847000  1.0 -0.0710814429
C  C310  1  0.17757000  0.40525000  0.28663000  1.0 -0.0710814429
C  C311  1  0.22520000  0.37356000  0.36078000  1.0 -0.1528553507
C  C312  1  0.21036000  0.37743000  0.27893000  1.0 -0.1656978009
C  C313  1  0.23417000  0.36158000  0.31600000  1.0 0.1009633146
C  C314  1  0.26935000  0.33000000  0.30883000  1.0 0.0439295542
C  C315  1  0.28018000  0.30172000  0.34080000  1.0 -0.0487337094
C  C316  1  0.24220000  0.91800000  0.49780000  1.0 -0.0710814429
C  C317  1  0.28886000  0.88946000  0.57496000  1.0 -0.0125113473
C  C318  1  0.22335000  0.87735000  0.51170000  1.0 -0.0710814429
C  C319  1  0.30790000  0.92950000  0.56010000  1.0 -0.0011705296
C  C320  1  0.31353000  0.44203000  0.97483000  1.0 0.0498105967
C  C321  1  0.35876000  0.42025000  0.97049000  1.0 -0.017272749
C  C322  1  0.14880000  0.65020000  0.51850000  1.0 0.0097129126
C  C323  1  0.12870000  0.60810000  0.48770000  1.0 0.0498105967
C  C324  1  0.26902000  0.29088000  0.32950000  1.0 -0.0407289972
C  C325  1  0.77078000  0.81759000  0.19722000  1.0 0.5387178085
C  C326  1  0.67982000  0.90492000  0.19788000  1.0 0.5387178085
C  C327  1  0.82341000  0.92014000  0.13567000  1.0 0.5387178085
C  C328  1  0.77233000  0.76667000  0.19871000  1.0 0.0097129126
C  C329  1  0.62787000  0.90421000  0.19537000  1.0 0.0097129126
C  C330  1  0.85261000  0.92888000  0.09935000  1.0 0.0097129126
C  C331  1  0.80189000  0.75633000  0.23574000  1.0 -0.0872339593
C  C332  1  0.74429000  0.73063000  0.16418000  1.0 -0.0872339593
C  C333  1  0.59991000  0.90909000  0.15440000  1.0 -0.0807282866
C  C334  1  0.60862000  0.90002000  0.23480000  1.0 -0.0807282866
C  C335  1  0.83208000  0.94261000  0.05926000  1.0 -0.0872339593
C  C336  1  0.89848000  0.92187000  0.10450000  1.0 -0.0807282866
C  C337  1  0.80342000  0.70995000  0.23826000  1.0 -0.1528553507
C  C338  1  0.74583000  0.68425000  0.16669000  1.0 -0.1597156959
C  C339  1  0.55268000  0.90978000  0.15285000  1.0 -0.1528553507
C  C340  1  0.56140000  0.90070000  0.23325000  1.0 -0.1528553507
C  C341  1  0.85744000  0.94935000  0.02434000  1.0 -0.1528553507
C  C342  1  0.92383000  0.92862000  0.06958000  1.0 -0.1528553507
C  C343  1  0.77539000  0.67392000  0.20374000  1.0 0.077131837
C  C344  1  0.53342000  0.90558000  0.19227000  1.0 0.0897126468
C  C345  1  0.90332000  0.94235000  0.02950000  1.0 0.070488085
C  C346  1  0.77575000  0.62304000  0.20590000  1.0 0.1009633146
C  C347  1  0.48211000  0.90682000  0.19104000  1.0 0.1079676616
C  C348  1  0.93085000  0.94931000  0.99231000  1.0 0.0897126468
C  C349  1  0.81660000  0.60974000  0.22512000  1.0 -0.1899800437
C  C350  1  0.73504000  0.58948000  0.18801000  1.0 -0.2095330348
C  C351  1  0.44847000  0.88680000  0.15083000  1.0 -0.1899800437
C  C352  1  0.46877000  0.92764000  0.23123000  1.0 -0.2095330348
C  C353  1  0.96505000  0.92339000  0.98343000  1.0 -0.1899800437
C  C354  1  0.81675000  0.56289000  0.22646000  1.0 0.1079676616
C  C355  1  0.73519000  0.54262000  0.18933000  1.0 0.0897126468
C  C356  1  0.40150000  0.88760000  0.15083000  1.0 0.1009633146
C  C357  1  0.42180000  0.92845000  0.23122000  1.0 0.0897126468
C  C358  1  0.77605000  0.52933000  0.20856000  1.0 -0.1899800437
C  C359  1  0.86138000  0.54878000  0.24727000  1.0 0.0289850437
C  C360  1  0.69198000  0.50543000  0.16581000  1.0 0.0498105967
C  C361  1  0.38816000  0.90842000  0.19102000  1.0 -0.1899800437
C  C362  1  0.36516000  0.86501000  0.10830000  1.0 0.077131837
C  C363  1  0.40728000  0.95060000  0.27555000  1.0 0.0498105967
C  C364  1  0.90493000  0.56726000  0.23879000  1.0 -0.0407289972
C  C365  1  0.85610000  0.51845000  0.27835000  1.0 -0.017272749
C  C366  1  0.65942000  0.51580000  0.13127000  1.0 -0.017272749
C  C367  1  0.68362000  0.46256000  0.17981000  1.0 -0.1899800437
C  C368  1  0.37287000  0.86713000  0.06382000  1.0 -0.1528553507
C  C369  1  0.32175000  0.84298000  0.11176000  1.0 -0.1597156959
C  C370  1  0.43320000  0.95070000  0.31940000  1.0 -0.0807282866
C  C371  1  0.36289000  0.95842000  0.27579000  1.0 -0.1899800437
C  C372  1  0.94450000  0.55290000  0.25960000  1.0 -0.0011705296
C  C373  1  0.89570000  0.50490000  0.30030000  1.0 -0.0407289972
C  C374  1  0.61852000  0.48331000  0.11073000  1.0 -0.017272749
C  C375  1  0.64272000  0.43008000  0.15926000  1.0 -0.140190634
C  C376  1  0.33923000  0.84723000  0.02391000  1.0 -0.0710814429
C  C377  1  0.28716000  0.82204000  0.07192000  1.0 -0.0710814429
C  C378  1  0.42957000  0.99557000  0.35766000  1.0 0.0897126468
C  C379  1  0.35043000  0.97980000  0.31646000  1.0 -0.1313863872
C  C380  1  0.94237000  0.52249000  0.28845000  1.0 -0.0125113473
C  C381  1  0.61017000  0.44046000  0.12473000  1.0 -0.017272749
C  C382  1  0.29602000  0.82456000  0.02766000  1.0 -0.017272749
C  C383  1  0.38202000  0.99252000  0.35744000  1.0 0.0097129126
C  C384  1  0.98467000  0.50888000  0.31277000  1.0 0.393976462
C  C385  1  0.56334000  0.40742000  0.10362000  1.0 0.4534153612
C  C386  1  0.26012000  0.80444000  0.98540000  1.0 0.5496892802
C  C387  1  0.36951000  0.01541000  0.40136000  1.0 0.5387178085
C  C388  1  0.44404000  0.33862000  0.13101000  1.0 0.5496892802
C  C389  1  0.41722000  0.33139000  0.16860000  1.0 -0.0278627807
C  C390  1  0.40138000  0.36847000  0.19242000  1.0 -0.0710814429
C  C391  1  0.40525000  0.28663000  0.17757000  1.0 -0.0710814429
C  C392  1  0.37356000  0.36078000  0.22520000  1.0 -0.1597156959
C  C393  1  0.37743000  0.27893000  0.21036000  1.0 -0.1597156959
C  C394  1  0.36158000  0.31600000  0.23417000  1.0 0.1009633146
C  C395  1  0.33000000  0.30883000  0.26935000  1.0 0.0439295542
C  C396  1  0.30172000  0.34080000  0.28018000  1.0 -0.0407289972
C  C397  1  0.91800000  0.49780000  0.24220000  1.0 -0.0710814429
C  C398  1  0.88946000  0.57496000  0.28886000  1.0 -0.0125113473
C  C399  1  0.87735000  0.51170000  0.22335000  1.0 -0.0807282866
C  C400  1  0.92950000  0.56010000  0.30790000  1.0 0.0027815348
C  C401  1  0.44203000  0.97483000  0.31353000  1.0 0.0570418459
C  C402  1  0.42025000  0.97049000  0.35876000  1.0 -0.017272749
C  C403  1  0.65020000  0.51850000  0.14880000  1.0 0.0027815348
C  C404  1  0.60810000  0.48770000  0.12870000  1.0 0.0498105967
C  C405  1  0.29088000  0.32950000  0.26902000  1.0 -0.0278627807
C  C406  1  0.81759000  0.19722000  0.77078000  1.0 0.5387178085
C  C407  1  0.90492000  0.19788000  0.67982000  1.0 0.5387178085
C  C408  1  0.92014000  0.13567000  0.82341000  1.0 0.5387178085
C  C409  1  0.76667000  0.19871000  0.77233000  1.0 0.0097129126
C  C410  1  0.90421000  0.19537000  0.62787000  1.0 0.0097129126
C  C411  1  0.92888000  0.09935000  0.85261000  1.0 0.0097129126
C  C412  1  0.75633000  0.23574000  0.80189000  1.0 -0.0872339593
C  C413  1  0.73063000  0.16418000  0.74429000  1.0 -0.0872339593
C  C414  1  0.90909000  0.15440000  0.59991000  1.0 -0.0807282866
C  C415  1  0.90002000  0.23480000  0.60862000  1.0 -0.0807282866
C  C416  1  0.94261000  0.05926000  0.83208000  1.0 -0.0872339593
C  C417  1  0.92187000  0.10450000  0.89848000  1.0 -0.0807282866
C  C418  1  0.70995000  0.23826000  0.80342000  1.0 -0.1528553507
C  C419  1  0.68425000  0.16669000  0.74583000  1.0 -0.1597156959
C  C420  1  0.90978000  0.15285000  0.55268000  1.0 -0.1528553507
C  C421  1  0.90070000  0.23325000  0.56140000  1.0 -0.1528553507
C  C422  1  0.94935000  0.02434000  0.85744000  1.0 -0.1528553507
C  C423  1  0.92862000  0.06958000  0.92383000  1.0 -0.1528553507
C  C424  1  0.67392000  0.20374000  0.77539000  1.0 0.077131837
C  C425  1  0.90558000  0.19227000  0.53342000  1.0 0.0897126468
C  C426  1  0.94235000  0.02950000  0.90332000  1.0 0.070488085
C  C427  1  0.62304000  0.20590000  0.77575000  1.0 0.1009633146
C  C428  1  0.90682000  0.19104000  0.48211000  1.0 0.1079676616
C  C429  1  0.94931000  0.99231000  0.93085000  1.0 0.0897126468
C  C430  1  0.60974000  0.22512000  0.81660000  1.0 -0.1899800437
C  C431  1  0.58948000  0.18801000  0.73504000  1.0 -0.2095330348
C  C432  1  0.88680000  0.15083000  0.44847000  1.0 -0.1899800437
C  C433  1  0.92764000  0.23123000  0.46877000  1.0 -0.2095330348
C  C434  1  0.92339000  0.98343000  0.96505000  1.0 -0.1899800437
C  C435  1  0.56289000  0.22646000  0.81675000  1.0 0.1079676616
C  C436  1  0.54262000  0.18933000  0.73519000  1.0 0.0897126468
C  C437  1  0.88760000  0.15083000  0.40150000  1.0 0.1009633146
C  C438  1  0.92845000  0.23122000  0.42180000  1.0 0.0897126468
C  C439  1  0.52933000  0.20856000  0.77605000  1.0 -0.1899800437
C  C440  1  0.54878000  0.24727000  0.86138000  1.0 0.0289850437
C  C441  1  0.50543000  0.16581000  0.69198000  1.0 0.0498105967
C  C442  1  0.90842000  0.19102000  0.38816000  1.0 -0.1899800437
C  C443  1  0.86501000  0.10830000  0.36516000  1.0 0.077131837
C  C444  1  0.95060000  0.27555000  0.40728000  1.0 0.0570418459
C  C445  1  0.56726000  0.23879000  0.90493000  1.0 -0.0407289972
C  C446  1  0.51845000  0.27835000  0.85610000  1.0 -0.0125113473
C  C447  1  0.51580000  0.13127000  0.65942000  1.0 -0.017272749
C  C448  1  0.46256000  0.17981000  0.68362000  1.0 -0.1899800437
C  C449  1  0.86713000  0.06382000  0.37287000  1.0 -0.1528553507
C  C450  1  0.84298000  0.11176000  0.32175000  1.0 -0.1597156959
C  C451  1  0.95070000  0.31940000  0.43320000  1.0 -0.0807282866
C  C452  1  0.95842000  0.27579000  0.36289000  1.0 -0.1849465398
C  C453  1  0.55290000  0.25960000  0.94450000  1.0 -0.0011705296
C  C454  1  0.50490000  0.30030000  0.89570000  1.0 -0.0407289972
C  C455  1  0.48331000  0.11073000  0.61852000  1.0 -0.017272749
C  C456  1  0.43008000  0.15926000  0.64272000  1.0 -0.140190634
C  C457  1  0.84723000  0.02391000  0.33923000  1.0 -0.0710814429
C  C458  1  0.82204000  0.07192000  0.28716000  1.0 -0.0710814429
C  C459  1  0.99557000  0.35766000  0.42957000  1.0 0.0897126468
C  C460  1  0.97980000  0.31646000  0.35043000  1.0 -0.1313863872
C  C461  1  0.52249000  0.28845000  0.94237000  1.0 -0.017272749
C  C462  1  0.44046000  0.12473000  0.61017000  1.0 -0.017272749
C  C463  1  0.82456000  0.02766000  0.29602000  1.0 -0.017272749
C  C464  1  0.99252000  0.35744000  0.38202000  1.0 0.0097129126
C  C465  1  0.50888000  0.31277000  0.98467000  1.0 0.393976462
C  C466  1  0.40742000  0.10362000  0.56334000  1.0 0.4534153612
C  C467  1  0.80444000  0.98540000  0.26012000  1.0 0.5496892802
C  C468  1  0.01541000  0.40136000  0.36951000  1.0 0.5387178085
C  C469  1  0.33862000  0.13101000  0.44404000  1.0 0.5496892802
C  C470  1  0.33139000  0.16860000  0.41722000  1.0 -0.0278627807
C  C471  1  0.36847000  0.19242000  0.40138000  1.0 -0.0710814429
C  C472  1  0.28663000  0.17757000  0.40525000  1.0 -0.0710814429
C  C473  1  0.36078000  0.22520000  0.37356000  1.0 -0.1597156959
C  C474  1  0.27893000  0.21036000  0.37743000  1.0 -0.1597156959
C  C475  1  0.31600000  0.23417000  0.36158000  1.0 0.0897126468
C  C476  1  0.30883000  0.26935000  0.33000000  1.0 0.0498105967
C  C477  1  0.34080000  0.28018000  0.30172000  1.0 -0.0487337094
C  C478  1  0.49780000  0.24220000  0.91800000  1.0 -0.0710814429
C  C479  1  0.57496000  0.28886000  0.88946000  1.0 -0.0125113473
C  C480  1  0.51170000  0.22335000  0.87735000  1.0 -0.0710814429
C  C481  1  0.56010000  0.30790000  0.92950000  1.0 0.0027815348
C  C482  1  0.97483000  0.31353000  0.44203000  1.0 0.0498105967
C  C483  1  0.97049000  0.35876000  0.42025000  1.0 -0.017272749
C  C484  1  0.51850000  0.14880000  0.65020000  1.0 0.0027815348
C  C485  1  0.48770000  0.12870000  0.60810000  1.0 0.0498105967
C  C486  1  0.32950000  0.26902000  0.29088000  1.0 -0.0278627807
O  O1  1  0.76881000  0.20787000  0.15109000  1.0 -0.5123447647
O  O2  1  0.83896000  0.25160000  0.17197000  1.0 -0.5419893208
O  O3  1  0.83771000  0.30328000  0.08872000  1.0 -0.5191809086
O  O4  1  0.76660000  0.29492000  0.10183000  1.0 -0.5315373976
O  O5  1  0.87292000  0.21968000  0.07894000  1.0 -0.5191809086
O  O6  1  0.82556000  0.15756000  0.08729000  1.0 -0.5315373976
O  O7  1  0.77961000  0.21884000  0.01268000  1.0 -0.5315373976
O  O8  1  0.73192000  0.18976000  0.05453000  1.0 -0.5123447647
O  O9  1  0.70313000  0.97869000  0.49068000  1.0 -0.0710814429
O  O10  1  0.64462000  0.99872000  0.47642000  1.0 -0.0487337094
O  O11  1  0.93069000  0.46274000  0.58439000  1.0 -0.0710814429
O  O12  1  0.88885000  0.44250000  0.63333000  1.0 -0.4615214048
O  O13  1  0.56203000  0.59924000  0.97199000  1.0 -0.5123447647
O  O14  1  0.59822000  0.67067000  0.97792000  1.0 -0.4843347697
O  O15  1  0.87662000  0.54530000  0.61971000  1.0 -0.5526128241
O  O16  1  0.89366000  0.54319000  0.69400000  1.0 -0.5191809086
O  O17  1  0.91538000  0.46975000  0.57592000  1.0 -0.0487337094
O  O18  1  0.71290000  0.99340000  0.51360000  1.0 -0.0611236985
O  O19  1  0.64944000  0.01804000  0.50472000  1.0 -0.0710814429
O  O20  1  0.20787000  0.15109000  0.76881000  1.0 -0.5123447647
O  O21  1  0.25160000  0.17197000  0.83896000  1.0 -0.5419893208
O  O22  1  0.30328000  0.08872000  0.83771000  1.0 -0.5123447647
O  O23  1  0.29492000  0.10183000  0.76660000  1.0 -0.5315373976
O  O24  1  0.21968000  0.07894000  0.87292000  1.0 -0.5191809086
O  O25  1  0.15756000  0.08729000  0.82556000  1.0 -0.5315373976
O  O26  1  0.21884000  0.01268000  0.77961000  1.0 -0.5315373976
O  O27  1  0.18976000  0.05453000  0.73192000  1.0 -0.5123447647
O  O28  1  0.97869000  0.49068000  0.70313000  1.0 -0.0611236985
O  O29  1  0.99872000  0.47642000  0.64462000  1.0 -0.0487337094
O  O30  1  0.46274000  0.58439000  0.93069000  1.0 -0.0710814429
O  O31  1  0.44250000  0.63333000  0.88885000  1.0 -0.4615214048
O  O32  1  0.59924000  0.97199000  0.56203000  1.0 -0.5123447647
O  O33  1  0.67067000  0.97792000  0.59822000  1.0 -0.4843347697
O  O34  1  0.54530000  0.61971000  0.87662000  1.0 -0.5526128241
O  O35  1  0.54319000  0.69400000  0.89366000  1.0 -0.5191809086
O  O36  1  0.46975000  0.57592000  0.91538000  1.0 -0.0487337094
O  O37  1  0.99340000  0.51360000  0.71290000  1.0 -0.0611236985
O  O38  1  0.01804000  0.50472000  0.64944000  1.0 -0.0710814429
O  O39  1  0.15109000  0.76881000  0.20787000  1.0 -0.5123447647
O  O40  1  0.17197000  0.83896000  0.25160000  1.0 -0.5419893208
O  O41  1  0.08872000  0.83771000  0.30328000  1.0 -0.5191809086
O  O42  1  0.10183000  0.76660000  0.29492000  1.0 -0.5315373976
O  O43  1  0.07894000  0.87292000  0.21968000  1.0 -0.5191809086
O  O44  1  0.08729000  0.82556000  0.15756000  1.0 -0.5315373976
O  O45  1  0.01268000  0.77961000  0.21884000  1.0 -0.5315373976
O  O46  1  0.05453000  0.73192000  0.18976000  1.0 -0.5123447647
O  O47  1  0.49068000  0.70313000  0.97869000  1.0 -0.0611236985
O  O48  1  0.47642000  0.64462000  0.99872000  1.0 -0.0487337094
O  O49  1  0.58439000  0.93069000  0.46274000  1.0 -0.0611236985
O  O50  1  0.63333000  0.88885000  0.44250000  1.0 -0.4615214048
O  O51  1  0.97199000  0.56203000  0.59924000  1.0 -0.5123447647
O  O52  1  0.97792000  0.59822000  0.67067000  1.0 -0.4843347697
O  O53  1  0.61971000  0.87662000  0.54530000  1.0 -0.5526128241
O  O54  1  0.69400000  0.89366000  0.54319000  1.0 -0.5315373976
O  O55  1  0.57592000  0.91538000  0.46975000  1.0 -0.0407289972
O  O56  1  0.51360000  0.71290000  0.99340000  1.0 -0.0611236985
O  O57  1  0.50472000  0.64944000  0.01804000  1.0 -0.0710814429
O  O58  1  0.23119000  0.79213000  0.84891000  1.0 -0.5123447647
O  O59  1  0.16104000  0.74840000  0.82803000  1.0 -0.5419893208
O  O60  1  0.16229000  0.69672000  0.91128000  1.0 -0.5191809086
O  O61  1  0.23340000  0.70508000  0.89817000  1.0 -0.5315373976
O  O62  1  0.12708000  0.78032000  0.92106000  1.0 -0.5191809086
O  O63  1  0.17444000  0.84244000  0.91271000  1.0 -0.5315373976
O  O64  1  0.22039000  0.78116000  0.98732000  1.0 -0.5315373976
O  O65  1  0.26808000  0.81024000  0.94547000  1.0 -0.5123447647
O  O66  1  0.29687000  0.02131000  0.50932000  1.0 -0.0611236985
O  O67  1  0.35538000  0.00128000  0.52358000  1.0 -0.0487337094
O  O68  1  0.06931000  0.53726000  0.41561000  1.0 -0.0611236985
O  O69  1  0.11115000  0.55750000  0.36667000  1.0 -0.4615214048
O  O70  1  0.43797000  0.40076000  0.02801000  1.0 -0.5123447647
O  O71  1  0.40178000  0.32933000  0.02208000  1.0 -0.4843347697
O  O72  1  0.12338000  0.45470000  0.38029000  1.0 -0.5526128241
O  O73  1  0.10634000  0.45681000  0.30600000  1.0 -0.5191809086
O  O74  1  0.08462000  0.53025000  0.42408000  1.0 -0.0407289972
O  O75  1  0.28710000  0.00660000  0.48640000  1.0 -0.0611236985
O  O76  1  0.35056000  0.98196000  0.49528000  1.0 -0.0710814429
O  O77  1  0.79213000  0.84891000  0.23119000  1.0 -0.5123447647
O  O78  1  0.74840000  0.82803000  0.16104000  1.0 -0.5419893208
O  O79  1  0.69672000  0.91128000  0.16229000  1.0 -0.5191809086
O  O80  1  0.70508000  0.89817000  0.23340000  1.0 -0.5419893208
O  O81  1  0.78032000  0.92106000  0.12708000  1.0 -0.5191809086
O  O82  1  0.84244000  0.91271000  0.17444000  1.0 -0.5315373976
O  O83  1  0.78116000  0.98732000  0.22039000  1.0 -0.5315373976
O  O84  1  0.81024000  0.94547000  0.26808000  1.0 -0.5123447647
O  O85  1  0.02131000  0.50932000  0.29687000  1.0 -0.0611236985
O  O86  1  0.00128000  0.52358000  0.35538000  1.0 -0.0487337094
O  O87  1  0.53726000  0.41561000  0.06931000  1.0 -0.0611236985
O  O88  1  0.55750000  0.36667000  0.11115000  1.0 -0.4615214048
O  O89  1  0.40076000  0.02801000  0.43797000  1.0 -0.5123447647
O  O90  1  0.32933000  0.02208000  0.40178000  1.0 -0.4843347697
O  O91  1  0.45470000  0.38029000  0.12338000  1.0 -0.5526128241
O  O92  1  0.45681000  0.30600000  0.10634000  1.0 -0.5315373976
O  O93  1  0.53025000  0.42408000  0.08462000  1.0 -0.0487337094
O  O94  1  0.00660000  0.48640000  0.28710000  1.0 -0.0611236985
O  O95  1  0.98196000  0.49528000  0.35056000  1.0 -0.0710814429
O  O96  1  0.84891000  0.23119000  0.79213000  1.0 -0.5123447647
O  O97  1  0.82803000  0.16104000  0.74840000  1.0 -0.5419893208
O  O98  1  0.91128000  0.16229000  0.69672000  1.0 -0.5191809086
O  O99  1  0.89817000  0.23340000  0.70508000  1.0 -0.5315373976
O  O100  1  0.92106000  0.12708000  0.78032000  1.0 -0.5191809086
O  O101  1  0.91271000  0.17444000  0.84244000  1.0 -0.5315373976
O  O102  1  0.98732000  0.22039000  0.78116000  1.0 -0.5315373976
O  O103  1  0.94547000  0.26808000  0.81024000  1.0 -0.5123447647
O  O104  1  0.50932000  0.29687000  0.02131000  1.0 -0.0611236985
O  O105  1  0.52358000  0.35538000  0.00128000  1.0 -0.0487337094
O  O106  1  0.41561000  0.06931000  0.53726000  1.0 -0.0611236985
O  O107  1  0.36667000  0.11115000  0.55750000  1.0 -0.4615214048
O  O108  1  0.02801000  0.43797000  0.40076000  1.0 -0.5123447647
O  O109  1  0.02208000  0.40178000  0.32933000  1.0 -0.4843347697
O  O110  1  0.38029000  0.12338000  0.45470000  1.0 -0.5526128241
O  O111  1  0.30600000  0.10634000  0.45681000  1.0 -0.5191809086
O  O112  1  0.42408000  0.08462000  0.53025000  1.0 -0.0407289972
O  O113  1  0.48640000  0.28710000  0.00660000  1.0 -0.0611236985
O  O114  1  0.49528000  0.35056000  0.98196000  1.0 -0.0710814429
