# DDEC6 charges by PACMAN v1.1 (https://github.com/mtap-research/PACMAN-charge/)
data_CIFLUA_FSR_pacman
_symmetry_space_group_name_H-M   'P 1'
_cell_length_a   18.49000000
_cell_length_b   27.50900000
_cell_length_c   22.86000000
_cell_angle_alpha   90.00000000
_cell_angle_beta   123.23000000
_cell_angle_gamma   90.00000000
_symmetry_Int_Tables_number   1
_chemical_formula_structural   Co3H53C65N2O15
_chemical_formula_sum   'Co12 H212 C260 N8 O60'
_cell_volume   9726.17773824
_cell_formula_units_Z   4
loop_
 _symmetry_equiv_pos_site_id
 _symmetry_equiv_pos_as_xyz
  1  'x, y, z'
loop_
 _atom_site_type_symbol
 _atom_site_label
 _atom_site_symmetry_multiplicity
 _atom_site_fract_x
 _atom_site_fract_y
 _atom_site_fract_z
 _atom_site_occupancy
 _atom_site_charge
Co  Co1  1  0.63885000  0.64638000  0.19276000  1.0 0.9231111694
Co  Co2  1  0.36115000  0.14638000  0.30724000  1.0 0.9231111694
Co  Co3  1  0.60981000  0.64471000  0.94525000  1.0 0.9597654778
Co  Co4  1  0.39019000  0.14471000  0.55475000  1.0 0.9597654778
Co  Co5  1  0.75401000  0.65964000  0.12383000  1.0 0.9597654778
Co  Co6  1  0.24599000  0.15964000  0.37617000  1.0 0.9597654778
Co  Co7  1  0.36115000  0.35362000  0.80724000  1.0 0.9231111694
Co  Co8  1  0.63885000  0.85362000  0.69276000  1.0 0.9231111694
Co  Co9  1  0.39019000  0.35529000  0.05475000  1.0 0.9597654778
Co  Co10  1  0.60981000  0.85529000  0.44525000  1.0 0.9597654778
Co  Co11  1  0.24599000  0.34036000  0.87617000  1.0 0.9597654778
Co  Co12  1  0.75401000  0.84036000  0.62383000  1.0 0.9597654778
H  H1  1  0.39980000  0.63130000  0.19840000  1.0 0.1197221257
H  H2  1  0.60020000  0.13130000  0.30160000  1.0 0.1197221257
H  H3  1  0.28710000  0.59300000  0.19660000  1.0 0.1292722804
H  H4  1  0.71290000  0.09300000  0.30340000  1.0 0.1292722804
H  H5  1  0.13870000  0.55800000  0.11790000  1.0 0.1292722804
H  H6  1  0.86130000  0.05800000  0.38210000  1.0 0.1292722804
H  H7  1  0.98760000  0.55080000  0.01260000  1.0 0.1197221257
H  H8  1  0.01240000  0.05080000  0.48740000  1.0 0.1197221257
H  H9  1  0.85850000  0.59030000  0.96330000  1.0 0.1197221257
H  H10  1  0.14150000  0.09030000  0.53670000  1.0 0.1197221257
H  H11  1  0.39090000  0.63410000  0.71410000  1.0 0.1197221257
H  H12  1  0.60910000  0.13410000  0.78590000  1.0 0.1197221257
H  H13  1  0.28740000  0.59430000  0.60830000  1.0 0.1197221257
H  H14  1  0.71260000  0.09430000  0.89170000  1.0 0.1197221257
H  H15  1  0.14380000  0.55680000  0.53540000  1.0 0.1197221257
H  H16  1  0.85620000  0.05680000  0.96460000  1.0 0.1197221257
H  H17  1  0.98540000  0.54990000  0.46910000  1.0 0.1197221257
H  H18  1  0.01460000  0.04990000  0.03090000  1.0 0.1197221257
H  H19  1  0.85920000  0.58540000  0.38290000  1.0 0.1197221257
H  H20  1  0.14080000  0.08540000  0.11710000  1.0 0.1197221257
H  H21  1  0.29880000  0.44090000  0.61560000  1.0 0.1292722804
H  H22  1  0.70120000  0.94090000  0.88440000  1.0 0.1292722804
H  H23  1  0.11480000  0.37150000  0.23840000  1.0 0.1197221257
H  H24  1  0.88520000  0.87150000  0.26160000  1.0 0.1197221257
H  H25  1  0.14470000  0.29130000  0.27220000  1.0 0.11159642
H  H26  1  0.85530000  0.79130000  0.22780000  1.0 0.11159642
H  H27  1  0.29200000  0.28300000  0.19490000  1.0 0.1359933007
H  H28  1  0.70800000  0.78300000  0.30510000  1.0 0.1359933007
H  H29  1  0.25740000  0.36200000  0.15710000  1.0 0.1292722804
H  H30  1  0.74260000  0.86200000  0.34290000  1.0 0.1292722804
H  H31  1  0.43530000  0.51110000  0.11730000  1.0 0.1292722804
H  H32  1  0.56470000  0.01110000  0.38270000  1.0 0.1292722804
H  H33  1  0.32590000  0.47320000  0.11890000  1.0 0.1292722804
H  H34  1  0.67410000  0.97320000  0.38110000  1.0 0.1292722804
H  H35  1  0.28710000  0.44000000  0.19120000  1.0 0.1292722804
H  H36  1  0.71290000  0.94000000  0.30880000  1.0 0.1292722804
H  H37  1  0.04610000  0.43510000  0.15000000  1.0 0.1292722804
H  H38  1  0.95390000  0.93510000  0.35000000  1.0 0.1197221257
H  H39  1  0.83750000  0.54820000  0.12000000  1.0 0.1292722804
H  H40  1  0.16250000  0.04820000  0.38000000  1.0 0.1292722804
H  H41  1  0.96310000  0.50460000  0.16770000  1.0 0.1197221257
H  H42  1  0.03690000  0.00460000  0.33230000  1.0 0.1197221257
H  H43  1  0.91350000  0.54010000  0.24250000  1.0 0.1197221257
H  H44  1  0.08650000  0.04010000  0.25750000  1.0 0.1197221257
H  H45  1  0.03910000  0.50540000  0.33280000  1.0 0.1292722804
H  H46  1  0.96090000  0.00540000  0.16720000  1.0 0.1292722804
H  H47  1  0.09440000  0.43680000  0.42050000  1.0 0.1197221257
H  H48  1  0.90560000  0.93680000  0.07950000  1.0 0.1197221257
H  H49  1  0.31430000  0.47520000  0.72060000  1.0 0.1197221257
H  H50  1  0.68570000  0.97520000  0.77940000  1.0 0.1197221257
H  H51  1  0.41780000  0.51360000  0.82010000  1.0 0.1292722804
H  H52  1  0.58220000  0.01360000  0.67990000  1.0 0.1292722804
H  H53  1  0.27490000  0.35880000  0.61350000  1.0 0.1292722804
H  H54  1  0.72510000  0.85880000  0.88650000  1.0 0.1292722804
H  H55  1  0.31190000  0.28170000  0.60440000  1.0 0.1359933007
H  H56  1  0.68810000  0.78170000  0.89560000  1.0 0.1359933007
H  H57  1  0.21870000  0.30320000  0.40210000  1.0 0.1197221257
H  H58  1  0.78130000  0.80320000  0.09790000  1.0 0.1197221257
H  H59  1  0.17770000  0.38070000  0.40880000  1.0 0.11159642
H  H60  1  0.82230000  0.88070000  0.09120000  1.0 0.11159642
H  H61  1  0.50860000  0.66820000  0.05030000  1.0 0.11159642
H  H62  1  0.49140000  0.16820000  0.44970000  1.0 0.11159642
H  H63  1  0.92250000  0.66600000  0.24150000  1.0 0.1197221257
H  H64  1  0.07750000  0.16600000  0.25850000  1.0 0.1197221257
H  H65  1  0.11570000  0.65940000  0.22450000  1.0 0.0502290263
H  H66  1  0.88430000  0.15940000  0.27550000  1.0 0.0502290263
H  H67  1  0.02460000  0.63920000  0.16610000  1.0 0.0699824993
H  H68  1  0.97540000  0.13920000  0.33390000  1.0 0.0699824993
H  H69  1  0.14580000  0.59160000  0.29250000  1.0 0.1001486543
H  H70  1  0.85420000  0.09160000  0.20750000  1.0 0.1001486543
H  H71  1  0.10680000  0.57120000  0.21680000  1.0 0.0891328405
H  H72  1  0.89320000  0.07120000  0.28320000  1.0 0.0891328405
H  H73  1  0.04930000  0.57410000  0.24770000  1.0 0.11159642
H  H74  1  0.95070000  0.07410000  0.25230000  1.0 0.11159642
H  H75  1  0.14090000  0.68040000  0.33340000  1.0 0.0502290263
H  H76  1  0.85910000  0.18040000  0.16660000  1.0 0.0502290263
H  H77  1  0.11490000  0.62560000  0.32640000  1.0 0.080560255
H  H78  1  0.88510000  0.12560000  0.17360000  1.0 0.080560255
H  H79  1  0.06010000  0.70070000  0.37670000  1.0 0.1292722804
H  H80  1  0.93990000  0.20070000  0.12330000  1.0 0.1292722804
H  H81  1  0.10490000  0.65200000  0.41500000  1.0 0.1487240444
H  H82  1  0.89510000  0.15200000  0.08500000  1.0 0.1487240444
H  H83  1  0.00820000  0.65180000  0.35170000  1.0 0.1197221257
H  H84  1  0.99180000  0.15180000  0.14830000  1.0 0.1197221257
H  H85  1  0.89690000  0.72650000  0.17520000  1.0 0.1197221257
H  H86  1  0.10310000  0.22650000  0.32480000  1.0 0.1197221257
H  H87  1  0.05010000  0.70430000  0.13770000  1.0 0.1001486543
H  H88  1  0.94990000  0.20430000  0.36230000  1.0 0.1001486543
H  H89  1  0.98930000  0.65960000  0.12220000  1.0 0.0891328405
H  H90  1  0.01070000  0.15960000  0.37780000  1.0 0.0891328405
H  H91  1  0.13060000  0.64790000  0.25190000  1.0 0.0699824993
H  H92  1  0.86940000  0.14790000  0.24810000  1.0 0.0699824993
H  H93  1  0.16190000  0.65840000  0.20180000  1.0 0.0699824993
H  H94  1  0.83810000  0.15840000  0.29820000  1.0 0.0699824993
H  H95  1  0.10120000  0.61400000  0.18750000  1.0 0.043171101
H  H96  1  0.89880000  0.11400000  0.31250000  1.0 0.043171101
H  H97  1  0.03280000  0.77090000  0.20220000  1.0 0.11159642
H  H98  1  0.96720000  0.27090000  0.29780000  1.0 0.11159642
H  H99  1  0.11160000  0.73700000  0.22260000  1.0 0.1001486543
H  H100  1  0.88840000  0.23700000  0.27740000  1.0 0.1001486543
H  H101  1  0.05270000  0.76100000  0.31000000  1.0 0.1197221257
H  H102  1  0.94730000  0.26100000  0.19000000  1.0 0.1197221257
H  H103  1  0.14480000  0.77220000  0.32540000  1.0 0.1292722804
H  H104  1  0.85520000  0.27220000  0.17460000  1.0 0.1292722804
H  H105  1  0.11890000  0.71860000  0.32960000  1.0 0.043171101
H  H106  1  0.88110000  0.21860000  0.17040000  1.0 0.043171101
H  H107  1  0.60020000  0.36870000  0.80160000  1.0 0.1197221257
H  H108  1  0.39980000  0.86870000  0.69840000  1.0 0.1197221257
H  H109  1  0.71290000  0.40700000  0.80340000  1.0 0.1292722804
H  H110  1  0.28710000  0.90700000  0.69660000  1.0 0.1292722804
H  H111  1  0.86130000  0.44200000  0.88210000  1.0 0.1292722804
H  H112  1  0.13870000  0.94200000  0.61790000  1.0 0.1292722804
H  H113  1  0.01240000  0.44920000  0.98740000  1.0 0.1197221257
H  H114  1  0.98760000  0.94920000  0.51260000  1.0 0.1197221257
H  H115  1  0.14150000  0.40970000  0.03670000  1.0 0.1197221257
H  H116  1  0.85850000  0.90970000  0.46330000  1.0 0.1197221257
H  H117  1  0.60910000  0.36590000  0.28590000  1.0 0.1197221257
H  H118  1  0.39090000  0.86590000  0.21410000  1.0 0.1197221257
H  H119  1  0.71260000  0.40570000  0.39170000  1.0 0.1197221257
H  H120  1  0.28740000  0.90570000  0.10830000  1.0 0.11159642
H  H121  1  0.85620000  0.44320000  0.46460000  1.0 0.1197221257
H  H122  1  0.14380000  0.94320000  0.03540000  1.0 0.1197221257
H  H123  1  0.01460000  0.45010000  0.53090000  1.0 0.1197221257
H  H124  1  0.98540000  0.95010000  0.96910000  1.0 0.1197221257
H  H125  1  0.14080000  0.41460000  0.61710000  1.0 0.1197221257
H  H126  1  0.85920000  0.91460000  0.88290000  1.0 0.1197221257
H  H127  1  0.70120000  0.55910000  0.38440000  1.0 0.1292722804
H  H128  1  0.29880000  0.05910000  0.11560000  1.0 0.1292722804
H  H129  1  0.88520000  0.62850000  0.76160000  1.0 0.1197221257
H  H130  1  0.11480000  0.12850000  0.73840000  1.0 0.1197221257
H  H131  1  0.85530000  0.70870000  0.72780000  1.0 0.11159642
H  H132  1  0.14470000  0.20870000  0.77220000  1.0 0.11159642
H  H133  1  0.70800000  0.71700000  0.80510000  1.0 0.1359933007
H  H134  1  0.29200000  0.21700000  0.69490000  1.0 0.1359933007
H  H135  1  0.74260000  0.63800000  0.84290000  1.0 0.1292722804
H  H136  1  0.25740000  0.13800000  0.65710000  1.0 0.1292722804
H  H137  1  0.56470000  0.48890000  0.88270000  1.0 0.1292722804
H  H138  1  0.43530000  0.98890000  0.61730000  1.0 0.1292722804
H  H139  1  0.67410000  0.52680000  0.88110000  1.0 0.1292722804
H  H140  1  0.32590000  0.02680000  0.61890000  1.0 0.1292722804
H  H141  1  0.71290000  0.56000000  0.80880000  1.0 0.1292722804
H  H142  1  0.28710000  0.06000000  0.69120000  1.0 0.1292722804
H  H143  1  0.95390000  0.56490000  0.85000000  1.0 0.1197221257
H  H144  1  0.04610000  0.06490000  0.65000000  1.0 0.1197221257
H  H145  1  0.16250000  0.45180000  0.88000000  1.0 0.1292722804
H  H146  1  0.83750000  0.95180000  0.62000000  1.0 0.1292722804
H  H147  1  0.03690000  0.49540000  0.83230000  1.0 0.1197221257
H  H148  1  0.96310000  0.99540000  0.66770000  1.0 0.1197221257
H  H149  1  0.08650000  0.45990000  0.75750000  1.0 0.1197221257
H  H150  1  0.91350000  0.95990000  0.74250000  1.0 0.1197221257
H  H151  1  0.96090000  0.49460000  0.66720000  1.0 0.1292722804
H  H152  1  0.03910000  0.99460000  0.83280000  1.0 0.1292722804
H  H153  1  0.90560000  0.56320000  0.57950000  1.0 0.1197221257
H  H154  1  0.09440000  0.06320000  0.92050000  1.0 0.1197221257
H  H155  1  0.68570000  0.52480000  0.27940000  1.0 0.1197221257
H  H156  1  0.31430000  0.02480000  0.22060000  1.0 0.1197221257
H  H157  1  0.58220000  0.48640000  0.17990000  1.0 0.1292722804
H  H158  1  0.41780000  0.98640000  0.32010000  1.0 0.1292722804
H  H159  1  0.72510000  0.64120000  0.38650000  1.0 0.1292722804
H  H160  1  0.27490000  0.14120000  0.11350000  1.0 0.1292722804
H  H161  1  0.68810000  0.71830000  0.39560000  1.0 0.1359933007
H  H162  1  0.31190000  0.21830000  0.10440000  1.0 0.1359933007
H  H163  1  0.78130000  0.69680000  0.59790000  1.0 0.1197221257
H  H164  1  0.21870000  0.19680000  0.90210000  1.0 0.1197221257
H  H165  1  0.82230000  0.61930000  0.59120000  1.0 0.11159642
H  H166  1  0.17770000  0.11930000  0.90880000  1.0 0.11159642
H  H167  1  0.49140000  0.33180000  0.94970000  1.0 0.11159642
H  H168  1  0.50860000  0.83180000  0.55030000  1.0 0.11159642
H  H169  1  0.07750000  0.33400000  0.75850000  1.0 0.1197221257
H  H170  1  0.92250000  0.83400000  0.74150000  1.0 0.1197221257
H  H171  1  0.88430000  0.34060000  0.77550000  1.0 0.0502290263
H  H172  1  0.11570000  0.84060000  0.72450000  1.0 0.0502290263
H  H173  1  0.97540000  0.36080000  0.83390000  1.0 0.0699824993
H  H174  1  0.02460000  0.86080000  0.66610000  1.0 0.0699824993
H  H175  1  0.85420000  0.40840000  0.70750000  1.0 0.1001486543
H  H176  1  0.14580000  0.90840000  0.79250000  1.0 0.1001486543
H  H177  1  0.89320000  0.42880000  0.78320000  1.0 0.0891328405
H  H178  1  0.10680000  0.92880000  0.71680000  1.0 0.0891328405
H  H179  1  0.95070000  0.42590000  0.75230000  1.0 0.11159642
H  H180  1  0.04930000  0.92590000  0.74770000  1.0 0.11159642
H  H181  1  0.85910000  0.31960000  0.66666667  1.0 0.0502290263
H  H182  1  0.14090000  0.81960000  0.83340000  1.0 0.0502290263
H  H183  1  0.88510000  0.37440000  0.67360000  1.0 0.080560255
H  H184  1  0.11490000  0.87440000  0.82640000  1.0 0.080560255
H  H185  1  0.93990000  0.29930000  0.62330000  1.0 0.1292722804
H  H186  1  0.06010000  0.79930000  0.87670000  1.0 0.1292722804
H  H187  1  0.89510000  0.34800000  0.58500000  1.0 0.1487240444
H  H188  1  0.10490000  0.84800000  0.91500000  1.0 0.1487240444
H  H189  1  0.99180000  0.34820000  0.64830000  1.0 0.1197221257
H  H190  1  0.00820000  0.84820000  0.85170000  1.0 0.1197221257
H  H191  1  0.10310000  0.27350000  0.82480000  1.0 0.1197221257
H  H192  1  0.89690000  0.77350000  0.67520000  1.0 0.1197221257
H  H193  1  0.94990000  0.29570000  0.86230000  1.0 0.1001486543
H  H194  1  0.05010000  0.79570000  0.63770000  1.0 0.1001486543
H  H195  1  0.01070000  0.34040000  0.87780000  1.0 0.0891328405
H  H196  1  0.98930000  0.84040000  0.62220000  1.0 0.0891328405
H  H197  1  0.86940000  0.35210000  0.74810000  1.0 0.0699824993
H  H198  1  0.13060000  0.85210000  0.75190000  1.0 0.0699824993
H  H199  1  0.83810000  0.34160000  0.79820000  1.0 0.0699824993
H  H200  1  0.16190000  0.84160000  0.70180000  1.0 0.0699824993
H  H201  1  0.89880000  0.38600000  0.81250000  1.0 0.0502290263
H  H202  1  0.10120000  0.88600000  0.68750000  1.0 0.0502290263
H  H203  1  0.96720000  0.22910000  0.79780000  1.0 0.11159642
H  H204  1  0.03280000  0.72910000  0.70220000  1.0 0.11159642
H  H205  1  0.88840000  0.26300000  0.77740000  1.0 0.1001486543
H  H206  1  0.11160000  0.76300000  0.72260000  1.0 0.1001486543
H  H207  1  0.94730000  0.23900000  0.69000000  1.0 0.1197221257
H  H208  1  0.05270000  0.73900000  0.81000000  1.0 0.1197221257
H  H209  1  0.85520000  0.22780000  0.67460000  1.0 0.1292722804
H  H210  1  0.14480000  0.72780000  0.82540000  1.0 0.1292722804
H  H211  1  0.88110000  0.28140000  0.67040000  1.0 0.043171101
H  H212  1  0.11890000  0.78140000  0.82960000  1.0 0.043171101
C  C1  1  0.29680000  0.23380000  0.49590000  1.0 0.5871781397
C  C2  1  0.70320000  0.73380000  0.00410000  1.0 0.5871781397
C  C3  1  0.50800000  0.59890000  0.16680000  1.0 0.5425299991
C  C4  1  0.49200000  0.09890000  0.33320000  1.0 0.5425299991
C  C5  1  0.43210000  0.57550000  0.16180000  1.0 -0.021119418
C  C6  1  0.56790000  0.07550000  0.33820000  1.0 -0.021119418
C  C7  1  0.38590000  0.59940000  0.18290000  1.0 -0.0969047912
C  C8  1  0.61410000  0.09940000  0.31710000  1.0 -0.0969047912
C  C9  1  0.31780000  0.57640000  0.18150000  1.0 -0.1500099726
C  C10  1  0.68220000  0.07640000  0.31850000  1.0 -0.1500099726
C  C11  1  0.29560000  0.52910000  0.15790000  1.0 0.0699824993
C  C12  1  0.70440000  0.02910000  0.34210000  1.0 0.0699824993
C  C13  1  0.22390000  0.50320000  0.15650000  1.0 0.080560255
C  C14  1  0.77610000  0.00320000  0.34350000  1.0 0.080560255
C  C15  1  0.14660000  0.52570000  0.13240000  1.0 -0.2111459721
C  C16  1  0.85340000  0.02570000  0.36760000  1.0 -0.2111459721
C  C17  1  0.07780000  0.49950000  0.12960000  1.0 0.080560255
C  C18  1  0.92220000  0.99950000  0.37040000  1.0 0.080560255
C  C19  1  0.99200000  0.52400000  0.09700000  1.0 0.0699824993
C  C20  1  0.00800000  0.02400000  0.40300000  1.0 0.0699824993
C  C21  1  0.95750000  0.54980000  0.03450000  1.0 -0.1500099726
C  C22  1  0.04250000  0.04980000  0.46550000  1.0 -0.1500099726
C  C23  1  0.88050000  0.57370000  0.00510000  1.0 -0.0969047912
C  C24  1  0.11950000  0.07370000  0.49490000  1.0 -0.0969047912
C  C25  1  0.83400000  0.57340000  0.03710000  1.0 -0.021119418
C  C26  1  0.16600000  0.07340000  0.46290000  1.0 -0.021119418
C  C27  1  0.48710000  0.60070000  0.84200000  1.0 0.5493621144
C  C28  1  0.51290000  0.10070000  0.65800000  1.0 0.5493621144
C  C29  1  0.41650000  0.57700000  0.77680000  1.0 -0.021119418
C  C30  1  0.58350000  0.07700000  0.72320000  1.0 -0.021119418
C  C31  1  0.37680000  0.60170000  0.71480000  1.0 -0.0872177692
C  C32  1  0.62320000  0.10170000  0.78520000  1.0 -0.0872177692
C  C33  1  0.31340000  0.57790000  0.65080000  1.0 -0.1567216248
C  C34  1  0.68660000  0.07790000  0.84920000  1.0 -0.1567216248
C  C35  1  0.29190000  0.53110000  0.65320000  1.0 0.0699824993
C  C36  1  0.70810000  0.03110000  0.84680000  1.0 0.0699824993
C  C37  1  0.23380000  0.50360000  0.58630000  1.0 0.0891328405
C  C38  1  0.76620000  0.00360000  0.91370000  1.0 0.0891328405
C  C39  1  0.15880000  0.52550000  0.53050000  1.0 -0.2005240407
C  C40  1  0.84120000  0.02550000  0.96950000  1.0 -0.2005240407
C  C41  1  0.10720000  0.50070000  0.46830000  1.0 0.080560255
C  C42  1  0.89280000  0.00070000  0.03170000  1.0 0.080560255
C  C43  1  0.02680000  0.52400000  0.41170000  1.0 0.0625040957
C  C44  1  0.97320000  0.02400000  0.08830000  1.0 0.0625040957
C  C45  1  0.97100000  0.54810000  0.42330000  1.0 -0.1567216248
C  C46  1  0.02900000  0.04810000  0.07670000  1.0 -0.1567216248
C  C47  1  0.89540000  0.56990000  0.37240000  1.0 -0.0969047912
C  C48  1  0.10460000  0.06990000  0.12760000  1.0 -0.0969047912
C  C49  1  0.87540000  0.56780000  0.30390000  1.0 -0.021119418
C  C50  1  0.12460000  0.06780000  0.19610000  1.0 -0.021119418
C  C51  1  0.25050000  0.45610000  0.57830000  1.0 -0.1826628719
C  C52  1  0.74950000  0.95610000  0.92170000  1.0 -0.1826628719
C  C53  1  0.79420000  0.59250000  0.24710000  1.0 0.5801048714
C  C54  1  0.20580000  0.09250000  0.25290000  1.0 0.5801048714
C  C55  1  0.25290000  0.22870000  0.27010000  1.0 0.5871781397
C  C56  1  0.74710000  0.72870000  0.22990000  1.0 0.5871781397
C  C57  1  0.15070000  0.35390000  0.22950000  1.0 -0.1500099726
C  C58  1  0.84930000  0.85390000  0.27050000  1.0 -0.1500099726
C  C59  1  0.16980000  0.30590000  0.25070000  1.0 -0.1190364447
C  C60  1  0.83020000  0.80590000  0.24930000  1.0 -0.1190364447
C  C61  1  0.22480000  0.27970000  0.24070000  1.0 -0.008284178
C  C62  1  0.77520000  0.77970000  0.25930000  1.0 -0.008284178
C  C63  1  0.25670000  0.30080000  0.20420000  1.0 -0.0872177692
C  C64  1  0.74330000  0.80080000  0.29580000  1.0 -0.0872177692
C  C65  1  0.23600000  0.34830000  0.18180000  1.0 -0.1322878449
C  C66  1  0.76400000  0.84830000  0.31820000  1.0 -0.1322878449
C  C67  1  0.40680000  0.52730000  0.13480000  1.0 -0.0787274998
C  C68  1  0.59320000  0.02730000  0.36520000  1.0 -0.0787274998
C  C69  1  0.34070000  0.50510000  0.13480000  1.0 -0.1322878449
C  C70  1  0.65930000  0.00510000  0.36520000  1.0 -0.1322878449
C  C71  1  0.23480000  0.45510000  0.17650000  1.0 -0.1887490854
C  C72  1  0.76520000  0.95510000  0.32350000  1.0 -0.1887490854
C  C73  1  0.16960000  0.42810000  0.17550000  1.0 0.080560255
C  C74  1  0.83040000  0.92810000  0.32450000  1.0 0.080560255
C  C75  1  0.09060000  0.45190000  0.15130000  1.0 -0.2111459721
C  C76  1  0.90940000  0.95190000  0.34870000  1.0 -0.2111459721
C  C77  1  0.86720000  0.54820000  0.09790000  1.0 -0.0969047912
C  C78  1  0.13280000  0.04820000  0.40210000  1.0 -0.0969047912
C  C79  1  0.94350000  0.52280000  0.12740000  1.0 -0.1500099726
C  C80  1  0.05650000  0.02280000  0.37260000  1.0 -0.1500099726
C  C81  1  0.18430000  0.37590000  0.19520000  1.0 0.0625040957
C  C82  1  0.81570000  0.87590000  0.30480000  1.0 0.0625040957
C  C83  1  0.75060000  0.60030000  0.00320000  1.0 0.5493621144
C  C84  1  0.24940000  0.10030000  0.49680000  1.0 0.5493621144
C  C85  1  0.92820000  0.54270000  0.28830000  1.0 -0.1089873838
C  C86  1  0.07180000  0.04270000  0.21170000  1.0 -0.1089873838
C  C87  1  0.00310000  0.52170000  0.34280000  1.0 -0.1500099726
C  C88  1  0.99690000  0.02170000  0.15720000  1.0 -0.1390934166
C  C89  1  0.12860000  0.45330000  0.46270000  1.0 -0.2005240407
C  C90  1  0.87140000  0.95330000  0.03730000  1.0 -0.2005240407
C  C91  1  0.19890000  0.43010000  0.51760000  1.0 0.0699824993
C  C92  1  0.80110000  0.93010000  0.98240000  1.0 0.0699824993
C  C93  1  0.33070000  0.50680000  0.71840000  1.0 -0.1390934166
C  C94  1  0.66930000  0.00680000  0.78160000  1.0 -0.1390934166
C  C95  1  0.39180000  0.53000000  0.77760000  1.0 -0.0733346746
C  C96  1  0.60820000  0.03000000  0.72240000  1.0 -0.0733346746
C  C97  1  0.22270000  0.37980000  0.51140000  1.0 0.0699824993
C  C98  1  0.77730000  0.87980000  0.98860000  1.0 0.0699824993
C  C99  1  0.26340000  0.34780000  0.57080000  1.0 -0.1390934166
C  C100  1  0.73660000  0.84780000  0.92920000  1.0 -0.1390934166
C  C101  1  0.28520000  0.30190000  0.56540000  1.0 -0.0872177692
C  C102  1  0.71480000  0.80190000  0.93460000  1.0 -0.0872177692
C  C103  1  0.26760000  0.28460000  0.50090000  1.0 -0.008284178
C  C104  1  0.73240000  0.78460000  0.99910000  1.0 -0.008284178
C  C105  1  0.22920000  0.31450000  0.44440000  1.0 -0.1089873838
C  C106  1  0.77080000  0.81450000  0.05560000  1.0 -0.1089873838
C  C107  1  0.20560000  0.36130000  0.44860000  1.0 -0.1500099726
C  C108  1  0.79440000  0.86130000  0.05140000  1.0 -0.1500099726
C  C109  1  0.55270000  0.66130000  0.04340000  1.0 0.5246291
C  C110  1  0.44730000  0.16130000  0.45660000  1.0 0.526120905
C  C111  1  0.94220000  0.66490000  0.21190000  1.0 0.1689742196
C  C112  1  0.05780000  0.16490000  0.28810000  1.0 0.1689742196
C  C113  1  0.06600000  0.64100000  0.21600000  1.0 -0.008284178
C  C114  1  0.93400000  0.14100000  0.28400000  1.0 -0.008284178
C  C115  1  0.09500000  0.59000000  0.24600000  1.0 -0.3883864668
C  C116  1  0.90500000  0.09000000  0.25400000  1.0 -0.3883864668
C  C117  1  0.09300000  0.65800000  0.32000000  1.0 -0.1190364447
C  C118  1  0.90700000  0.15800000  0.18000000  1.0 -0.1190364447
C  C119  1  0.06400000  0.66700000  0.37100000  1.0 -0.4283899751
C  C120  1  0.93600000  0.16700000  0.12900000  1.0 -0.4283899751
C  C121  1  0.92410000  0.69840000  0.17400000  1.0 0.080560255
C  C122  1  0.07590000  0.19840000  0.32600000  1.0 0.080560255
C  C123  1  0.03600000  0.67900000  0.15900000  1.0 -0.1322878449
C  C124  1  0.96400000  0.17900000  0.34100000  1.0 -0.1322878449
C  C125  1  0.11500000  0.64700000  0.20400000  1.0 -0.2005240407
C  C126  1  0.88500000  0.14700000  0.29600000  1.0 -0.2005240407
C  C127  1  0.06400000  0.74190000  0.22800000  1.0 -0.1887490854
C  C128  1  0.93600000  0.24190000  0.27200000  1.0 -0.1887490854
C  C129  1  0.09800000  0.74910000  0.30550000  1.0 -0.3719471332
C  C130  1  0.90200000  0.24910000  0.19450000  1.0 -0.3719471332
C  C131  1  0.70320000  0.76620000  0.50410000  1.0 0.5871781397
C  C132  1  0.29680000  0.26620000  0.99590000  1.0 0.5871781397
C  C133  1  0.49200000  0.40110000  0.83320000  1.0 0.5425299991
C  C134  1  0.50800000  0.90110000  0.66680000  1.0 0.5425299991
C  C135  1  0.56790000  0.42450000  0.83820000  1.0 -0.021119418
C  C136  1  0.43210000  0.92450000  0.66180000  1.0 -0.021119418
C  C137  1  0.61410000  0.40060000  0.81710000  1.0 -0.0969047912
C  C138  1  0.38590000  0.90060000  0.68290000  1.0 -0.0969047912
C  C139  1  0.68220000  0.42360000  0.81850000  1.0 -0.1500099726
C  C140  1  0.31780000  0.92360000  0.68150000  1.0 -0.1500099726
C  C141  1  0.70440000  0.47090000  0.84210000  1.0 0.0699824993
C  C142  1  0.29560000  0.97090000  0.65790000  1.0 0.0699824993
C  C143  1  0.77610000  0.49680000  0.84350000  1.0 0.080560255
C  C144  1  0.22390000  0.99680000  0.65650000  1.0 0.080560255
C  C145  1  0.85340000  0.47430000  0.86760000  1.0 -0.2111459721
C  C146  1  0.14660000  0.97430000  0.63240000  1.0 -0.2111459721
C  C147  1  0.92220000  0.50050000  0.87040000  1.0 0.080560255
C  C148  1  0.07780000  0.00050000  0.62960000  1.0 0.080560255
C  C149  1  0.00800000  0.47600000  0.90300000  1.0 0.0699824993
C  C150  1  0.99200000  0.97600000  0.59700000  1.0 0.0699824993
C  C151  1  0.04250000  0.45020000  0.96550000  1.0 -0.1500099726
C  C152  1  0.95750000  0.95020000  0.53450000  1.0 -0.1500099726
C  C153  1  0.11950000  0.42630000  0.99490000  1.0 -0.0969047912
C  C154  1  0.88050000  0.92630000  0.50510000  1.0 -0.0969047912
C  C155  1  0.16600000  0.42660000  0.96290000  1.0 -0.021119418
C  C156  1  0.83400000  0.92660000  0.53710000  1.0 -0.021119418
C  C157  1  0.51290000  0.39930000  0.15800000  1.0 0.5493621144
C  C158  1  0.48710000  0.89930000  0.34200000  1.0 0.5493621144
C  C159  1  0.58350000  0.42300000  0.22320000  1.0 -0.021119418
C  C160  1  0.41650000  0.92300000  0.27680000  1.0 -0.021119418
C  C161  1  0.62320000  0.39830000  0.28520000  1.0 -0.0872177692
C  C162  1  0.37680000  0.89830000  0.21480000  1.0 -0.0872177692
C  C163  1  0.68660000  0.42210000  0.34920000  1.0 -0.1567216248
C  C164  1  0.31340000  0.92210000  0.15080000  1.0 -0.1567216248
C  C165  1  0.70810000  0.46890000  0.34680000  1.0 0.0699824993
C  C166  1  0.29190000  0.96890000  0.15320000  1.0 0.0699824993
C  C167  1  0.76620000  0.49640000  0.41370000  1.0 0.0891328405
C  C168  1  0.23380000  0.99640000  0.08630000  1.0 0.0891328405
C  C169  1  0.84120000  0.47450000  0.46950000  1.0 -0.2005240407
C  C170  1  0.15880000  0.97450000  0.03050000  1.0 -0.2005240407
C  C171  1  0.89280000  0.49930000  0.53170000  1.0 0.080560255
C  C172  1  0.10720000  0.99930000  0.96830000  1.0 0.080560255
C  C173  1  0.97320000  0.47600000  0.58830000  1.0 0.0625040957
C  C174  1  0.02680000  0.97600000  0.91170000  1.0 0.0625040957
C  C175  1  0.02900000  0.45190000  0.57670000  1.0 -0.1567216248
C  C176  1  0.97100000  0.95190000  0.92330000  1.0 -0.1567216248
C  C177  1  0.10460000  0.43010000  0.62760000  1.0 -0.0969047912
C  C178  1  0.89540000  0.93010000  0.87240000  1.0 -0.0969047912
C  C179  1  0.12460000  0.43220000  0.69610000  1.0 -0.021119418
C  C180  1  0.87540000  0.93220000  0.80390000  1.0 -0.021119418
C  C181  1  0.74950000  0.54390000  0.42170000  1.0 -0.1826628719
C  C182  1  0.25050000  0.04390000  0.07830000  1.0 -0.1826628719
C  C183  1  0.20580000  0.40750000  0.75290000  1.0 0.5801048714
C  C184  1  0.79420000  0.90750000  0.74710000  1.0 0.5801048714
C  C185  1  0.74710000  0.77130000  0.72990000  1.0 0.5871781397
C  C186  1  0.25290000  0.27130000  0.77010000  1.0 0.5871781397
C  C187  1  0.84930000  0.64610000  0.77050000  1.0 -0.1500099726
C  C188  1  0.15070000  0.14610000  0.72950000  1.0 -0.1500099726
C  C189  1  0.83020000  0.69410000  0.74930000  1.0 -0.1190364447
C  C190  1  0.16980000  0.19410000  0.75070000  1.0 -0.1190364447
C  C191  1  0.77520000  0.72030000  0.75930000  1.0 -0.008284178
C  C192  1  0.22480000  0.22030000  0.74070000  1.0 -0.008284178
C  C193  1  0.74330000  0.69920000  0.79580000  1.0 -0.0872177692
C  C194  1  0.25670000  0.19920000  0.70420000  1.0 -0.0872177692
C  C195  1  0.76400000  0.65170000  0.81820000  1.0 -0.1322878449
C  C196  1  0.23600000  0.15170000  0.68180000  1.0 -0.1322878449
C  C197  1  0.59320000  0.47270000  0.86520000  1.0 -0.0787274998
C  C198  1  0.40680000  0.97270000  0.63480000  1.0 -0.0787274998
C  C199  1  0.65930000  0.49490000  0.86520000  1.0 -0.1322878449
C  C200  1  0.34070000  0.99490000  0.63480000  1.0 -0.1322878449
C  C201  1  0.76520000  0.54490000  0.82350000  1.0 -0.1887490854
C  C202  1  0.23480000  0.04490000  0.67650000  1.0 -0.1887490854
C  C203  1  0.83040000  0.57190000  0.82450000  1.0 0.080560255
C  C204  1  0.16960000  0.07190000  0.67550000  1.0 0.080560255
C  C205  1  0.90940000  0.54810000  0.84870000  1.0 -0.2111459721
C  C206  1  0.09060000  0.04810000  0.65130000  1.0 -0.2111459721
C  C207  1  0.13280000  0.45180000  0.90210000  1.0 -0.0969047912
C  C208  1  0.86720000  0.95180000  0.59790000  1.0 -0.0969047912
C  C209  1  0.05650000  0.47720000  0.87260000  1.0 -0.1500099726
C  C210  1  0.94350000  0.97720000  0.62740000  1.0 -0.1500099726
C  C211  1  0.81570000  0.62410000  0.80480000  1.0 0.0625040957
C  C212  1  0.18430000  0.12410000  0.69520000  1.0 0.0625040957
C  C213  1  0.24940000  0.39970000  0.99680000  1.0 0.5493621144
C  C214  1  0.75060000  0.89970000  0.50320000  1.0 0.5493621144
C  C215  1  0.07180000  0.45730000  0.71170000  1.0 -0.1089873838
C  C216  1  0.92820000  0.95730000  0.78830000  1.0 -0.1089873838
C  C217  1  0.99690000  0.47830000  0.65720000  1.0 -0.1390934166
C  C218  1  0.00310000  0.97830000  0.84280000  1.0 -0.1500099726
C  C219  1  0.87140000  0.54670000  0.53730000  1.0 -0.2005240407
C  C220  1  0.12860000  0.04670000  0.96270000  1.0 -0.2005240407
C  C221  1  0.80110000  0.56990000  0.48240000  1.0 0.0699824993
C  C222  1  0.19890000  0.06990000  0.01760000  1.0 0.0699824993
C  C223  1  0.66930000  0.49320000  0.28160000  1.0 -0.1390934166
C  C224  1  0.33070000  0.99320000  0.21840000  1.0 -0.1390934166
C  C225  1  0.60820000  0.47000000  0.22240000  1.0 -0.0733346746
C  C226  1  0.39180000  0.97000000  0.27760000  1.0 -0.0733346746
C  C227  1  0.77730000  0.62020000  0.48860000  1.0 0.0699824993
C  C228  1  0.22270000  0.12020000  0.01140000  1.0 0.0699824993
C  C229  1  0.73660000  0.65220000  0.42920000  1.0 -0.1390934166
C  C230  1  0.26340000  0.15220000  0.07080000  1.0 -0.1390934166
C  C231  1  0.71480000  0.69810000  0.43460000  1.0 -0.0872177692
C  C232  1  0.28520000  0.19810000  0.06540000  1.0 -0.0872177692
C  C233  1  0.73240000  0.71540000  0.49910000  1.0 -0.008284178
C  C234  1  0.26760000  0.21540000  0.00090000  1.0 -0.008284178
C  C235  1  0.77080000  0.68550000  0.55560000  1.0 -0.1089873838
C  C236  1  0.22920000  0.18550000  0.94440000  1.0 -0.1089873838
C  C237  1  0.79440000  0.63870000  0.55140000  1.0 -0.1500099726
C  C238  1  0.20560000  0.13870000  0.94860000  1.0 -0.1500099726
C  C239  1  0.44730000  0.33870000  0.95660000  1.0 0.526120905
C  C240  1  0.55270000  0.83870000  0.54340000  1.0 0.526120905
C  C241  1  0.05780000  0.33510000  0.78810000  1.0 0.1689742196
C  C242  1  0.94220000  0.83510000  0.71190000  1.0 0.1689742196
C  C243  1  0.93400000  0.35900000  0.78400000  1.0 -0.008284178
C  C244  1  0.06600000  0.85900000  0.71600000  1.0 -0.008284178
C  C245  1  0.90500000  0.41000000  0.75400000  1.0 -0.3883864668
C  C246  1  0.09500000  0.91000000  0.74600000  1.0 -0.3883864668
C  C247  1  0.90700000  0.34200000  0.68000000  1.0 -0.1190364447
C  C248  1  0.09300000  0.84200000  0.82000000  1.0 -0.1190364447
C  C249  1  0.93600000  0.33300000  0.62900000  1.0 -0.4283899751
C  C250  1  0.06400000  0.83300000  0.87100000  1.0 -0.4283899751
C  C251  1  0.07590000  0.30160000  0.82600000  1.0 0.080560255
C  C252  1  0.92410000  0.80160000  0.67400000  1.0 0.080560255
C  C253  1  0.96400000  0.32100000  0.84100000  1.0 -0.1322878449
C  C254  1  0.03600000  0.82100000  0.65900000  1.0 -0.1322878449
C  C255  1  0.88500000  0.35300000  0.79600000  1.0 -0.2005240407
C  C256  1  0.11500000  0.85300000  0.70400000  1.0 -0.2005240407
C  C257  1  0.93600000  0.25810000  0.77200000  1.0 -0.1887490854
C  C258  1  0.06400000  0.75810000  0.72800000  1.0 -0.1887490854
C  C259  1  0.90200000  0.25090000  0.69450000  1.0 -0.3719471332
C  C260  1  0.09800000  0.75090000  0.80550000  1.0 -0.3719471332
N  N1  1  0.02750000  0.66580000  0.24800000  1.0 -0.0611843004
N  N2  1  0.97250000  0.16580000  0.25200000  1.0 -0.0611843004
N  N3  1  0.00650000  0.70100000  0.20000000  1.0 0.1359933007
N  N4  1  0.99350000  0.20100000  0.30000000  1.0 0.1359933007
N  N5  1  0.97250000  0.33420000  0.75200000  1.0 -0.0611843004
N  N6  1  0.02750000  0.83420000  0.74800000  1.0 -0.0611843004
N  N7  1  0.99350000  0.29900000  0.80000000  1.0 0.1359933007
N  N8  1  0.00650000  0.79900000  0.70000000  1.0 0.1359933007
O  O1  1  0.34230000  0.21030000  0.55100000  1.0 -0.5267217283
O  O2  1  0.65770000  0.71030000  0.94900000  1.0 -0.5267217283
O  O3  1  0.27370000  0.22020000  0.43540000  1.0 -0.5922989807
O  O4  1  0.72630000  0.72020000  0.06460000  1.0 -0.595186488
O  O5  1  0.53650000  0.63820000  0.19780000  1.0 -0.5267217283
O  O6  1  0.46350000  0.13820000  0.30220000  1.0 -0.5267217283
O  O7  1  0.54350000  0.57780000  0.13910000  1.0 -0.5432921809
O  O8  1  0.45650000  0.07780000  0.36090000  1.0 -0.5432921809
O  O9  1  0.50910000  0.64430000  0.84120000  1.0 -0.5267217283
O  O10  1  0.49090000  0.14430000  0.65880000  1.0 -0.5267217283
O  O11  1  0.52500000  0.57790000  0.89870000  1.0 -0.5267217283
O  O12  1  0.47500000  0.07790000  0.60130000  1.0 -0.5267217283
O  O13  1  0.73800000  0.60610000  0.25900000  1.0 -0.5593608481
O  O14  1  0.26200000  0.10610000  0.24100000  1.0 -0.5593608481
O  O15  1  0.21640000  0.20760000  0.29480000  1.0 -0.5922989807
O  O16  1  0.78360000  0.70760000  0.20520000  1.0 -0.5922989807
O  O17  1  0.31780000  0.21160000  0.26980000  1.0 -0.5501837891
O  O18  1  0.68220000  0.71160000  0.23020000  1.0 -0.5501837891
O  O19  1  0.71150000  0.60980000  0.93950000  1.0 -0.5200533282
O  O20  1  0.28850000  0.10980000  0.56050000  1.0 -0.5200533282
O  O21  1  0.71920000  0.61260000  0.03810000  1.0 -0.5593608481
O  O22  1  0.28080000  0.11260000  0.46190000  1.0 -0.5593608481
O  O23  1  0.78940000  0.60050000  0.18950000  1.0 -0.6196671289
O  O24  1  0.21060000  0.10050000  0.31050000  1.0 -0.6196671289
O  O25  1  0.62490000  0.65290000  0.09480000  1.0 -0.5200533282
O  O26  1  0.37510000  0.15290000  0.40520000  1.0 -0.5200533282
O  O27  1  0.53510000  0.66110000  0.98270000  1.0 -0.4432047096
O  O28  1  0.46490000  0.16110000  0.51730000  1.0 -0.4432047096
O  O29  1  0.88110000  0.66290000  0.15000000  1.0 -0.2379398283
O  O30  1  0.11890000  0.16290000  0.35000000  1.0 -0.2379398283
O  O31  1  0.65770000  0.78970000  0.44900000  1.0 -0.5267217283
O  O32  1  0.34230000  0.28970000  0.05100000  1.0 -0.5267217283
O  O33  1  0.72630000  0.77980000  0.56460000  1.0 -0.595186488
O  O34  1  0.27370000  0.27980000  0.93540000  1.0 -0.5922989807
O  O35  1  0.46350000  0.36180000  0.80220000  1.0 -0.5267217283
O  O36  1  0.53650000  0.86180000  0.69780000  1.0 -0.5267217283
O  O37  1  0.45650000  0.42220000  0.86090000  1.0 -0.5432921809
O  O38  1  0.54350000  0.92220000  0.63910000  1.0 -0.5432921809
O  O39  1  0.49090000  0.35570000  0.15880000  1.0 -0.5267217283
O  O40  1  0.50910000  0.85570000  0.34120000  1.0 -0.5267217283
O  O41  1  0.47500000  0.42210000  0.10130000  1.0 -0.5267217283
O  O42  1  0.52500000  0.92210000  0.39870000  1.0 -0.5267217283
O  O43  1  0.26200000  0.39390000  0.74100000  1.0 -0.5593608481
O  O44  1  0.73800000  0.89390000  0.75900000  1.0 -0.5593608481
O  O45  1  0.78360000  0.79240000  0.70520000  1.0 -0.5922989807
O  O46  1  0.21640000  0.29240000  0.79480000  1.0 -0.5922989807
O  O47  1  0.68220000  0.78840000  0.73020000  1.0 -0.5501837891
O  O48  1  0.31780000  0.28840000  0.76980000  1.0 -0.5501837891
O  O49  1  0.28850000  0.39020000  0.06050000  1.0 -0.5200533282
O  O50  1  0.71150000  0.89020000  0.43950000  1.0 -0.5200533282
O  O51  1  0.28080000  0.38740000  0.96190000  1.0 -0.5593608481
O  O52  1  0.71920000  0.88740000  0.53810000  1.0 -0.5593608481
O  O53  1  0.21060000  0.39950000  0.81050000  1.0 -0.6196671289
O  O54  1  0.78940000  0.89950000  0.68950000  1.0 -0.6196671289
O  O55  1  0.37510000  0.34710000  0.90520000  1.0 -0.5200533282
O  O56  1  0.62490000  0.84710000  0.59480000  1.0 -0.5200533282
O  O57  1  0.46490000  0.33890000  0.01730000  1.0 -0.4432047096
O  O58  1  0.53510000  0.83890000  0.48270000  1.0 -0.4432047096
O  O59  1  0.11890000  0.33710000  0.85000000  1.0 -0.2379398283
O  O60  1  0.88110000  0.83710000  0.65000000  1.0 -0.2379398283
