# DDEC6 charges by PACMAN v1.1 (https://github.com/mtap-research/PACMAN-charge/)
data_CIFQUG_ASR_pacman
_symmetry_space_group_name_H-M   'P 1'
_cell_length_a   29.59050000
_cell_length_b   29.59050000
_cell_length_c   29.59050000
_cell_angle_alpha   99.83340000
_cell_angle_beta   99.83340000
_cell_angle_gamma   99.83340000
_symmetry_Int_Tables_number   1
_chemical_formula_structural   In2H31(C41O8)2
_chemical_formula_sum   'In12 H186 C492 O96'
_cell_volume   24614.39593368
_cell_formula_units_Z   6
loop_
 _symmetry_equiv_pos_site_id
 _symmetry_equiv_pos_as_xyz
  1  'x, y, z'
loop_
 _atom_site_type_symbol
 _atom_site_label
 _atom_site_symmetry_multiplicity
 _atom_site_fract_x
 _atom_site_fract_y
 _atom_site_fract_z
 _atom_site_occupancy
 _atom_site_charge
In  In1  1  0.77376000  0.90693000  0.19927000  1.0 1.3589268524
In  In2  1  0.06402000  0.48318000  0.36132000  1.0 1.3589268524
In  In3  1  0.90693000  0.19927000  0.77376000  1.0 1.3589268524
In  In4  1  0.48318000  0.36132000  0.06402000  1.0 1.3589268524
In  In5  1  0.19927000  0.77376000  0.90693000  1.0 1.3589268524
In  In6  1  0.36132000  0.06402000  0.48318000  1.0 1.3589268524
In  In7  1  0.22624000  0.09307000  0.80073000  1.0 1.3589268524
In  In8  1  0.93598000  0.51682000  0.63868000  1.0 1.3589268524
In  In9  1  0.09307000  0.80073000  0.22624000  1.0 1.3589268524
In  In10  1  0.51682000  0.63868000  0.93598000  1.0 1.3589268524
In  In11  1  0.80073000  0.22624000  0.09307000  1.0 1.3589268524
In  In12  1  0.63868000  0.93598000  0.51682000  1.0 1.3589268524
H  H1  1  0.82460000  0.78370000  0.25990000  1.0 0.136879785
H  H2  1  0.73130000  0.73540000  0.13930000  1.0 0.1316800892
H  H3  1  0.81130000  0.07510000  0.26320000  1.0 0.1316800892
H  H4  1  0.85930000  0.99530000  0.34840000  1.0 0.1221708423
H  H5  1  0.91730000  0.91780000  0.13270000  1.0 0.1316800892
H  H6  1  0.83090000  0.70610000  0.26310000  1.0 0.1221708423
H  H7  1  0.73680000  0.66090000  0.14260000  1.0 0.1126932105
H  H8  1  0.84510000  0.14010000  0.31920000  1.0 0.1126932105
H  H9  1  0.89230000  0.06060000  0.40730000  1.0 0.1221708423
H  H10  1  0.95800000  0.92910000  0.07380000  1.0 0.1126932105
H  H11  1  0.85230000  0.63360000  0.23710000  1.0 0.1316800892
H  H12  1  0.71610000  0.59860000  0.17580000  1.0 0.1126932105
H  H13  1  0.91720000  0.19090000  0.36400000  1.0 0.1221708423
H  H14  1  0.88000000  0.12580000  0.46180000  1.0 0.1221708423
H  H15  1  0.78490000  0.50020000  0.20990000  1.0 0.1316800892
H  H16  1  0.94560000  0.25870000  0.49820000  1.0 0.1221708423
H  H17  1  0.91450000  0.58640000  0.22030000  1.0 0.1221708423
H  H18  1  0.70820000  0.46120000  0.20950000  1.0 0.1221708423
H  H19  1  0.67310000  0.54290000  0.12240000  1.0 0.1126932105
H  H20  1  0.94530000  0.25470000  0.34650000  1.0 0.1221708423
H  H21  1  0.97790000  0.31710000  0.47980000  1.0 0.1221708423
H  H22  1  0.89700000  0.25760000  0.55270000  1.0 0.1126932105
H  H23  1  0.91980000  0.12850000  0.54080000  1.0 0.1221708423
H  H24  1  0.97970000  0.56120000  0.25590000  1.0 0.1517698372
H  H25  1  0.90380000  0.48740000  0.32460000  1.0 0.1556573061
H  H26  1  0.63910000  0.40650000  0.17340000  1.0 0.1316800892
H  H27  1  0.60460000  0.49010000  0.08740000  1.0 0.1316800892
H  H28  1  0.97960000  0.31980000  0.32630000  1.0 0.136879785
H  H29  1  0.00770000  0.38510000  0.46150000  1.0 0.136879785
H  H30  1  0.89280000  0.26120000  0.63070000  1.0 0.1316800892
H  H31  1  0.91830000  0.13110000  0.61890000  1.0 0.1221708423
H  H32  1  0.78370000  0.25990000  0.82460000  1.0 0.136879785
H  H33  1  0.73540000  0.13930000  0.73130000  1.0 0.1316800892
H  H34  1  0.07510000  0.26320000  0.81130000  1.0 0.1316800892
H  H35  1  0.99530000  0.34840000  0.85930000  1.0 0.1221708423
H  H36  1  0.91780000  0.13270000  0.91730000  1.0 0.1316800892
H  H37  1  0.70610000  0.26310000  0.83090000  1.0 0.1221708423
H  H38  1  0.66090000  0.14260000  0.73680000  1.0 0.1126932105
H  H39  1  0.14010000  0.31920000  0.84510000  1.0 0.1126932105
H  H40  1  0.06060000  0.40730000  0.89230000  1.0 0.1221708423
H  H41  1  0.92910000  0.07380000  0.95800000  1.0 0.1126932105
H  H42  1  0.63360000  0.23710000  0.85230000  1.0 0.1316800892
H  H43  1  0.59860000  0.17580000  0.71610000  1.0 0.1126932105
H  H44  1  0.19090000  0.36400000  0.91720000  1.0 0.1221708423
H  H45  1  0.12580000  0.46180000  0.88000000  1.0 0.1221708423
H  H46  1  0.50020000  0.20990000  0.78490000  1.0 0.1316800892
H  H47  1  0.25870000  0.49820000  0.94560000  1.0 0.1221708423
H  H48  1  0.58640000  0.22030000  0.91450000  1.0 0.1221708423
H  H49  1  0.46120000  0.20950000  0.70820000  1.0 0.1221708423
H  H50  1  0.54290000  0.12240000  0.67310000  1.0 0.1126932105
H  H51  1  0.25470000  0.34650000  0.94530000  1.0 0.1221708423
H  H52  1  0.31710000  0.47980000  0.97790000  1.0 0.1221708423
H  H53  1  0.25760000  0.55270000  0.89700000  1.0 0.1126932105
H  H54  1  0.12850000  0.54080000  0.91980000  1.0 0.1221708423
H  H55  1  0.56120000  0.25590000  0.97970000  1.0 0.1517698372
H  H56  1  0.48740000  0.32460000  0.90380000  1.0 0.1556573061
H  H57  1  0.40650000  0.17340000  0.63910000  1.0 0.1316800892
H  H58  1  0.49010000  0.08740000  0.60460000  1.0 0.1316800892
H  H59  1  0.31980000  0.32630000  0.97960000  1.0 0.136879785
H  H60  1  0.38510000  0.46150000  0.00770000  1.0 0.136879785
H  H61  1  0.26120000  0.63070000  0.89280000  1.0 0.1316800892
H  H62  1  0.13110000  0.61890000  0.91830000  1.0 0.1221708423
H  H63  1  0.25990000  0.82460000  0.78370000  1.0 0.136879785
H  H64  1  0.13930000  0.73130000  0.73540000  1.0 0.1316800892
H  H65  1  0.26320000  0.81130000  0.07510000  1.0 0.1316800892
H  H66  1  0.34840000  0.85930000  0.99530000  1.0 0.1221708423
H  H67  1  0.13270000  0.91730000  0.91780000  1.0 0.1316800892
H  H68  1  0.26310000  0.83090000  0.70610000  1.0 0.1221708423
H  H69  1  0.14260000  0.73680000  0.66090000  1.0 0.1126932105
H  H70  1  0.31920000  0.84510000  0.14010000  1.0 0.1221708423
H  H71  1  0.40730000  0.89230000  0.06060000  1.0 0.1221708423
H  H72  1  0.07380000  0.95800000  0.92910000  1.0 0.1126932105
H  H73  1  0.23710000  0.85230000  0.63360000  1.0 0.1316800892
H  H74  1  0.17580000  0.71610000  0.59860000  1.0 0.1126932105
H  H75  1  0.36400000  0.91720000  0.19090000  1.0 0.1221708423
H  H76  1  0.46180000  0.88000000  0.12580000  1.0 0.1221708423
H  H77  1  0.20990000  0.78490000  0.50020000  1.0 0.1316800892
H  H78  1  0.49820000  0.94560000  0.25870000  1.0 0.1221708423
H  H79  1  0.22030000  0.91450000  0.58640000  1.0 0.1221708423
H  H80  1  0.20950000  0.70820000  0.46120000  1.0 0.1221708423
H  H81  1  0.12240000  0.67310000  0.54290000  1.0 0.1126932105
H  H82  1  0.34650000  0.94530000  0.25470000  1.0 0.1221708423
H  H83  1  0.47980000  0.97790000  0.31710000  1.0 0.1221708423
H  H84  1  0.55270000  0.89700000  0.25760000  1.0 0.1126932105
H  H85  1  0.54080000  0.91980000  0.12850000  1.0 0.1221708423
H  H86  1  0.25590000  0.97970000  0.56120000  1.0 0.1517698372
H  H87  1  0.32460000  0.90380000  0.48740000  1.0 0.1556573061
H  H88  1  0.17340000  0.63910000  0.40650000  1.0 0.1316800892
H  H89  1  0.08740000  0.60460000  0.49010000  1.0 0.1316800892
H  H90  1  0.32630000  0.97960000  0.31980000  1.0 0.136879785
H  H91  1  0.46150000  0.00770000  0.38510000  1.0 0.136879785
H  H92  1  0.63070000  0.89280000  0.26120000  1.0 0.1316800892
H  H93  1  0.61890000  0.91830000  0.13110000  1.0 0.1221708423
H  H94  1  0.17540000  0.21630000  0.74010000  1.0 0.136879785
H  H95  1  0.26870000  0.26460000  0.86070000  1.0 0.1316800892
H  H96  1  0.18870000  0.92490000  0.73680000  1.0 0.1316800892
H  H97  1  0.14070000  0.00470000  0.65160000  1.0 0.1221708423
H  H98  1  0.08270000  0.08220000  0.86730000  1.0 0.1316800892
H  H99  1  0.16910000  0.29390000  0.73690000  1.0 0.1221708423
H  H100  1  0.26320000  0.33910000  0.85740000  1.0 0.1126932105
H  H101  1  0.15490000  0.85990000  0.68080000  1.0 0.1126932105
H  H102  1  0.10770000  0.93940000  0.59270000  1.0 0.1221708423
H  H103  1  0.04200000  0.07090000  0.92620000  1.0 0.1126932105
H  H104  1  0.14770000  0.36640000  0.76290000  1.0 0.1316800892
H  H105  1  0.28390000  0.40140000  0.82420000  1.0 0.1126932105
H  H106  1  0.08280000  0.80910000  0.63600000  1.0 0.1221708423
H  H107  1  0.12000000  0.87420000  0.53820000  1.0 0.1221708423
H  H108  1  0.21510000  0.49980000  0.79010000  1.0 0.1316800892
H  H109  1  0.05440000  0.74130000  0.50180000  1.0 0.1221708423
H  H110  1  0.08550000  0.41360000  0.77970000  1.0 0.1221708423
H  H111  1  0.29180000  0.53880000  0.79050000  1.0 0.1221708423
H  H112  1  0.32690000  0.45710000  0.87760000  1.0 0.1126932105
H  H113  1  0.05470000  0.74530000  0.65350000  1.0 0.1221708423
H  H114  1  0.02210000  0.68290000  0.52020000  1.0 0.1221708423
H  H115  1  0.10300000  0.74240000  0.44730000  1.0 0.1126932105
H  H116  1  0.08020000  0.87150000  0.45920000  1.0 0.1221708423
H  H117  1  0.02030000  0.43880000  0.74410000  1.0 0.1517698372
H  H118  1  0.09620000  0.51260000  0.67540000  1.0 0.1556573061
H  H119  1  0.36090000  0.59350000  0.82660000  1.0 0.1316800892
H  H120  1  0.39540000  0.50990000  0.91260000  1.0 0.1316800892
H  H121  1  0.02040000  0.68020000  0.67370000  1.0 0.136879785
H  H122  1  0.99230000  0.61490000  0.53850000  1.0 0.136879785
H  H123  1  0.10720000  0.73880000  0.36930000  1.0 0.1316800892
H  H124  1  0.08170000  0.86890000  0.38110000  1.0 0.1221708423
H  H125  1  0.21630000  0.74010000  0.17540000  1.0 0.136879785
H  H126  1  0.26460000  0.86070000  0.26870000  1.0 0.1316800892
H  H127  1  0.92490000  0.73680000  0.18870000  1.0 0.1316800892
H  H128  1  0.00470000  0.65160000  0.14070000  1.0 0.1221708423
H  H129  1  0.08220000  0.86730000  0.08270000  1.0 0.1316800892
H  H130  1  0.29390000  0.73690000  0.16910000  1.0 0.1221708423
H  H131  1  0.33910000  0.85740000  0.26320000  1.0 0.1126932105
H  H132  1  0.85990000  0.68080000  0.15490000  1.0 0.1221708423
H  H133  1  0.93940000  0.59270000  0.10770000  1.0 0.1221708423
H  H134  1  0.07090000  0.92620000  0.04200000  1.0 0.1126932105
H  H135  1  0.36640000  0.76290000  0.14770000  1.0 0.1316800892
H  H136  1  0.40140000  0.82420000  0.28390000  1.0 0.1126932105
H  H137  1  0.80910000  0.63600000  0.08280000  1.0 0.1221708423
H  H138  1  0.87420000  0.53820000  0.12000000  1.0 0.1221708423
H  H139  1  0.49980000  0.79010000  0.21510000  1.0 0.1316800892
H  H140  1  0.74130000  0.50180000  0.05440000  1.0 0.1221708423
H  H141  1  0.41360000  0.77970000  0.08550000  1.0 0.1221708423
H  H142  1  0.53880000  0.79050000  0.29180000  1.0 0.1221708423
H  H143  1  0.45710000  0.87760000  0.32690000  1.0 0.1126932105
H  H144  1  0.74530000  0.65350000  0.05470000  1.0 0.1221708423
H  H145  1  0.68290000  0.52020000  0.02210000  1.0 0.1221708423
H  H146  1  0.74240000  0.44730000  0.10300000  1.0 0.1126932105
H  H147  1  0.87150000  0.45920000  0.08020000  1.0 0.1221708423
H  H148  1  0.43880000  0.74410000  0.02030000  1.0 0.1517698372
H  H149  1  0.51260000  0.67540000  0.09620000  1.0 0.1517698372
H  H150  1  0.59350000  0.82660000  0.36090000  1.0 0.1316800892
H  H151  1  0.50990000  0.91260000  0.39540000  1.0 0.1316800892
H  H152  1  0.68020000  0.67370000  0.02040000  1.0 0.136879785
H  H153  1  0.61490000  0.53850000  0.99230000  1.0 0.136879785
H  H154  1  0.73880000  0.36930000  0.10720000  1.0 0.1316800892
H  H155  1  0.86890000  0.38110000  0.08170000  1.0 0.1221708423
H  H156  1  0.74010000  0.17540000  0.21630000  1.0 0.136879785
H  H157  1  0.86070000  0.26870000  0.26460000  1.0 0.1316800892
H  H158  1  0.73680000  0.18870000  0.92490000  1.0 0.1316800892
H  H159  1  0.65160000  0.14070000  0.00470000  1.0 0.1221708423
H  H160  1  0.86730000  0.08270000  0.08220000  1.0 0.1316800892
H  H161  1  0.73690000  0.16910000  0.29390000  1.0 0.1221708423
H  H162  1  0.85740000  0.26320000  0.33910000  1.0 0.1126932105
H  H163  1  0.68080000  0.15490000  0.85990000  1.0 0.1126932105
H  H164  1  0.59270000  0.10770000  0.93940000  1.0 0.1221708423
H  H165  1  0.92620000  0.04200000  0.07090000  1.0 0.1126932105
H  H166  1  0.76290000  0.14770000  0.36640000  1.0 0.1316800892
H  H167  1  0.82420000  0.28390000  0.40140000  1.0 0.1126932105
H  H168  1  0.63600000  0.08280000  0.80910000  1.0 0.1221708423
H  H169  1  0.53820000  0.12000000  0.87420000  1.0 0.1221708423
H  H170  1  0.79010000  0.21510000  0.49980000  1.0 0.1316800892
H  H171  1  0.50180000  0.05440000  0.74130000  1.0 0.1221708423
H  H172  1  0.77970000  0.08550000  0.41360000  1.0 0.1221708423
H  H173  1  0.79050000  0.29180000  0.53880000  1.0 0.1221708423
H  H174  1  0.87760000  0.32690000  0.45710000  1.0 0.1126932105
H  H175  1  0.65350000  0.05470000  0.74530000  1.0 0.1221708423
H  H176  1  0.52020000  0.02210000  0.68290000  1.0 0.1221708423
H  H177  1  0.44730000  0.10300000  0.74240000  1.0 0.1126932105
H  H178  1  0.45920000  0.08020000  0.87150000  1.0 0.1221708423
H  H179  1  0.74410000  0.02030000  0.43880000  1.0 0.1517698372
H  H180  1  0.67540000  0.09620000  0.51260000  1.0 0.1517698372
H  H181  1  0.82660000  0.36090000  0.59350000  1.0 0.1316800892
H  H182  1  0.91260000  0.39540000  0.50990000  1.0 0.1316800892
H  H183  1  0.67370000  0.02040000  0.68020000  1.0 0.136879785
H  H184  1  0.53850000  0.99230000  0.61490000  1.0 0.136879785
H  H185  1  0.36930000  0.10720000  0.73880000  1.0 0.1316800892
H  H186  1  0.38110000  0.08170000  0.86890000  1.0 0.1221708423
C  C1  1  0.77460000  0.81710000  0.19790000  1.0 0.5390973511
C  C2  1  0.81060000  0.98350000  0.26310000  1.0 0.5331952776
C  C3  1  0.82710000  0.91970000  0.13700000  1.0 0.5592203338
C  C4  1  0.77740000  0.76750000  0.19940000  1.0 -0.0010839456
C  C5  1  0.83110000  0.02900000  0.29940000  1.0 0.0029321614
C  C6  1  0.85491000  0.92587000  0.09840000  1.0 -0.0096231699
C  C7  1  0.80680000  0.75900000  0.23640000  1.0 -0.08712901
C  C8  1  0.75120000  0.72960000  0.16450000  1.0 -0.0813623932
C  C9  1  0.82770000  0.07200000  0.29190000  1.0 -0.0741264393
C  C10  1  0.85630000  0.02480000  0.34320000  1.0 -0.0813623932
C  C11  1  0.90208000  0.92376000  0.10482000  1.0 -0.0582791345
C  C12  1  0.83216000  0.93474000  0.05669000  1.0 0.0821593606
C  C13  1  0.81000000  0.71200000  0.23850000  1.0 -0.1500585372
C  C14  1  0.75411000  0.68511000  0.16681000  1.0 -0.1592260903
C  C15  1  0.84750000  0.11090000  0.32560000  1.0 -0.1592260903
C  C16  1  0.87630000  0.06370000  0.37850000  1.0 -0.1702657195
C  C17  1  0.92652000  0.93051000  0.06955000  1.0 -0.2202970959
C  C18  1  0.85663000  0.94153000  0.02144000  1.0 -0.1500585372
C  C19  1  0.78239000  0.67440000  0.20426000  1.0 0.0689632738
C  C20  1  0.87152000  0.10800000  0.36958000  1.0 0.0821593606
C  C21  1  0.90377000  0.93938000  0.02784000  1.0 0.0613986033
C  C22  1  0.78468000  0.62522000  0.20678000  1.0 0.0882744841
C  C23  1  0.89500000  0.15231000  0.40712000  1.0 0.0882744841
C  C24  1  0.93834000  0.95440000  0.99976000  1.0 0.0290002658
C  C25  1  0.82468000  0.61122000  0.22596000  1.0 -0.1971512662
C  C26  1  0.74357000  0.59011000  0.18874000  1.0 -0.1896319037
C  C27  1  0.91562000  0.19148000  0.39524000  1.0 -0.1896319037
C  C28  1  0.89330000  0.15320000  0.45350000  1.0 -0.1971512662
C  C29  1  0.95850000  0.91640000  0.97560000  1.0 -0.0096231699
C  C30  1  0.82537000  0.56471000  0.22924000  1.0 0.0882744841
C  C31  1  0.74325000  0.54263000  0.18974000  1.0 0.0882744841
C  C32  1  0.93499000  0.23401000  0.42913000  1.0 0.0882744841
C  C33  1  0.91058000  0.19313000  0.48818000  1.0 0.0882744841
C  C34  1  0.78446000  0.53158000  0.20962000  1.0 -0.1896319037
C  C35  1  0.86640000  0.54920000  0.24965000  1.0 0.0369699366
C  C36  1  0.69906000  0.50846000  0.16853000  1.0 0.0689632738
C  C37  1  0.93213000  0.23213000  0.47503000  1.0 -0.1896319037
C  C38  1  0.95825000  0.27617000  0.41546000  1.0 0.0613986033
C  C39  1  0.90902000  0.19312000  0.53712000  1.0 0.0613986033
C  C40  1  0.91110000  0.56590000  0.24060000  1.0 -0.1766087489
C  C41  1  0.86530000  0.51150000  0.27210000  1.0 -0.0186468586
C  C42  1  0.68786000  0.46734000  0.18470000  1.0 -0.1592260903
C  C43  1  0.66666667  0.51530000  0.13330000  1.0 -0.1592260903
C  C44  1  0.95940000  0.28070000  0.37030000  1.0 -0.1592260903
C  C45  1  0.97780000  0.31760000  0.44850000  1.0 -0.1500585372
C  C46  1  0.90100000  0.23170000  0.56560000  1.0 -0.1592260903
C  C47  1  0.91480000  0.15560000  0.55860000  1.0 -0.1500585372
C  C48  1  0.95070000  0.55090000  0.26280000  1.0 -0.1050660761
C  C49  1  0.90580000  0.50780000  0.30400000  1.0 -0.0407600777
C  C50  1  0.64550000  0.43460000  0.16350000  1.0 -0.0813623932
C  C51  1  0.62480000  0.48400000  0.11230000  1.0 -0.08712901
C  C52  1  0.97920000  0.31980000  0.35760000  1.0 -0.0813623932
C  C53  1  0.99650000  0.35840000  0.43790000  1.0 -0.0813623932
C  C54  1  0.89886000  0.23437000  0.61307000  1.0 -0.0813623932
C  C55  1  0.91370000  0.15680000  0.60590000  1.0 -0.0741264393
C  C56  1  0.94790000  0.52310000  0.29250000  1.0 -0.0186468586
C  C57  1  0.61384000  0.44394000  0.12894000  1.0 -0.0096231699
C  C58  1  0.99900000  0.36020000  0.39160000  1.0 -0.0010839456
C  C59  1  0.90545000  0.19625000  0.63335000  1.0 -0.0010839456
C  C60  1  0.99220000  0.50850000  0.31740000  1.0 0.5390973511
C  C61  1  0.56790000  0.41190000  0.10780000  1.0 0.5331952776
C  C62  1  0.02219000  0.40431000  0.38010000  1.0 0.5390973511
C  C63  1  0.90630000  0.19740000  0.68430000  1.0 0.5390973511
C  C64  1  0.44730000  0.34680000  0.13690000  1.0 0.5390973511
C  C65  1  0.41944000  0.33720000  0.17346000  1.0 -0.0285673843
C  C66  1  0.40230000  0.37220000  0.19850000  1.0 -0.0186468586
C  C67  1  0.40460000  0.29060000  0.17610000  1.0 0.0613986033
C  C68  1  0.37020000  0.36080000  0.22610000  1.0 0.021412368
C  C69  1  0.37260000  0.27930000  0.20380000  1.0 -0.0010839456
C  C70  1  0.35540000  0.31440000  0.22880000  1.0 0.0290002658
C  C71  1  0.32840000  0.30770000  0.26580000  1.0 0.0613986033
C  C72  1  0.29370000  0.33333333  0.27120000  1.0 0.021412368
C  C73  1  0.92381000  0.94070000  0.98539000  1.0 0.0689632738
C  C74  1  0.97330000  0.93030000  0.99070000  1.0 -0.0469782323
C  C75  1  0.41510000  0.37650000  0.20420000  1.0 0.0689632738
C  C76  1  0.39080000  0.37420000  0.24040000  1.0 -0.0186468586
C  C77  1  0.37390000  0.33020000  0.24850000  1.0 0.0369699366
C  C78  1  0.38780000  0.29240000  0.22380000  1.0 0.0029321614
C  C79  1  0.41500000  0.29930000  0.19060000  1.0 0.0115858639
C  C80  1  0.34700000  0.32620000  0.28600000  1.0 0.0521057283
C  C81  1  0.31240000  0.35190000  0.29130000  1.0 0.0115858639
C  C82  1  0.86520000  0.52300000  0.28440000  1.0 0.0115858639
C  C83  1  0.81710000  0.19790000  0.77460000  1.0 0.5390973511
C  C84  1  0.98350000  0.26310000  0.81060000  1.0 0.5331952776
C  C85  1  0.91970000  0.13700000  0.82710000  1.0 0.5592203338
C  C86  1  0.76750000  0.19940000  0.77740000  1.0 -0.0010839456
C  C87  1  0.02900000  0.29940000  0.83110000  1.0 0.0029321614
C  C88  1  0.92587000  0.09840000  0.85491000  1.0 -0.0096231699
C  C89  1  0.75900000  0.23640000  0.80680000  1.0 -0.08712901
C  C90  1  0.72960000  0.16450000  0.75120000  1.0 -0.0813623932
C  C91  1  0.07200000  0.29190000  0.82770000  1.0 -0.0741264393
C  C92  1  0.02480000  0.34320000  0.85630000  1.0 -0.0813623932
C  C93  1  0.92376000  0.10482000  0.90208000  1.0 -0.0582791345
C  C94  1  0.93474000  0.05669000  0.83216000  1.0 0.0821593606
C  C95  1  0.71200000  0.23850000  0.81000000  1.0 -0.1500585372
C  C96  1  0.68511000  0.16681000  0.75411000  1.0 -0.1592260903
C  C97  1  0.11090000  0.32560000  0.84750000  1.0 -0.1592260903
C  C98  1  0.06370000  0.37850000  0.87630000  1.0 -0.1702657195
C  C99  1  0.93051000  0.06955000  0.92652000  1.0 -0.2202970959
C  C100  1  0.94153000  0.02144000  0.85663000  1.0 -0.1445090773
C  C101  1  0.67440000  0.20426000  0.78239000  1.0 0.0689632738
C  C102  1  0.10800000  0.36958000  0.87152000  1.0 0.0821593606
C  C103  1  0.93938000  0.02784000  0.90377000  1.0 0.0613986033
C  C104  1  0.62522000  0.20678000  0.78468000  1.0 0.0882744841
C  C105  1  0.15231000  0.40712000  0.89500000  1.0 0.0882744841
C  C106  1  0.95440000  0.99976000  0.93834000  1.0 0.0290002658
C  C107  1  0.61122000  0.22596000  0.82468000  1.0 -0.1971512662
C  C108  1  0.59011000  0.18874000  0.74357000  1.0 -0.1896319037
C  C109  1  0.19148000  0.39524000  0.91562000  1.0 -0.1896319037
C  C110  1  0.15320000  0.45350000  0.89330000  1.0 -0.1971512662
C  C111  1  0.91640000  0.97560000  0.95850000  1.0 -0.0096231699
C  C112  1  0.56471000  0.22924000  0.82537000  1.0 0.0882744841
C  C113  1  0.54263000  0.18974000  0.74325000  1.0 0.0882744841
C  C114  1  0.23401000  0.42913000  0.93499000  1.0 0.0882744841
C  C115  1  0.19313000  0.48818000  0.91058000  1.0 0.0882744841
C  C116  1  0.53158000  0.20962000  0.78446000  1.0 -0.1896319037
C  C117  1  0.54920000  0.24965000  0.86640000  1.0 0.0369699366
C  C118  1  0.50846000  0.16853000  0.69906000  1.0 0.0689632738
C  C119  1  0.23213000  0.47503000  0.93213000  1.0 -0.1896319037
C  C120  1  0.27617000  0.41546000  0.95825000  1.0 0.0613986033
C  C121  1  0.19312000  0.53712000  0.90902000  1.0 0.0613986033
C  C122  1  0.56590000  0.24060000  0.91110000  1.0 -0.1766087489
C  C123  1  0.51150000  0.27210000  0.86530000  1.0 -0.0186468586
C  C124  1  0.46734000  0.18470000  0.68786000  1.0 -0.1592260903
C  C125  1  0.51530000  0.13330000  0.66666667  1.0 -0.1592260903
C  C126  1  0.28070000  0.37030000  0.95940000  1.0 -0.1592260903
C  C127  1  0.31760000  0.44850000  0.97780000  1.0 -0.1500585372
C  C128  1  0.23170000  0.56560000  0.90100000  1.0 -0.1592260903
C  C129  1  0.15560000  0.55860000  0.91480000  1.0 -0.1500585372
C  C130  1  0.55090000  0.26280000  0.95070000  1.0 -0.1050660761
C  C131  1  0.50780000  0.30400000  0.90580000  1.0 -0.0407600777
C  C132  1  0.43460000  0.16350000  0.64550000  1.0 -0.0813623932
C  C133  1  0.48400000  0.11230000  0.62480000  1.0 -0.08712901
C  C134  1  0.31980000  0.35760000  0.97920000  1.0 -0.0813623932
C  C135  1  0.35840000  0.43790000  0.99650000  1.0 -0.0813623932
C  C136  1  0.23437000  0.61307000  0.89886000  1.0 -0.0813623932
C  C137  1  0.15680000  0.60590000  0.91370000  1.0 -0.0741264393
C  C138  1  0.52310000  0.29250000  0.94790000  1.0 -0.0186468586
C  C139  1  0.44394000  0.12894000  0.61384000  1.0 -0.0096231699
C  C140  1  0.36020000  0.39160000  0.99900000  1.0 -0.0010839456
C  C141  1  0.19625000  0.63335000  0.90545000  1.0 -0.0010839456
C  C142  1  0.50850000  0.31740000  0.99220000  1.0 0.5390973511
C  C143  1  0.41190000  0.10780000  0.56790000  1.0 0.5331952776
C  C144  1  0.40431000  0.38010000  0.02219000  1.0 0.5390973511
C  C145  1  0.19740000  0.68430000  0.90630000  1.0 0.5390973511
C  C146  1  0.34680000  0.13690000  0.44730000  1.0 0.5390973511
C  C147  1  0.33720000  0.17346000  0.41944000  1.0 -0.0285673843
C  C148  1  0.37220000  0.19850000  0.40230000  1.0 -0.0186468586
C  C149  1  0.29060000  0.17610000  0.40460000  1.0 0.0613986033
C  C150  1  0.36080000  0.22610000  0.37020000  1.0 0.0115858639
C  C151  1  0.27930000  0.20380000  0.37260000  1.0 0.0029321614
C  C152  1  0.31440000  0.22880000  0.35540000  1.0 0.0290002658
C  C153  1  0.30770000  0.26580000  0.32840000  1.0 0.0613986033
C  C154  1  0.33333333  0.27120000  0.29370000  1.0 0.021412368
C  C155  1  0.94070000  0.98539000  0.92381000  1.0 0.0689632738
C  C156  1  0.93030000  0.99070000  0.97330000  1.0 -0.0469782323
C  C157  1  0.37650000  0.20420000  0.41510000  1.0 0.0821593606
C  C158  1  0.37420000  0.24040000  0.39080000  1.0 -0.0096231699
C  C159  1  0.33020000  0.24850000  0.37390000  1.0 0.0369699366
C  C160  1  0.29240000  0.22380000  0.38780000  1.0 0.0115858639
C  C161  1  0.29930000  0.19060000  0.41500000  1.0 0.0115858639
C  C162  1  0.32620000  0.28600000  0.34700000  1.0 0.0521057283
C  C163  1  0.35190000  0.29130000  0.31240000  1.0 0.0115858639
C  C164  1  0.52300000  0.28440000  0.86520000  1.0 0.0115858639
C  C165  1  0.19790000  0.77460000  0.81710000  1.0 0.5390973511
C  C166  1  0.26310000  0.81060000  0.98350000  1.0 0.5331952776
C  C167  1  0.13700000  0.82710000  0.91970000  1.0 0.5592203338
C  C168  1  0.19940000  0.77740000  0.76750000  1.0 -0.0010839456
C  C169  1  0.29940000  0.83110000  0.02900000  1.0 0.0029321614
C  C170  1  0.09840000  0.85491000  0.92587000  1.0 -0.0096231699
C  C171  1  0.23640000  0.80680000  0.75900000  1.0 -0.08712901
C  C172  1  0.16450000  0.75120000  0.72960000  1.0 -0.0813623932
C  C173  1  0.29190000  0.82770000  0.07200000  1.0 -0.0741264393
C  C174  1  0.34320000  0.85630000  0.02480000  1.0 -0.0813623932
C  C175  1  0.10482000  0.90208000  0.92376000  1.0 -0.0582791345
C  C176  1  0.05669000  0.83216000  0.93474000  1.0 0.0821593606
C  C177  1  0.23850000  0.81000000  0.71200000  1.0 -0.1500585372
C  C178  1  0.16681000  0.75411000  0.68511000  1.0 -0.1592260903
C  C179  1  0.32560000  0.84750000  0.11090000  1.0 -0.1592260903
C  C180  1  0.37850000  0.87630000  0.06370000  1.0 -0.1702657195
C  C181  1  0.06955000  0.92652000  0.93051000  1.0 -0.2202970959
C  C182  1  0.02144000  0.85663000  0.94153000  1.0 -0.1500585372
C  C183  1  0.20426000  0.78239000  0.67440000  1.0 0.0689632738
C  C184  1  0.36958000  0.87152000  0.10800000  1.0 0.0821593606
C  C185  1  0.02784000  0.90377000  0.93938000  1.0 0.0613986033
C  C186  1  0.20678000  0.78468000  0.62522000  1.0 0.0882744841
C  C187  1  0.40712000  0.89500000  0.15231000  1.0 0.0882744841
C  C188  1  0.99976000  0.93834000  0.95440000  1.0 0.0290002658
C  C189  1  0.22596000  0.82468000  0.61122000  1.0 -0.1971512662
C  C190  1  0.18874000  0.74357000  0.59011000  1.0 -0.1896319037
C  C191  1  0.39524000  0.91562000  0.19148000  1.0 -0.1896319037
C  C192  1  0.45350000  0.89330000  0.15320000  1.0 -0.1971512662
C  C193  1  0.97560000  0.95850000  0.91640000  1.0 -0.0096231699
C  C194  1  0.22924000  0.82537000  0.56471000  1.0 0.0882744841
C  C195  1  0.18974000  0.74325000  0.54263000  1.0 0.0882744841
C  C196  1  0.42913000  0.93499000  0.23401000  1.0 0.0882744841
C  C197  1  0.48818000  0.91058000  0.19313000  1.0 0.0882744841
C  C198  1  0.20962000  0.78446000  0.53158000  1.0 -0.1896319037
C  C199  1  0.24965000  0.86640000  0.54920000  1.0 0.0369699366
C  C200  1  0.16853000  0.69906000  0.50846000  1.0 0.0689632738
C  C201  1  0.47503000  0.93213000  0.23213000  1.0 -0.1896319037
C  C202  1  0.41546000  0.95825000  0.27617000  1.0 0.0613986033
C  C203  1  0.53712000  0.90902000  0.19312000  1.0 0.0613986033
C  C204  1  0.24060000  0.91110000  0.56590000  1.0 -0.1766087489
C  C205  1  0.27210000  0.86530000  0.51150000  1.0 -0.0186468586
C  C206  1  0.18470000  0.68786000  0.46734000  1.0 -0.1592260903
C  C207  1  0.13330000  0.66666667  0.51530000  1.0 -0.1592260903
C  C208  1  0.37030000  0.95940000  0.28070000  1.0 -0.1592260903
C  C209  1  0.44850000  0.97780000  0.31760000  1.0 -0.1500585372
C  C210  1  0.56560000  0.90100000  0.23170000  1.0 -0.1592260903
C  C211  1  0.55860000  0.91480000  0.15560000  1.0 -0.1500585372
C  C212  1  0.26280000  0.95070000  0.55090000  1.0 -0.1042039918
C  C213  1  0.30400000  0.90580000  0.50780000  1.0 -0.0407600777
C  C214  1  0.16350000  0.64550000  0.43460000  1.0 -0.0813623932
C  C215  1  0.11230000  0.62480000  0.48400000  1.0 -0.08712901
C  C216  1  0.35760000  0.97920000  0.31980000  1.0 -0.0813623932
C  C217  1  0.43790000  0.99650000  0.35840000  1.0 -0.0813623932
C  C218  1  0.61307000  0.89886000  0.23437000  1.0 -0.0813623932
C  C219  1  0.60590000  0.91370000  0.15680000  1.0 -0.0741264393
C  C220  1  0.29250000  0.94790000  0.52310000  1.0 -0.0186468586
C  C221  1  0.12894000  0.61384000  0.44394000  1.0 -0.0096231699
C  C222  1  0.39160000  0.99900000  0.36020000  1.0 -0.0010839456
C  C223  1  0.63335000  0.90545000  0.19625000  1.0 -0.0010839456
C  C224  1  0.31740000  0.99220000  0.50850000  1.0 0.5390973511
C  C225  1  0.10780000  0.56790000  0.41190000  1.0 0.5331952776
C  C226  1  0.38010000  0.02219000  0.40431000  1.0 0.5390973511
C  C227  1  0.68430000  0.90630000  0.19740000  1.0 0.5390973511
C  C228  1  0.13690000  0.44730000  0.34680000  1.0 0.5390973511
C  C229  1  0.17346000  0.41944000  0.33720000  1.0 -0.0285673843
C  C230  1  0.19850000  0.40230000  0.37220000  1.0 -0.0186468586
C  C231  1  0.17610000  0.40460000  0.29060000  1.0 0.0613986033
C  C232  1  0.22610000  0.37020000  0.36080000  1.0 0.0115858639
C  C233  1  0.20380000  0.37260000  0.27930000  1.0 0.0029321614
C  C234  1  0.22880000  0.35540000  0.31440000  1.0 0.0290002658
C  C235  1  0.26580000  0.32840000  0.30770000  1.0 0.0613986033
C  C236  1  0.27120000  0.29370000  0.33333333  1.0 0.021412368
C  C237  1  0.98539000  0.92381000  0.94070000  1.0 0.0689632738
C  C238  1  0.99070000  0.97330000  0.93030000  1.0 -0.0469782323
C  C239  1  0.20420000  0.41510000  0.37650000  1.0 0.0689632738
C  C240  1  0.24040000  0.39080000  0.37420000  1.0 -0.0186468586
C  C241  1  0.24850000  0.37390000  0.33020000  1.0 0.0369699366
C  C242  1  0.22380000  0.38780000  0.29240000  1.0 0.0029321614
C  C243  1  0.19060000  0.41500000  0.29930000  1.0 0.021412368
C  C244  1  0.28600000  0.34700000  0.32620000  1.0 0.0521057283
C  C245  1  0.29130000  0.31240000  0.35190000  1.0 0.0115858639
C  C246  1  0.28440000  0.86520000  0.52300000  1.0 0.0115858639
C  C247  1  0.22540000  0.18290000  0.80210000  1.0 0.5390973511
C  C248  1  0.18940000  0.01650000  0.73690000  1.0 0.5331952776
C  C249  1  0.17290000  0.08030000  0.86300000  1.0 0.5592203338
C  C250  1  0.22260000  0.23250000  0.80060000  1.0 -0.0010839456
C  C251  1  0.16890000  0.97100000  0.70060000  1.0 0.0029321614
C  C252  1  0.14509000  0.07413000  0.90160000  1.0 -0.0096231699
C  C253  1  0.19320000  0.24100000  0.76360000  1.0 -0.08712901
C  C254  1  0.24880000  0.27040000  0.83550000  1.0 -0.0813623932
C  C255  1  0.17230000  0.92800000  0.70810000  1.0 -0.0741264393
C  C256  1  0.14370000  0.97520000  0.65680000  1.0 -0.0813623932
C  C257  1  0.09792000  0.07624000  0.89518000  1.0 -0.0582791345
C  C258  1  0.16784000  0.06526000  0.94331000  1.0 0.0821593606
C  C259  1  0.19000000  0.28800000  0.76150000  1.0 -0.1500585372
C  C260  1  0.24589000  0.31489000  0.83319000  1.0 -0.1592260903
C  C261  1  0.15250000  0.88910000  0.67440000  1.0 -0.1592260903
C  C262  1  0.12370000  0.93630000  0.62150000  1.0 -0.1702657195
C  C263  1  0.07348000  0.06949000  0.93045000  1.0 -0.2202970959
C  C264  1  0.14337000  0.05847000  0.97856000  1.0 -0.1500585372
C  C265  1  0.21761000  0.32560000  0.79574000  1.0 0.0689632738
C  C266  1  0.12848000  0.89200000  0.63042000  1.0 0.0821593606
C  C267  1  0.09623000  0.06062000  0.97216000  1.0 0.0613986033
C  C268  1  0.21532000  0.37478000  0.79322000  1.0 0.0882744841
C  C269  1  0.10500000  0.84769000  0.59288000  1.0 0.0882744841
C  C270  1  0.06166000  0.04560000  0.00024000  1.0 0.0290002658
C  C271  1  0.17532000  0.38878000  0.77404000  1.0 -0.1971512662
C  C272  1  0.25643000  0.40989000  0.81126000  1.0 -0.1896319037
C  C273  1  0.08438000  0.80852000  0.60476000  1.0 -0.1896319037
C  C274  1  0.10670000  0.84680000  0.54650000  1.0 -0.1971512662
C  C275  1  0.04150000  0.08360000  0.02440000  1.0 -0.0096231699
C  C276  1  0.17463000  0.43529000  0.77076000  1.0 0.0882744841
C  C277  1  0.25675000  0.45737000  0.81026000  1.0 0.0882744841
C  C278  1  0.06501000  0.76599000  0.57087000  1.0 0.0882744841
C  C279  1  0.08942000  0.80687000  0.51182000  1.0 0.0882744841
C  C280  1  0.21554000  0.46842000  0.79038000  1.0 -0.1896319037
C  C281  1  0.13360000  0.45080000  0.75035000  1.0 0.0369699366
C  C282  1  0.30094000  0.49154000  0.83147000  1.0 0.0689632738
C  C283  1  0.06787000  0.76787000  0.52497000  1.0 -0.1896319037
C  C284  1  0.04175000  0.72383000  0.58454000  1.0 0.0613986033
C  C285  1  0.09098000  0.80688000  0.46288000  1.0 0.0613986033
C  C286  1  0.08890000  0.43410000  0.75940000  1.0 -0.1766087489
C  C287  1  0.13470000  0.48850000  0.72790000  1.0 -0.0186468586
C  C288  1  0.31214000  0.53266000  0.81530000  1.0 -0.1592260903
C  C289  1  0.33333333  0.48470000  0.86670000  1.0 -0.1592260903
C  C290  1  0.04060000  0.71930000  0.62970000  1.0 -0.1592260903
C  C291  1  0.02220000  0.68240000  0.55150000  1.0 -0.1500585372
C  C292  1  0.09900000  0.76830000  0.43440000  1.0 -0.1592260903
C  C293  1  0.08520000  0.84440000  0.44140000  1.0 -0.1500585372
C  C294  1  0.04930000  0.44910000  0.73720000  1.0 -0.1050660761
C  C295  1  0.09420000  0.49220000  0.69600000  1.0 -0.0407600777
C  C296  1  0.35450000  0.56540000  0.83650000  1.0 -0.0813623932
C  C297  1  0.37520000  0.51600000  0.88770000  1.0 -0.08712901
C  C298  1  0.02080000  0.68020000  0.64240000  1.0 -0.0813623932
C  C299  1  0.00350000  0.64160000  0.56210000  1.0 -0.0813623932
C  C300  1  0.10114000  0.76563000  0.38693000  1.0 -0.0813623932
C  C301  1  0.08630000  0.84320000  0.39410000  1.0 -0.0741264393
C  C302  1  0.05210000  0.47690000  0.70750000  1.0 -0.0186468586
C  C303  1  0.38616000  0.55606000  0.87106000  1.0 -0.0096231699
C  C304  1  0.00100000  0.63980000  0.60840000  1.0 -0.0010839456
C  C305  1  0.09455000  0.80375000  0.36665000  1.0 -0.0010839456
C  C306  1  0.00780000  0.49150000  0.68260000  1.0 0.5390973511
C  C307  1  0.43210000  0.58810000  0.89220000  1.0 0.5331952776
C  C308  1  0.97781000  0.59569000  0.61990000  1.0 0.5390973511
C  C309  1  0.09370000  0.80260000  0.31570000  1.0 0.5390973511
C  C310  1  0.55270000  0.65320000  0.86310000  1.0 0.5390973511
C  C311  1  0.58056000  0.66280000  0.82654000  1.0 -0.0285673843
C  C312  1  0.59770000  0.62780000  0.80150000  1.0 -0.0186468586
C  C313  1  0.59540000  0.70940000  0.82390000  1.0 0.0613986033
C  C314  1  0.62980000  0.63920000  0.77390000  1.0 0.0115858639
C  C315  1  0.62740000  0.72070000  0.79620000  1.0 0.0115858639
C  C316  1  0.64460000  0.68560000  0.77120000  1.0 0.0290002658
C  C317  1  0.67160000  0.69230000  0.73420000  1.0 0.0613986033
C  C318  1  0.70630000  0.66666667  0.72880000  1.0 0.021412368
C  C319  1  0.07619000  0.05930000  0.01461000  1.0 0.0689632738
C  C320  1  0.02670000  0.06970000  0.00930000  1.0 -0.0469782323
C  C321  1  0.58490000  0.62350000  0.79580000  1.0 0.0821593606
C  C322  1  0.60920000  0.62580000  0.75960000  1.0 -0.0186468586
C  C323  1  0.62610000  0.66980000  0.75150000  1.0 0.0369699366
C  C324  1  0.61220000  0.70760000  0.77620000  1.0 0.0029321614
C  C325  1  0.58500000  0.70070000  0.80940000  1.0 0.0115858639
C  C326  1  0.65300000  0.67380000  0.71400000  1.0 0.0521057283
C  C327  1  0.68760000  0.64810000  0.70870000  1.0 0.0115858639
C  C328  1  0.13480000  0.47700000  0.71560000  1.0 0.0115858639
C  C329  1  0.18290000  0.80210000  0.22540000  1.0 0.5390973511
C  C330  1  0.01650000  0.73690000  0.18940000  1.0 0.5331952776
C  C331  1  0.08030000  0.86300000  0.17290000  1.0 0.5592203338
C  C332  1  0.23250000  0.80060000  0.22260000  1.0 -0.0010839456
C  C333  1  0.97100000  0.70060000  0.16890000  1.0 0.0029321614
C  C334  1  0.07413000  0.90160000  0.14509000  1.0 -0.0096231699
C  C335  1  0.24100000  0.76360000  0.19320000  1.0 -0.08712901
C  C336  1  0.27040000  0.83550000  0.24880000  1.0 -0.0813623932
C  C337  1  0.92800000  0.70810000  0.17230000  1.0 -0.0741264393
C  C338  1  0.97520000  0.65680000  0.14370000  1.0 -0.0813623932
C  C339  1  0.07624000  0.89518000  0.09792000  1.0 -0.0582791345
C  C340  1  0.06526000  0.94331000  0.16784000  1.0 0.0821593606
C  C341  1  0.28800000  0.76150000  0.19000000  1.0 -0.1500585372
C  C342  1  0.31489000  0.83319000  0.24589000  1.0 -0.1592260903
C  C343  1  0.88910000  0.67440000  0.15250000  1.0 -0.1592260903
C  C344  1  0.93630000  0.62150000  0.12370000  1.0 -0.1702657195
C  C345  1  0.06949000  0.93045000  0.07348000  1.0 -0.2202970959
C  C346  1  0.05847000  0.97856000  0.14337000  1.0 -0.1500585372
C  C347  1  0.32560000  0.79574000  0.21761000  1.0 0.0689632738
C  C348  1  0.89200000  0.63042000  0.12848000  1.0 0.0821593606
C  C349  1  0.06062000  0.97216000  0.09623000  1.0 0.0613986033
C  C350  1  0.37478000  0.79322000  0.21532000  1.0 0.0882744841
C  C351  1  0.84769000  0.59288000  0.10500000  1.0 0.0882744841
C  C352  1  0.04560000  0.00024000  0.06166000  1.0 0.0290002658
C  C353  1  0.38878000  0.77404000  0.17532000  1.0 -0.1971512662
C  C354  1  0.40989000  0.81126000  0.25643000  1.0 -0.1896319037
C  C355  1  0.80852000  0.60476000  0.08438000  1.0 -0.1896319037
C  C356  1  0.84680000  0.54650000  0.10670000  1.0 -0.1971512662
C  C357  1  0.08360000  0.02440000  0.04150000  1.0 -0.0096231699
C  C358  1  0.43529000  0.77076000  0.17463000  1.0 0.0882744841
C  C359  1  0.45737000  0.81026000  0.25675000  1.0 0.0882744841
C  C360  1  0.76599000  0.57087000  0.06501000  1.0 0.0882744841
C  C361  1  0.80687000  0.51182000  0.08942000  1.0 0.0882744841
C  C362  1  0.46842000  0.79038000  0.21554000  1.0 -0.1896319037
C  C363  1  0.45080000  0.75035000  0.13360000  1.0 0.0369699366
C  C364  1  0.49154000  0.83147000  0.30094000  1.0 0.0689632738
C  C365  1  0.76787000  0.52497000  0.06787000  1.0 -0.1896319037
C  C366  1  0.72383000  0.58454000  0.04175000  1.0 0.0613986033
C  C367  1  0.80688000  0.46288000  0.09098000  1.0 0.0613986033
C  C368  1  0.43410000  0.75940000  0.08890000  1.0 -0.1766087489
C  C369  1  0.48850000  0.72790000  0.13470000  1.0 -0.0186468586
C  C370  1  0.53266000  0.81530000  0.31214000  1.0 -0.1592260903
C  C371  1  0.48470000  0.86670000  0.33333333  1.0 -0.1592260903
C  C372  1  0.71930000  0.62970000  0.04060000  1.0 -0.1592260903
C  C373  1  0.68240000  0.55150000  0.02220000  1.0 -0.1500585372
C  C374  1  0.76830000  0.43440000  0.09900000  1.0 -0.1592260903
C  C375  1  0.84440000  0.44140000  0.08520000  1.0 -0.1500585372
C  C376  1  0.44910000  0.73720000  0.04930000  1.0 -0.1050660761
C  C377  1  0.49220000  0.69600000  0.09420000  1.0 -0.0407600777
C  C378  1  0.56540000  0.83650000  0.35450000  1.0 -0.0813623932
C  C379  1  0.51600000  0.88770000  0.37520000  1.0 -0.08712901
C  C380  1  0.68020000  0.64240000  0.02080000  1.0 -0.0813623932
C  C381  1  0.64160000  0.56210000  0.00350000  1.0 -0.0813623932
C  C382  1  0.76563000  0.38693000  0.10114000  1.0 -0.0813623932
C  C383  1  0.84320000  0.39410000  0.08630000  1.0 -0.0741264393
C  C384  1  0.47690000  0.70750000  0.05210000  1.0 -0.0186468586
C  C385  1  0.55606000  0.87106000  0.38616000  1.0 -0.0096231699
C  C386  1  0.63980000  0.60840000  0.00100000  1.0 -0.0010839456
C  C387  1  0.80375000  0.36665000  0.09455000  1.0 -0.0010839456
C  C388  1  0.49150000  0.68260000  0.00780000  1.0 0.5390973511
C  C389  1  0.58810000  0.89220000  0.43210000  1.0 0.5331952776
C  C390  1  0.59569000  0.61990000  0.97781000  1.0 0.5390973511
C  C391  1  0.80260000  0.31570000  0.09370000  1.0 0.5390973511
C  C392  1  0.65320000  0.86310000  0.55270000  1.0 0.5390973511
C  C393  1  0.66280000  0.82654000  0.58056000  1.0 -0.0285673843
C  C394  1  0.62780000  0.80150000  0.59770000  1.0 -0.0285673843
C  C395  1  0.70940000  0.82390000  0.59540000  1.0 0.0613986033
C  C396  1  0.63920000  0.77390000  0.62980000  1.0 0.0115858639
C  C397  1  0.72070000  0.79620000  0.62740000  1.0 0.0029321614
C  C398  1  0.68560000  0.77120000  0.64460000  1.0 0.0290002658
C  C399  1  0.69230000  0.73420000  0.67160000  1.0 0.0613986033
C  C400  1  0.66666667  0.72880000  0.70630000  1.0 0.021412368
C  C401  1  0.05930000  0.01461000  0.07619000  1.0 0.0689632738
C  C402  1  0.06970000  0.00930000  0.02670000  1.0 -0.0469782323
C  C403  1  0.62350000  0.79580000  0.58490000  1.0 0.0689632738
C  C404  1  0.62580000  0.75960000  0.60920000  1.0 -0.0096231699
C  C405  1  0.66980000  0.75150000  0.62610000  1.0 0.0369699366
C  C406  1  0.70760000  0.77620000  0.61220000  1.0 0.0029321614
C  C407  1  0.70070000  0.80940000  0.58500000  1.0 0.0115858639
C  C408  1  0.67380000  0.71400000  0.65300000  1.0 0.0521057283
C  C409  1  0.64810000  0.70870000  0.68760000  1.0 0.0115858639
C  C410  1  0.47700000  0.71560000  0.13480000  1.0 0.0115858639
C  C411  1  0.80210000  0.22540000  0.18290000  1.0 0.5331952776
C  C412  1  0.73690000  0.18940000  0.01650000  1.0 0.5331952776
C  C413  1  0.86300000  0.17290000  0.08030000  1.0 0.5592203338
C  C414  1  0.80060000  0.22260000  0.23250000  1.0 -0.0010839456
C  C415  1  0.70060000  0.16890000  0.97100000  1.0 0.0029321614
C  C416  1  0.90160000  0.14509000  0.07413000  1.0 -0.0096231699
C  C417  1  0.76360000  0.19320000  0.24100000  1.0 -0.08712901
C  C418  1  0.83550000  0.24880000  0.27040000  1.0 -0.0813623932
C  C419  1  0.70810000  0.17230000  0.92800000  1.0 -0.0741264393
C  C420  1  0.65680000  0.14370000  0.97520000  1.0 -0.0813623932
C  C421  1  0.89518000  0.09792000  0.07624000  1.0 -0.0582791345
C  C422  1  0.94331000  0.16784000  0.06526000  1.0 0.0821593606
C  C423  1  0.76150000  0.19000000  0.28800000  1.0 -0.1500585372
C  C424  1  0.83319000  0.24589000  0.31489000  1.0 -0.1592260903
C  C425  1  0.67440000  0.15250000  0.88910000  1.0 -0.1592260903
C  C426  1  0.62150000  0.12370000  0.93630000  1.0 -0.1702657195
C  C427  1  0.93045000  0.07348000  0.06949000  1.0 -0.2202970959
C  C428  1  0.97856000  0.14337000  0.05847000  1.0 -0.1500585372
C  C429  1  0.79574000  0.21761000  0.32560000  1.0 0.0689632738
C  C430  1  0.63042000  0.12848000  0.89200000  1.0 0.0821593606
C  C431  1  0.97216000  0.09623000  0.06062000  1.0 0.0613986033
C  C432  1  0.79322000  0.21532000  0.37478000  1.0 0.0882744841
C  C433  1  0.59288000  0.10500000  0.84769000  1.0 0.0882744841
C  C434  1  0.00024000  0.06166000  0.04560000  1.0 0.0290002658
C  C435  1  0.77404000  0.17532000  0.38878000  1.0 -0.1971512662
C  C436  1  0.81126000  0.25643000  0.40989000  1.0 -0.1896319037
C  C437  1  0.60476000  0.08438000  0.80852000  1.0 -0.1896319037
C  C438  1  0.54650000  0.10670000  0.84680000  1.0 -0.1971512662
C  C439  1  0.02440000  0.04150000  0.08360000  1.0 -0.0096231699
C  C440  1  0.77076000  0.17463000  0.43529000  1.0 0.0882744841
C  C441  1  0.81026000  0.25675000  0.45737000  1.0 0.0882744841
C  C442  1  0.57087000  0.06501000  0.76599000  1.0 0.0882744841
C  C443  1  0.51182000  0.08942000  0.80687000  1.0 0.0882744841
C  C444  1  0.79038000  0.21554000  0.46842000  1.0 -0.1896319037
C  C445  1  0.75035000  0.13360000  0.45080000  1.0 0.0369699366
C  C446  1  0.83147000  0.30094000  0.49154000  1.0 0.0689632738
C  C447  1  0.52497000  0.06787000  0.76787000  1.0 -0.1896319037
C  C448  1  0.58454000  0.04175000  0.72383000  1.0 0.0613986033
C  C449  1  0.46288000  0.09098000  0.80688000  1.0 0.0613986033
C  C450  1  0.75940000  0.08890000  0.43410000  1.0 -0.1766087489
C  C451  1  0.72790000  0.13470000  0.48850000  1.0 -0.0186468586
C  C452  1  0.81530000  0.31214000  0.53266000  1.0 -0.1592260903
C  C453  1  0.86670000  0.33333333  0.48470000  1.0 -0.1592260903
C  C454  1  0.62970000  0.04060000  0.71930000  1.0 -0.1592260903
C  C455  1  0.55150000  0.02220000  0.68240000  1.0 -0.1500585372
C  C456  1  0.43440000  0.09900000  0.76830000  1.0 -0.1592260903
C  C457  1  0.44140000  0.08520000  0.84440000  1.0 -0.1500585372
C  C458  1  0.73720000  0.04930000  0.44910000  1.0 -0.1042039918
C  C459  1  0.69600000  0.09420000  0.49220000  1.0 -0.0407600777
C  C460  1  0.83650000  0.35450000  0.56540000  1.0 -0.0813623932
C  C461  1  0.88770000  0.37520000  0.51600000  1.0 -0.08712901
C  C462  1  0.64240000  0.02080000  0.68020000  1.0 -0.0813623932
C  C463  1  0.56210000  0.00350000  0.64160000  1.0 -0.0813623932
C  C464  1  0.38693000  0.10114000  0.76563000  1.0 -0.0813623932
C  C465  1  0.39410000  0.08630000  0.84320000  1.0 -0.0741264393
C  C466  1  0.70750000  0.05210000  0.47690000  1.0 -0.0186468586
C  C467  1  0.87106000  0.38616000  0.55606000  1.0 -0.0096231699
C  C468  1  0.60840000  0.00100000  0.63980000  1.0 -0.0010839456
C  C469  1  0.36665000  0.09455000  0.80375000  1.0 -0.0010839456
C  C470  1  0.68260000  0.00780000  0.49150000  1.0 0.5390973511
C  C471  1  0.89220000  0.43210000  0.58810000  1.0 0.5331952776
C  C472  1  0.61990000  0.97781000  0.59569000  1.0 0.5390973511
C  C473  1  0.31570000  0.09370000  0.80260000  1.0 0.5390973511
C  C474  1  0.86310000  0.55270000  0.65320000  1.0 0.5390973511
C  C475  1  0.82654000  0.58056000  0.66280000  1.0 -0.0285673843
C  C476  1  0.80150000  0.59770000  0.62780000  1.0 -0.0186468586
C  C477  1  0.82390000  0.59540000  0.70940000  1.0 0.0613986033
C  C478  1  0.77390000  0.62980000  0.63920000  1.0 0.0115858639
C  C479  1  0.79620000  0.62740000  0.72070000  1.0 0.0029321614
C  C480  1  0.77120000  0.64460000  0.68560000  1.0 0.0290002658
C  C481  1  0.73420000  0.67160000  0.69230000  1.0 0.0613986033
C  C482  1  0.72880000  0.70630000  0.66666667  1.0 0.021412368
C  C483  1  0.01461000  0.07619000  0.05930000  1.0 0.0689632738
C  C484  1  0.00930000  0.02670000  0.06970000  1.0 -0.0469782323
C  C485  1  0.79580000  0.58490000  0.62350000  1.0 0.0821593606
C  C486  1  0.75960000  0.60920000  0.62580000  1.0 -0.0096231699
C  C487  1  0.75150000  0.62610000  0.66980000  1.0 0.0369699366
C  C488  1  0.77620000  0.61220000  0.70760000  1.0 0.0115858639
C  C489  1  0.80940000  0.58500000  0.70070000  1.0 0.0115858639
C  C490  1  0.71400000  0.65300000  0.67380000  1.0 0.0521057283
C  C491  1  0.70870000  0.68760000  0.64810000  1.0 0.0115858639
C  C492  1  0.71560000  0.13480000  0.47700000  1.0 0.0115858639
O  O1  1  0.79619000  0.84915000  0.23051000  1.0 -0.4925846853
O  O2  1  0.75091000  0.82607000  0.16240000  1.0 -0.5175323407
O  O3  1  0.81493000  0.94604000  0.27112000  1.0 -0.4782490938
O  O4  1  0.78833000  0.98833000  0.22360000  1.0 -0.5392380789
O  O5  1  0.84822000  0.91532000  0.17636000  1.0 -0.5392380789
O  O6  1  0.78520000  0.91784000  0.12949000  1.0 -0.4987153359
O  O7  1  0.70817000  0.89745000  0.23339000  1.0 -0.5279334288
O  O8  1  0.70099000  0.91359000  0.16395000  1.0 -0.4782490938
O  O9  1  0.02617000  0.50968000  0.30019000  1.0 -0.4987153359
O  O10  1  0.99004000  0.49794000  0.35634000  1.0 -0.5175323407
O  O11  1  0.55822000  0.37402000  0.11882000  1.0 -0.4925846853
O  O12  1  0.53920000  0.42426000  0.07962000  1.0 -0.4925846853
O  O13  1  0.02444000  0.40560000  0.33783000  1.0 -0.5392380789
O  O14  1  0.03779000  0.43963000  0.41138000  1.0 -0.4925846853
O  O15  1  0.45821000  0.38797000  0.13039000  1.0 -0.4724611582
O  O16  1  0.45738000  0.31215000  0.11113000  1.0 -0.4590294313
O  O17  1  0.84915000  0.23051000  0.79619000  1.0 -0.4925846853
O  O18  1  0.82607000  0.16240000  0.75091000  1.0 -0.5175323407
O  O19  1  0.94604000  0.27112000  0.81493000  1.0 -0.4782490938
O  O20  1  0.98833000  0.22360000  0.78833000  1.0 -0.5392380789
O  O21  1  0.91532000  0.17636000  0.84822000  1.0 -0.5392380789
O  O22  1  0.91784000  0.12949000  0.78520000  1.0 -0.4987153359
O  O23  1  0.89745000  0.23339000  0.70817000  1.0 -0.5279334288
O  O24  1  0.91359000  0.16395000  0.70099000  1.0 -0.4782490938
O  O25  1  0.50968000  0.30019000  0.02617000  1.0 -0.4987153359
O  O26  1  0.49794000  0.35634000  0.99004000  1.0 -0.5175323407
O  O27  1  0.37402000  0.11882000  0.55822000  1.0 -0.4925846853
O  O28  1  0.42426000  0.07962000  0.53920000  1.0 -0.4925846853
O  O29  1  0.40560000  0.33783000  0.02444000  1.0 -0.5392380789
O  O30  1  0.43963000  0.41138000  0.03779000  1.0 -0.4925846853
O  O31  1  0.38797000  0.13039000  0.45821000  1.0 -0.4724611582
O  O32  1  0.31215000  0.11113000  0.45738000  1.0 -0.4590294313
O  O33  1  0.23051000  0.79619000  0.84915000  1.0 -0.4925846853
O  O34  1  0.16240000  0.75091000  0.82607000  1.0 -0.5175323407
O  O35  1  0.27112000  0.81493000  0.94604000  1.0 -0.4782490938
O  O36  1  0.22360000  0.78833000  0.98833000  1.0 -0.5392380789
O  O37  1  0.17636000  0.84822000  0.91532000  1.0 -0.5392380789
O  O38  1  0.12949000  0.78520000  0.91784000  1.0 -0.4987153359
O  O39  1  0.23339000  0.70817000  0.89745000  1.0 -0.5279334288
O  O40  1  0.16395000  0.70099000  0.91359000  1.0 -0.4782490938
O  O41  1  0.30019000  0.02617000  0.50968000  1.0 -0.4987153359
O  O42  1  0.35634000  0.99004000  0.49794000  1.0 -0.5175323407
O  O43  1  0.11882000  0.55822000  0.37402000  1.0 -0.4925846853
O  O44  1  0.07962000  0.53920000  0.42426000  1.0 -0.4925846853
O  O45  1  0.33783000  0.02444000  0.40560000  1.0 -0.5392380789
O  O46  1  0.41138000  0.03779000  0.43963000  1.0 -0.4925846853
O  O47  1  0.13039000  0.45821000  0.38797000  1.0 -0.4724611582
O  O48  1  0.11113000  0.45738000  0.31215000  1.0 -0.4590294313
O  O49  1  0.20381000  0.15085000  0.76949000  1.0 -0.4925846853
O  O50  1  0.24909000  0.17393000  0.83760000  1.0 -0.5175323407
O  O51  1  0.18507000  0.05396000  0.72888000  1.0 -0.4782490938
O  O52  1  0.21167000  0.01167000  0.77640000  1.0 -0.5392380789
O  O53  1  0.15178000  0.08468000  0.82364000  1.0 -0.5392380789
O  O54  1  0.21480000  0.08216000  0.87051000  1.0 -0.4987153359
O  O55  1  0.29183000  0.10255000  0.76661000  1.0 -0.5279334288
O  O56  1  0.29901000  0.08641000  0.83605000  1.0 -0.4782490938
O  O57  1  0.97383000  0.49032000  0.69981000  1.0 -0.4987153359
O  O58  1  0.00996000  0.50206000  0.64366000  1.0 -0.5175323407
O  O59  1  0.44178000  0.62598000  0.88118000  1.0 -0.4925846853
O  O60  1  0.46080000  0.57574000  0.92038000  1.0 -0.4925846853
O  O61  1  0.97556000  0.59440000  0.66217000  1.0 -0.5392380789
O  O62  1  0.96221000  0.56037000  0.58862000  1.0 -0.4925846853
O  O63  1  0.54179000  0.61203000  0.86961000  1.0 -0.4724611582
O  O64  1  0.54262000  0.68785000  0.88887000  1.0 -0.4590294313
O  O65  1  0.15085000  0.76949000  0.20381000  1.0 -0.4925846853
O  O66  1  0.17393000  0.83760000  0.24909000  1.0 -0.5175323407
O  O67  1  0.05396000  0.72888000  0.18507000  1.0 -0.4782490938
O  O68  1  0.01167000  0.77640000  0.21167000  1.0 -0.5392380789
O  O69  1  0.08468000  0.82364000  0.15178000  1.0 -0.5392380789
O  O70  1  0.08216000  0.87051000  0.21480000  1.0 -0.4925846853
O  O71  1  0.10255000  0.76661000  0.29183000  1.0 -0.5279334288
O  O72  1  0.08641000  0.83605000  0.29901000  1.0 -0.4782490938
O  O73  1  0.49032000  0.69981000  0.97383000  1.0 -0.4987153359
O  O74  1  0.50206000  0.64366000  0.00996000  1.0 -0.5175323407
O  O75  1  0.62598000  0.88118000  0.44178000  1.0 -0.4925846853
O  O76  1  0.57574000  0.92038000  0.46080000  1.0 -0.4925846853
O  O77  1  0.59440000  0.66217000  0.97556000  1.0 -0.5392380789
O  O78  1  0.56037000  0.58862000  0.96221000  1.0 -0.4925846853
O  O79  1  0.61203000  0.86961000  0.54179000  1.0 -0.4782490938
O  O80  1  0.68785000  0.88887000  0.54262000  1.0 -0.4590294313
O  O81  1  0.76949000  0.20381000  0.15085000  1.0 -0.4925846853
O  O82  1  0.83760000  0.24909000  0.17393000  1.0 -0.5175323407
O  O83  1  0.72888000  0.18507000  0.05396000  1.0 -0.4782490938
O  O84  1  0.77640000  0.21167000  0.01167000  1.0 -0.5392380789
O  O85  1  0.82364000  0.15178000  0.08468000  1.0 -0.5392380789
O  O86  1  0.87051000  0.21480000  0.08216000  1.0 -0.4987153359
O  O87  1  0.76661000  0.29183000  0.10255000  1.0 -0.5279334288
O  O88  1  0.83605000  0.29901000  0.08641000  1.0 -0.4782490938
O  O89  1  0.69981000  0.97383000  0.49032000  1.0 -0.4987153359
O  O90  1  0.64366000  0.00996000  0.50206000  1.0 -0.5145851077
O  O91  1  0.88118000  0.44178000  0.62598000  1.0 -0.4925846853
O  O92  1  0.92038000  0.46080000  0.57574000  1.0 -0.4925846853
O  O93  1  0.66217000  0.97556000  0.59440000  1.0 -0.5392380789
O  O94  1  0.58862000  0.96221000  0.56037000  1.0 -0.4925846853
O  O95  1  0.86961000  0.54179000  0.61203000  1.0 -0.4724611582
O  O96  1  0.88887000  0.54262000  0.68785000  1.0 -0.4590294313
