# DDEC6 charges by PACMAN v1.1 (https://github.com/mtap-research/PACMAN-charge/)
data_CIFSAO_FSR_pacman
_symmetry_space_group_name_H-M   'P 1'
_cell_length_a   29.44950000
_cell_length_b   29.44950000
_cell_length_c   29.44950000
_cell_angle_alpha   99.09370000
_cell_angle_beta   99.09370000
_cell_angle_gamma   99.09370000
_symmetry_Int_Tables_number   1
_chemical_formula_structural   In2H27C83O16
_chemical_formula_sum   'In12 H162 C498 O96'
_cell_volume   24460.06017536
_cell_formula_units_Z   6
loop_
 _symmetry_equiv_pos_site_id
 _symmetry_equiv_pos_as_xyz
  1  'x, y, z'
loop_
 _atom_site_type_symbol
 _atom_site_label
 _atom_site_symmetry_multiplicity
 _atom_site_fract_x
 _atom_site_fract_y
 _atom_site_fract_z
 _atom_site_occupancy
 _atom_site_charge
In  In1  1  0.72948000  0.29937000  0.58950000  1.0 1.3786060401
In  In2  1  0.01312000  0.43665000  0.14088000  1.0 1.3320270367
In  In3  1  0.29937000  0.58950000  0.72948000  1.0 1.3786060401
In  In4  1  0.43665000  0.14088000  0.01312000  1.0 1.3320270367
In  In5  1  0.58950000  0.72948000  0.29937000  1.0 1.3786060401
In  In6  1  0.14088000  0.01312000  0.43665000  1.0 1.3320270367
In  In7  1  0.27052000  0.70063000  0.41050000  1.0 1.3786060401
In  In8  1  0.98688000  0.56335000  0.85912000  1.0 1.3320270367
In  In9  1  0.70063000  0.41050000  0.27052000  1.0 1.3786060401
In  In10  1  0.56335000  0.85912000  0.98688000  1.0 1.3320270367
In  In11  1  0.41050000  0.27052000  0.70063000  1.0 1.3786060401
In  In12  1  0.85912000  0.98688000  0.56335000  1.0 1.3320270367
H  H1  1  0.67900000  0.23930000  0.71820000  1.0 0.1298755628
H  H2  1  0.77110000  0.35890000  0.75820000  1.0 0.1298755628
H  H3  1  0.87270000  0.23840000  0.59830000  1.0 0.1381215821
H  H4  1  0.88600000  0.36970000  0.58330000  1.0 0.1298755628
H  H5  1  0.69820000  0.44400000  0.55400000  1.0 0.1381215821
H  H6  1  0.58790000  0.36670000  0.58320000  1.0 0.1381215821
H  H7  1  0.67610000  0.23580000  0.79630000  1.0 0.1298755628
H  H8  1  0.76670000  0.35580000  0.83530000  1.0 0.0993644562
H  H9  1  0.95080000  0.23940000  0.59870000  1.0 0.1090429525
H  H10  1  0.96350000  0.37180000  0.58110000  1.0 0.1298755628
H  H11  1  0.65650000  0.50290000  0.54580000  1.0 0.1298755628
H  H12  1  0.54510000  0.42500000  0.57280000  1.0 0.120500429
H  H13  1  0.78720000  0.32510000  0.90010000  1.0 0.1381215821
H  H14  1  0.65300000  0.26330000  0.86600000  1.0 0.1381215821
H  H15  1  0.04200000  0.37410000  0.61970000  1.0 0.1298755628
H  H16  1  0.00830000  0.24240000  0.55260000  1.0 0.1298755628
H  H17  1  0.52980000  0.49980000  0.59970000  1.0 0.120500429
H  H18  1  0.71910000  0.29340000  0.99900000  1.0 0.1478447505
H  H19  1  0.14210000  0.30620000  0.58420000  1.0 0.1298755628
H  H20  1  0.79080000  0.29930000  0.04140000  1.0 0.1298755628
H  H21  1  0.18380000  0.35610000  0.65160000  1.0 0.120500429
H  H22  1  0.09540000  0.43590000  0.61070000  1.0 0.1298755628
H  H23  1  0.85770000  0.33460000  0.09520000  1.0 0.1478447505
H  H24  1  0.23910000  0.42200000  0.68820000  1.0 0.1298755628
H  H25  1  0.15010000  0.50230000  0.64800000  1.0 0.1381215821
H  H26  1  0.07440000  0.32640000  0.22690000  1.0 0.1381215821
H  H27  1  0.12140000  0.27010000  0.23680000  1.0 0.120500429
H  H28  1  0.23930000  0.71820000  0.67900000  1.0 0.1298755628
H  H29  1  0.35890000  0.75820000  0.77110000  1.0 0.1298755628
H  H30  1  0.23840000  0.59830000  0.87270000  1.0 0.1381215821
H  H31  1  0.36970000  0.58330000  0.88600000  1.0 0.1298755628
H  H32  1  0.44400000  0.55400000  0.69820000  1.0 0.1381215821
H  H33  1  0.36670000  0.58320000  0.58790000  1.0 0.1381215821
H  H34  1  0.23580000  0.79630000  0.67610000  1.0 0.1298755628
H  H35  1  0.35580000  0.83530000  0.76670000  1.0 0.0993644562
H  H36  1  0.23940000  0.59870000  0.95080000  1.0 0.1090429525
H  H37  1  0.37180000  0.58110000  0.96350000  1.0 0.1298755628
H  H38  1  0.50290000  0.54580000  0.65650000  1.0 0.1298755628
H  H39  1  0.42500000  0.57280000  0.54510000  1.0 0.120500429
H  H40  1  0.32510000  0.90010000  0.78720000  1.0 0.1381215821
H  H41  1  0.26330000  0.86600000  0.65300000  1.0 0.1381215821
H  H42  1  0.37410000  0.61970000  0.04200000  1.0 0.1298755628
H  H43  1  0.24240000  0.55260000  0.00830000  1.0 0.1298755628
H  H44  1  0.49980000  0.59970000  0.52980000  1.0 0.120500429
H  H45  1  0.29340000  0.99900000  0.71910000  1.0 0.1478447505
H  H46  1  0.30620000  0.58420000  0.14210000  1.0 0.1298755628
H  H47  1  0.29930000  0.04140000  0.79080000  1.0 0.1298755628
H  H48  1  0.35610000  0.65160000  0.18380000  1.0 0.120500429
H  H49  1  0.43590000  0.61070000  0.09540000  1.0 0.1298755628
H  H50  1  0.33460000  0.09520000  0.85770000  1.0 0.1478447505
H  H51  1  0.42200000  0.68820000  0.23910000  1.0 0.1298755628
H  H52  1  0.50230000  0.64800000  0.15010000  1.0 0.1381215821
H  H53  1  0.32640000  0.22690000  0.07440000  1.0 0.1381215821
H  H54  1  0.27010000  0.23680000  0.12140000  1.0 0.120500429
H  H55  1  0.71820000  0.67900000  0.23930000  1.0 0.1298755628
H  H56  1  0.75820000  0.77110000  0.35890000  1.0 0.1298755628
H  H57  1  0.59830000  0.87270000  0.23840000  1.0 0.1381215821
H  H58  1  0.58330000  0.88600000  0.36970000  1.0 0.1298755628
H  H59  1  0.55400000  0.69820000  0.44400000  1.0 0.1381215821
H  H60  1  0.58320000  0.58790000  0.36670000  1.0 0.1381215821
H  H61  1  0.79630000  0.67610000  0.23580000  1.0 0.1298755628
H  H62  1  0.83530000  0.76670000  0.35580000  1.0 0.0993644562
H  H63  1  0.59870000  0.95080000  0.23940000  1.0 0.1090429525
H  H64  1  0.58110000  0.96350000  0.37180000  1.0 0.1298755628
H  H65  1  0.54580000  0.65650000  0.50290000  1.0 0.1298755628
H  H66  1  0.57280000  0.54510000  0.42500000  1.0 0.120500429
H  H67  1  0.90010000  0.78720000  0.32510000  1.0 0.1381215821
H  H68  1  0.86600000  0.65300000  0.26330000  1.0 0.1381215821
H  H69  1  0.61970000  0.04200000  0.37410000  1.0 0.1298755628
H  H70  1  0.55260000  0.00830000  0.24240000  1.0 0.1298755628
H  H71  1  0.59970000  0.52980000  0.49980000  1.0 0.120500429
H  H72  1  0.99900000  0.71910000  0.29340000  1.0 0.1478447505
H  H73  1  0.58420000  0.14210000  0.30620000  1.0 0.1298755628
H  H74  1  0.04140000  0.79080000  0.29930000  1.0 0.1298755628
H  H75  1  0.65160000  0.18380000  0.35610000  1.0 0.120500429
H  H76  1  0.61070000  0.09540000  0.43590000  1.0 0.1298755628
H  H77  1  0.09520000  0.85770000  0.33460000  1.0 0.1478447505
H  H78  1  0.68820000  0.23910000  0.42200000  1.0 0.1298755628
H  H79  1  0.64800000  0.15010000  0.50230000  1.0 0.1381215821
H  H80  1  0.22690000  0.07440000  0.32640000  1.0 0.1381215821
H  H81  1  0.23680000  0.12140000  0.27010000  1.0 0.120500429
H  H82  1  0.32100000  0.76070000  0.28180000  1.0 0.1298755628
H  H83  1  0.22890000  0.64110000  0.24180000  1.0 0.1298755628
H  H84  1  0.12730000  0.76160000  0.40170000  1.0 0.1381215821
H  H85  1  0.11400000  0.63030000  0.41670000  1.0 0.1298755628
H  H86  1  0.30180000  0.55600000  0.44600000  1.0 0.1381215821
H  H87  1  0.41210000  0.63330000  0.41680000  1.0 0.1381215821
H  H88  1  0.32390000  0.76420000  0.20370000  1.0 0.1298755628
H  H89  1  0.23330000  0.64420000  0.16470000  1.0 0.0993644562
H  H90  1  0.04920000  0.76060000  0.40130000  1.0 0.1090429525
H  H91  1  0.03650000  0.62820000  0.41890000  1.0 0.1298755628
H  H92  1  0.34350000  0.49710000  0.45420000  1.0 0.1298755628
H  H93  1  0.45490000  0.57500000  0.42720000  1.0 0.120500429
H  H94  1  0.21280000  0.67490000  0.09990000  1.0 0.1381215821
H  H95  1  0.34700000  0.73670000  0.13400000  1.0 0.1381215821
H  H96  1  0.95800000  0.62590000  0.38030000  1.0 0.1298755628
H  H97  1  0.99170000  0.75760000  0.44740000  1.0 0.1298755628
H  H98  1  0.47020000  0.50020000  0.40030000  1.0 0.120500429
H  H99  1  0.28090000  0.70660000  0.00100000  1.0 0.1478447505
H  H100  1  0.85790000  0.69380000  0.41580000  1.0 0.1298755628
H  H101  1  0.20920000  0.70070000  0.95860000  1.0 0.1298755628
H  H102  1  0.81620000  0.64390000  0.34840000  1.0 0.120500429
H  H103  1  0.90460000  0.56410000  0.38930000  1.0 0.1298755628
H  H104  1  0.14230000  0.66540000  0.90480000  1.0 0.1478447505
H  H105  1  0.76090000  0.57800000  0.31180000  1.0 0.1298755628
H  H106  1  0.84990000  0.49770000  0.35200000  1.0 0.1381215821
H  H107  1  0.92560000  0.67360000  0.77310000  1.0 0.1381215821
H  H108  1  0.87860000  0.72990000  0.76320000  1.0 0.120500429
H  H109  1  0.76070000  0.28180000  0.32100000  1.0 0.1298755628
H  H110  1  0.64110000  0.24180000  0.22890000  1.0 0.1298755628
H  H111  1  0.76160000  0.40170000  0.12730000  1.0 0.1381215821
H  H112  1  0.63030000  0.41670000  0.11400000  1.0 0.1298755628
H  H113  1  0.55600000  0.44600000  0.30180000  1.0 0.1381215821
H  H114  1  0.63330000  0.41680000  0.41210000  1.0 0.1381215821
H  H115  1  0.76420000  0.20370000  0.32390000  1.0 0.1298755628
H  H116  1  0.64420000  0.16470000  0.23330000  1.0 0.0993644562
H  H117  1  0.76060000  0.40130000  0.04920000  1.0 0.1090429525
H  H118  1  0.62820000  0.41890000  0.03650000  1.0 0.1298755628
H  H119  1  0.49710000  0.45420000  0.34350000  1.0 0.1298755628
H  H120  1  0.57500000  0.42720000  0.45490000  1.0 0.120500429
H  H121  1  0.67490000  0.09990000  0.21280000  1.0 0.1381215821
H  H122  1  0.73670000  0.13400000  0.34700000  1.0 0.1381215821
H  H123  1  0.62590000  0.38030000  0.95800000  1.0 0.1298755628
H  H124  1  0.75760000  0.44740000  0.99170000  1.0 0.1298755628
H  H125  1  0.50020000  0.40030000  0.47020000  1.0 0.120500429
H  H126  1  0.70660000  0.00100000  0.28090000  1.0 0.1478447505
H  H127  1  0.69380000  0.41580000  0.85790000  1.0 0.1298755628
H  H128  1  0.70070000  0.95860000  0.20920000  1.0 0.1298755628
H  H129  1  0.64390000  0.34840000  0.81620000  1.0 0.120500429
H  H130  1  0.56410000  0.38930000  0.90460000  1.0 0.1298755628
H  H131  1  0.66540000  0.90480000  0.14230000  1.0 0.1478447505
H  H132  1  0.57800000  0.31180000  0.76090000  1.0 0.1298755628
H  H133  1  0.49770000  0.35200000  0.84990000  1.0 0.1381215821
H  H134  1  0.67360000  0.77310000  0.92560000  1.0 0.1381215821
H  H135  1  0.72990000  0.76320000  0.87860000  1.0 0.120500429
H  H136  1  0.28180000  0.32100000  0.76070000  1.0 0.1298755628
H  H137  1  0.24180000  0.22890000  0.64110000  1.0 0.1298755628
H  H138  1  0.40170000  0.12730000  0.76160000  1.0 0.1381215821
H  H139  1  0.41670000  0.11400000  0.63030000  1.0 0.1298755628
H  H140  1  0.44600000  0.30180000  0.55600000  1.0 0.1381215821
H  H141  1  0.41680000  0.41210000  0.63330000  1.0 0.1381215821
H  H142  1  0.20370000  0.32390000  0.76420000  1.0 0.1298755628
H  H143  1  0.16470000  0.23330000  0.64420000  1.0 0.0993644562
H  H144  1  0.40130000  0.04920000  0.76060000  1.0 0.1090429525
H  H145  1  0.41890000  0.03650000  0.62820000  1.0 0.1298755628
H  H146  1  0.45420000  0.34350000  0.49710000  1.0 0.1298755628
H  H147  1  0.42720000  0.45490000  0.57500000  1.0 0.120500429
H  H148  1  0.09990000  0.21280000  0.67490000  1.0 0.1381215821
H  H149  1  0.13400000  0.34700000  0.73670000  1.0 0.1381215821
H  H150  1  0.38030000  0.95800000  0.62590000  1.0 0.1298755628
H  H151  1  0.44740000  0.99170000  0.75760000  1.0 0.1298755628
H  H152  1  0.40030000  0.47020000  0.50020000  1.0 0.120500429
H  H153  1  0.00100000  0.28090000  0.70660000  1.0 0.1478447505
H  H154  1  0.41580000  0.85790000  0.69380000  1.0 0.1298755628
H  H155  1  0.95860000  0.20920000  0.70070000  1.0 0.1298755628
H  H156  1  0.34840000  0.81620000  0.64390000  1.0 0.120500429
H  H157  1  0.38930000  0.90460000  0.56410000  1.0 0.1298755628
H  H158  1  0.90480000  0.14230000  0.66540000  1.0 0.1478447505
H  H159  1  0.31180000  0.76090000  0.57800000  1.0 0.1298755628
H  H160  1  0.35200000  0.84990000  0.49770000  1.0 0.1381215821
H  H161  1  0.77310000  0.92560000  0.67360000  1.0 0.1381215821
H  H162  1  0.76320000  0.87860000  0.72990000  1.0 0.120500429
C  C1  1  0.72790000  0.30000000  0.68030000  1.0 0.5492388271
C  C2  1  0.81850000  0.29910000  0.59120000  1.0 0.5492388271
C  C3  1  0.67450000  0.36140000  0.57720000  1.0 0.5492388271
C  C4  1  0.72600000  0.29980000  0.72950000  1.0 -0.0210279165
C  C5  1  0.87040000  0.30270000  0.59090000  1.0 0.008970568
C  C6  1  0.64671000  0.39899000  0.57010000  1.0 0.008970568
C  C7  1  0.69730000  0.26290000  0.74170000  1.0 -0.0733516399
C  C8  1  0.75170000  0.33390000  0.76510000  1.0 -0.0607085761
C  C9  1  0.89110000  0.26600000  0.59520000  1.0 -0.0781253973
C  C10  1  0.89870000  0.34310000  0.58610000  1.0 -0.0781253973
C  C11  1  0.66740000  0.44010000  0.55840000  1.0 -0.0781253973
C  C12  1  0.60209000  0.39421000  0.57540000  1.0 -0.0733516399
C  C13  1  0.69550000  0.26080000  0.78910000  1.0 -0.1505288464
C  C14  1  0.74921000  0.33171000  0.81181000  1.0 -0.1505288464
C  C15  1  0.93840000  0.26610000  0.59520000  1.0 -0.1505288464
C  C16  1  0.94550000  0.34420000  0.58500000  1.0 -0.1407160307
C  C17  1  0.64210000  0.47520000  0.55310000  1.0 -0.1505288464
C  C18  1  0.57620000  0.42950000  0.56930000  1.0 -0.1505288464
C  C19  1  0.72186000  0.29516000  0.82396000  1.0 0.0793916975
C  C20  1  0.96676000  0.30636000  0.58976000  1.0 0.0793916975
C  C21  1  0.59640000  0.47058000  0.55839000  1.0 0.0729297723
C  C22  1  0.72018000  0.29518000  0.87338000  1.0 0.1090429525
C  C23  1  0.01624000  0.30760000  0.58797000  1.0 0.1090429525
C  C24  1  0.56919000  0.50807000  0.55135000  1.0 0.0940234277
C  C25  1  0.75955000  0.31255000  0.90865000  1.0 -0.2114915351
C  C26  1  0.67996000  0.27576000  0.88826000  1.0 -0.1887667818
C  C27  1  0.05084000  0.34674000  0.60654000  1.0 -0.1887667818
C  C28  1  0.03107000  0.26857000  0.56687000  1.0 -0.2027868343
C  C29  1  0.53507000  0.51718000  0.57669000  1.0 -0.1887667818
C  C30  1  0.75979000  0.31205000  0.95541000  1.0 0.0993644562
C  C31  1  0.67853000  0.27433000  0.93453000  1.0 0.1090429525
C  C32  1  0.09802000  0.34716000  0.60640000  1.0 0.1090429525
C  C33  1  0.07762000  0.26518000  0.56505000  1.0 0.0993644562
C  C34  1  0.80401000  0.33453000  0.99065000  1.0 0.0522836621
C  C35  1  0.71957000  0.29347000  0.96747000  1.0 -0.1887667818
C  C36  1  0.63449000  0.25359000  0.94939000  1.0 0.0190786046
C  C37  1  0.13392000  0.38818000  0.62914000  1.0 0.0729297723
C  C38  1  0.11065000  0.30625000  0.58515000  1.0 -0.2114915351
C  C39  1  0.09152000  0.22282000  0.54122000  1.0 0.008970568
C  C40  1  0.81250000  0.32200000  0.03360000  1.0 -0.1609427019
C  C41  1  0.83170000  0.37460000  0.98340000  1.0 -0.0405810106
C  C42  1  0.61610000  0.27680000  0.98510000  1.0 -0.0607085761
C  C43  1  0.61240000  0.20880000  0.92630000  1.0 -0.0108134077
C  C44  1  0.17623000  0.38543000  0.65093000  1.0 -0.1407160307
C  C45  1  0.12420000  0.43270000  0.62680000  1.0 -0.1407160307
C  C46  1  0.13540000  0.22410000  0.52480000  1.0 0.003263649
C  C47  1  0.06270000  0.18040000  0.53950000  1.0 -0.0405810106
C  C48  1  0.85326000  0.34306000  0.06586000  1.0 -0.1008178107
C  C49  1  0.87550000  0.38930000  0.01220000  1.0 -0.0210279165
C  C50  1  0.57570000  0.25520000  0.99760000  1.0 -0.0405810106
C  C51  1  0.57200000  0.18720000  0.93880000  1.0 0.008970568
C  C52  1  0.21010000  0.42540000  0.67270000  1.0 -0.0733516399
C  C53  1  0.15770000  0.47300000  0.64870000  1.0 -0.0733516399
C  C54  1  0.14640000  0.18140000  0.50580000  1.0 0.008970568
C  C55  1  0.07370000  0.13800000  0.51840000  1.0 -0.0020075353
C  C56  1  0.88582000  0.37472000  0.05612000  1.0 -0.0108134077
C  C57  1  0.55371000  0.21041000  0.97441000  1.0 0.0309058344
C  C58  1  0.20070000  0.46970000  0.67110000  1.0 -0.0020075353
C  C59  1  0.11526000  0.13916000  0.49956000  1.0 -0.0316312313
C  C60  1  0.93037000  0.39737000  0.08777000  1.0 0.5580410115
C  C61  1  0.51030000  0.18520000  0.98840000  1.0 0.5492388271
C  C62  1  0.23730000  0.51170000  0.69270000  1.0 0.5580410115
C  C63  1  0.12440000  0.09410000  0.47890000  1.0 0.5323169319
C  C64  1  0.04580000  0.36140000  0.15270000  1.0 0.5674415716
C  C65  1  0.07080000  0.32100000  0.15850000  1.0 -0.0405810106
C  C66  1  0.08370000  0.31050000  0.20110000  1.0 -0.0781253973
C  C67  1  0.08260000  0.29570000  0.11950000  1.0 0.008970568
C  C68  1  0.11090000  0.27580000  0.20710000  1.0 -0.1609427019
C  C69  1  0.11650000  0.26840000  0.12670000  1.0 0.003263649
C  C70  1  0.12200000  0.25000000  0.16750000  1.0 0.059321216
C  C71  1  0.15030000  0.21190000  0.17280000  1.0 0.0190786046
C  C72  1  0.17820000  0.20010000  0.14020000  1.0 0.003263649
C  C73  1  0.09960000  0.25490000  0.12380000  1.0 0.003263649
C  C74  1  0.84224000  0.35914000  0.97704000  1.0 0.0190786046
C  C75  1  0.14930000  0.17600000  0.52540000  1.0 0.008970568
C  C76  1  0.13710000  0.21960000  0.54590000  1.0 -0.0210279165
C  C77  1  0.05400000  0.18460000  0.51610000  1.0 0.0190786046
C  C78  1  0.06690000  0.14370000  0.49400000  1.0 0.0309058344
C  C79  1  0.55000000  0.24310000  0.94780000  1.0 -0.0108134077
C  C80  1  0.59250000  0.26430000  0.93270000  1.0 -0.0607085761
C  C81  1  0.63800000  0.22160000  0.98000000  1.0 -0.0210279165
C  C82  1  0.59780000  0.19770000  0.99040000  1.0 0.0309058344
C  C83  1  0.19020000  0.21450000  0.15250000  1.0 0.0190786046
C  C84  1  0.30000000  0.68030000  0.72790000  1.0 0.5492388271
C  C85  1  0.29910000  0.59120000  0.81850000  1.0 0.5492388271
C  C86  1  0.36140000  0.57720000  0.67450000  1.0 0.5492388271
C  C87  1  0.29980000  0.72950000  0.72600000  1.0 -0.0210279165
C  C88  1  0.30270000  0.59090000  0.87040000  1.0 0.008970568
C  C89  1  0.39899000  0.57010000  0.64671000  1.0 0.008970568
C  C90  1  0.26290000  0.74170000  0.69730000  1.0 -0.0733516399
C  C91  1  0.33390000  0.76510000  0.75170000  1.0 -0.0607085761
C  C92  1  0.26600000  0.59520000  0.89110000  1.0 -0.0781253973
C  C93  1  0.34310000  0.58610000  0.89870000  1.0 -0.0781253973
C  C94  1  0.44010000  0.55840000  0.66740000  1.0 -0.0781253973
C  C95  1  0.39421000  0.57540000  0.60209000  1.0 -0.0733516399
C  C96  1  0.26080000  0.78910000  0.69550000  1.0 -0.1505288464
C  C97  1  0.33171000  0.81181000  0.74921000  1.0 -0.1505288464
C  C98  1  0.26610000  0.59520000  0.93840000  1.0 -0.1505288464
C  C99  1  0.34420000  0.58500000  0.94550000  1.0 -0.1407160307
C  C100  1  0.47520000  0.55310000  0.64210000  1.0 -0.1505288464
C  C101  1  0.42950000  0.56930000  0.57620000  1.0 -0.1505288464
C  C102  1  0.29516000  0.82396000  0.72186000  1.0 0.0793916975
C  C103  1  0.30636000  0.58976000  0.96676000  1.0 0.0793916975
C  C104  1  0.47058000  0.55839000  0.59640000  1.0 0.0729297723
C  C105  1  0.29518000  0.87338000  0.72018000  1.0 0.1090429525
C  C106  1  0.30760000  0.58797000  0.01624000  1.0 0.1090429525
C  C107  1  0.50807000  0.55135000  0.56919000  1.0 0.0940234277
C  C108  1  0.31255000  0.90865000  0.75955000  1.0 -0.2114915351
C  C109  1  0.27576000  0.88826000  0.67996000  1.0 -0.1887667818
C  C110  1  0.34674000  0.60654000  0.05084000  1.0 -0.1887667818
C  C111  1  0.26857000  0.56687000  0.03107000  1.0 -0.2027868343
C  C112  1  0.51718000  0.57669000  0.53507000  1.0 -0.1887667818
C  C113  1  0.31205000  0.95541000  0.75979000  1.0 0.0993644562
C  C114  1  0.27433000  0.93453000  0.67853000  1.0 0.1090429525
C  C115  1  0.34716000  0.60640000  0.09802000  1.0 0.1090429525
C  C116  1  0.26518000  0.56505000  0.07762000  1.0 0.0993644562
C  C117  1  0.33453000  0.99065000  0.80401000  1.0 0.0522836621
C  C118  1  0.29347000  0.96747000  0.71957000  1.0 -0.1887667818
C  C119  1  0.25359000  0.94939000  0.63449000  1.0 0.0190786046
C  C120  1  0.38818000  0.62914000  0.13392000  1.0 0.0729297723
C  C121  1  0.30625000  0.58515000  0.11065000  1.0 -0.2114915351
C  C122  1  0.22282000  0.54122000  0.09152000  1.0 0.008970568
C  C123  1  0.32200000  0.03360000  0.81250000  1.0 -0.1609427019
C  C124  1  0.37460000  0.98340000  0.83170000  1.0 -0.0405810106
C  C125  1  0.27680000  0.98510000  0.61610000  1.0 -0.0607085761
C  C126  1  0.20880000  0.92630000  0.61240000  1.0 -0.0108134077
C  C127  1  0.38543000  0.65093000  0.17623000  1.0 -0.1407160307
C  C128  1  0.43270000  0.62680000  0.12420000  1.0 -0.1407160307
C  C129  1  0.22410000  0.52480000  0.13540000  1.0 0.003263649
C  C130  1  0.18040000  0.53950000  0.06270000  1.0 -0.0405810106
C  C131  1  0.34306000  0.06586000  0.85326000  1.0 -0.1008178107
C  C132  1  0.38930000  0.01220000  0.87550000  1.0 -0.0210279165
C  C133  1  0.25520000  0.99760000  0.57570000  1.0 -0.0405810106
C  C134  1  0.18720000  0.93880000  0.57200000  1.0 0.008970568
C  C135  1  0.42540000  0.67270000  0.21010000  1.0 -0.0733516399
C  C136  1  0.47300000  0.64870000  0.15770000  1.0 -0.0733516399
C  C137  1  0.18140000  0.50580000  0.14640000  1.0 0.0190786046
C  C138  1  0.13800000  0.51840000  0.07370000  1.0 -0.0020075353
C  C139  1  0.37472000  0.05612000  0.88582000  1.0 -0.0108134077
C  C140  1  0.21041000  0.97441000  0.55371000  1.0 0.0309058344
C  C141  1  0.46970000  0.67110000  0.20070000  1.0 -0.0020075353
C  C142  1  0.13916000  0.49956000  0.11526000  1.0 -0.0316312313
C  C143  1  0.39737000  0.08777000  0.93037000  1.0 0.5580410115
C  C144  1  0.18520000  0.98840000  0.51030000  1.0 0.5492388271
C  C145  1  0.51170000  0.69270000  0.23730000  1.0 0.5492388271
C  C146  1  0.09410000  0.47890000  0.12440000  1.0 0.5323169319
C  C147  1  0.36140000  0.15270000  0.04580000  1.0 0.5674415716
C  C148  1  0.32100000  0.15850000  0.07080000  1.0 -0.0316312313
C  C149  1  0.31050000  0.20110000  0.08370000  1.0 -0.0781253973
C  C150  1  0.29570000  0.11950000  0.08260000  1.0 0.008970568
C  C151  1  0.27580000  0.20710000  0.11090000  1.0 -0.1670937947
C  C152  1  0.26840000  0.12670000  0.11650000  1.0 0.003263649
C  C153  1  0.25000000  0.16750000  0.12200000  1.0 0.059321216
C  C154  1  0.21190000  0.17280000  0.15030000  1.0 0.0190786046
C  C155  1  0.20010000  0.14020000  0.17820000  1.0 -0.0020075353
C  C156  1  0.25490000  0.12380000  0.09960000  1.0 0.008970568
C  C157  1  0.35914000  0.97704000  0.84224000  1.0 0.0190786046
C  C158  1  0.17600000  0.52540000  0.14930000  1.0 0.008970568
C  C159  1  0.21960000  0.54590000  0.13710000  1.0 -0.0210279165
C  C160  1  0.18460000  0.51610000  0.05400000  1.0 0.0190786046
C  C161  1  0.14370000  0.49400000  0.06690000  1.0 0.0309058344
C  C162  1  0.24310000  0.94780000  0.55000000  1.0 -0.0108134077
C  C163  1  0.26430000  0.93270000  0.59250000  1.0 -0.0607085761
C  C164  1  0.22160000  0.98000000  0.63800000  1.0 -0.0210279165
C  C165  1  0.19770000  0.99040000  0.59780000  1.0 0.0309058344
C  C166  1  0.21450000  0.15250000  0.19020000  1.0 0.0190786046
C  C167  1  0.68030000  0.72790000  0.30000000  1.0 0.5492388271
C  C168  1  0.59120000  0.81850000  0.29910000  1.0 0.5492388271
C  C169  1  0.57720000  0.67450000  0.36140000  1.0 0.5492388271
C  C170  1  0.72950000  0.72600000  0.29980000  1.0 -0.0210279165
C  C171  1  0.59090000  0.87040000  0.30270000  1.0 0.008970568
C  C172  1  0.57010000  0.64671000  0.39899000  1.0 0.008970568
C  C173  1  0.74170000  0.69730000  0.26290000  1.0 -0.0781253973
C  C174  1  0.76510000  0.75170000  0.33390000  1.0 -0.0607085761
C  C175  1  0.59520000  0.89110000  0.26600000  1.0 -0.0781253973
C  C176  1  0.58610000  0.89870000  0.34310000  1.0 -0.0781253973
C  C177  1  0.55840000  0.66740000  0.44010000  1.0 -0.0781253973
C  C178  1  0.57540000  0.60209000  0.39421000  1.0 -0.0733516399
C  C179  1  0.78910000  0.69550000  0.26080000  1.0 -0.1505288464
C  C180  1  0.81181000  0.74921000  0.33171000  1.0 -0.1505288464
C  C181  1  0.59520000  0.93840000  0.26610000  1.0 -0.1505288464
C  C182  1  0.58500000  0.94550000  0.34420000  1.0 -0.1407160307
C  C183  1  0.55310000  0.64210000  0.47520000  1.0 -0.1505288464
C  C184  1  0.56930000  0.57620000  0.42950000  1.0 -0.1505288464
C  C185  1  0.82396000  0.72186000  0.29516000  1.0 0.0793916975
C  C186  1  0.58976000  0.96676000  0.30636000  1.0 0.0793916975
C  C187  1  0.55839000  0.59640000  0.47058000  1.0 0.0729297723
C  C188  1  0.87338000  0.72018000  0.29518000  1.0 0.1090429525
C  C189  1  0.58797000  0.01624000  0.30760000  1.0 0.1090429525
C  C190  1  0.55135000  0.56919000  0.50807000  1.0 0.0940234277
C  C191  1  0.90865000  0.75955000  0.31255000  1.0 -0.2114915351
C  C192  1  0.88826000  0.67996000  0.27576000  1.0 -0.1887667818
C  C193  1  0.60654000  0.05084000  0.34674000  1.0 -0.1887667818
C  C194  1  0.56687000  0.03107000  0.26857000  1.0 -0.2027868343
C  C195  1  0.57669000  0.53507000  0.51718000  1.0 -0.1887667818
C  C196  1  0.95541000  0.75979000  0.31205000  1.0 0.0993644562
C  C197  1  0.93453000  0.67853000  0.27433000  1.0 0.1090429525
C  C198  1  0.60640000  0.09802000  0.34716000  1.0 0.1090429525
C  C199  1  0.56505000  0.07762000  0.26518000  1.0 0.0993644562
C  C200  1  0.99065000  0.80401000  0.33453000  1.0 0.0522836621
C  C201  1  0.96747000  0.71957000  0.29347000  1.0 -0.1887667818
C  C202  1  0.94939000  0.63449000  0.25359000  1.0 0.0190786046
C  C203  1  0.62914000  0.13392000  0.38818000  1.0 0.0729297723
C  C204  1  0.58515000  0.11065000  0.30625000  1.0 -0.2114915351
C  C205  1  0.54122000  0.09152000  0.22282000  1.0 0.008970568
C  C206  1  0.03360000  0.81250000  0.32200000  1.0 -0.1609427019
C  C207  1  0.98340000  0.83170000  0.37460000  1.0 -0.0405810106
C  C208  1  0.98510000  0.61610000  0.27680000  1.0 -0.0607085761
C  C209  1  0.92630000  0.61240000  0.20880000  1.0 -0.0108134077
C  C210  1  0.65093000  0.17623000  0.38543000  1.0 -0.1407160307
C  C211  1  0.62680000  0.12420000  0.43270000  1.0 -0.1407160307
C  C212  1  0.52480000  0.13540000  0.22410000  1.0 0.008970568
C  C213  1  0.53950000  0.06270000  0.18040000  1.0 -0.0405810106
C  C214  1  0.06586000  0.85326000  0.34306000  1.0 -0.1008178107
C  C215  1  0.01220000  0.87550000  0.38930000  1.0 -0.0210279165
C  C216  1  0.99760000  0.57570000  0.25520000  1.0 -0.0459040217
C  C217  1  0.93880000  0.57200000  0.18720000  1.0 0.008970568
C  C218  1  0.67270000  0.21010000  0.42540000  1.0 -0.0733516399
C  C219  1  0.64870000  0.15770000  0.47300000  1.0 -0.0733516399
C  C220  1  0.50580000  0.14640000  0.18140000  1.0 0.008970568
C  C221  1  0.51840000  0.07370000  0.13800000  1.0 -0.0020075353
C  C222  1  0.05612000  0.88582000  0.37472000  1.0 -0.0108134077
C  C223  1  0.97441000  0.55371000  0.21041000  1.0 0.0309058344
C  C224  1  0.67110000  0.20070000  0.46970000  1.0 -0.0020075353
C  C225  1  0.49956000  0.11526000  0.13916000  1.0 -0.0316312313
C  C226  1  0.08777000  0.93037000  0.39737000  1.0 0.5580410115
C  C227  1  0.98840000  0.51030000  0.18520000  1.0 0.5492388271
C  C228  1  0.69270000  0.23730000  0.51170000  1.0 0.5580410115
C  C229  1  0.47890000  0.12440000  0.09410000  1.0 0.5323169319
C  C230  1  0.15270000  0.04580000  0.36140000  1.0 0.5674415716
C  C231  1  0.15850000  0.07080000  0.32100000  1.0 -0.0405810106
C  C232  1  0.20110000  0.08370000  0.31050000  1.0 -0.0733516399
C  C233  1  0.11950000  0.08260000  0.29570000  1.0 0.008970568
C  C234  1  0.20710000  0.11090000  0.27580000  1.0 -0.1670937947
C  C235  1  0.12670000  0.11650000  0.26840000  1.0 0.003263649
C  C236  1  0.16750000  0.12200000  0.25000000  1.0 0.059321216
C  C237  1  0.17280000  0.15030000  0.21190000  1.0 0.0190786046
C  C238  1  0.14020000  0.17820000  0.20010000  1.0 -0.0020075353
C  C239  1  0.12380000  0.09960000  0.25490000  1.0 0.008970568
C  C240  1  0.97704000  0.84224000  0.35914000  1.0 0.0309058344
C  C241  1  0.52540000  0.14930000  0.17600000  1.0 0.008970568
C  C242  1  0.54590000  0.13710000  0.21960000  1.0 -0.0210279165
C  C243  1  0.51610000  0.05400000  0.18460000  1.0 0.0190786046
C  C244  1  0.49400000  0.06690000  0.14370000  1.0 0.0309058344
C  C245  1  0.94780000  0.55000000  0.24310000  1.0 -0.0108134077
C  C246  1  0.93270000  0.59250000  0.26430000  1.0 -0.0607085761
C  C247  1  0.98000000  0.63800000  0.22160000  1.0 -0.0210279165
C  C248  1  0.99040000  0.59780000  0.19770000  1.0 0.0379978679
C  C249  1  0.15250000  0.19020000  0.21450000  1.0 0.0190786046
C  C250  1  0.27210000  0.70000000  0.31970000  1.0 0.5492388271
C  C251  1  0.18150000  0.70090000  0.40880000  1.0 0.5492388271
C  C252  1  0.32550000  0.63860000  0.42280000  1.0 0.5492388271
C  C253  1  0.27400000  0.70020000  0.27050000  1.0 -0.0210279165
C  C254  1  0.12960000  0.69730000  0.40910000  1.0 0.008970568
C  C255  1  0.35329000  0.60101000  0.42990000  1.0 0.008970568
C  C256  1  0.30270000  0.73710000  0.25830000  1.0 -0.0781253973
C  C257  1  0.24830000  0.66610000  0.23490000  1.0 -0.0607085761
C  C258  1  0.10890000  0.73400000  0.40480000  1.0 -0.0781253973
C  C259  1  0.10130000  0.65690000  0.41390000  1.0 -0.0781253973
C  C260  1  0.33260000  0.55990000  0.44160000  1.0 -0.0781253973
C  C261  1  0.39791000  0.60579000  0.42460000  1.0 -0.0733516399
C  C262  1  0.30450000  0.73920000  0.21090000  1.0 -0.1505288464
C  C263  1  0.25079000  0.66829000  0.18819000  1.0 -0.1505288464
C  C264  1  0.06160000  0.73390000  0.40480000  1.0 -0.1505288464
C  C265  1  0.05450000  0.65580000  0.41500000  1.0 -0.1407160307
C  C266  1  0.35790000  0.52480000  0.44690000  1.0 -0.1505288464
C  C267  1  0.42380000  0.57050000  0.43070000  1.0 -0.1505288464
C  C268  1  0.27814000  0.70484000  0.17604000  1.0 0.0793916975
C  C269  1  0.03324000  0.69364000  0.41024000  1.0 0.0793916975
C  C270  1  0.40360000  0.52942000  0.44161000  1.0 0.0729297723
C  C271  1  0.27982000  0.70482000  0.12662000  1.0 0.1090429525
C  C272  1  0.98376000  0.69240000  0.41203000  1.0 0.1090429525
C  C273  1  0.43081000  0.49193000  0.44865000  1.0 0.0940234277
C  C274  1  0.24045000  0.68745000  0.09135000  1.0 -0.2114915351
C  C275  1  0.32004000  0.72424000  0.11174000  1.0 -0.1887667818
C  C276  1  0.94916000  0.65326000  0.39346000  1.0 -0.1887667818
C  C277  1  0.96893000  0.73143000  0.43313000  1.0 -0.2027868343
C  C278  1  0.46493000  0.48282000  0.42331000  1.0 -0.1887667818
C  C279  1  0.24021000  0.68795000  0.04459000  1.0 0.0993644562
C  C280  1  0.32147000  0.72567000  0.06547000  1.0 0.1090429525
C  C281  1  0.90198000  0.65284000  0.39360000  1.0 0.1090429525
C  C282  1  0.92238000  0.73482000  0.43495000  1.0 0.0993644562
C  C283  1  0.19599000  0.66547000  0.00935000  1.0 0.0522836621
C  C284  1  0.28043000  0.70653000  0.03253000  1.0 -0.1887667818
C  C285  1  0.36551000  0.74641000  0.05061000  1.0 0.0190786046
C  C286  1  0.86608000  0.61182000  0.37086000  1.0 0.0729297723
C  C287  1  0.88935000  0.69375000  0.41485000  1.0 -0.2114915351
C  C288  1  0.90848000  0.77718000  0.45878000  1.0 0.008970568
C  C289  1  0.18750000  0.67800000  0.96640000  1.0 -0.1609427019
C  C290  1  0.16830000  0.62540000  0.01660000  1.0 -0.0405810106
C  C291  1  0.38390000  0.72320000  0.01490000  1.0 -0.0607085761
C  C292  1  0.38760000  0.79120000  0.07370000  1.0 -0.0108134077
C  C293  1  0.82377000  0.61457000  0.34907000  1.0 -0.1407160307
C  C294  1  0.87580000  0.56730000  0.37320000  1.0 -0.1407160307
C  C295  1  0.86460000  0.77590000  0.47520000  1.0 0.003263649
C  C296  1  0.93730000  0.81960000  0.46050000  1.0 -0.0405810106
C  C297  1  0.14674000  0.65694000  0.93414000  1.0 -0.1008178107
C  C298  1  0.12450000  0.61070000  0.98780000  1.0 -0.0210279165
C  C299  1  0.42430000  0.74480000  0.00240000  1.0 -0.0405810106
C  C300  1  0.42800000  0.81280000  0.06120000  1.0 0.008970568
C  C301  1  0.78990000  0.57460000  0.32730000  1.0 -0.0733516399
C  C302  1  0.84230000  0.52700000  0.35130000  1.0 -0.0733516399
C  C303  1  0.85360000  0.81860000  0.49420000  1.0 0.0190786046
C  C304  1  0.92630000  0.86200000  0.48160000  1.0 -0.0020075353
C  C305  1  0.11418000  0.62528000  0.94388000  1.0 -0.0108134077
C  C306  1  0.44629000  0.78959000  0.02559000  1.0 0.0309058344
C  C307  1  0.79930000  0.53030000  0.32890000  1.0 -0.0020075353
C  C308  1  0.88474000  0.86084000  0.50044000  1.0 -0.0316312313
C  C309  1  0.06963000  0.60263000  0.91223000  1.0 0.5580410115
C  C310  1  0.48970000  0.81480000  0.01160000  1.0 0.5492388271
C  C311  1  0.76270000  0.48830000  0.30730000  1.0 0.5580410115
C  C312  1  0.87560000  0.90590000  0.52110000  1.0 0.5323169319
C  C313  1  0.95420000  0.63860000  0.84730000  1.0 0.5674415716
C  C314  1  0.92920000  0.67900000  0.84150000  1.0 -0.0405810106
C  C315  1  0.91630000  0.68950000  0.79890000  1.0 -0.0733516399
C  C316  1  0.91740000  0.70430000  0.88050000  1.0 0.008970568
C  C317  1  0.88910000  0.72420000  0.79290000  1.0 -0.1670937947
C  C318  1  0.88350000  0.73160000  0.87330000  1.0 0.003263649
C  C319  1  0.87800000  0.75000000  0.83250000  1.0 0.059321216
C  C320  1  0.84970000  0.78810000  0.82720000  1.0 0.0190786046
C  C321  1  0.82180000  0.79990000  0.85980000  1.0 0.003263649
C  C322  1  0.90040000  0.74510000  0.87620000  1.0 0.008970568
C  C323  1  0.15776000  0.64086000  0.02296000  1.0 0.0190786046
C  C324  1  0.85070000  0.82400000  0.47460000  1.0 0.008970568
C  C325  1  0.86290000  0.78040000  0.45410000  1.0 -0.0210279165
C  C326  1  0.94600000  0.81540000  0.48390000  1.0 0.0190786046
C  C327  1  0.93310000  0.85630000  0.50600000  1.0 0.0309058344
C  C328  1  0.45000000  0.75690000  0.05220000  1.0 -0.0108134077
C  C329  1  0.40750000  0.73570000  0.06730000  1.0 -0.0607085761
C  C330  1  0.36200000  0.77840000  0.02000000  1.0 -0.0210279165
C  C331  1  0.40220000  0.80230000  0.00960000  1.0 0.0309058344
C  C332  1  0.80980000  0.78550000  0.84750000  1.0 0.0190786046
C  C333  1  0.70000000  0.31970000  0.27210000  1.0 0.5492388271
C  C334  1  0.70090000  0.40880000  0.18150000  1.0 0.5492388271
C  C335  1  0.63860000  0.42280000  0.32550000  1.0 0.5492388271
C  C336  1  0.70020000  0.27050000  0.27400000  1.0 -0.0210279165
C  C337  1  0.69730000  0.40910000  0.12960000  1.0 0.008970568
C  C338  1  0.60101000  0.42990000  0.35329000  1.0 0.008970568
C  C339  1  0.73710000  0.25830000  0.30270000  1.0 -0.0733516399
C  C340  1  0.66610000  0.23490000  0.24830000  1.0 -0.0607085761
C  C341  1  0.73400000  0.40480000  0.10890000  1.0 -0.0781253973
C  C342  1  0.65690000  0.41390000  0.10130000  1.0 -0.0781253973
C  C343  1  0.55990000  0.44160000  0.33260000  1.0 -0.0781253973
C  C344  1  0.60579000  0.42460000  0.39791000  1.0 -0.0733516399
C  C345  1  0.73920000  0.21090000  0.30450000  1.0 -0.1505288464
C  C346  1  0.66829000  0.18819000  0.25079000  1.0 -0.1505288464
C  C347  1  0.73390000  0.40480000  0.06160000  1.0 -0.1505288464
C  C348  1  0.65580000  0.41500000  0.05450000  1.0 -0.1407160307
C  C349  1  0.52480000  0.44690000  0.35790000  1.0 -0.1505288464
C  C350  1  0.57050000  0.43070000  0.42380000  1.0 -0.1505288464
C  C351  1  0.70484000  0.17604000  0.27814000  1.0 0.0793916975
C  C352  1  0.69364000  0.41024000  0.03324000  1.0 0.0793916975
C  C353  1  0.52942000  0.44161000  0.40360000  1.0 0.0729297723
C  C354  1  0.70482000  0.12662000  0.27982000  1.0 0.1090429525
C  C355  1  0.69240000  0.41203000  0.98376000  1.0 0.1090429525
C  C356  1  0.49193000  0.44865000  0.43081000  1.0 0.0940234277
C  C357  1  0.68745000  0.09135000  0.24045000  1.0 -0.2114915351
C  C358  1  0.72424000  0.11174000  0.32004000  1.0 -0.1887667818
C  C359  1  0.65326000  0.39346000  0.94916000  1.0 -0.1887667818
C  C360  1  0.73143000  0.43313000  0.96893000  1.0 -0.2027868343
C  C361  1  0.48282000  0.42331000  0.46493000  1.0 -0.1887667818
C  C362  1  0.68795000  0.04459000  0.24021000  1.0 0.0993644562
C  C363  1  0.72567000  0.06547000  0.32147000  1.0 0.1090429525
C  C364  1  0.65284000  0.39360000  0.90198000  1.0 0.1090429525
C  C365  1  0.73482000  0.43495000  0.92238000  1.0 0.0993644562
C  C366  1  0.66547000  0.00935000  0.19599000  1.0 0.0522836621
C  C367  1  0.70653000  0.03253000  0.28043000  1.0 -0.1887667818
C  C368  1  0.74641000  0.05061000  0.36551000  1.0 0.0190786046
C  C369  1  0.61182000  0.37086000  0.86608000  1.0 0.0729297723
C  C370  1  0.69375000  0.41485000  0.88935000  1.0 -0.2114915351
C  C371  1  0.77718000  0.45878000  0.90848000  1.0 0.008970568
C  C372  1  0.67800000  0.96640000  0.18750000  1.0 -0.1609427019
C  C373  1  0.62540000  0.01660000  0.16830000  1.0 -0.0405810106
C  C374  1  0.72320000  0.01490000  0.38390000  1.0 -0.0607085761
C  C375  1  0.79120000  0.07370000  0.38760000  1.0 -0.0108134077
C  C376  1  0.61457000  0.34907000  0.82377000  1.0 -0.1407160307
C  C377  1  0.56730000  0.37320000  0.87580000  1.0 -0.1407160307
C  C378  1  0.77590000  0.47520000  0.86460000  1.0 0.003263649
C  C379  1  0.81960000  0.46050000  0.93730000  1.0 -0.0405810106
C  C380  1  0.65694000  0.93414000  0.14674000  1.0 -0.1008178107
C  C381  1  0.61070000  0.98780000  0.12450000  1.0 -0.0210279165
C  C382  1  0.74480000  0.00240000  0.42430000  1.0 -0.0405810106
C  C383  1  0.81280000  0.06120000  0.42800000  1.0 0.008970568
C  C384  1  0.57460000  0.32730000  0.78990000  1.0 -0.0733516399
C  C385  1  0.52700000  0.35130000  0.84230000  1.0 -0.0733516399
C  C386  1  0.81860000  0.49420000  0.85360000  1.0 0.0190786046
C  C387  1  0.86200000  0.48160000  0.92630000  1.0 -0.0020075353
C  C388  1  0.62528000  0.94388000  0.11418000  1.0 -0.0108134077
C  C389  1  0.78959000  0.02559000  0.44629000  1.0 0.0309058344
C  C390  1  0.53030000  0.32890000  0.79930000  1.0 -0.0020075353
C  C391  1  0.86084000  0.50044000  0.88474000  1.0 -0.0316312313
C  C392  1  0.60263000  0.91223000  0.06963000  1.0 0.5580410115
C  C393  1  0.81480000  0.01160000  0.48970000  1.0 0.5445062705
C  C394  1  0.48830000  0.30730000  0.76270000  1.0 0.5580410115
C  C395  1  0.90590000  0.52110000  0.87560000  1.0 0.5323169319
C  C396  1  0.63860000  0.84730000  0.95420000  1.0 0.5674415716
C  C397  1  0.67900000  0.84150000  0.92920000  1.0 -0.0316312313
C  C398  1  0.68950000  0.79890000  0.91630000  1.0 -0.0781253973
C  C399  1  0.70430000  0.88050000  0.91740000  1.0 0.008970568
C  C400  1  0.72420000  0.79290000  0.88910000  1.0 -0.1670937947
C  C401  1  0.73160000  0.87330000  0.88350000  1.0 0.003263649
C  C402  1  0.75000000  0.83250000  0.87800000  1.0 0.059321216
C  C403  1  0.78810000  0.82720000  0.84970000  1.0 0.0190786046
C  C404  1  0.79990000  0.85980000  0.82180000  1.0 0.003263649
C  C405  1  0.74510000  0.87620000  0.90040000  1.0 0.008970568
C  C406  1  0.64086000  0.02296000  0.15776000  1.0 0.0309058344
C  C407  1  0.82400000  0.47460000  0.85070000  1.0 0.008970568
C  C408  1  0.78040000  0.45410000  0.86290000  1.0 -0.0210279165
C  C409  1  0.81540000  0.48390000  0.94600000  1.0 0.0190786046
C  C410  1  0.85630000  0.50600000  0.93310000  1.0 0.0379978679
C  C411  1  0.75690000  0.05220000  0.45000000  1.0 -0.0108134077
C  C412  1  0.73570000  0.06730000  0.40750000  1.0 -0.0607085761
C  C413  1  0.77840000  0.02000000  0.36200000  1.0 -0.0210279165
C  C414  1  0.80230000  0.00960000  0.40220000  1.0 0.0309058344
C  C415  1  0.78550000  0.84750000  0.80980000  1.0 0.0190786046
C  C416  1  0.31970000  0.27210000  0.70000000  1.0 0.5492388271
C  C417  1  0.40880000  0.18150000  0.70090000  1.0 0.5492388271
C  C418  1  0.42280000  0.32550000  0.63860000  1.0 0.5492388271
C  C419  1  0.27050000  0.27400000  0.70020000  1.0 -0.0210279165
C  C420  1  0.40910000  0.12960000  0.69730000  1.0 0.008970568
C  C421  1  0.42990000  0.35329000  0.60101000  1.0 0.008970568
C  C422  1  0.25830000  0.30270000  0.73710000  1.0 -0.0733516399
C  C423  1  0.23490000  0.24830000  0.66610000  1.0 -0.0607085761
C  C424  1  0.40480000  0.10890000  0.73400000  1.0 -0.0781253973
C  C425  1  0.41390000  0.10130000  0.65690000  1.0 -0.0781253973
C  C426  1  0.44160000  0.33260000  0.55990000  1.0 -0.0781253973
C  C427  1  0.42460000  0.39791000  0.60579000  1.0 -0.0733516399
C  C428  1  0.21090000  0.30450000  0.73920000  1.0 -0.1505288464
C  C429  1  0.18819000  0.25079000  0.66829000  1.0 -0.1505288464
C  C430  1  0.40480000  0.06160000  0.73390000  1.0 -0.1505288464
C  C431  1  0.41500000  0.05450000  0.65580000  1.0 -0.1407160307
C  C432  1  0.44690000  0.35790000  0.52480000  1.0 -0.1505288464
C  C433  1  0.43070000  0.42380000  0.57050000  1.0 -0.1505288464
C  C434  1  0.17604000  0.27814000  0.70484000  1.0 0.0793916975
C  C435  1  0.41024000  0.03324000  0.69364000  1.0 0.0793916975
C  C436  1  0.44161000  0.40360000  0.52942000  1.0 0.0729297723
C  C437  1  0.12662000  0.27982000  0.70482000  1.0 0.1090429525
C  C438  1  0.41203000  0.98376000  0.69240000  1.0 0.1090429525
C  C439  1  0.44865000  0.43081000  0.49193000  1.0 0.0940234277
C  C440  1  0.09135000  0.24045000  0.68745000  1.0 -0.2114915351
C  C441  1  0.11174000  0.32004000  0.72424000  1.0 -0.1887667818
C  C442  1  0.39346000  0.94916000  0.65326000  1.0 -0.1887667818
C  C443  1  0.43313000  0.96893000  0.73143000  1.0 -0.2027868343
C  C444  1  0.42331000  0.46493000  0.48282000  1.0 -0.1887667818
C  C445  1  0.04459000  0.24021000  0.68795000  1.0 0.0993644562
C  C446  1  0.06547000  0.32147000  0.72567000  1.0 0.1090429525
C  C447  1  0.39360000  0.90198000  0.65284000  1.0 0.1090429525
C  C448  1  0.43495000  0.92238000  0.73482000  1.0 0.0993644562
C  C449  1  0.00935000  0.19599000  0.66547000  1.0 0.0522836621
C  C450  1  0.03253000  0.28043000  0.70653000  1.0 -0.1887667818
C  C451  1  0.05061000  0.36551000  0.74641000  1.0 0.0190786046
C  C452  1  0.37086000  0.86608000  0.61182000  1.0 0.0729297723
C  C453  1  0.41485000  0.88935000  0.69375000  1.0 -0.2114915351
C  C454  1  0.45878000  0.90848000  0.77718000  1.0 0.008970568
C  C455  1  0.96640000  0.18750000  0.67800000  1.0 -0.1609427019
C  C456  1  0.01660000  0.16830000  0.62540000  1.0 -0.0405810106
C  C457  1  0.01490000  0.38390000  0.72320000  1.0 -0.0607085761
C  C458  1  0.07370000  0.38760000  0.79120000  1.0 -0.0108134077
C  C459  1  0.34907000  0.82377000  0.61457000  1.0 -0.1407160307
C  C460  1  0.37320000  0.87580000  0.56730000  1.0 -0.1407160307
C  C461  1  0.47520000  0.86460000  0.77590000  1.0 0.003263649
C  C462  1  0.46050000  0.93730000  0.81960000  1.0 -0.0405810106
C  C463  1  0.93414000  0.14674000  0.65694000  1.0 -0.1008178107
C  C464  1  0.98780000  0.12450000  0.61070000  1.0 -0.0210279165
C  C465  1  0.00240000  0.42430000  0.74480000  1.0 -0.0405810106
C  C466  1  0.06120000  0.42800000  0.81280000  1.0 0.008970568
C  C467  1  0.32730000  0.78990000  0.57460000  1.0 -0.0733516399
C  C468  1  0.35130000  0.84230000  0.52700000  1.0 -0.0733516399
C  C469  1  0.49420000  0.85360000  0.81860000  1.0 0.0190786046
C  C470  1  0.48160000  0.92630000  0.86200000  1.0 -0.0020075353
C  C471  1  0.94388000  0.11418000  0.62528000  1.0 -0.0108134077
C  C472  1  0.02559000  0.44629000  0.78959000  1.0 0.0309058344
C  C473  1  0.32890000  0.79930000  0.53030000  1.0 -0.0020075353
C  C474  1  0.50044000  0.88474000  0.86084000  1.0 -0.0316312313
C  C475  1  0.91223000  0.06963000  0.60263000  1.0 0.5580410115
C  C476  1  0.01160000  0.48970000  0.81480000  1.0 0.5492388271
C  C477  1  0.30730000  0.76270000  0.48830000  1.0 0.5580410115
C  C478  1  0.52110000  0.87560000  0.90590000  1.0 0.5323169319
C  C479  1  0.84730000  0.95420000  0.63860000  1.0 0.5674415716
C  C480  1  0.84150000  0.92920000  0.67900000  1.0 -0.0316312313
C  C481  1  0.79890000  0.91630000  0.68950000  1.0 -0.0781253973
C  C482  1  0.88050000  0.91740000  0.70430000  1.0 0.008970568
C  C483  1  0.79290000  0.88910000  0.72420000  1.0 -0.1670937947
C  C484  1  0.87330000  0.88350000  0.73160000  1.0 0.003263649
C  C485  1  0.83250000  0.87800000  0.75000000  1.0 0.059321216
C  C486  1  0.82720000  0.84970000  0.78810000  1.0 0.0190786046
C  C487  1  0.85980000  0.82180000  0.79990000  1.0 0.003263649
C  C488  1  0.87620000  0.90040000  0.74510000  1.0 0.008970568
C  C489  1  0.02296000  0.15776000  0.64086000  1.0 0.0190786046
C  C490  1  0.47460000  0.85070000  0.82400000  1.0 0.008970568
C  C491  1  0.45410000  0.86290000  0.78040000  1.0 -0.0210279165
C  C492  1  0.48390000  0.94600000  0.81540000  1.0 0.0190786046
C  C493  1  0.50600000  0.93310000  0.85630000  1.0 0.0309058344
C  C494  1  0.05220000  0.45000000  0.75690000  1.0 -0.0108134077
C  C495  1  0.06730000  0.40750000  0.73570000  1.0 -0.0607085761
C  C496  1  0.02000000  0.36200000  0.77840000  1.0 -0.0210279165
C  C497  1  0.00960000  0.40220000  0.80230000  1.0 0.0309058344
C  C498  1  0.84750000  0.80980000  0.78550000  1.0 0.0190786046
O  O1  1  0.70716000  0.26549000  0.64822000  1.0 -0.5112262559
O  O2  1  0.74959000  0.33500000  0.66819000  1.0 -0.5218229256
O  O3  1  0.79427000  0.26343000  0.59821000  1.0 -0.5218229256
O  O4  1  0.80211000  0.33438000  0.58326000  1.0 -0.5112262559
O  O5  1  0.71740000  0.37014000  0.57500000  1.0 -0.5112262559
O  O6  1  0.65628000  0.32344000  0.58472000  1.0 -0.5112262559
O  O7  1  0.71463000  0.27619000  0.50765000  1.0 -0.5260044
O  O8  1  0.68906000  0.22871000  0.55178000  1.0 -0.5112262559
O  O9  1  0.96107000  0.42296000  0.07420000  1.0 -0.4935610902
O  O10  1  0.93698000  0.38835000  0.12798000  1.0 -0.5260044
O  O11  1  0.51050000  0.14490000  0.99640000  1.0 -0.4999338321
O  O12  1  0.47832000  0.20372000  0.99232000  1.0 -0.4454036168
O  O13  1  0.16571000  0.09129000  0.47229000  1.0 -0.4813340666
O  O14  1  0.09412000  0.05907000  0.46579000  1.0 -0.376186829
O  O15  1  0.03687000  0.38623000  0.18717000  1.0 -0.5112262559
O  O16  1  0.03652000  0.36981000  0.11199000  1.0 -0.5218229256
O  O17  1  0.26549000  0.64822000  0.70716000  1.0 -0.5112262559
O  O18  1  0.33500000  0.66819000  0.74959000  1.0 -0.5218229256
O  O19  1  0.26343000  0.59821000  0.79427000  1.0 -0.5218229256
O  O20  1  0.33438000  0.58326000  0.80211000  1.0 -0.5112262559
O  O21  1  0.37014000  0.57500000  0.71740000  1.0 -0.5112262559
O  O22  1  0.32344000  0.58472000  0.65628000  1.0 -0.4999338321
O  O23  1  0.27619000  0.50765000  0.71463000  1.0 -0.5260044
O  O24  1  0.22871000  0.55178000  0.68906000  1.0 -0.5112262559
O  O25  1  0.42296000  0.07420000  0.96107000  1.0 -0.4935610902
O  O26  1  0.38835000  0.12798000  0.93698000  1.0 -0.5260044
O  O27  1  0.14490000  0.99640000  0.51050000  1.0 -0.4999338321
O  O28  1  0.20372000  0.99232000  0.47832000  1.0 -0.4449292831
O  O29  1  0.09129000  0.47229000  0.16571000  1.0 -0.4813340666
O  O30  1  0.05907000  0.46579000  0.09412000  1.0 -0.376186829
O  O31  1  0.38623000  0.18717000  0.03687000  1.0 -0.5112262559
O  O32  1  0.36981000  0.11199000  0.03652000  1.0 -0.5218229256
O  O33  1  0.64822000  0.70716000  0.26549000  1.0 -0.5112262559
O  O34  1  0.66819000  0.74959000  0.33500000  1.0 -0.5218229256
O  O35  1  0.59821000  0.79427000  0.26343000  1.0 -0.5218229256
O  O36  1  0.58326000  0.80211000  0.33438000  1.0 -0.5112262559
O  O37  1  0.57500000  0.71740000  0.37014000  1.0 -0.5112262559
O  O38  1  0.58472000  0.65628000  0.32344000  1.0 -0.4999338321
O  O39  1  0.50765000  0.71463000  0.27619000  1.0 -0.5260044
O  O40  1  0.55178000  0.68906000  0.22871000  1.0 -0.5112262559
O  O41  1  0.07420000  0.96107000  0.42296000  1.0 -0.4935610902
O  O42  1  0.12798000  0.93698000  0.38835000  1.0 -0.5260044
O  O43  1  0.99640000  0.51050000  0.14490000  1.0 -0.4999338321
O  O44  1  0.99232000  0.47832000  0.20372000  1.0 -0.4454036168
O  O45  1  0.47229000  0.16571000  0.09129000  1.0 -0.4813340666
O  O46  1  0.46579000  0.09412000  0.05907000  1.0 -0.3736347519
O  O47  1  0.18717000  0.03687000  0.38623000  1.0 -0.5218229256
O  O48  1  0.11199000  0.03652000  0.36981000  1.0 -0.5218229256
O  O49  1  0.29284000  0.73451000  0.35178000  1.0 -0.5112262559
O  O50  1  0.25041000  0.66500000  0.33181000  1.0 -0.5218229256
O  O51  1  0.20573000  0.73657000  0.40179000  1.0 -0.5218229256
O  O52  1  0.19789000  0.66562000  0.41674000  1.0 -0.5112262559
O  O53  1  0.28260000  0.62986000  0.42500000  1.0 -0.5112262559
O  O54  1  0.34372000  0.67656000  0.41528000  1.0 -0.4999338321
O  O55  1  0.28537000  0.72381000  0.49235000  1.0 -0.5260044
O  O56  1  0.31094000  0.77129000  0.44822000  1.0 -0.5112262559
O  O57  1  0.03893000  0.57704000  0.92580000  1.0 -0.4935610902
O  O58  1  0.06302000  0.61165000  0.87202000  1.0 -0.5260044
O  O59  1  0.48950000  0.85510000  0.00360000  1.0 -0.4999338321
O  O60  1  0.52168000  0.79628000  0.00768000  1.0 -0.4454036168
O  O61  1  0.83429000  0.90871000  0.52771000  1.0 -0.4813340666
O  O62  1  0.90588000  0.94093000  0.53421000  1.0 -0.3736347519
O  O63  1  0.96313000  0.61377000  0.81283000  1.0 -0.5218229256
O  O64  1  0.96348000  0.63019000  0.88801000  1.0 -0.5260044
O  O65  1  0.73451000  0.35178000  0.29284000  1.0 -0.5112262559
O  O66  1  0.66500000  0.33181000  0.25041000  1.0 -0.5218229256
O  O67  1  0.73657000  0.40179000  0.20573000  1.0 -0.5260044
O  O68  1  0.66562000  0.41674000  0.19789000  1.0 -0.5112262559
O  O69  1  0.62986000  0.42500000  0.28260000  1.0 -0.5112262559
O  O70  1  0.67656000  0.41528000  0.34372000  1.0 -0.5112262559
O  O71  1  0.72381000  0.49235000  0.28537000  1.0 -0.5260044
O  O72  1  0.77129000  0.44822000  0.31094000  1.0 -0.5112262559
O  O73  1  0.57704000  0.92580000  0.03893000  1.0 -0.4935610902
O  O74  1  0.61165000  0.87202000  0.06302000  1.0 -0.5218229256
O  O75  1  0.85510000  0.00360000  0.48950000  1.0 -0.4999338321
O  O76  1  0.79628000  0.00768000  0.52168000  1.0 -0.4454036168
O  O77  1  0.90871000  0.52771000  0.83429000  1.0 -0.4813340666
O  O78  1  0.94093000  0.53421000  0.90588000  1.0 -0.376186829
O  O79  1  0.61377000  0.81283000  0.96313000  1.0 -0.5112262559
O  O80  1  0.63019000  0.88801000  0.96348000  1.0 -0.5218229256
O  O81  1  0.35178000  0.29284000  0.73451000  1.0 -0.5112262559
O  O82  1  0.33181000  0.25041000  0.66500000  1.0 -0.5218229256
O  O83  1  0.40179000  0.20573000  0.73657000  1.0 -0.5218229256
O  O84  1  0.41674000  0.19789000  0.66562000  1.0 -0.5112262559
O  O85  1  0.42500000  0.28260000  0.62986000  1.0 -0.5112262559
O  O86  1  0.41528000  0.34372000  0.67656000  1.0 -0.4999338321
O  O87  1  0.49235000  0.28537000  0.72381000  1.0 -0.5260044
O  O88  1  0.44822000  0.31094000  0.77129000  1.0 -0.5112262559
O  O89  1  0.92580000  0.03893000  0.57704000  1.0 -0.4935610902
O  O90  1  0.87202000  0.06302000  0.61165000  1.0 -0.5218229256
O  O91  1  0.00360000  0.48950000  0.85510000  1.0 -0.4999338321
O  O92  1  0.00768000  0.52168000  0.79628000  1.0 -0.4454036168
O  O93  1  0.52771000  0.83429000  0.90871000  1.0 -0.4813340666
O  O94  1  0.53421000  0.90588000  0.94093000  1.0 -0.376186829
O  O95  1  0.81283000  0.96313000  0.61377000  1.0 -0.5112262559
O  O96  1  0.88801000  0.96348000  0.63019000  1.0 -0.5218229256
