# DDEC6 charges by PACMAN v1.1 (https://github.com/mtap-research/PACMAN-charge/)
data_CIFSES_ASR_pacman
_symmetry_space_group_name_H-M   'P 1'
_cell_length_a   29.45890000
_cell_length_b   29.45890000
_cell_length_c   29.45890000
_cell_angle_alpha   99.20790000
_cell_angle_beta   99.20790000
_cell_angle_gamma   99.20790000
_symmetry_Int_Tables_number   1
_chemical_formula_structural   In2H31(C39O8)2
_chemical_formula_sum   'In12 H186 C468 O96'
_cell_volume   24454.42488045
_cell_formula_units_Z   6
loop_
 _symmetry_equiv_pos_site_id
 _symmetry_equiv_pos_as_xyz
  1  'x, y, z'
loop_
 _atom_site_type_symbol
 _atom_site_label
 _atom_site_symmetry_multiplicity
 _atom_site_fract_x
 _atom_site_fract_y
 _atom_site_fract_z
 _atom_site_occupancy
 _atom_site_charge
In  In1  1  0.77114000  0.91031000  0.20095000  1.0 1.3764813349
In  In2  1  0.06297000  0.48630000  0.35641000  1.0 1.3369533862
In  In3  1  0.20095000  0.77114000  0.91031000  1.0 1.3747102663
In  In4  1  0.35641000  0.06297000  0.48630000  1.0 1.3369533862
In  In5  1  0.91031000  0.20095000  0.77114000  1.0 1.3764813349
In  In6  1  0.48630000  0.35641000  0.06297000  1.0 1.3369533862
In  In7  1  0.22886000  0.08969000  0.79905000  1.0 1.3764813349
In  In8  1  0.93703000  0.51370000  0.64359000  1.0 1.3369533862
In  In9  1  0.79905000  0.22886000  0.08969000  1.0 1.3764813349
In  In10  1  0.64359000  0.93703000  0.51370000  1.0 1.3369533862
In  In11  1  0.08969000  0.79905000  0.22886000  1.0 1.3764813349
In  In12  1  0.51370000  0.64359000  0.93703000  1.0 1.3369533862
H  H1  1  0.72970000  0.74110000  0.13830000  1.0 0.1300570345
H  H2  1  0.82200000  0.78270000  0.25730000  1.0 0.1392412719
H  H3  1  0.85260000  0.99770000  0.35220000  1.0 0.1392412719
H  H4  1  0.81320000  0.07820000  0.26250000  1.0 0.1392412719
H  H5  1  0.80300000  0.94970000  0.05770000  1.0 0.1392412719
H  H6  1  0.91420000  0.91780000  0.13350000  1.0 0.1392412719
H  H7  1  0.73080000  0.66440000  0.14220000  1.0 0.121880224
H  H8  1  0.82420000  0.70520000  0.26090000  1.0 0.1300570345
H  H9  1  0.88920000  0.06280000  0.40560000  1.0 0.1300570345
H  H10  1  0.84690000  0.14290000  0.31770000  1.0 0.121880224
H  H11  1  0.84300000  0.95590000  0.99800000  1.0 0.1300570345
H  H12  1  0.95590000  0.92740000  0.07440000  1.0 0.121880224
H  H13  1  0.84650000  0.63380000  0.23590000  1.0 0.1300570345
H  H14  1  0.71110000  0.59950000  0.17310000  1.0 0.1300570345
H  H15  1  0.91700000  0.19220000  0.35910000  1.0 0.1300570345
H  H16  1  0.87900000  0.12800000  0.46070000  1.0 0.121880224
H  H17  1  0.90020000  0.00040000  0.96950000  1.0 0.121880224
H  H18  1  0.78160000  0.50110000  0.20850000  1.0 0.1392412719
H  H19  1  0.94690000  0.25950000  0.49260000  1.0 0.1392412719
H  H20  1  0.90810000  0.58760000  0.21570000  1.0 0.1392412719
H  H21  1  0.71020000  0.45870000  0.20350000  1.0 0.121880224
H  H22  1  0.95200000  0.25220000  0.34270000  1.0 0.1300570345
H  H23  1  0.92000000  0.12890000  0.53760000  1.0 0.1300570345
H  H24  1  0.90330000  0.26150000  0.55010000  1.0 0.1300570345
H  H25  1  0.97520000  0.55980000  0.24750000  1.0 0.1501200833
H  H26  1  0.64370000  0.40300000  0.16880000  1.0 0.1501200833
H  H27  1  0.98350000  0.31990000  0.32030000  1.0 0.1501200833
H  H28  1  0.91910000  0.13310000  0.61590000  1.0 0.1300570345
H  H29  1  0.89680000  0.26380000  0.62630000  1.0 0.1392412719
H  H30  1  0.42000000  0.26920000  0.16930000  1.0 0.156153137
H  H31  1  0.37760000  0.26020000  0.22820000  1.0 0.121880224
H  H32  1  0.13830000  0.72970000  0.74110000  1.0 0.1300570345
H  H33  1  0.25730000  0.82200000  0.78270000  1.0 0.1392412719
H  H34  1  0.35220000  0.85260000  0.99770000  1.0 0.1300570345
H  H35  1  0.26250000  0.81320000  0.07820000  1.0 0.1392412719
H  H36  1  0.05770000  0.80300000  0.94970000  1.0 0.1392412719
H  H37  1  0.13350000  0.91420000  0.91780000  1.0 0.1300570345
H  H38  1  0.14220000  0.73080000  0.66440000  1.0 0.121880224
H  H39  1  0.26090000  0.82420000  0.70520000  1.0 0.1300570345
H  H40  1  0.40560000  0.88920000  0.06280000  1.0 0.1300570345
H  H41  1  0.31770000  0.84690000  0.14290000  1.0 0.121880224
H  H42  1  0.99800000  0.84300000  0.95590000  1.0 0.1300570345
H  H43  1  0.07440000  0.95590000  0.92740000  1.0 0.121880224
H  H44  1  0.23590000  0.84650000  0.63380000  1.0 0.121880224
H  H45  1  0.17310000  0.71110000  0.59950000  1.0 0.1300570345
H  H46  1  0.35910000  0.91700000  0.19220000  1.0 0.1300570345
H  H47  1  0.46070000  0.87900000  0.12800000  1.0 0.121880224
H  H48  1  0.96950000  0.90020000  0.00040000  1.0 0.121880224
H  H49  1  0.20850000  0.78160000  0.50110000  1.0 0.1392412719
H  H50  1  0.49260000  0.94690000  0.25950000  1.0 0.1392412719
H  H51  1  0.21570000  0.90810000  0.58760000  1.0 0.1392412719
H  H52  1  0.20350000  0.71020000  0.45870000  1.0 0.121880224
H  H53  1  0.34270000  0.95200000  0.25220000  1.0 0.1300570345
H  H54  1  0.53760000  0.92000000  0.12890000  1.0 0.1300570345
H  H55  1  0.55010000  0.90330000  0.26150000  1.0 0.1300570345
H  H56  1  0.24750000  0.97520000  0.55980000  1.0 0.1501200833
H  H57  1  0.16880000  0.64370000  0.40300000  1.0 0.1501200833
H  H58  1  0.32030000  0.98350000  0.31990000  1.0 0.1501200833
H  H59  1  0.61590000  0.91910000  0.13310000  1.0 0.1300570345
H  H60  1  0.62630000  0.89680000  0.26380000  1.0 0.1392412719
H  H61  1  0.16930000  0.42000000  0.26920000  1.0 0.156153137
H  H62  1  0.22820000  0.37760000  0.26020000  1.0 0.121880224
H  H63  1  0.74110000  0.13830000  0.72970000  1.0 0.1300570345
H  H64  1  0.78270000  0.25730000  0.82200000  1.0 0.1392412719
H  H65  1  0.99770000  0.35220000  0.85260000  1.0 0.1300570345
H  H66  1  0.07820000  0.26250000  0.81320000  1.0 0.1392412719
H  H67  1  0.94970000  0.05770000  0.80300000  1.0 0.1392412719
H  H68  1  0.91780000  0.13350000  0.91420000  1.0 0.1392412719
H  H69  1  0.66440000  0.14220000  0.73080000  1.0 0.121880224
H  H70  1  0.70520000  0.26090000  0.82420000  1.0 0.1300570345
H  H71  1  0.06280000  0.40560000  0.88920000  1.0 0.1300570345
H  H72  1  0.14290000  0.31770000  0.84690000  1.0 0.121880224
H  H73  1  0.95590000  0.99800000  0.84300000  1.0 0.1300570345
H  H74  1  0.92740000  0.07440000  0.95590000  1.0 0.121880224
H  H75  1  0.63380000  0.23590000  0.84650000  1.0 0.121880224
H  H76  1  0.59950000  0.17310000  0.71110000  1.0 0.1300570345
H  H77  1  0.19220000  0.35910000  0.91700000  1.0 0.1300570345
H  H78  1  0.12800000  0.46070000  0.87900000  1.0 0.121880224
H  H79  1  0.00040000  0.96950000  0.90020000  1.0 0.121880224
H  H80  1  0.50110000  0.20850000  0.78160000  1.0 0.1392412719
H  H81  1  0.25950000  0.49260000  0.94690000  1.0 0.1392412719
H  H82  1  0.58760000  0.21570000  0.90810000  1.0 0.1392412719
H  H83  1  0.45870000  0.20350000  0.71020000  1.0 0.121880224
H  H84  1  0.25220000  0.34270000  0.95200000  1.0 0.1300570345
H  H85  1  0.12890000  0.53760000  0.92000000  1.0 0.1300570345
H  H86  1  0.26150000  0.55010000  0.90330000  1.0 0.1300570345
H  H87  1  0.55980000  0.24750000  0.97520000  1.0 0.1501200833
H  H88  1  0.40300000  0.16880000  0.64370000  1.0 0.1501200833
H  H89  1  0.31990000  0.32030000  0.98350000  1.0 0.1501200833
H  H90  1  0.13310000  0.61590000  0.91910000  1.0 0.1300570345
H  H91  1  0.26380000  0.62630000  0.89680000  1.0 0.1392412719
H  H92  1  0.26920000  0.16930000  0.42000000  1.0 0.156153137
H  H93  1  0.26020000  0.22820000  0.37760000  1.0 0.121880224
H  H94  1  0.27030000  0.25890000  0.86170000  1.0 0.1300570345
H  H95  1  0.17800000  0.21730000  0.74270000  1.0 0.1392412719
H  H96  1  0.14740000  0.00230000  0.64780000  1.0 0.1392412719
H  H97  1  0.18680000  0.92180000  0.73750000  1.0 0.1392412719
H  H98  1  0.19700000  0.05030000  0.94230000  1.0 0.1392412719
H  H99  1  0.08580000  0.08220000  0.86650000  1.0 0.1392412719
H  H100  1  0.26920000  0.33560000  0.85780000  1.0 0.121880224
H  H101  1  0.17580000  0.29480000  0.73910000  1.0 0.1300570345
H  H102  1  0.11080000  0.93720000  0.59440000  1.0 0.1300570345
H  H103  1  0.15310000  0.85710000  0.68230000  1.0 0.121880224
H  H104  1  0.15700000  0.04410000  0.00200000  1.0 0.1300570345
H  H105  1  0.04410000  0.07260000  0.92560000  1.0 0.121880224
H  H106  1  0.15350000  0.36620000  0.76410000  1.0 0.1300570345
H  H107  1  0.28890000  0.40050000  0.82690000  1.0 0.1300570345
H  H108  1  0.08300000  0.80780000  0.64090000  1.0 0.1300570345
H  H109  1  0.12100000  0.87200000  0.53930000  1.0 0.121880224
H  H110  1  0.09980000  0.99960000  0.03050000  1.0 0.121880224
H  H111  1  0.21840000  0.49890000  0.79150000  1.0 0.1392412719
H  H112  1  0.05310000  0.74050000  0.50740000  1.0 0.1392412719
H  H113  1  0.09190000  0.41240000  0.78430000  1.0 0.1392412719
H  H114  1  0.28980000  0.54130000  0.79650000  1.0 0.121880224
H  H115  1  0.04800000  0.74780000  0.65730000  1.0 0.1300570345
H  H116  1  0.08000000  0.87110000  0.46240000  1.0 0.1300570345
H  H117  1  0.09670000  0.73850000  0.44990000  1.0 0.1300570345
H  H118  1  0.02480000  0.44020000  0.75250000  1.0 0.1501200833
H  H119  1  0.35630000  0.59700000  0.83120000  1.0 0.1501200833
H  H120  1  0.01650000  0.68010000  0.67970000  1.0 0.1501200833
H  H121  1  0.08090000  0.86690000  0.38410000  1.0 0.1300570345
H  H122  1  0.10320000  0.73620000  0.37370000  1.0 0.1392412719
H  H123  1  0.58000000  0.73080000  0.83070000  1.0 0.1501200833
H  H124  1  0.62240000  0.73980000  0.77180000  1.0 0.121880224
H  H125  1  0.86170000  0.27030000  0.25890000  1.0 0.1392412719
H  H126  1  0.74270000  0.17800000  0.21730000  1.0 0.1392412719
H  H127  1  0.64780000  0.14740000  0.00230000  1.0 0.1300570345
H  H128  1  0.73750000  0.18680000  0.92180000  1.0 0.1392412719
H  H129  1  0.94230000  0.19700000  0.05030000  1.0 0.1392412719
H  H130  1  0.86650000  0.08580000  0.08220000  1.0 0.1392412719
H  H131  1  0.85780000  0.26920000  0.33560000  1.0 0.121880224
H  H132  1  0.73910000  0.17580000  0.29480000  1.0 0.1300570345
H  H133  1  0.59440000  0.11080000  0.93720000  1.0 0.1300570345
H  H134  1  0.68230000  0.15310000  0.85710000  1.0 0.121880224
H  H135  1  0.00200000  0.15700000  0.04410000  1.0 0.1300570345
H  H136  1  0.92560000  0.04410000  0.07260000  1.0 0.121880224
H  H137  1  0.76410000  0.15350000  0.36620000  1.0 0.121880224
H  H138  1  0.82690000  0.28890000  0.40050000  1.0 0.1300570345
H  H139  1  0.64090000  0.08300000  0.80780000  1.0 0.1300570345
H  H140  1  0.53930000  0.12100000  0.87200000  1.0 0.121880224
H  H141  1  0.03050000  0.09980000  0.99960000  1.0 0.121880224
H  H142  1  0.79150000  0.21840000  0.49890000  1.0 0.1392412719
H  H143  1  0.50740000  0.05310000  0.74050000  1.0 0.1392412719
H  H144  1  0.78430000  0.09190000  0.41240000  1.0 0.1392412719
H  H145  1  0.79650000  0.28980000  0.54130000  1.0 0.121880224
H  H146  1  0.65730000  0.04800000  0.74780000  1.0 0.1300570345
H  H147  1  0.46240000  0.08000000  0.87110000  1.0 0.1300570345
H  H148  1  0.44990000  0.09670000  0.73850000  1.0 0.1300570345
H  H149  1  0.75250000  0.02480000  0.44020000  1.0 0.1501200833
H  H150  1  0.83120000  0.35630000  0.59700000  1.0 0.1501200833
H  H151  1  0.67970000  0.01650000  0.68010000  1.0 0.1501200833
H  H152  1  0.38410000  0.08090000  0.86690000  1.0 0.1300570345
H  H153  1  0.37370000  0.10320000  0.73620000  1.0 0.1392412719
H  H154  1  0.83070000  0.58000000  0.73080000  1.0 0.1501200833
H  H155  1  0.77180000  0.62240000  0.73980000  1.0 0.121880224
H  H156  1  0.25890000  0.86170000  0.27030000  1.0 0.1300570345
H  H157  1  0.21730000  0.74270000  0.17800000  1.0 0.1392412719
H  H158  1  0.00230000  0.64780000  0.14740000  1.0 0.1392412719
H  H159  1  0.92180000  0.73750000  0.18680000  1.0 0.1392412719
H  H160  1  0.05030000  0.94230000  0.19700000  1.0 0.1392412719
H  H161  1  0.08220000  0.86650000  0.08580000  1.0 0.1392412719
H  H162  1  0.33560000  0.85780000  0.26920000  1.0 0.121880224
H  H163  1  0.29480000  0.73910000  0.17580000  1.0 0.1300570345
H  H164  1  0.93720000  0.59440000  0.11080000  1.0 0.1300570345
H  H165  1  0.85710000  0.68230000  0.15310000  1.0 0.121880224
H  H166  1  0.04410000  0.00200000  0.15700000  1.0 0.1300570345
H  H167  1  0.07260000  0.92560000  0.04410000  1.0 0.121880224
H  H168  1  0.36620000  0.76410000  0.15350000  1.0 0.1300570345
H  H169  1  0.40050000  0.82690000  0.28890000  1.0 0.1300570345
H  H170  1  0.80780000  0.64090000  0.08300000  1.0 0.1300570345
H  H171  1  0.87200000  0.53930000  0.12100000  1.0 0.121880224
H  H172  1  0.99960000  0.03050000  0.09980000  1.0 0.121880224
H  H173  1  0.49890000  0.79150000  0.21840000  1.0 0.1392412719
H  H174  1  0.74050000  0.50740000  0.05310000  1.0 0.1392412719
H  H175  1  0.41240000  0.78430000  0.09190000  1.0 0.1392412719
H  H176  1  0.54130000  0.79650000  0.28980000  1.0 0.121880224
H  H177  1  0.74780000  0.65730000  0.04800000  1.0 0.1300570345
H  H178  1  0.87110000  0.46240000  0.08000000  1.0 0.1300570345
H  H179  1  0.73850000  0.44990000  0.09670000  1.0 0.1300570345
H  H180  1  0.44020000  0.75250000  0.02480000  1.0 0.1501200833
H  H181  1  0.59700000  0.83120000  0.35630000  1.0 0.1501200833
H  H182  1  0.68010000  0.67970000  0.01650000  1.0 0.1501200833
H  H183  1  0.86690000  0.38410000  0.08090000  1.0 0.1300570345
H  H184  1  0.73620000  0.37370000  0.10320000  1.0 0.1392412719
H  H185  1  0.73080000  0.83070000  0.58000000  1.0 0.1501200833
H  H186  1  0.73980000  0.77180000  0.62240000  1.0 0.121880224
C  C1  1  0.77144000  0.81984000  0.19686000  1.0 0.5480283246
C  C2  1  0.80660000  0.98691000  0.26490000  1.0 0.5422806212
C  C3  1  0.82642000  0.92470000  0.13917000  1.0 0.5422806212
C  C4  1  0.77383000  0.76930000  0.19800000  1.0 0.0136639447
C  C5  1  0.82796000  0.03014000  0.30132000  1.0 0.0136639447
C  C6  1  0.85338000  0.93209000  0.10191000  1.0 -0.0085762137
C  C7  1  0.74828000  0.73393000  0.16379000  1.0 -0.0723391225
C  C8  1  0.80314000  0.75890000  0.23429000  1.0 -0.0786614898
C  C9  1  0.85148000  0.02704000  0.34471000  1.0 -0.0786614898
C  C10  1  0.82779000  0.07480000  0.29193000  1.0 -0.0786614898
C  C11  1  0.83343000  0.94426000  0.06115000  1.0 -0.0786614898
C  C12  1  0.89969000  0.92576000  0.10618000  1.0 -0.0786614898
C  C13  1  0.74919000  0.68786000  0.16587000  1.0 -0.1483498132
C  C14  1  0.80435000  0.71220000  0.23622000  1.0 -0.1483498132
C  C15  1  0.87299000  0.06590000  0.37674000  1.0 -0.1423175779
C  C16  1  0.84837000  0.11337000  0.32452000  1.0 -0.1423175779
C  C17  1  0.85778000  0.94851000  0.02541000  1.0 -0.1423175779
C  C18  1  0.92486000  0.93109000  0.07052000  1.0 -0.1483498132
C  C19  1  0.77708000  0.67598000  0.20275000  1.0 0.0720230999
C  C20  1  0.87138000  0.10961000  0.36734000  1.0 0.0720230999
C  C21  1  0.90325000  0.94205000  0.02909000  1.0 0.0720230999
C  C22  1  0.77874000  0.62581000  0.20458000  1.0 0.1023662466
C  C23  1  0.89458000  0.15289000  0.40373000  1.0 0.1023662466
C  C24  1  0.93062000  0.94968000  0.99244000  1.0 0.089336451
C  C25  1  0.81954000  0.61136000  0.22374000  1.0 -0.1810575194
C  C26  1  0.73861000  0.59090000  0.18614000  1.0 -0.1692099526
C  C27  1  0.91574000  0.19271000  0.39054000  1.0 -0.1866770582
C  C28  1  0.89341000  0.15440000  0.45136000  1.0 -0.1810575194
C  C29  1  0.92353000  0.98329000  0.96487000  1.0 -0.1866770582
C  C30  1  0.82091000  0.56573000  0.22507000  1.0 0.1023662466
C  C31  1  0.73896000  0.54402000  0.18680000  1.0 0.121880224
C  C32  1  0.93559000  0.23410000  0.42347000  1.0 0.1023662466
C  C33  1  0.91313000  0.19412000  0.48477000  1.0 0.1023662466
C  C34  1  0.78087000  0.53227000  0.20710000  1.0 -0.1810575194
C  C35  1  0.86384000  0.55203000  0.24615000  1.0 0.0317342327
C  C36  1  0.69542000  0.50818000  0.16613000  1.0 0.1066043137
C  C37  1  0.93358000  0.23268000  0.47013000  1.0 -0.1866770582
C  C38  1  0.95889000  0.27755000  0.40913000  1.0 0.0379106507
C  C39  1  0.91143000  0.19559000  0.53489000  1.0 0.0823896456
C  C40  1  0.86200000  0.52580000  0.28160000  1.0 0.0379106507
C  C41  1  0.90552000  0.56686000  0.23623000  1.0 -0.1692099526
C  C42  1  0.66261000  0.51783000  0.13130000  1.0 -0.3319509729
C  C43  1  0.68830000  0.46516000  0.18018000  1.0 -0.0958931327
C  C44  1  0.96220000  0.32050000  0.43820000  1.0 -0.0170008055
C  C45  1  0.96275000  0.27935000  0.36537000  1.0 -0.1810575194
C  C46  1  0.91616000  0.15656000  0.55560000  1.0 -0.1423175779
C  C47  1  0.90552000  0.23484000  0.56287000  1.0 -0.1207224591
C  C48  1  0.90540000  0.51680000  0.30960000  1.0 0.0500617411
C  C49  1  0.94700000  0.55120000  0.25700000  1.0 -0.1207224591
C  C50  1  0.62268000  0.48446000  0.11052000  1.0 0.121880224
C  C51  1  0.64837000  0.43179000  0.15940000  1.0 -0.0958931327
C  C52  1  0.98224000  0.36058000  0.42518000  1.0 0.0203436245
C  C53  1  0.98220000  0.32016000  0.35167000  1.0 -0.1483498132
C  C54  1  0.91514000  0.15904000  0.60259000  1.0 -0.0723391225
C  C55  1  0.90270000  0.23684000  0.60887000  1.0 -0.0723391225
C  C56  1  0.94511000  0.52438000  0.28970000  1.0 -0.0085762137
C  C57  1  0.61555000  0.44143000  0.12456000  1.0 0.0500617411
C  C58  1  0.99922000  0.35998000  0.38372000  1.0 0.0020560554
C  C59  1  0.90844000  0.19822000  0.62996000  1.0 0.0020560554
C  C60  1  0.98783000  0.51121000  0.31217000  1.0 0.5266354129
C  C61  1  0.57013000  0.40655000  0.10382000  1.0 0.5422806212
C  C62  1  0.02172000  0.40423000  0.37133000  1.0 0.5422806212
C  C63  1  0.90858000  0.20036000  0.68078000  1.0 0.5480283246
C  C64  1  0.45295000  0.34603000  0.13857000  1.0 0.5562477455
C  C65  1  0.42733000  0.33967000  0.17793000  1.0 0.0317342327
C  C66  1  0.41273000  0.29527000  0.18689000  1.0 -0.0786614898
C  C67  1  0.41652000  0.37863000  0.20429000  1.0 0.121880224
C  C68  1  0.38731000  0.28984000  0.22221000  1.0 -0.0933872621
C  C69  1  0.39571000  0.37330000  0.24279000  1.0 -0.2900808243
C  C70  1  0.37650000  0.32879000  0.24855000  1.0 0.0823896456
C  C71  1  0.34617000  0.32232000  0.28412000  1.0 0.0379106507
C  C72  1  0.34312000  0.28278000  0.30460000  1.0 0.0203436245
C  C73  1  0.98547000  0.31447000  0.44337000  1.0 0.0579784879
C  C74  1  0.00674000  0.35778000  0.43108000  1.0 0.0823896456
C  C75  1  0.90030000  0.49950000  0.28790000  1.0 0.0317342327
C  C76  1  0.66620000  0.51370000  0.12620000  1.0 -0.3490117893
C  C77  1  0.39110000  0.37319000  0.23959000  1.0 -0.2955558553
C  C78  1  0.35803000  0.29567000  0.31760000  1.0 0.0317342327
C  C79  1  0.19686000  0.77144000  0.81984000  1.0 0.5480283246
C  C80  1  0.26490000  0.80660000  0.98691000  1.0 0.5422806212
C  C81  1  0.13917000  0.82642000  0.92470000  1.0 0.5422806212
C  C82  1  0.19800000  0.77383000  0.76930000  1.0 0.0136639447
C  C83  1  0.30132000  0.82796000  0.03014000  1.0 0.0136639447
C  C84  1  0.10191000  0.85338000  0.93209000  1.0 -0.0085762137
C  C85  1  0.16379000  0.74828000  0.73393000  1.0 -0.0723391225
C  C86  1  0.23429000  0.80314000  0.75890000  1.0 -0.0786614898
C  C87  1  0.34471000  0.85148000  0.02704000  1.0 -0.0786614898
C  C88  1  0.29193000  0.82779000  0.07480000  1.0 -0.0786614898
C  C89  1  0.06115000  0.83343000  0.94426000  1.0 -0.0786614898
C  C90  1  0.10618000  0.89969000  0.92576000  1.0 -0.0786614898
C  C91  1  0.16587000  0.74919000  0.68786000  1.0 -0.1483498132
C  C92  1  0.23622000  0.80435000  0.71220000  1.0 -0.1483498132
C  C93  1  0.37674000  0.87299000  0.06590000  1.0 -0.1423175779
C  C94  1  0.32452000  0.84837000  0.11337000  1.0 -0.1423175779
C  C95  1  0.02541000  0.85778000  0.94851000  1.0 -0.1423175779
C  C96  1  0.07052000  0.92486000  0.93109000  1.0 -0.1483498132
C  C97  1  0.20275000  0.77708000  0.67598000  1.0 0.0720230999
C  C98  1  0.36734000  0.87138000  0.10961000  1.0 0.0720230999
C  C99  1  0.02909000  0.90325000  0.94205000  1.0 0.0720230999
C  C100  1  0.20458000  0.77874000  0.62581000  1.0 0.1023662466
C  C101  1  0.40373000  0.89458000  0.15289000  1.0 0.1023662466
C  C102  1  0.99244000  0.93062000  0.94968000  1.0 0.089336451
C  C103  1  0.22374000  0.81954000  0.61136000  1.0 -0.1810575194
C  C104  1  0.18614000  0.73861000  0.59090000  1.0 -0.1692099526
C  C105  1  0.39054000  0.91574000  0.19271000  1.0 -0.1866770582
C  C106  1  0.45136000  0.89341000  0.15440000  1.0 -0.1810575194
C  C107  1  0.96487000  0.92353000  0.98329000  1.0 -0.1866770582
C  C108  1  0.22507000  0.82091000  0.56573000  1.0 0.1023662466
C  C109  1  0.18680000  0.73896000  0.54402000  1.0 0.121880224
C  C110  1  0.42347000  0.93559000  0.23410000  1.0 0.1023662466
C  C111  1  0.48477000  0.91313000  0.19412000  1.0 0.1023662466
C  C112  1  0.20710000  0.78087000  0.53227000  1.0 -0.1810575194
C  C113  1  0.24615000  0.86384000  0.55203000  1.0 0.0317342327
C  C114  1  0.16613000  0.69542000  0.50818000  1.0 0.1066043137
C  C115  1  0.47013000  0.93358000  0.23268000  1.0 -0.1866770582
C  C116  1  0.40913000  0.95889000  0.27755000  1.0 0.0379106507
C  C117  1  0.53489000  0.91143000  0.19559000  1.0 0.0823896456
C  C118  1  0.28160000  0.86200000  0.52580000  1.0 0.0317342327
C  C119  1  0.23623000  0.90552000  0.56686000  1.0 -0.1692099526
C  C120  1  0.13130000  0.66261000  0.51783000  1.0 -0.3319509729
C  C121  1  0.18018000  0.68830000  0.46516000  1.0 -0.0958931327
C  C122  1  0.43820000  0.96220000  0.32050000  1.0 -0.0170008055
C  C123  1  0.36537000  0.96275000  0.27935000  1.0 -0.1810575194
C  C124  1  0.55560000  0.91616000  0.15656000  1.0 -0.1423175779
C  C125  1  0.56287000  0.90552000  0.23484000  1.0 -0.1207224591
C  C126  1  0.30960000  0.90540000  0.51680000  1.0 0.0500617411
C  C127  1  0.25700000  0.94700000  0.55120000  1.0 -0.1207224591
C  C128  1  0.11052000  0.62268000  0.48446000  1.0 0.121880224
C  C129  1  0.15940000  0.64837000  0.43179000  1.0 -0.0958931327
C  C130  1  0.42518000  0.98224000  0.36058000  1.0 0.0317342327
C  C131  1  0.35167000  0.98220000  0.32016000  1.0 -0.1483498132
C  C132  1  0.60259000  0.91514000  0.15904000  1.0 -0.0723391225
C  C133  1  0.60887000  0.90270000  0.23684000  1.0 -0.0723391225
C  C134  1  0.28970000  0.94511000  0.52438000  1.0 -0.0085762137
C  C135  1  0.12456000  0.61555000  0.44143000  1.0 0.0500617411
C  C136  1  0.38372000  0.99922000  0.35998000  1.0 0.0020560554
C  C137  1  0.62996000  0.90844000  0.19822000  1.0 0.0020560554
C  C138  1  0.31217000  0.98783000  0.51121000  1.0 0.5266354129
C  C139  1  0.10382000  0.57013000  0.40655000  1.0 0.5422806212
C  C140  1  0.37133000  0.02172000  0.40423000  1.0 0.5422806212
C  C141  1  0.68078000  0.90858000  0.20036000  1.0 0.5422806212
C  C142  1  0.13857000  0.45295000  0.34603000  1.0 0.5562477455
C  C143  1  0.17793000  0.42733000  0.33967000  1.0 0.0317342327
C  C144  1  0.18689000  0.41273000  0.29527000  1.0 -0.0786614898
C  C145  1  0.20429000  0.41652000  0.37863000  1.0 0.121880224
C  C146  1  0.22221000  0.38731000  0.28984000  1.0 -0.0958931327
C  C147  1  0.24279000  0.39571000  0.37330000  1.0 -0.2900808243
C  C148  1  0.24855000  0.37650000  0.32879000  1.0 0.0823896456
C  C149  1  0.28412000  0.34617000  0.32232000  1.0 0.0317342327
C  C150  1  0.30460000  0.34312000  0.28278000  1.0 0.0203436245
C  C151  1  0.44337000  0.98547000  0.31447000  1.0 0.0579784879
C  C152  1  0.43108000  0.00674000  0.35778000  1.0 0.0823896456
C  C153  1  0.28790000  0.90030000  0.49950000  1.0 0.0203436245
C  C154  1  0.12620000  0.66620000  0.51370000  1.0 -0.3400390898
C  C155  1  0.23959000  0.39110000  0.37319000  1.0 -0.2900808243
C  C156  1  0.31760000  0.35803000  0.29567000  1.0 0.0317342327
C  C157  1  0.81984000  0.19686000  0.77144000  1.0 0.5480283246
C  C158  1  0.98691000  0.26490000  0.80660000  1.0 0.5422806212
C  C159  1  0.92470000  0.13917000  0.82642000  1.0 0.5422806212
C  C160  1  0.76930000  0.19800000  0.77383000  1.0 0.0136639447
C  C161  1  0.03014000  0.30132000  0.82796000  1.0 0.0136639447
C  C162  1  0.93209000  0.10191000  0.85338000  1.0 -0.0085762137
C  C163  1  0.73393000  0.16379000  0.74828000  1.0 -0.0723391225
C  C164  1  0.75890000  0.23429000  0.80314000  1.0 -0.0786614898
C  C165  1  0.02704000  0.34471000  0.85148000  1.0 -0.0786614898
C  C166  1  0.07480000  0.29193000  0.82779000  1.0 -0.0786614898
C  C167  1  0.94426000  0.06115000  0.83343000  1.0 -0.0786614898
C  C168  1  0.92576000  0.10618000  0.89969000  1.0 -0.0786614898
C  C169  1  0.68786000  0.16587000  0.74919000  1.0 -0.1483498132
C  C170  1  0.71220000  0.23622000  0.80435000  1.0 -0.1483498132
C  C171  1  0.06590000  0.37674000  0.87299000  1.0 -0.1423175779
C  C172  1  0.11337000  0.32452000  0.84837000  1.0 -0.1423175779
C  C173  1  0.94851000  0.02541000  0.85778000  1.0 -0.1423175779
C  C174  1  0.93109000  0.07052000  0.92486000  1.0 -0.1483498132
C  C175  1  0.67598000  0.20275000  0.77708000  1.0 0.0720230999
C  C176  1  0.10961000  0.36734000  0.87138000  1.0 0.0720230999
C  C177  1  0.94205000  0.02909000  0.90325000  1.0 0.0720230999
C  C178  1  0.62581000  0.20458000  0.77874000  1.0 0.1023662466
C  C179  1  0.15289000  0.40373000  0.89458000  1.0 0.1023662466
C  C180  1  0.94968000  0.99244000  0.93062000  1.0 0.089336451
C  C181  1  0.61136000  0.22374000  0.81954000  1.0 -0.1810575194
C  C182  1  0.59090000  0.18614000  0.73861000  1.0 -0.1692099526
C  C183  1  0.19271000  0.39054000  0.91574000  1.0 -0.1866770582
C  C184  1  0.15440000  0.45136000  0.89341000  1.0 -0.1810575194
C  C185  1  0.98329000  0.96487000  0.92353000  1.0 -0.1866770582
C  C186  1  0.56573000  0.22507000  0.82091000  1.0 0.1023662466
C  C187  1  0.54402000  0.18680000  0.73896000  1.0 0.121880224
C  C188  1  0.23410000  0.42347000  0.93559000  1.0 0.1023662466
C  C189  1  0.19412000  0.48477000  0.91313000  1.0 0.1023662466
C  C190  1  0.53227000  0.20710000  0.78087000  1.0 -0.1810575194
C  C191  1  0.55203000  0.24615000  0.86384000  1.0 0.0317342327
C  C192  1  0.50818000  0.16613000  0.69542000  1.0 0.1066043137
C  C193  1  0.23268000  0.47013000  0.93358000  1.0 -0.1866770582
C  C194  1  0.27755000  0.40913000  0.95889000  1.0 0.0379106507
C  C195  1  0.19559000  0.53489000  0.91143000  1.0 0.0823896456
C  C196  1  0.52580000  0.28160000  0.86200000  1.0 0.0379106507
C  C197  1  0.56686000  0.23623000  0.90552000  1.0 -0.1692099526
C  C198  1  0.51783000  0.13130000  0.66261000  1.0 -0.3319509729
C  C199  1  0.46516000  0.18018000  0.68830000  1.0 -0.0958931327
C  C200  1  0.32050000  0.43820000  0.96220000  1.0 -0.0170008055
C  C201  1  0.27935000  0.36537000  0.96275000  1.0 -0.1810575194
C  C202  1  0.15656000  0.55560000  0.91616000  1.0 -0.1423175779
C  C203  1  0.23484000  0.56287000  0.90552000  1.0 -0.1207224591
C  C204  1  0.51680000  0.30960000  0.90540000  1.0 0.0500617411
C  C205  1  0.55120000  0.25700000  0.94700000  1.0 -0.1207224591
C  C206  1  0.48446000  0.11052000  0.62268000  1.0 0.121880224
C  C207  1  0.43179000  0.15940000  0.64837000  1.0 -0.0958931327
C  C208  1  0.36058000  0.42518000  0.98224000  1.0 0.0203436245
C  C209  1  0.32016000  0.35167000  0.98220000  1.0 -0.1483498132
C  C210  1  0.15904000  0.60259000  0.91514000  1.0 -0.0723391225
C  C211  1  0.23684000  0.60887000  0.90270000  1.0 -0.0723391225
C  C212  1  0.52438000  0.28970000  0.94511000  1.0 -0.0085762137
C  C213  1  0.44143000  0.12456000  0.61555000  1.0 0.0500617411
C  C214  1  0.35998000  0.38372000  0.99922000  1.0 0.0020560554
C  C215  1  0.19822000  0.62996000  0.90844000  1.0 0.0020560554
C  C216  1  0.51121000  0.31217000  0.98783000  1.0 0.5266354129
C  C217  1  0.40655000  0.10382000  0.57013000  1.0 0.5422806212
C  C218  1  0.40423000  0.37133000  0.02172000  1.0 0.5422806212
C  C219  1  0.20036000  0.68078000  0.90858000  1.0 0.5480283246
C  C220  1  0.34603000  0.13857000  0.45295000  1.0 0.5562477455
C  C221  1  0.33967000  0.17793000  0.42733000  1.0 0.0379106507
C  C222  1  0.29527000  0.18689000  0.41273000  1.0 -0.0786614898
C  C223  1  0.37863000  0.20429000  0.41652000  1.0 0.121880224
C  C224  1  0.28984000  0.22221000  0.38731000  1.0 -0.0933872621
C  C225  1  0.37330000  0.24279000  0.39571000  1.0 -0.2900808243
C  C226  1  0.32879000  0.24855000  0.37650000  1.0 0.0823896456
C  C227  1  0.32232000  0.28412000  0.34617000  1.0 0.0379106507
C  C228  1  0.28278000  0.30460000  0.34312000  1.0 0.0203436245
C  C229  1  0.31447000  0.44337000  0.98547000  1.0 0.0579784879
C  C230  1  0.35778000  0.43108000  0.00674000  1.0 0.089336451
C  C231  1  0.49950000  0.28790000  0.90030000  1.0 0.0203436245
C  C232  1  0.51370000  0.12620000  0.66620000  1.0 -0.3400390898
C  C233  1  0.37319000  0.23959000  0.39110000  1.0 -0.2900808243
C  C234  1  0.29567000  0.31760000  0.35803000  1.0 0.0317342327
C  C235  1  0.22856000  0.18016000  0.80314000  1.0 0.5480283246
C  C236  1  0.19340000  0.01309000  0.73510000  1.0 0.5422806212
C  C237  1  0.17358000  0.07530000  0.86083000  1.0 0.5422806212
C  C238  1  0.22617000  0.23070000  0.80200000  1.0 0.0136639447
C  C239  1  0.17204000  0.96986000  0.69868000  1.0 0.0136639447
C  C240  1  0.14662000  0.06791000  0.89809000  1.0 -0.0085762137
C  C241  1  0.25172000  0.26607000  0.83621000  1.0 -0.0723391225
C  C242  1  0.19686000  0.24110000  0.76571000  1.0 -0.0786614898
C  C243  1  0.14852000  0.97296000  0.65529000  1.0 -0.0786614898
C  C244  1  0.17221000  0.92520000  0.70807000  1.0 -0.0786614898
C  C245  1  0.16657000  0.05574000  0.93885000  1.0 -0.0786614898
C  C246  1  0.10031000  0.07424000  0.89382000  1.0 -0.0786614898
C  C247  1  0.25081000  0.31214000  0.83413000  1.0 -0.1483498132
C  C248  1  0.19565000  0.28780000  0.76378000  1.0 -0.1483498132
C  C249  1  0.12701000  0.93410000  0.62326000  1.0 -0.1423175779
C  C250  1  0.15163000  0.88663000  0.67548000  1.0 -0.1423175779
C  C251  1  0.14222000  0.05149000  0.97459000  1.0 -0.1423175779
C  C252  1  0.07514000  0.06891000  0.92948000  1.0 -0.1483498132
C  C253  1  0.22292000  0.32402000  0.79725000  1.0 0.0720230999
C  C254  1  0.12862000  0.89039000  0.63266000  1.0 0.0720230999
C  C255  1  0.09675000  0.05795000  0.97091000  1.0 0.0720230999
C  C256  1  0.22126000  0.37419000  0.79542000  1.0 0.1023662466
C  C257  1  0.10542000  0.84711000  0.59627000  1.0 0.1023662466
C  C258  1  0.06938000  0.05032000  0.00756000  1.0 0.089336451
C  C259  1  0.18046000  0.38864000  0.77626000  1.0 -0.1810575194
C  C260  1  0.26139000  0.40910000  0.81386000  1.0 -0.1692099526
C  C261  1  0.08426000  0.80729000  0.60946000  1.0 -0.1866770582
C  C262  1  0.10659000  0.84560000  0.54864000  1.0 -0.1810575194
C  C263  1  0.07647000  0.01671000  0.03513000  1.0 -0.1866770582
C  C264  1  0.17909000  0.43427000  0.77493000  1.0 0.1023662466
C  C265  1  0.26104000  0.45598000  0.81320000  1.0 0.121880224
C  C266  1  0.06441000  0.76590000  0.57653000  1.0 0.1023662466
C  C267  1  0.08687000  0.80588000  0.51523000  1.0 0.1023662466
C  C268  1  0.21913000  0.46773000  0.79290000  1.0 -0.1810575194
C  C269  1  0.13616000  0.44797000  0.75385000  1.0 0.0317342327
C  C270  1  0.30458000  0.49182000  0.83387000  1.0 0.1066043137
C  C271  1  0.06642000  0.76732000  0.52987000  1.0 -0.1866770582
C  C272  1  0.04111000  0.72245000  0.59087000  1.0 0.0379106507
C  C273  1  0.08857000  0.80441000  0.46511000  1.0 0.0823896456
C  C274  1  0.13800000  0.47420000  0.71840000  1.0 0.0317342327
C  C275  1  0.09448000  0.43314000  0.76377000  1.0 -0.1692099526
C  C276  1  0.33739000  0.48217000  0.86870000  1.0 -0.3319509729
C  C277  1  0.31170000  0.53484000  0.81982000  1.0 -0.0958931327
C  C278  1  0.03780000  0.67950000  0.56180000  1.0 -0.0170008055
C  C279  1  0.03725000  0.72065000  0.63463000  1.0 -0.1810575194
C  C280  1  0.08384000  0.84344000  0.44440000  1.0 -0.1423175779
C  C281  1  0.09448000  0.76516000  0.43713000  1.0 -0.1252644613
C  C282  1  0.09460000  0.48320000  0.69040000  1.0 0.0500617411
C  C283  1  0.05300000  0.44880000  0.74300000  1.0 -0.1207224591
C  C284  1  0.37732000  0.51554000  0.88948000  1.0 0.121880224
C  C285  1  0.35163000  0.56821000  0.84060000  1.0 -0.0958931327
C  C286  1  0.01776000  0.63942000  0.57482000  1.0 0.0317342327
C  C287  1  0.01780000  0.67984000  0.64833000  1.0 -0.1483498132
C  C288  1  0.08486000  0.84096000  0.39741000  1.0 -0.0723391225
C  C289  1  0.09730000  0.76316000  0.39113000  1.0 -0.0723391225
C  C290  1  0.05489000  0.47562000  0.71030000  1.0 -0.0085762137
C  C291  1  0.38445000  0.55857000  0.87544000  1.0 0.0500617411
C  C292  1  0.00078000  0.64002000  0.61628000  1.0 0.0020560554
C  C293  1  0.09156000  0.80178000  0.37004000  1.0 0.0020560554
C  C294  1  0.01217000  0.48879000  0.68783000  1.0 0.5266354129
C  C295  1  0.42987000  0.59345000  0.89618000  1.0 0.5422806212
C  C296  1  0.97828000  0.59577000  0.62867000  1.0 0.5422806212
C  C297  1  0.09142000  0.79964000  0.31922000  1.0 0.5480283246
C  C298  1  0.54705000  0.65397000  0.86143000  1.0 0.5562477455
C  C299  1  0.57267000  0.66033000  0.82207000  1.0 0.0317342327
C  C300  1  0.58727000  0.70473000  0.81311000  1.0 -0.0786614898
C  C301  1  0.58348000  0.62137000  0.79571000  1.0 0.121880224
C  C302  1  0.61269000  0.71016000  0.77779000  1.0 -0.0958931327
C  C303  1  0.60429000  0.62670000  0.75721000  1.0 -0.2900808243
C  C304  1  0.62350000  0.67121000  0.75145000  1.0 0.0823896456
C  C305  1  0.65383000  0.67768000  0.71588000  1.0 0.0379106507
C  C306  1  0.65688000  0.71722000  0.69540000  1.0 0.0203436245
C  C307  1  0.01453000  0.68553000  0.55663000  1.0 0.0579784879
C  C308  1  0.99326000  0.64222000  0.56892000  1.0 0.0823896456
C  C309  1  0.09970000  0.50050000  0.71210000  1.0 0.0203436245
C  C310  1  0.33380000  0.48630000  0.87380000  1.0 -0.3490117893
C  C311  1  0.60890000  0.62681000  0.76041000  1.0 -0.2840321913
C  C312  1  0.64197000  0.70433000  0.68240000  1.0 0.0317342327
C  C313  1  0.80314000  0.22856000  0.18016000  1.0 0.5480283246
C  C314  1  0.73510000  0.19340000  0.01309000  1.0 0.5422806212
C  C315  1  0.86083000  0.17358000  0.07530000  1.0 0.5422806212
C  C316  1  0.80200000  0.22617000  0.23070000  1.0 0.0136639447
C  C317  1  0.69868000  0.17204000  0.96986000  1.0 0.0136639447
C  C318  1  0.89809000  0.14662000  0.06791000  1.0 -0.0085762137
C  C319  1  0.83621000  0.25172000  0.26607000  1.0 -0.0723391225
C  C320  1  0.76571000  0.19686000  0.24110000  1.0 -0.0786614898
C  C321  1  0.65529000  0.14852000  0.97296000  1.0 -0.0786614898
C  C322  1  0.70807000  0.17221000  0.92520000  1.0 -0.0786614898
C  C323  1  0.93885000  0.16657000  0.05574000  1.0 -0.0786614898
C  C324  1  0.89382000  0.10031000  0.07424000  1.0 -0.0786614898
C  C325  1  0.83413000  0.25081000  0.31214000  1.0 -0.1483498132
C  C326  1  0.76378000  0.19565000  0.28780000  1.0 -0.1483498132
C  C327  1  0.62326000  0.12701000  0.93410000  1.0 -0.1423175779
C  C328  1  0.67548000  0.15163000  0.88663000  1.0 -0.1423175779
C  C329  1  0.97459000  0.14222000  0.05149000  1.0 -0.1423175779
C  C330  1  0.92948000  0.07514000  0.06891000  1.0 -0.1483498132
C  C331  1  0.79725000  0.22292000  0.32402000  1.0 0.0720230999
C  C332  1  0.63266000  0.12862000  0.89039000  1.0 0.0720230999
C  C333  1  0.97091000  0.09675000  0.05795000  1.0 0.0720230999
C  C334  1  0.79542000  0.22126000  0.37419000  1.0 0.1023662466
C  C335  1  0.59627000  0.10542000  0.84711000  1.0 0.1023662466
C  C336  1  0.00756000  0.06938000  0.05032000  1.0 0.089336451
C  C337  1  0.77626000  0.18046000  0.38864000  1.0 -0.1810575194
C  C338  1  0.81386000  0.26139000  0.40910000  1.0 -0.1692099526
C  C339  1  0.60946000  0.08426000  0.80729000  1.0 -0.1866770582
C  C340  1  0.54864000  0.10659000  0.84560000  1.0 -0.1810575194
C  C341  1  0.03513000  0.07647000  0.01671000  1.0 -0.1866770582
C  C342  1  0.77493000  0.17909000  0.43427000  1.0 0.1023662466
C  C343  1  0.81320000  0.26104000  0.45598000  1.0 0.121880224
C  C344  1  0.57653000  0.06441000  0.76590000  1.0 0.1023662466
C  C345  1  0.51523000  0.08687000  0.80588000  1.0 0.1023662466
C  C346  1  0.79290000  0.21913000  0.46773000  1.0 -0.1810575194
C  C347  1  0.75385000  0.13616000  0.44797000  1.0 0.0317342327
C  C348  1  0.83387000  0.30458000  0.49182000  1.0 0.1066043137
C  C349  1  0.52987000  0.06642000  0.76732000  1.0 -0.1866770582
C  C350  1  0.59087000  0.04111000  0.72245000  1.0 0.0379106507
C  C351  1  0.46511000  0.08857000  0.80441000  1.0 0.0823896456
C  C352  1  0.71840000  0.13800000  0.47420000  1.0 0.0317342327
C  C353  1  0.76377000  0.09448000  0.43314000  1.0 -0.1692099526
C  C354  1  0.86870000  0.33739000  0.48217000  1.0 -0.3400390898
C  C355  1  0.81982000  0.31170000  0.53484000  1.0 -0.0958931327
C  C356  1  0.56180000  0.03780000  0.67950000  1.0 -0.0085762137
C  C357  1  0.63463000  0.03725000  0.72065000  1.0 -0.1810575194
C  C358  1  0.44440000  0.08384000  0.84344000  1.0 -0.1423175779
C  C359  1  0.43713000  0.09448000  0.76516000  1.0 -0.1252644613
C  C360  1  0.69040000  0.09460000  0.48320000  1.0 0.0579784879
C  C361  1  0.74300000  0.05300000  0.44880000  1.0 -0.1207224591
C  C362  1  0.88948000  0.37732000  0.51554000  1.0 0.121880224
C  C363  1  0.84060000  0.35163000  0.56821000  1.0 -0.0958931327
C  C364  1  0.57482000  0.01776000  0.63942000  1.0 0.0203436245
C  C365  1  0.64833000  0.01780000  0.67984000  1.0 -0.1423175779
C  C366  1  0.39741000  0.08486000  0.84096000  1.0 -0.0723391225
C  C367  1  0.39113000  0.09730000  0.76316000  1.0 -0.0723391225
C  C368  1  0.71030000  0.05489000  0.47562000  1.0 -0.0085762137
C  C369  1  0.87544000  0.38445000  0.55857000  1.0 0.0500617411
C  C370  1  0.61628000  0.00078000  0.64002000  1.0 0.0020560554
C  C371  1  0.37004000  0.09156000  0.80178000  1.0 0.0020560554
C  C372  1  0.68783000  0.01217000  0.48879000  1.0 0.5266354129
C  C373  1  0.89618000  0.42987000  0.59345000  1.0 0.5422806212
C  C374  1  0.62867000  0.97828000  0.59577000  1.0 0.5422806212
C  C375  1  0.31922000  0.09142000  0.79964000  1.0 0.5480283246
C  C376  1  0.86143000  0.54705000  0.65397000  1.0 0.5562477455
C  C377  1  0.82207000  0.57267000  0.66033000  1.0 0.0379106507
C  C378  1  0.81311000  0.58727000  0.70473000  1.0 -0.0786614898
C  C379  1  0.79571000  0.58348000  0.62137000  1.0 0.1300570345
C  C380  1  0.77779000  0.61269000  0.71016000  1.0 -0.0933872621
C  C381  1  0.75721000  0.60429000  0.62670000  1.0 -0.2955558553
C  C382  1  0.75145000  0.62350000  0.67121000  1.0 0.089336451
C  C383  1  0.71588000  0.65383000  0.67768000  1.0 0.0379106507
C  C384  1  0.69540000  0.65688000  0.71722000  1.0 0.0203436245
C  C385  1  0.55663000  0.01453000  0.68553000  1.0 0.0579784879
C  C386  1  0.56892000  0.99326000  0.64222000  1.0 0.0823896456
C  C387  1  0.71210000  0.09970000  0.50050000  1.0 0.0203436245
C  C388  1  0.87380000  0.33380000  0.48630000  1.0 -0.3400390898
C  C389  1  0.76041000  0.60890000  0.62681000  1.0 -0.2900808243
C  C390  1  0.68240000  0.64197000  0.70433000  1.0 0.0317342327
C  C391  1  0.18016000  0.80314000  0.22856000  1.0 0.5480283246
C  C392  1  0.01309000  0.73510000  0.19340000  1.0 0.5422806212
C  C393  1  0.07530000  0.86083000  0.17358000  1.0 0.5422806212
C  C394  1  0.23070000  0.80200000  0.22617000  1.0 0.0136639447
C  C395  1  0.96986000  0.69868000  0.17204000  1.0 0.0136639447
C  C396  1  0.06791000  0.89809000  0.14662000  1.0 -0.0085762137
C  C397  1  0.26607000  0.83621000  0.25172000  1.0 -0.0723391225
C  C398  1  0.24110000  0.76571000  0.19686000  1.0 -0.0786614898
C  C399  1  0.97296000  0.65529000  0.14852000  1.0 -0.0786614898
C  C400  1  0.92520000  0.70807000  0.17221000  1.0 -0.0786614898
C  C401  1  0.05574000  0.93885000  0.16657000  1.0 -0.0786614898
C  C402  1  0.07424000  0.89382000  0.10031000  1.0 -0.0786614898
C  C403  1  0.31214000  0.83413000  0.25081000  1.0 -0.1483498132
C  C404  1  0.28780000  0.76378000  0.19565000  1.0 -0.1483498132
C  C405  1  0.93410000  0.62326000  0.12701000  1.0 -0.1423175779
C  C406  1  0.88663000  0.67548000  0.15163000  1.0 -0.1423175779
C  C407  1  0.05149000  0.97459000  0.14222000  1.0 -0.1423175779
C  C408  1  0.06891000  0.92948000  0.07514000  1.0 -0.1483498132
C  C409  1  0.32402000  0.79725000  0.22292000  1.0 0.0720230999
C  C410  1  0.89039000  0.63266000  0.12862000  1.0 0.0720230999
C  C411  1  0.05795000  0.97091000  0.09675000  1.0 0.0720230999
C  C412  1  0.37419000  0.79542000  0.22126000  1.0 0.1023662466
C  C413  1  0.84711000  0.59627000  0.10542000  1.0 0.1023662466
C  C414  1  0.05032000  0.00756000  0.06938000  1.0 0.089336451
C  C415  1  0.38864000  0.77626000  0.18046000  1.0 -0.1810575194
C  C416  1  0.40910000  0.81386000  0.26139000  1.0 -0.1692099526
C  C417  1  0.80729000  0.60946000  0.08426000  1.0 -0.1866770582
C  C418  1  0.84560000  0.54864000  0.10659000  1.0 -0.1810575194
C  C419  1  0.01671000  0.03513000  0.07647000  1.0 -0.1866770582
C  C420  1  0.43427000  0.77493000  0.17909000  1.0 0.1023662466
C  C421  1  0.45598000  0.81320000  0.26104000  1.0 0.121880224
C  C422  1  0.76590000  0.57653000  0.06441000  1.0 0.1023662466
C  C423  1  0.80588000  0.51523000  0.08687000  1.0 0.1023662466
C  C424  1  0.46773000  0.79290000  0.21913000  1.0 -0.1810575194
C  C425  1  0.44797000  0.75385000  0.13616000  1.0 0.0317342327
C  C426  1  0.49182000  0.83387000  0.30458000  1.0 0.1066043137
C  C427  1  0.76732000  0.52987000  0.06642000  1.0 -0.1866770582
C  C428  1  0.72245000  0.59087000  0.04111000  1.0 0.0379106507
C  C429  1  0.80441000  0.46511000  0.08857000  1.0 0.0823896456
C  C430  1  0.47420000  0.71840000  0.13800000  1.0 0.0317342327
C  C431  1  0.43314000  0.76377000  0.09448000  1.0 -0.1692099526
C  C432  1  0.48217000  0.86870000  0.33739000  1.0 -0.3400390898
C  C433  1  0.53484000  0.81982000  0.31170000  1.0 -0.0958931327
C  C434  1  0.67950000  0.56180000  0.03780000  1.0 -0.0170008055
C  C435  1  0.72065000  0.63463000  0.03725000  1.0 -0.1810575194
C  C436  1  0.84344000  0.44440000  0.08384000  1.0 -0.1423175779
C  C437  1  0.76516000  0.43713000  0.09448000  1.0 -0.1252644613
C  C438  1  0.48320000  0.69040000  0.09460000  1.0 0.0579784879
C  C439  1  0.44880000  0.74300000  0.05300000  1.0 -0.1207224591
C  C440  1  0.51554000  0.88948000  0.37732000  1.0 0.121880224
C  C441  1  0.56821000  0.84060000  0.35163000  1.0 -0.0958931327
C  C442  1  0.63942000  0.57482000  0.01776000  1.0 0.0317342327
C  C443  1  0.67984000  0.64833000  0.01780000  1.0 -0.1483498132
C  C444  1  0.84096000  0.39741000  0.08486000  1.0 -0.0723391225
C  C445  1  0.76316000  0.39113000  0.09730000  1.0 -0.0723391225
C  C446  1  0.47562000  0.71030000  0.05489000  1.0 -0.0085762137
C  C447  1  0.55857000  0.87544000  0.38445000  1.0 0.0500617411
C  C448  1  0.64002000  0.61628000  0.00078000  1.0 0.0020560554
C  C449  1  0.80178000  0.37004000  0.09156000  1.0 0.0020560554
C  C450  1  0.48879000  0.68783000  0.01217000  1.0 0.5266354129
C  C451  1  0.59345000  0.89618000  0.42987000  1.0 0.5422806212
C  C452  1  0.59577000  0.62867000  0.97828000  1.0 0.5422806212
C  C453  1  0.79964000  0.31922000  0.09142000  1.0 0.5422806212
C  C454  1  0.65397000  0.86143000  0.54705000  1.0 0.5562477455
C  C455  1  0.66033000  0.82207000  0.57267000  1.0 0.0317342327
C  C456  1  0.70473000  0.81311000  0.58727000  1.0 -0.0786614898
C  C457  1  0.62137000  0.79571000  0.58348000  1.0 0.1300570345
C  C458  1  0.71016000  0.77779000  0.61269000  1.0 -0.0933872621
C  C459  1  0.62670000  0.75721000  0.60429000  1.0 -0.2900808243
C  C460  1  0.67121000  0.75145000  0.62350000  1.0 0.0823896456
C  C461  1  0.67768000  0.71588000  0.65383000  1.0 0.0379106507
C  C462  1  0.71722000  0.69540000  0.65688000  1.0 0.0203436245
C  C463  1  0.68553000  0.55663000  0.01453000  1.0 0.0579784879
C  C464  1  0.64222000  0.56892000  0.99326000  1.0 0.0823896456
C  C465  1  0.50050000  0.71210000  0.09970000  1.0 0.0203436245
C  C466  1  0.48630000  0.87380000  0.33380000  1.0 -0.3400390898
C  C467  1  0.62681000  0.76041000  0.60890000  1.0 -0.2900808243
C  C468  1  0.70433000  0.68240000  0.64197000  1.0 0.0317342327
O  O1  1  0.79285000  0.85079000  0.23123000  1.0 -0.5108384519
O  O2  1  0.74843000  0.83048000  0.16219000  1.0 -0.5199600828
O  O3  1  0.81117000  0.94751000  0.27198000  1.0 -0.4971832325
O  O4  1  0.78352000  0.99062000  0.22637000  1.0 -0.5199600828
O  O5  1  0.78364000  0.92528000  0.13196000  1.0 -0.4971832325
O  O6  1  0.84512000  0.91787000  0.17773000  1.0 -0.5108384519
O  O7  1  0.69856000  0.91678000  0.16620000  1.0 -0.4971832325
O  O8  1  0.70574000  0.90049000  0.23561000  1.0 -0.526193495
O  O9  1  0.98920000  0.50089000  0.35118000  1.0 -0.4507603997
O  O10  1  0.02226000  0.50922000  0.29578000  1.0 -0.4293586566
O  O11  1  0.54069000  0.41947000  0.07612000  1.0 -0.4896819717
O  O12  1  0.56327000  0.36759000  0.11385000  1.0 -0.5199600828
O  O13  1  0.03710000  0.43933000  0.40317000  1.0 -0.4507603997
O  O14  1  0.02540000  0.40585000  0.33042000  1.0 -0.4732327833
O  O15  1  0.46066000  0.31160000  0.11261000  1.0 -0.5199600828
O  O16  1  0.46402000  0.38654000  0.13058000  1.0 -0.5108384519
O  O17  1  0.23123000  0.79285000  0.85079000  1.0 -0.5108384519
O  O18  1  0.16219000  0.74843000  0.83048000  1.0 -0.5108384519
O  O19  1  0.27198000  0.81117000  0.94751000  1.0 -0.4971832325
O  O20  1  0.22637000  0.78352000  0.99062000  1.0 -0.5199600828
O  O21  1  0.13196000  0.78364000  0.92528000  1.0 -0.4896819717
O  O22  1  0.17773000  0.84512000  0.91787000  1.0 -0.5108384519
O  O23  1  0.16620000  0.69856000  0.91678000  1.0 -0.4971832325
O  O24  1  0.23561000  0.70574000  0.90049000  1.0 -0.5199600828
O  O25  1  0.35118000  0.98920000  0.50089000  1.0 -0.4433375055
O  O26  1  0.29578000  0.02226000  0.50922000  1.0 -0.4293586566
O  O27  1  0.07612000  0.54069000  0.41947000  1.0 -0.4896819717
O  O28  1  0.11385000  0.56327000  0.36759000  1.0 -0.5108384519
O  O29  1  0.40317000  0.03710000  0.43933000  1.0 -0.4507603997
O  O30  1  0.33042000  0.02540000  0.40585000  1.0 -0.4732327833
O  O31  1  0.11261000  0.46066000  0.31160000  1.0 -0.5199600828
O  O32  1  0.13058000  0.46402000  0.38654000  1.0 -0.5108384519
O  O33  1  0.85079000  0.23123000  0.79285000  1.0 -0.5108384519
O  O34  1  0.83048000  0.16219000  0.74843000  1.0 -0.5199600828
O  O35  1  0.94751000  0.27198000  0.81117000  1.0 -0.4971832325
O  O36  1  0.99062000  0.22637000  0.78352000  1.0 -0.5199600828
O  O37  1  0.92528000  0.13196000  0.78364000  1.0 -0.4971832325
O  O38  1  0.91787000  0.17773000  0.84512000  1.0 -0.5108384519
O  O39  1  0.91678000  0.16620000  0.69856000  1.0 -0.4971832325
O  O40  1  0.90049000  0.23561000  0.70574000  1.0 -0.5199600828
O  O41  1  0.50089000  0.35118000  0.98920000  1.0 -0.4507603997
O  O42  1  0.50922000  0.29578000  0.02226000  1.0 -0.4293586566
O  O43  1  0.41947000  0.07612000  0.54069000  1.0 -0.4896819717
O  O44  1  0.36759000  0.11385000  0.56327000  1.0 -0.5199600828
O  O45  1  0.43933000  0.40317000  0.03710000  1.0 -0.4507603997
O  O46  1  0.40585000  0.33042000  0.02540000  1.0 -0.4732327833
O  O47  1  0.31160000  0.11261000  0.46066000  1.0 -0.5199600828
O  O48  1  0.38654000  0.13058000  0.46402000  1.0 -0.5108384519
O  O49  1  0.20715000  0.14921000  0.76877000  1.0 -0.5108384519
O  O50  1  0.25157000  0.16952000  0.83781000  1.0 -0.5108384519
O  O51  1  0.18883000  0.05249000  0.72802000  1.0 -0.4971832325
O  O52  1  0.21648000  0.00938000  0.77363000  1.0 -0.5199600828
O  O53  1  0.21636000  0.07472000  0.86804000  1.0 -0.4971832325
O  O54  1  0.15488000  0.08213000  0.82227000  1.0 -0.5108384519
O  O55  1  0.30144000  0.08322000  0.83380000  1.0 -0.4971832325
O  O56  1  0.29426000  0.09951000  0.76439000  1.0 -0.5199600828
O  O57  1  0.01080000  0.49911000  0.64882000  1.0 -0.4433375055
O  O58  1  0.97774000  0.49078000  0.70422000  1.0 -0.4293586566
O  O59  1  0.45931000  0.58053000  0.92388000  1.0 -0.4896819717
O  O60  1  0.43673000  0.63241000  0.88615000  1.0 -0.5199600828
O  O61  1  0.96290000  0.56067000  0.59683000  1.0 -0.4507603997
O  O62  1  0.97460000  0.59415000  0.66958000  1.0 -0.4732327833
O  O63  1  0.53934000  0.68840000  0.88739000  1.0 -0.5199600828
O  O64  1  0.53598000  0.61346000  0.86942000  1.0 -0.5108384519
O  O65  1  0.76877000  0.20715000  0.14921000  1.0 -0.5108384519
O  O66  1  0.83781000  0.25157000  0.16952000  1.0 -0.5199600828
O  O67  1  0.72802000  0.18883000  0.05249000  1.0 -0.4971832325
O  O68  1  0.77363000  0.21648000  0.00938000  1.0 -0.5199600828
O  O69  1  0.86804000  0.21636000  0.07472000  1.0 -0.4971832325
O  O70  1  0.82227000  0.15488000  0.08213000  1.0 -0.5108384519
O  O71  1  0.83380000  0.30144000  0.08322000  1.0 -0.4971832325
O  O72  1  0.76439000  0.29426000  0.09951000  1.0 -0.5199600828
O  O73  1  0.64882000  0.01080000  0.49911000  1.0 -0.4507603997
O  O74  1  0.70422000  0.97774000  0.49078000  1.0 -0.4293586566
O  O75  1  0.92388000  0.45931000  0.58053000  1.0 -0.4896819717
O  O76  1  0.88615000  0.43673000  0.63241000  1.0 -0.5108384519
O  O77  1  0.59683000  0.96290000  0.56067000  1.0 -0.4507603997
O  O78  1  0.66958000  0.97460000  0.59415000  1.0 -0.4732327833
O  O79  1  0.88739000  0.53934000  0.68840000  1.0 -0.5199600828
O  O80  1  0.86942000  0.53598000  0.61346000  1.0 -0.5108384519
O  O81  1  0.14921000  0.76877000  0.20715000  1.0 -0.5108384519
O  O82  1  0.16952000  0.83781000  0.25157000  1.0 -0.5108384519
O  O83  1  0.05249000  0.72802000  0.18883000  1.0 -0.4971832325
O  O84  1  0.00938000  0.77363000  0.21648000  1.0 -0.5199600828
O  O85  1  0.07472000  0.86804000  0.21636000  1.0 -0.4971832325
O  O86  1  0.08213000  0.82227000  0.15488000  1.0 -0.5108384519
O  O87  1  0.08322000  0.83380000  0.30144000  1.0 -0.4971832325
O  O88  1  0.09951000  0.76439000  0.29426000  1.0 -0.5199600828
O  O89  1  0.49911000  0.64882000  0.01080000  1.0 -0.4433375055
O  O90  1  0.49078000  0.70422000  0.97774000  1.0 -0.4293586566
O  O91  1  0.58053000  0.92388000  0.45931000  1.0 -0.4896819717
O  O92  1  0.63241000  0.88615000  0.43673000  1.0 -0.5108384519
O  O93  1  0.56067000  0.59683000  0.96290000  1.0 -0.4507603997
O  O94  1  0.59415000  0.66958000  0.97460000  1.0 -0.4752148345
O  O95  1  0.68840000  0.88739000  0.53934000  1.0 -0.5199600828
O  O96  1  0.61346000  0.86942000  0.53598000  1.0 -0.5108384519
