# DDEC6 charges by PACMAN v1.1 (https://github.com/mtap-research/PACMAN-charge/)
data_CIFSIW_FSR_pacman
_symmetry_space_group_name_H-M   'P 1'
_cell_length_a   29.26200000
_cell_length_b   29.26200000
_cell_length_c   29.26200000
_cell_angle_alpha   99.50580000
_cell_angle_beta   99.50580000
_cell_angle_gamma   99.50580000
_symmetry_Int_Tables_number   1
_chemical_formula_structural   In2H24(C29O6)3
_chemical_formula_sum   'In12 H144 C522 O108'
_cell_volume   23891.02106525
_cell_formula_units_Z   6
loop_
 _symmetry_equiv_pos_site_id
 _symmetry_equiv_pos_as_xyz
  1  'x, y, z'
loop_
 _atom_site_type_symbol
 _atom_site_label
 _atom_site_symmetry_multiplicity
 _atom_site_fract_x
 _atom_site_fract_y
 _atom_site_fract_z
 _atom_site_occupancy
 _atom_site_charge
In  In1  1  0.90735000  0.19642000  0.76698000  1.0 1.2518123619
In  In2  1  0.06588000  0.48514000  0.35438000  1.0 1.199212157
In  In3  1  0.76698000  0.90735000  0.19642000  1.0 1.2518123619
In  In4  1  0.35438000  0.06588000  0.48514000  1.0 1.199212157
In  In5  1  0.19642000  0.76698000  0.90735000  1.0 1.2518123619
In  In6  1  0.48514000  0.35438000  0.06588000  1.0 1.199212157
In  In7  1  0.09265000  0.80358000  0.23302000  1.0 1.2518123619
In  In8  1  0.93412000  0.51486000  0.64562000  1.0 1.199212157
In  In9  1  0.23302000  0.09265000  0.80358000  1.0 1.2518123619
In  In10  1  0.64562000  0.93412000  0.51486000  1.0 1.199212157
In  In11  1  0.80358000  0.23302000  0.09265000  1.0 1.2518123619
In  In12  1  0.51486000  0.64562000  0.93412000  1.0 1.199212157
H  H1  1  0.91310000  0.12660000  0.60950000  1.0 0.1292098578
H  H2  1  0.90080000  0.26150000  0.62670000  1.0 0.1378830725
H  H3  1  0.91660000  0.13260000  0.90930000  1.0 0.1292098578
H  H4  1  0.94210000  0.04990000  0.79610000  1.0 0.121936085
H  H5  1  0.73750000  0.13560000  0.73200000  1.0 0.1378830725
H  H6  1  0.77830000  0.25810000  0.81950000  1.0 0.1292098578
H  H7  1  0.92130000  0.12760000  0.53130000  1.0 0.1292098578
H  H8  1  0.89670000  0.25970000  0.54890000  1.0 0.121936085
H  H9  1  0.92810000  0.07510000  0.95350000  1.0 0.121936085
H  H10  1  0.95360000  0.99240000  0.84030000  1.0 0.1292098578
H  H11  1  0.66120000  0.14050000  0.73200000  1.0 0.1090474991
H  H12  1  0.70630000  0.26220000  0.82320000  1.0 0.1378830725
H  H13  1  0.88210000  0.12530000  0.45700000  1.0 0.121936085
H  H14  1  0.95220000  0.25820000  0.48800000  1.0 0.1292098578
H  H15  1  0.00000000  0.96810000  0.89830000  1.0 0.121936085
H  H16  1  0.63220000  0.23360000  0.85060000  1.0 0.1292098578
H  H17  1  0.59770000  0.17410000  0.71300000  1.0 0.1378830725
H  H18  1  0.92000000  0.19050000  0.35540000  1.0 0.1292098578
H  H19  1  0.49870000  0.20600000  0.78370000  1.0 0.1378830725
H  H20  1  0.88690000  0.06110000  0.40300000  1.0 0.1540688036
H  H21  1  0.84940000  0.14260000  0.31100000  1.0 0.1378830725
H  H22  1  0.46040000  0.20680000  0.70990000  1.0 0.1292098578
H  H23  1  0.40190000  0.17010000  0.64310000  1.0 0.1378830725
H  H24  1  0.27640000  0.31820000  0.38070000  1.0 0.1090474991
H  H25  1  0.60950000  0.91310000  0.12660000  1.0 0.1292098578
H  H26  1  0.62670000  0.90080000  0.26150000  1.0 0.1378830725
H  H27  1  0.90930000  0.91660000  0.13260000  1.0 0.1292098578
H  H28  1  0.79610000  0.94210000  0.04990000  1.0 0.121936085
H  H29  1  0.73200000  0.73750000  0.13560000  1.0 0.1378830725
H  H30  1  0.81950000  0.77830000  0.25810000  1.0 0.1292098578
H  H31  1  0.53130000  0.92130000  0.12760000  1.0 0.1292098578
H  H32  1  0.54890000  0.89670000  0.25970000  1.0 0.121936085
H  H33  1  0.95350000  0.92810000  0.07510000  1.0 0.121936085
H  H34  1  0.84030000  0.95360000  0.99240000  1.0 0.1292098578
H  H35  1  0.73200000  0.66120000  0.14050000  1.0 0.1090474991
H  H36  1  0.82320000  0.70630000  0.26220000  1.0 0.1378830725
H  H37  1  0.45700000  0.88210000  0.12530000  1.0 0.121936085
H  H38  1  0.48800000  0.95220000  0.25820000  1.0 0.1292098578
H  H39  1  0.89830000  0.00000000  0.96810000  1.0 0.121936085
H  H40  1  0.85060000  0.63220000  0.23360000  1.0 0.1292098578
H  H41  1  0.71300000  0.59770000  0.17410000  1.0 0.1378830725
H  H42  1  0.35540000  0.92000000  0.19050000  1.0 0.1292098578
H  H43  1  0.78370000  0.49870000  0.20600000  1.0 0.1378830725
H  H44  1  0.40300000  0.88690000  0.06110000  1.0 0.1540688036
H  H45  1  0.31100000  0.84940000  0.14260000  1.0 0.1378830725
H  H46  1  0.70990000  0.46040000  0.20680000  1.0 0.1292098578
H  H47  1  0.64310000  0.40190000  0.17010000  1.0 0.1378830725
H  H48  1  0.38070000  0.27640000  0.31820000  1.0 0.1090474991
H  H49  1  0.12660000  0.60950000  0.91310000  1.0 0.1292098578
H  H50  1  0.26150000  0.62670000  0.90080000  1.0 0.1378830725
H  H51  1  0.13260000  0.90930000  0.91660000  1.0 0.1292098578
H  H52  1  0.04990000  0.79610000  0.94210000  1.0 0.121936085
H  H53  1  0.13560000  0.73200000  0.73750000  1.0 0.1378830725
H  H54  1  0.25810000  0.81950000  0.77830000  1.0 0.1292098578
H  H55  1  0.12760000  0.53130000  0.92130000  1.0 0.1292098578
H  H56  1  0.25970000  0.54890000  0.89670000  1.0 0.121936085
H  H57  1  0.07510000  0.95350000  0.92810000  1.0 0.121936085
H  H58  1  0.99240000  0.84030000  0.95360000  1.0 0.1292098578
H  H59  1  0.14050000  0.73200000  0.66120000  1.0 0.1090474991
H  H60  1  0.26220000  0.82320000  0.70630000  1.0 0.1378830725
H  H61  1  0.12530000  0.45700000  0.88210000  1.0 0.121936085
H  H62  1  0.25820000  0.48800000  0.95220000  1.0 0.1292098578
H  H63  1  0.96810000  0.89830000  0.00000000  1.0 0.121936085
H  H64  1  0.23360000  0.85060000  0.63220000  1.0 0.1292098578
H  H65  1  0.17410000  0.71300000  0.59770000  1.0 0.1378830725
H  H66  1  0.19050000  0.35540000  0.92000000  1.0 0.1292098578
H  H67  1  0.20600000  0.78370000  0.49870000  1.0 0.1378830725
H  H68  1  0.06110000  0.40300000  0.88690000  1.0 0.1540688036
H  H69  1  0.14260000  0.31100000  0.84940000  1.0 0.1378830725
H  H70  1  0.20680000  0.70990000  0.46040000  1.0 0.1292098578
H  H71  1  0.17010000  0.64310000  0.40190000  1.0 0.1378830725
H  H72  1  0.31820000  0.38070000  0.27640000  1.0 0.121936085
H  H73  1  0.08690000  0.87340000  0.39050000  1.0 0.1292098578
H  H74  1  0.09920000  0.73850000  0.37330000  1.0 0.1378830725
H  H75  1  0.08340000  0.86740000  0.09070000  1.0 0.1292098578
H  H76  1  0.05790000  0.95010000  0.20390000  1.0 0.121936085
H  H77  1  0.26250000  0.86440000  0.26800000  1.0 0.1378830725
H  H78  1  0.22170000  0.74190000  0.18050000  1.0 0.1292098578
H  H79  1  0.07870000  0.87240000  0.46870000  1.0 0.1292098578
H  H80  1  0.10330000  0.74030000  0.45110000  1.0 0.121936085
H  H81  1  0.07190000  0.92490000  0.04650000  1.0 0.121936085
H  H82  1  0.04640000  0.00760000  0.15970000  1.0 0.1292098578
H  H83  1  0.33880000  0.85950000  0.26800000  1.0 0.1090474991
H  H84  1  0.29370000  0.73780000  0.17680000  1.0 0.1378830725
H  H85  1  0.11790000  0.87470000  0.54300000  1.0 0.121936085
H  H86  1  0.04780000  0.74180000  0.51200000  1.0 0.1292098578
H  H87  1  0.00000000  0.03190000  0.10170000  1.0 0.121936085
H  H88  1  0.36780000  0.76640000  0.14940000  1.0 0.1292098578
H  H89  1  0.40230000  0.82590000  0.28700000  1.0 0.1378830725
H  H90  1  0.08000000  0.80950000  0.64460000  1.0 0.1292098578
H  H91  1  0.50130000  0.79400000  0.21630000  1.0 0.1378830725
H  H92  1  0.11310000  0.93890000  0.59700000  1.0 0.1540688036
H  H93  1  0.15060000  0.85740000  0.68900000  1.0 0.1378830725
H  H94  1  0.53960000  0.79320000  0.29010000  1.0 0.1292098578
H  H95  1  0.59810000  0.82990000  0.35690000  1.0 0.1378830725
H  H96  1  0.72360000  0.68180000  0.61930000  1.0 0.121936085
H  H97  1  0.39050000  0.08690000  0.87340000  1.0 0.1292098578
H  H98  1  0.37330000  0.09920000  0.73850000  1.0 0.1378830725
H  H99  1  0.09070000  0.08340000  0.86740000  1.0 0.1292098578
H  H100  1  0.20390000  0.05790000  0.95010000  1.0 0.121936085
H  H101  1  0.26800000  0.26250000  0.86440000  1.0 0.1378830725
H  H102  1  0.18050000  0.22170000  0.74190000  1.0 0.1292098578
H  H103  1  0.46870000  0.07870000  0.87240000  1.0 0.1292098578
H  H104  1  0.45110000  0.10330000  0.74030000  1.0 0.121936085
H  H105  1  0.04650000  0.07190000  0.92490000  1.0 0.121936085
H  H106  1  0.15970000  0.04640000  0.00760000  1.0 0.1292098578
H  H107  1  0.26800000  0.33880000  0.85950000  1.0 0.1090474991
H  H108  1  0.17680000  0.29370000  0.73780000  1.0 0.1378830725
H  H109  1  0.54300000  0.11790000  0.87470000  1.0 0.121936085
H  H110  1  0.51200000  0.04780000  0.74180000  1.0 0.1292098578
H  H111  1  0.10170000  0.00000000  0.03190000  1.0 0.121936085
H  H112  1  0.14940000  0.36780000  0.76640000  1.0 0.1292098578
H  H113  1  0.28700000  0.40230000  0.82590000  1.0 0.1378830725
H  H114  1  0.64460000  0.08000000  0.80950000  1.0 0.1292098578
H  H115  1  0.21630000  0.50130000  0.79400000  1.0 0.1378830725
H  H116  1  0.59700000  0.11310000  0.93890000  1.0 0.1540688036
H  H117  1  0.68900000  0.15060000  0.85740000  1.0 0.1378830725
H  H118  1  0.29010000  0.53960000  0.79320000  1.0 0.1292098578
H  H119  1  0.35690000  0.59810000  0.82990000  1.0 0.1378830725
H  H120  1  0.61930000  0.72360000  0.68180000  1.0 0.121936085
H  H121  1  0.87340000  0.39050000  0.08690000  1.0 0.1292098578
H  H122  1  0.73850000  0.37330000  0.09920000  1.0 0.1378830725
H  H123  1  0.86740000  0.09070000  0.08340000  1.0 0.1292098578
H  H124  1  0.95010000  0.20390000  0.05790000  1.0 0.121936085
H  H125  1  0.86440000  0.26800000  0.26250000  1.0 0.1378830725
H  H126  1  0.74190000  0.18050000  0.22170000  1.0 0.1292098578
H  H127  1  0.87240000  0.46870000  0.07870000  1.0 0.1292098578
H  H128  1  0.74030000  0.45110000  0.10330000  1.0 0.121936085
H  H129  1  0.92490000  0.04650000  0.07190000  1.0 0.121936085
H  H130  1  0.00760000  0.15970000  0.04640000  1.0 0.1292098578
H  H131  1  0.85950000  0.26800000  0.33880000  1.0 0.1090474991
H  H132  1  0.73780000  0.17680000  0.29370000  1.0 0.1378830725
H  H133  1  0.87470000  0.54300000  0.11790000  1.0 0.121936085
H  H134  1  0.74180000  0.51200000  0.04780000  1.0 0.1292098578
H  H135  1  0.03190000  0.10170000  0.00000000  1.0 0.121936085
H  H136  1  0.76640000  0.14940000  0.36780000  1.0 0.1292098578
H  H137  1  0.82590000  0.28700000  0.40230000  1.0 0.1378830725
H  H138  1  0.80950000  0.64460000  0.08000000  1.0 0.1292098578
H  H139  1  0.79400000  0.21630000  0.50130000  1.0 0.1378830725
H  H140  1  0.93890000  0.59700000  0.11310000  1.0 0.1540688036
H  H141  1  0.85740000  0.68900000  0.15060000  1.0 0.1378830725
H  H142  1  0.79320000  0.29010000  0.53960000  1.0 0.1292098578
H  H143  1  0.82990000  0.35690000  0.59810000  1.0 0.1378830725
H  H144  1  0.68180000  0.61930000  0.72360000  1.0 0.1090474991
C  C1  1  0.90580000  0.19720000  0.67820000  1.0 0.511126144
C  C2  1  0.92110000  0.13210000  0.82160000  1.0 0.533832901
C  C3  1  0.81820000  0.19770000  0.77040000  1.0 0.5488244874
C  C4  1  0.90670000  0.19490000  0.62590000  1.0 0.0088654359
C  C5  1  0.92827000  0.09701000  0.84832000  1.0 -0.0500333179
C  C6  1  0.76750000  0.19660000  0.77210000  1.0 -0.0028928773
C  C7  1  0.91190000  0.15400000  0.59740000  1.0 -0.0784752316
C  C8  1  0.90300000  0.23380000  0.60720000  1.0 -0.0784752316
C  C9  1  0.92410000  0.10452000  0.89541000  1.0 -0.0569615638
C  C10  1  0.93931000  0.05497000  0.82760000  1.0 -0.0569615638
C  C11  1  0.73110000  0.16250000  0.74960000  1.0 -0.0784752316
C  C12  1  0.75450000  0.23390000  0.80120000  1.0 -0.0903340577
C  C13  1  0.91550000  0.15420000  0.55010000  1.0 -0.1392930492
C  C14  1  0.90250000  0.23340000  0.56130000  1.0 -0.1392930492
C  C15  1  0.93100000  0.07007000  0.92194000  1.0 -0.1685854785
C  C16  1  0.94621000  0.02052000  0.85410000  1.0 -0.1617627592
C  C17  1  0.68530000  0.16430000  0.75040000  1.0 -0.1530942264
C  C18  1  0.71200000  0.23610000  0.80370000  1.0 -0.1168268787
C  C19  1  0.91050000  0.19390000  0.53130000  1.0 0.1004250921
C  C20  1  0.94207000  0.02807000  0.90127000  1.0 0.0800666026
C  C21  1  0.67475000  0.20265000  0.77975000  1.0 0.0720822676
C  C22  1  0.91330000  0.19190000  0.48100000  1.0 0.0901494537
C  C23  1  0.94890000  0.99010000  0.92980000  1.0 0.0901494537
C  C24  1  0.62580000  0.20530000  0.78180000  1.0 0.1004250921
C  C25  1  0.89530000  0.15270000  0.44790000  1.0 -0.1790141838
C  C26  1  0.93750000  0.23140000  0.46530000  1.0 -0.2296074
C  C27  1  0.98260000  0.96340000  0.92160000  1.0 -0.1897245961
C  C28  1  0.61030000  0.22300000  0.82250000  1.0 -0.1897245961
C  C29  1  0.58940000  0.18760000  0.74080000  1.0 -0.1790141838
C  C30  1  0.89567000  0.15197000  0.39957000  1.0 0.1004250921
C  C31  1  0.94050000  0.23230000  0.42090000  1.0 0.1004250921
C  C32  1  0.56530000  0.22520000  0.82240000  1.0 0.1090474991
C  C33  1  0.54440000  0.18930000  0.74030000  1.0 0.1090474991
C  C34  1  0.91870000  0.19110000  0.38700000  1.0 -0.2296074
C  C35  1  0.87153000  0.10849000  0.36270000  1.0 0.1090474991
C  C36  1  0.95140000  0.27460000  0.40010000  1.0 0.0502343949
C  C37  1  0.54950000  0.24750000  0.86810000  1.0 -0.0219902078
C  C38  1  0.53040000  0.20680000  0.78270000  1.0 -0.2123875089
C  C39  1  0.50701000  0.16421000  0.69931000  1.0 0.0414256539
C  C40  1  0.87258000  0.06396000  0.37309000  1.0 -0.1617627592
C  C41  1  0.85013000  0.11278000  0.31795000  1.0 -0.1685854785
C  C42  1  0.96805000  0.27581000  0.36217000  1.0 -0.0703174484
C  C43  1  0.95230000  0.31850000  0.42730000  1.0 -0.0784752316
C  C44  1  0.57390000  0.29040000  0.89410000  1.0 0.0021504198
C  C45  1  0.51520000  0.22680000  0.88290000  1.0 -0.0569615638
C  C46  1  0.51520000  0.12630000  0.66840000  1.0 -0.0299114754
C  C47  1  0.46583000  0.18143000  0.68913000  1.0 -0.2296074
C  C48  1  0.85218000  0.02372000  0.33875000  1.0 0.0198113711
C  C49  1  0.82977000  0.07257000  0.28357000  1.0 0.0414256539
C  C50  1  0.99102000  0.31599000  0.34966000  1.0 -0.1008539403
C  C51  1  0.97700000  0.36040000  0.41950000  1.0 -0.0396795245
C  C52  1  0.56370000  0.31560000  0.94390000  1.0 -0.0299114754
C  C53  1  0.50030000  0.24680000  0.91410000  1.0 0.0198113711
C  C54  1  0.48220000  0.10570000  0.62720000  1.0 -0.0703174484
C  C55  1  0.43273000  0.16083000  0.64803000  1.0 -0.0903340577
C  C56  1  0.83083000  0.02803000  0.29393000  1.0 -0.0090590685
C  C57  1  0.99360000  0.35670000  0.37750000  1.0 0.0720822676
C  C58  1  0.52200000  0.28670000  0.94850000  1.0 -0.0028928773
C  C59  1  0.44091000  0.12301000  0.61701000  1.0 0.0720822676
C  C60  1  0.80720000  0.98630000  0.25990000  1.0 0.3796370708
C  C61  1  0.02610000  0.40480000  0.37100000  1.0 0.4727048807
C  C62  1  0.50890000  0.31360000  0.99020000  1.0 0.4210222694
C  C63  1  0.40884000  0.10516000  0.57000000  1.0 0.4487285845
C  C64  1  0.14300000  0.45900000  0.34510000  1.0 0.5488244874
C  C65  1  0.18500000  0.43550000  0.34310000  1.0 -0.0090590685
C  C66  1  0.19470000  0.41930000  0.29890000  1.0 -0.0396795245
C  C67  1  0.21250000  0.42800000  0.38370000  1.0 0.0021504198
C  C68  1  0.23180000  0.39560000  0.29540000  1.0 0.0282003388
C  C69  1  0.24960000  0.40430000  0.38020000  1.0 0.0198113711
C  C70  1  0.25930000  0.38810000  0.33600000  1.0 -0.0396795245
C  C71  1  0.29380000  0.35710000  0.32950000  1.0 0.1090474991
C  C72  1  0.29690000  0.32160000  0.35980000  1.0 -0.1790141838
C  C73  1  0.52120000  0.15760000  0.65600000  1.0 0.0282003388
C  C74  1  0.49650000  0.13910000  0.61010000  1.0 -0.0500333179
C  C75  1  0.44870000  0.13870000  0.60970000  1.0 0.0901494537
C  C76  1  0.82110000  0.03070000  0.30030000  1.0 0.0282003388
C  C77  1  0.96755000  0.27490000  0.40945000  1.0 0.0720822676
C  C78  1  0.98986000  0.31420000  0.44414000  1.0 -0.0090590685
C  C79  1  0.01281000  0.35451000  0.43161000  1.0 -0.0299114754
C  C80  1  0.01338000  0.35534000  0.38440000  1.0 0.0901494537
C  C81  1  0.98373000  0.27470000  0.36737000  1.0 0.0021504198
C  C82  1  0.50430000  0.29730000  0.90280000  1.0 -0.0219902078
C  C83  1  0.55110000  0.25410000  0.95110000  1.0 -0.0299114754
C  C84  1  0.56550000  0.23300000  0.90710000  1.0 -0.0569615638
C  C85  1  0.51940000  0.27480000  0.86700000  1.0 0.0198113711
C  C86  1  0.25610000  0.38430000  0.33580000  1.0 -0.0500333179
C  C87  1  0.20400000  0.41300000  0.37780000  1.0 -0.0396795245
C  C88  1  0.67820000  0.90580000  0.19720000  1.0 0.511126144
C  C89  1  0.82160000  0.92110000  0.13210000  1.0 0.533832901
C  C90  1  0.77040000  0.81820000  0.19770000  1.0 0.5488244874
C  C91  1  0.62590000  0.90670000  0.19490000  1.0 0.0088654359
C  C92  1  0.84832000  0.92827000  0.09701000  1.0 -0.0500333179
C  C93  1  0.77210000  0.76750000  0.19660000  1.0 -0.0028928773
C  C94  1  0.59740000  0.91190000  0.15400000  1.0 -0.0784752316
C  C95  1  0.60720000  0.90300000  0.23380000  1.0 -0.0784752316
C  C96  1  0.89541000  0.92410000  0.10452000  1.0 -0.0569615638
C  C97  1  0.82760000  0.93931000  0.05497000  1.0 -0.0569615638
C  C98  1  0.74960000  0.73110000  0.16250000  1.0 -0.0784752316
C  C99  1  0.80120000  0.75450000  0.23390000  1.0 -0.0903340577
C  C100  1  0.55010000  0.91550000  0.15420000  1.0 -0.1392930492
C  C101  1  0.56130000  0.90250000  0.23340000  1.0 -0.1392930492
C  C102  1  0.92194000  0.93100000  0.07007000  1.0 -0.1685854785
C  C103  1  0.85410000  0.94621000  0.02052000  1.0 -0.1617627592
C  C104  1  0.75040000  0.68530000  0.16430000  1.0 -0.1530942264
C  C105  1  0.80370000  0.71200000  0.23610000  1.0 -0.1168268787
C  C106  1  0.53130000  0.91050000  0.19390000  1.0 0.1004250921
C  C107  1  0.90127000  0.94207000  0.02807000  1.0 0.0800666026
C  C108  1  0.77975000  0.67475000  0.20265000  1.0 0.0720822676
C  C109  1  0.48100000  0.91330000  0.19190000  1.0 0.0901494537
C  C110  1  0.92980000  0.94890000  0.99010000  1.0 0.0901494537
C  C111  1  0.78180000  0.62580000  0.20530000  1.0 0.1004250921
C  C112  1  0.44790000  0.89530000  0.15270000  1.0 -0.1790141838
C  C113  1  0.46530000  0.93750000  0.23140000  1.0 -0.2296074
C  C114  1  0.92160000  0.98260000  0.96340000  1.0 -0.1897245961
C  C115  1  0.82250000  0.61030000  0.22300000  1.0 -0.1897245961
C  C116  1  0.74080000  0.58940000  0.18760000  1.0 -0.1790141838
C  C117  1  0.39957000  0.89567000  0.15197000  1.0 0.1004250921
C  C118  1  0.42090000  0.94050000  0.23230000  1.0 0.1004250921
C  C119  1  0.82240000  0.56530000  0.22520000  1.0 0.1090474991
C  C120  1  0.74030000  0.54440000  0.18930000  1.0 0.1090474991
C  C121  1  0.38700000  0.91870000  0.19110000  1.0 -0.2296074
C  C122  1  0.36270000  0.87153000  0.10849000  1.0 0.1090474991
C  C123  1  0.40010000  0.95140000  0.27460000  1.0 0.0502343949
C  C124  1  0.86810000  0.54950000  0.24750000  1.0 -0.0219902078
C  C125  1  0.78270000  0.53040000  0.20680000  1.0 -0.2123875089
C  C126  1  0.69931000  0.50701000  0.16421000  1.0 0.0414256539
C  C127  1  0.37309000  0.87258000  0.06396000  1.0 -0.1617627592
C  C128  1  0.31795000  0.85013000  0.11278000  1.0 -0.1685854785
C  C129  1  0.36217000  0.96805000  0.27581000  1.0 -0.0703174484
C  C130  1  0.42730000  0.95230000  0.31850000  1.0 -0.0703174484
C  C131  1  0.89410000  0.57390000  0.29040000  1.0 0.0021504198
C  C132  1  0.88290000  0.51520000  0.22680000  1.0 -0.0569615638
C  C133  1  0.66840000  0.51520000  0.12630000  1.0 -0.0299114754
C  C134  1  0.68913000  0.46583000  0.18143000  1.0 -0.2296074
C  C135  1  0.33875000  0.85218000  0.02372000  1.0 0.0198113711
C  C136  1  0.28357000  0.82977000  0.07257000  1.0 0.0414256539
C  C137  1  0.34966000  0.99102000  0.31599000  1.0 -0.1008539403
C  C138  1  0.41950000  0.97700000  0.36040000  1.0 -0.0396795245
C  C139  1  0.94390000  0.56370000  0.31560000  1.0 -0.0299114754
C  C140  1  0.91410000  0.50030000  0.24680000  1.0 0.0198113711
C  C141  1  0.62720000  0.48220000  0.10570000  1.0 -0.0703174484
C  C142  1  0.64803000  0.43273000  0.16083000  1.0 -0.0903340577
C  C143  1  0.29393000  0.83083000  0.02803000  1.0 -0.0090590685
C  C144  1  0.37750000  0.99360000  0.35670000  1.0 0.0720822676
C  C145  1  0.94850000  0.52200000  0.28670000  1.0 -0.0028928773
C  C146  1  0.61701000  0.44091000  0.12301000  1.0 0.0800666026
C  C147  1  0.25990000  0.80720000  0.98630000  1.0 0.3796370708
C  C148  1  0.37100000  0.02610000  0.40480000  1.0 0.4727048807
C  C149  1  0.99020000  0.50890000  0.31360000  1.0 0.4210222694
C  C150  1  0.57000000  0.40884000  0.10516000  1.0 0.4487285845
C  C151  1  0.34510000  0.14300000  0.45900000  1.0 0.5488244874
C  C152  1  0.34310000  0.18500000  0.43550000  1.0 -0.0028928773
C  C153  1  0.29890000  0.19470000  0.41930000  1.0 -0.0396795245
C  C154  1  0.38370000  0.21250000  0.42800000  1.0 0.0021504198
C  C155  1  0.29540000  0.23180000  0.39560000  1.0 0.0282003388
C  C156  1  0.38020000  0.24960000  0.40430000  1.0 0.0282003388
C  C157  1  0.33600000  0.25930000  0.38810000  1.0 -0.0396795245
C  C158  1  0.32950000  0.29380000  0.35710000  1.0 0.1090474991
C  C159  1  0.35980000  0.29690000  0.32160000  1.0 -0.1685854785
C  C160  1  0.65600000  0.52120000  0.15760000  1.0 0.0282003388
C  C161  1  0.61010000  0.49650000  0.13910000  1.0 -0.0500333179
C  C162  1  0.60970000  0.44870000  0.13870000  1.0 0.0901494537
C  C163  1  0.30030000  0.82110000  0.03070000  1.0 0.0198113711
C  C164  1  0.40945000  0.96755000  0.27490000  1.0 0.0720822676
C  C165  1  0.44414000  0.98986000  0.31420000  1.0 -0.0090590685
C  C166  1  0.43161000  0.01281000  0.35451000  1.0 -0.0299114754
C  C167  1  0.38440000  0.01338000  0.35534000  1.0 0.0901494537
C  C168  1  0.36737000  0.98373000  0.27470000  1.0 0.0021504198
C  C169  1  0.90280000  0.50430000  0.29730000  1.0 -0.0299114754
C  C170  1  0.95110000  0.55110000  0.25410000  1.0 -0.0299114754
C  C171  1  0.90710000  0.56550000  0.23300000  1.0 -0.0569615638
C  C172  1  0.86700000  0.51940000  0.27480000  1.0 0.0198113711
C  C173  1  0.33580000  0.25610000  0.38430000  1.0 -0.0500333179
C  C174  1  0.37780000  0.20400000  0.41300000  1.0 -0.0500333179
C  C175  1  0.19720000  0.67820000  0.90580000  1.0 0.511126144
C  C176  1  0.13210000  0.82160000  0.92110000  1.0 0.533832901
C  C177  1  0.19770000  0.77040000  0.81820000  1.0 0.5488244874
C  C178  1  0.19490000  0.62590000  0.90670000  1.0 0.0088654359
C  C179  1  0.09701000  0.84832000  0.92827000  1.0 -0.0500333179
C  C180  1  0.19660000  0.77210000  0.76750000  1.0 -0.0028928773
C  C181  1  0.15400000  0.59740000  0.91190000  1.0 -0.0784752316
C  C182  1  0.23380000  0.60720000  0.90300000  1.0 -0.0784752316
C  C183  1  0.10452000  0.89541000  0.92410000  1.0 -0.0569615638
C  C184  1  0.05497000  0.82760000  0.93931000  1.0 -0.0569615638
C  C185  1  0.16250000  0.74960000  0.73110000  1.0 -0.0784752316
C  C186  1  0.23390000  0.80120000  0.75450000  1.0 -0.0903340577
C  C187  1  0.15420000  0.55010000  0.91550000  1.0 -0.1392930492
C  C188  1  0.23340000  0.56130000  0.90250000  1.0 -0.1392930492
C  C189  1  0.07007000  0.92194000  0.93100000  1.0 -0.1685854785
C  C190  1  0.02052000  0.85410000  0.94621000  1.0 -0.1617627592
C  C191  1  0.16430000  0.75040000  0.68530000  1.0 -0.1530942264
C  C192  1  0.23610000  0.80370000  0.71200000  1.0 -0.1168268787
C  C193  1  0.19390000  0.53130000  0.91050000  1.0 0.1004250921
C  C194  1  0.02807000  0.90127000  0.94207000  1.0 0.0800666026
C  C195  1  0.20265000  0.77975000  0.67475000  1.0 0.0720822676
C  C196  1  0.19190000  0.48100000  0.91330000  1.0 0.0901494537
C  C197  1  0.99010000  0.92980000  0.94890000  1.0 0.0901494537
C  C198  1  0.20530000  0.78180000  0.62580000  1.0 0.1004250921
C  C199  1  0.15270000  0.44790000  0.89530000  1.0 -0.1790141838
C  C200  1  0.23140000  0.46530000  0.93750000  1.0 -0.2296074
C  C201  1  0.96340000  0.92160000  0.98260000  1.0 -0.1897245961
C  C202  1  0.22300000  0.82250000  0.61030000  1.0 -0.1897245961
C  C203  1  0.18760000  0.74080000  0.58940000  1.0 -0.1790141838
C  C204  1  0.15197000  0.39957000  0.89567000  1.0 0.1004250921
C  C205  1  0.23230000  0.42090000  0.94050000  1.0 0.1004250921
C  C206  1  0.22520000  0.82240000  0.56530000  1.0 0.1004250921
C  C207  1  0.18930000  0.74030000  0.54440000  1.0 0.1090474991
C  C208  1  0.19110000  0.38700000  0.91870000  1.0 -0.2296074
C  C209  1  0.10849000  0.36270000  0.87153000  1.0 0.1090474991
C  C210  1  0.27460000  0.40010000  0.95140000  1.0 0.0502343949
C  C211  1  0.24750000  0.86810000  0.54950000  1.0 -0.0219902078
C  C212  1  0.20680000  0.78270000  0.53040000  1.0 -0.2123875089
C  C213  1  0.16421000  0.69931000  0.50701000  1.0 0.0414256539
C  C214  1  0.06396000  0.37309000  0.87258000  1.0 -0.1685854785
C  C215  1  0.11278000  0.31795000  0.85013000  1.0 -0.1685854785
C  C216  1  0.27581000  0.36217000  0.96805000  1.0 -0.0703174484
C  C217  1  0.31850000  0.42730000  0.95230000  1.0 -0.0703174484
C  C218  1  0.29040000  0.89410000  0.57390000  1.0 0.0021504198
C  C219  1  0.22680000  0.88290000  0.51520000  1.0 -0.0569615638
C  C220  1  0.12630000  0.66840000  0.51520000  1.0 -0.0299114754
C  C221  1  0.18143000  0.68913000  0.46583000  1.0 -0.2296074
C  C222  1  0.02372000  0.33875000  0.85218000  1.0 0.0198113711
C  C223  1  0.07257000  0.28357000  0.82977000  1.0 0.0414256539
C  C224  1  0.31599000  0.34966000  0.99102000  1.0 -0.1008539403
C  C225  1  0.36040000  0.41950000  0.97700000  1.0 -0.0299114754
C  C226  1  0.31560000  0.94390000  0.56370000  1.0 -0.0299114754
C  C227  1  0.24680000  0.91410000  0.50030000  1.0 0.0198113711
C  C228  1  0.10570000  0.62720000  0.48220000  1.0 -0.0703174484
C  C229  1  0.16083000  0.64803000  0.43273000  1.0 -0.0903340577
C  C230  1  0.02803000  0.29393000  0.83083000  1.0 -0.0090590685
C  C231  1  0.35670000  0.37750000  0.99360000  1.0 0.0720822676
C  C232  1  0.28670000  0.94850000  0.52200000  1.0 -0.0028928773
C  C233  1  0.12301000  0.61701000  0.44091000  1.0 0.0800666026
C  C234  1  0.98630000  0.25990000  0.80720000  1.0 0.3796370708
C  C235  1  0.40480000  0.37100000  0.02610000  1.0 0.4727048807
C  C236  1  0.31360000  0.99020000  0.50890000  1.0 0.4210222694
C  C237  1  0.10516000  0.57000000  0.40884000  1.0 0.4487285845
C  C238  1  0.45900000  0.34510000  0.14300000  1.0 0.5488244874
C  C239  1  0.43550000  0.34310000  0.18500000  1.0 -0.0028928773
C  C240  1  0.41930000  0.29890000  0.19470000  1.0 -0.0396795245
C  C241  1  0.42800000  0.38370000  0.21250000  1.0 0.0021504198
C  C242  1  0.39560000  0.29540000  0.23180000  1.0 0.0282003388
C  C243  1  0.40430000  0.38020000  0.24960000  1.0 0.0282003388
C  C244  1  0.38810000  0.33600000  0.25930000  1.0 -0.0396795245
C  C245  1  0.35710000  0.32950000  0.29380000  1.0 0.1090474991
C  C246  1  0.32160000  0.35980000  0.29690000  1.0 -0.1790141838
C  C247  1  0.15760000  0.65600000  0.52120000  1.0 0.0282003388
C  C248  1  0.13910000  0.61010000  0.49650000  1.0 -0.0500333179
C  C249  1  0.13870000  0.60970000  0.44870000  1.0 0.0901494537
C  C250  1  0.03070000  0.30030000  0.82110000  1.0 0.0198113711
C  C251  1  0.27490000  0.40945000  0.96755000  1.0 0.0720822676
C  C252  1  0.31420000  0.44414000  0.98986000  1.0 -0.0090590685
C  C253  1  0.35451000  0.43161000  0.01281000  1.0 -0.0299114754
C  C254  1  0.35534000  0.38440000  0.01338000  1.0 0.0901494537
C  C255  1  0.27470000  0.36737000  0.98373000  1.0 0.0021504198
C  C256  1  0.29730000  0.90280000  0.50430000  1.0 -0.0299114754
C  C257  1  0.25410000  0.95110000  0.55110000  1.0 -0.0299114754
C  C258  1  0.23300000  0.90710000  0.56550000  1.0 -0.0569615638
C  C259  1  0.27480000  0.86700000  0.51940000  1.0 0.0198113711
C  C260  1  0.38430000  0.33580000  0.25610000  1.0 -0.0500333179
C  C261  1  0.41300000  0.37780000  0.20400000  1.0 -0.0500333179
C  C262  1  0.09420000  0.80280000  0.32180000  1.0 0.511126144
C  C263  1  0.07890000  0.86790000  0.17840000  1.0 0.533832901
C  C264  1  0.18180000  0.80230000  0.22960000  1.0 0.5488244874
C  C265  1  0.09330000  0.80510000  0.37410000  1.0 0.0088654359
C  C266  1  0.07173000  0.90299000  0.15168000  1.0 -0.0500333179
C  C267  1  0.23250000  0.80340000  0.22790000  1.0 -0.0028928773
C  C268  1  0.08810000  0.84600000  0.40260000  1.0 -0.0784752316
C  C269  1  0.09700000  0.76620000  0.39280000  1.0 -0.0784752316
C  C270  1  0.07590000  0.89548000  0.10459000  1.0 -0.0569615638
C  C271  1  0.06069000  0.94503000  0.17240000  1.0 -0.0569615638
C  C272  1  0.26890000  0.83750000  0.25040000  1.0 -0.0784752316
C  C273  1  0.24550000  0.76610000  0.19880000  1.0 -0.0903340577
C  C274  1  0.08450000  0.84580000  0.44990000  1.0 -0.1392930492
C  C275  1  0.09750000  0.76660000  0.43870000  1.0 -0.1392930492
C  C276  1  0.06900000  0.92993000  0.07806000  1.0 -0.1685854785
C  C277  1  0.05379000  0.97948000  0.14590000  1.0 -0.1617627592
C  C278  1  0.31470000  0.83570000  0.24960000  1.0 -0.1530942264
C  C279  1  0.28800000  0.76390000  0.19630000  1.0 -0.1168268787
C  C280  1  0.08950000  0.80610000  0.46870000  1.0 0.1004250921
C  C281  1  0.05793000  0.97193000  0.09873000  1.0 0.0800666026
C  C282  1  0.32525000  0.79735000  0.22025000  1.0 0.0720822676
C  C283  1  0.08670000  0.80810000  0.51900000  1.0 0.0901494537
C  C284  1  0.05110000  0.00990000  0.07020000  1.0 0.0901494537
C  C285  1  0.37420000  0.79470000  0.21820000  1.0 0.1004250921
C  C286  1  0.10470000  0.84730000  0.55210000  1.0 -0.1790141838
C  C287  1  0.06250000  0.76860000  0.53470000  1.0 -0.2296074
C  C288  1  0.01740000  0.03660000  0.07840000  1.0 -0.1897245961
C  C289  1  0.38970000  0.77700000  0.17750000  1.0 -0.1897245961
C  C290  1  0.41060000  0.81240000  0.25920000  1.0 -0.1790141838
C  C291  1  0.10433000  0.84803000  0.60043000  1.0 0.1004250921
C  C292  1  0.05950000  0.76770000  0.57910000  1.0 0.1004250921
C  C293  1  0.43470000  0.77480000  0.17760000  1.0 0.1090474991
C  C294  1  0.45560000  0.81070000  0.25970000  1.0 0.1090474991
C  C295  1  0.08130000  0.80890000  0.61300000  1.0 -0.2296074
C  C296  1  0.12847000  0.89151000  0.63730000  1.0 0.1090474991
C  C297  1  0.04860000  0.72540000  0.59990000  1.0 0.0502343949
C  C298  1  0.45050000  0.75250000  0.13190000  1.0 -0.0219902078
C  C299  1  0.46960000  0.79320000  0.21730000  1.0 -0.2123875089
C  C300  1  0.49299000  0.83579000  0.30069000  1.0 0.0414256539
C  C301  1  0.12742000  0.93604000  0.62691000  1.0 -0.1685854785
C  C302  1  0.14987000  0.88722000  0.68205000  1.0 -0.1685854785
C  C303  1  0.03195000  0.72419000  0.63783000  1.0 -0.0703174484
C  C304  1  0.04770000  0.68150000  0.57270000  1.0 -0.0703174484
C  C305  1  0.42610000  0.70960000  0.10590000  1.0 -0.0028928773
C  C306  1  0.48480000  0.77320000  0.11710000  1.0 -0.0569615638
C  C307  1  0.48480000  0.87370000  0.33160000  1.0 -0.0396795245
C  C308  1  0.53417000  0.81857000  0.31087000  1.0 -0.2296074
C  C309  1  0.14782000  0.97628000  0.66125000  1.0 0.0198113711
C  C310  1  0.17023000  0.92743000  0.71643000  1.0 0.0414256539
C  C311  1  0.00898000  0.68401000  0.65034000  1.0 -0.1008539403
C  C312  1  0.02300000  0.63960000  0.58050000  1.0 -0.0396795245
C  C313  1  0.43630000  0.68440000  0.05610000  1.0 -0.0299114754
C  C314  1  0.49970000  0.75320000  0.08590000  1.0 0.0198113711
C  C315  1  0.51780000  0.89430000  0.37280000  1.0 -0.0703174484
C  C316  1  0.56727000  0.83917000  0.35197000  1.0 -0.0903340577
C  C317  1  0.16917000  0.97197000  0.70607000  1.0 -0.0090590685
C  C318  1  0.00640000  0.64330000  0.62250000  1.0 0.0720822676
C  C319  1  0.47800000  0.71330000  0.05150000  1.0 -0.0028928773
C  C320  1  0.55909000  0.87699000  0.38299000  1.0 0.0800666026
C  C321  1  0.19280000  0.01370000  0.74010000  1.0 0.3796370708
C  C322  1  0.97390000  0.59520000  0.62900000  1.0 0.4727048807
C  C323  1  0.49110000  0.68640000  0.00980000  1.0 0.4210222694
C  C324  1  0.59116000  0.89484000  0.43000000  1.0 0.4487285845
C  C325  1  0.85700000  0.54100000  0.65490000  1.0 0.5488244874
C  C326  1  0.81500000  0.56450000  0.65690000  1.0 -0.0090590685
C  C327  1  0.80530000  0.58070000  0.70110000  1.0 -0.0396795245
C  C328  1  0.78750000  0.57200000  0.61630000  1.0 0.0021504198
C  C329  1  0.76820000  0.60440000  0.70460000  1.0 0.0282003388
C  C330  1  0.75040000  0.59570000  0.61980000  1.0 0.0198113711
C  C331  1  0.74070000  0.61190000  0.66400000  1.0 -0.0299114754
C  C332  1  0.70620000  0.64290000  0.67050000  1.0 0.1090474991
C  C333  1  0.70310000  0.67840000  0.64020000  1.0 -0.1685854785
C  C334  1  0.47880000  0.84240000  0.34400000  1.0 0.0282003388
C  C335  1  0.50350000  0.86090000  0.38990000  1.0 -0.0500333179
C  C336  1  0.55130000  0.86130000  0.39030000  1.0 0.0901494537
C  C337  1  0.17890000  0.96930000  0.69970000  1.0 0.0198113711
C  C338  1  0.03245000  0.72510000  0.59055000  1.0 0.0720822676
C  C339  1  0.01014000  0.68580000  0.55586000  1.0 -0.0090590685
C  C340  1  0.98719000  0.64549000  0.56839000  1.0 -0.0299114754
C  C341  1  0.98662000  0.64466000  0.61560000  1.0 0.0901494537
C  C342  1  0.01627000  0.72530000  0.63263000  1.0 0.0021504198
C  C343  1  0.49570000  0.70270000  0.09720000  1.0 -0.0219902078
C  C344  1  0.44890000  0.74590000  0.04890000  1.0 -0.0299114754
C  C345  1  0.43450000  0.76700000  0.09290000  1.0 -0.0569615638
C  C346  1  0.48060000  0.72520000  0.13300000  1.0 0.0198113711
C  C347  1  0.74390000  0.61570000  0.66420000  1.0 -0.0500333179
C  C348  1  0.79600000  0.58700000  0.62220000  1.0 -0.0396795245
C  C349  1  0.32180000  0.09420000  0.80280000  1.0 0.511126144
C  C350  1  0.17840000  0.07890000  0.86790000  1.0 0.533832901
C  C351  1  0.22960000  0.18180000  0.80230000  1.0 0.5488244874
C  C352  1  0.37410000  0.09330000  0.80510000  1.0 0.0088654359
C  C353  1  0.15168000  0.07173000  0.90299000  1.0 -0.0500333179
C  C354  1  0.22790000  0.23250000  0.80340000  1.0 -0.0028928773
C  C355  1  0.40260000  0.08810000  0.84600000  1.0 -0.0784752316
C  C356  1  0.39280000  0.09700000  0.76620000  1.0 -0.0784752316
C  C357  1  0.10459000  0.07590000  0.89548000  1.0 -0.0569615638
C  C358  1  0.17240000  0.06069000  0.94503000  1.0 -0.0569615638
C  C359  1  0.25040000  0.26890000  0.83750000  1.0 -0.0784752316
C  C360  1  0.19880000  0.24550000  0.76610000  1.0 -0.0903340577
C  C361  1  0.44990000  0.08450000  0.84580000  1.0 -0.1392930492
C  C362  1  0.43870000  0.09750000  0.76660000  1.0 -0.1392930492
C  C363  1  0.07806000  0.06900000  0.92993000  1.0 -0.1685854785
C  C364  1  0.14590000  0.05379000  0.97948000  1.0 -0.1617627592
C  C365  1  0.24960000  0.31470000  0.83570000  1.0 -0.1530942264
C  C366  1  0.19630000  0.28800000  0.76390000  1.0 -0.1168268787
C  C367  1  0.46870000  0.08950000  0.80610000  1.0 0.1004250921
C  C368  1  0.09873000  0.05793000  0.97193000  1.0 0.0800666026
C  C369  1  0.22025000  0.32525000  0.79735000  1.0 0.0720822676
C  C370  1  0.51900000  0.08670000  0.80810000  1.0 0.0901494537
C  C371  1  0.07020000  0.05110000  0.00990000  1.0 0.0901494537
C  C372  1  0.21820000  0.37420000  0.79470000  1.0 0.1004250921
C  C373  1  0.55210000  0.10470000  0.84730000  1.0 -0.1790141838
C  C374  1  0.53470000  0.06250000  0.76860000  1.0 -0.2296074
C  C375  1  0.07840000  0.01740000  0.03660000  1.0 -0.1897245961
C  C376  1  0.17750000  0.38970000  0.77700000  1.0 -0.1897245961
C  C377  1  0.25920000  0.41060000  0.81240000  1.0 -0.1790141838
C  C378  1  0.60043000  0.10433000  0.84803000  1.0 0.1004250921
C  C379  1  0.57910000  0.05950000  0.76770000  1.0 0.1004250921
C  C380  1  0.17760000  0.43470000  0.77480000  1.0 0.1090474991
C  C381  1  0.25970000  0.45560000  0.81070000  1.0 0.1090474991
C  C382  1  0.61300000  0.08130000  0.80890000  1.0 -0.2296074
C  C383  1  0.63730000  0.12847000  0.89151000  1.0 0.1090474991
C  C384  1  0.59990000  0.04860000  0.72540000  1.0 0.0502343949
C  C385  1  0.13190000  0.45050000  0.75250000  1.0 -0.0219902078
C  C386  1  0.21730000  0.46960000  0.79320000  1.0 -0.2123875089
C  C387  1  0.30069000  0.49299000  0.83579000  1.0 0.0414256539
C  C388  1  0.62691000  0.12742000  0.93604000  1.0 -0.1685854785
C  C389  1  0.68205000  0.14987000  0.88722000  1.0 -0.1685854785
C  C390  1  0.63783000  0.03195000  0.72419000  1.0 -0.0703174484
C  C391  1  0.57270000  0.04770000  0.68150000  1.0 -0.0703174484
C  C392  1  0.10590000  0.42610000  0.70960000  1.0 0.0021504198
C  C393  1  0.11710000  0.48480000  0.77320000  1.0 -0.0569615638
C  C394  1  0.33160000  0.48480000  0.87370000  1.0 -0.0299114754
C  C395  1  0.31087000  0.53417000  0.81857000  1.0 -0.2296074
C  C396  1  0.66125000  0.14782000  0.97628000  1.0 0.0198113711
C  C397  1  0.71643000  0.17023000  0.92743000  1.0 0.0414256539
C  C398  1  0.65034000  0.00898000  0.68401000  1.0 -0.1008539403
C  C399  1  0.58050000  0.02300000  0.63960000  1.0 -0.0396795245
C  C400  1  0.05610000  0.43630000  0.68440000  1.0 -0.0299114754
C  C401  1  0.08590000  0.49970000  0.75320000  1.0 0.0198113711
C  C402  1  0.37280000  0.51780000  0.89430000  1.0 -0.0703174484
C  C403  1  0.35197000  0.56727000  0.83917000  1.0 -0.0903340577
C  C404  1  0.70607000  0.16917000  0.97197000  1.0 -0.0090590685
C  C405  1  0.62250000  0.00640000  0.64330000  1.0 0.0720822676
C  C406  1  0.05150000  0.47800000  0.71330000  1.0 -0.0028928773
C  C407  1  0.38299000  0.55909000  0.87699000  1.0 0.0800666026
C  C408  1  0.74010000  0.19280000  0.01370000  1.0 0.3796370708
C  C409  1  0.62900000  0.97390000  0.59520000  1.0 0.4727048807
C  C410  1  0.00980000  0.49110000  0.68640000  1.0 0.4210222694
C  C411  1  0.43000000  0.59116000  0.89484000  1.0 0.4487285845
C  C412  1  0.65490000  0.85700000  0.54100000  1.0 0.5488244874
C  C413  1  0.65690000  0.81500000  0.56450000  1.0 -0.0028928773
C  C414  1  0.70110000  0.80530000  0.58070000  1.0 -0.0396795245
C  C415  1  0.61630000  0.78750000  0.57200000  1.0 -0.0028928773
C  C416  1  0.70460000  0.76820000  0.60440000  1.0 0.0282003388
C  C417  1  0.61980000  0.75040000  0.59570000  1.0 0.0282003388
C  C418  1  0.66400000  0.74070000  0.61190000  1.0 -0.0396795245
C  C419  1  0.67050000  0.70620000  0.64290000  1.0 0.1004250921
C  C420  1  0.64020000  0.70310000  0.67840000  1.0 -0.1790141838
C  C421  1  0.34400000  0.47880000  0.84240000  1.0 0.0282003388
C  C422  1  0.38990000  0.50350000  0.86090000  1.0 -0.0500333179
C  C423  1  0.39030000  0.55130000  0.86130000  1.0 0.0901494537
C  C424  1  0.69970000  0.17890000  0.96930000  1.0 0.0198113711
C  C425  1  0.59055000  0.03245000  0.72510000  1.0 0.0720822676
C  C426  1  0.55586000  0.01014000  0.68580000  1.0 -0.0090590685
C  C427  1  0.56839000  0.98719000  0.64549000  1.0 -0.0299114754
C  C428  1  0.61560000  0.98662000  0.64466000  1.0 0.0901494537
C  C429  1  0.63263000  0.01627000  0.72530000  1.0 0.0021504198
C  C430  1  0.09720000  0.49570000  0.70270000  1.0 -0.0219902078
C  C431  1  0.04890000  0.44890000  0.74590000  1.0 -0.0299114754
C  C432  1  0.09290000  0.43450000  0.76700000  1.0 -0.0569615638
C  C433  1  0.13300000  0.48060000  0.72520000  1.0 0.0198113711
C  C434  1  0.66420000  0.74390000  0.61570000  1.0 -0.0396795245
C  C435  1  0.62220000  0.79600000  0.58700000  1.0 -0.0396795245
C  C436  1  0.80280000  0.32180000  0.09420000  1.0 0.511126144
C  C437  1  0.86790000  0.17840000  0.07890000  1.0 0.533832901
C  C438  1  0.80230000  0.22960000  0.18180000  1.0 0.5488244874
C  C439  1  0.80510000  0.37410000  0.09330000  1.0 0.0088654359
C  C440  1  0.90299000  0.15168000  0.07173000  1.0 -0.0500333179
C  C441  1  0.80340000  0.22790000  0.23250000  1.0 -0.0028928773
C  C442  1  0.84600000  0.40260000  0.08810000  1.0 -0.0784752316
C  C443  1  0.76620000  0.39280000  0.09700000  1.0 -0.0784752316
C  C444  1  0.89548000  0.10459000  0.07590000  1.0 -0.0569615638
C  C445  1  0.94503000  0.17240000  0.06069000  1.0 -0.0569615638
C  C446  1  0.83750000  0.25040000  0.26890000  1.0 -0.0784752316
C  C447  1  0.76610000  0.19880000  0.24550000  1.0 -0.0903340577
C  C448  1  0.84580000  0.44990000  0.08450000  1.0 -0.1392930492
C  C449  1  0.76660000  0.43870000  0.09750000  1.0 -0.1347240823
C  C450  1  0.92993000  0.07806000  0.06900000  1.0 -0.1685854785
C  C451  1  0.97948000  0.14590000  0.05379000  1.0 -0.1617627592
C  C452  1  0.83570000  0.24960000  0.31470000  1.0 -0.1530942264
C  C453  1  0.76390000  0.19630000  0.28800000  1.0 -0.1168268787
C  C454  1  0.80610000  0.46870000  0.08950000  1.0 0.1004250921
C  C455  1  0.97193000  0.09873000  0.05793000  1.0 0.0800666026
C  C456  1  0.79735000  0.22025000  0.32525000  1.0 0.0720822676
C  C457  1  0.80810000  0.51900000  0.08670000  1.0 0.0901494537
C  C458  1  0.00990000  0.07020000  0.05110000  1.0 0.0901494537
C  C459  1  0.79470000  0.21820000  0.37420000  1.0 0.1004250921
C  C460  1  0.84730000  0.55210000  0.10470000  1.0 -0.1790141838
C  C461  1  0.76860000  0.53470000  0.06250000  1.0 -0.2296074
C  C462  1  0.03660000  0.07840000  0.01740000  1.0 -0.1897245961
C  C463  1  0.77700000  0.17750000  0.38970000  1.0 -0.1897245961
C  C464  1  0.81240000  0.25920000  0.41060000  1.0 -0.1790141838
C  C465  1  0.84803000  0.60043000  0.10433000  1.0 0.1004250921
C  C466  1  0.76770000  0.57910000  0.05950000  1.0 0.1004250921
C  C467  1  0.77480000  0.17760000  0.43470000  1.0 0.1090474991
C  C468  1  0.81070000  0.25970000  0.45560000  1.0 0.1090474991
C  C469  1  0.80890000  0.61300000  0.08130000  1.0 -0.2296074
C  C470  1  0.89151000  0.63730000  0.12847000  1.0 0.1090474991
C  C471  1  0.72540000  0.59990000  0.04860000  1.0 0.0502343949
C  C472  1  0.75250000  0.13190000  0.45050000  1.0 -0.0219902078
C  C473  1  0.79320000  0.21730000  0.46960000  1.0 -0.2123875089
C  C474  1  0.83579000  0.30069000  0.49299000  1.0 0.0414256539
C  C475  1  0.93604000  0.62691000  0.12742000  1.0 -0.1617627592
C  C476  1  0.88722000  0.68205000  0.14987000  1.0 -0.1685854785
C  C477  1  0.72419000  0.63783000  0.03195000  1.0 -0.0703174484
C  C478  1  0.68150000  0.57270000  0.04770000  1.0 -0.0703174484
C  C479  1  0.70960000  0.10590000  0.42610000  1.0 0.0021504198
C  C480  1  0.77320000  0.11710000  0.48480000  1.0 -0.0569615638
C  C481  1  0.87370000  0.33160000  0.48480000  1.0 -0.0299114754
C  C482  1  0.81857000  0.31087000  0.53417000  1.0 -0.2296074
C  C483  1  0.97628000  0.66125000  0.14782000  1.0 0.0198113711
C  C484  1  0.92743000  0.71643000  0.17023000  1.0 0.0414256539
C  C485  1  0.68401000  0.65034000  0.00898000  1.0 -0.1008539403
C  C486  1  0.63960000  0.58050000  0.02300000  1.0 -0.0396795245
C  C487  1  0.68440000  0.05610000  0.43630000  1.0 -0.0299114754
C  C488  1  0.75320000  0.08590000  0.49970000  1.0 0.0198113711
C  C489  1  0.89430000  0.37280000  0.51780000  1.0 -0.0703174484
C  C490  1  0.83917000  0.35197000  0.56727000  1.0 -0.0903340577
C  C491  1  0.97197000  0.70607000  0.16917000  1.0 -0.0090590685
C  C492  1  0.64330000  0.62250000  0.00640000  1.0 0.0720822676
C  C493  1  0.71330000  0.05150000  0.47800000  1.0 -0.0028928773
C  C494  1  0.87699000  0.38299000  0.55909000  1.0 0.0800666026
C  C495  1  0.01370000  0.74010000  0.19280000  1.0 0.3796370708
C  C496  1  0.59520000  0.62900000  0.97390000  1.0 0.4727048807
C  C497  1  0.68640000  0.00980000  0.49110000  1.0 0.4210222694
C  C498  1  0.89484000  0.43000000  0.59116000  1.0 0.4487285845
C  C499  1  0.54100000  0.65490000  0.85700000  1.0 0.5488244874
C  C500  1  0.56450000  0.65690000  0.81500000  1.0 -0.0028928773
C  C501  1  0.58070000  0.70110000  0.80530000  1.0 -0.0396795245
C  C502  1  0.57200000  0.61630000  0.78750000  1.0 -0.0028928773
C  C503  1  0.60440000  0.70460000  0.76820000  1.0 0.0282003388
C  C504  1  0.59570000  0.61980000  0.75040000  1.0 0.0282003388
C  C505  1  0.61190000  0.66400000  0.74070000  1.0 -0.0500333179
C  C506  1  0.64290000  0.67050000  0.70620000  1.0 0.1090474991
C  C507  1  0.67840000  0.64020000  0.70310000  1.0 -0.1685854785
C  C508  1  0.84240000  0.34400000  0.47880000  1.0 0.0282003388
C  C509  1  0.86090000  0.38990000  0.50350000  1.0 -0.0500333179
C  C510  1  0.86130000  0.39030000  0.55130000  1.0 0.0901494537
C  C511  1  0.96930000  0.69970000  0.17890000  1.0 0.0282003388
C  C512  1  0.72510000  0.59055000  0.03245000  1.0 0.0720822676
C  C513  1  0.68580000  0.55586000  0.01014000  1.0 -0.0090590685
C  C514  1  0.64549000  0.56839000  0.98719000  1.0 -0.0299114754
C  C515  1  0.64466000  0.61560000  0.98662000  1.0 0.0901494537
C  C516  1  0.72530000  0.63263000  0.01627000  1.0 0.0088654359
C  C517  1  0.70270000  0.09720000  0.49570000  1.0 -0.0299114754
C  C518  1  0.74590000  0.04890000  0.44890000  1.0 -0.0299114754
C  C519  1  0.76700000  0.09290000  0.43450000  1.0 -0.0569615638
C  C520  1  0.72520000  0.13300000  0.48060000  1.0 0.0198113711
C  C521  1  0.61570000  0.66420000  0.74390000  1.0 -0.0500333179
C  C522  1  0.58700000  0.62220000  0.79600000  1.0 -0.0396795245
O  O1  1  0.90310000  0.23090000  0.70180000  1.0 -0.4539508315
O  O2  1  0.92119000  0.12451000  0.77510000  1.0 -0.5404435733
O  O3  1  0.85062000  0.23030000  0.78878000  1.0 -0.4805556503
O  O4  1  0.91199000  0.17082000  0.83699000  1.0 -0.4987667568
O  O5  1  0.91017000  0.16131000  0.69415000  1.0 -0.4582383985
O  O6  1  0.82817000  0.16057000  0.74617000  1.0 -0.5291990208
O  O7  1  0.98760000  0.21920000  0.78470000  1.0 -0.4297633934
O  O8  1  0.94680000  0.27080000  0.79730000  1.0 -0.0396795245
O  O9  1  0.03215000  0.40430000  0.32837000  1.0 -0.5291990208
O  O10  1  0.04040000  0.44140000  0.40230000  1.0 -0.4805556503
O  O11  1  0.50770000  0.29540000  0.02130000  1.0 -0.3215083795
O  O12  1  0.48500000  0.34520000  0.98940000  1.0 -0.0703174484
O  O13  1  0.36750000  0.11231000  0.56237000  1.0 -0.471425642
O  O14  1  0.41931000  0.08011000  0.53571000  1.0 -0.4434949425
O  O15  1  0.13410000  0.46710000  0.38580000  1.0 -0.4805556503
O  O16  1  0.11659000  0.46390000  0.30871000  1.0 -0.4854249524
O  O17  1  0.81970000  0.94850000  0.26570000  1.0 -0.0500333179
O  O18  1  0.51950000  0.35770000  0.00120000  1.0 -0.0703174484
O  O19  1  0.70180000  0.90310000  0.23090000  1.0 -0.4582383985
O  O20  1  0.77510000  0.92119000  0.12451000  1.0 -0.5404435733
O  O21  1  0.78878000  0.85062000  0.23030000  1.0 -0.4805556503
O  O22  1  0.83699000  0.91199000  0.17082000  1.0 -0.4987667568
O  O23  1  0.69415000  0.91017000  0.16131000  1.0 -0.4582383985
O  O24  1  0.74617000  0.82817000  0.16057000  1.0 -0.5291990208
O  O25  1  0.78470000  0.98760000  0.21920000  1.0 -0.4297633934
O  O26  1  0.79730000  0.94680000  0.27080000  1.0 -0.0396795245
O  O27  1  0.32837000  0.03215000  0.40430000  1.0 -0.5291990208
O  O28  1  0.40230000  0.04040000  0.44140000  1.0 -0.4805556503
O  O29  1  0.02130000  0.50770000  0.29540000  1.0 -0.3215083795
O  O30  1  0.98940000  0.48500000  0.34520000  1.0 -0.0703174484
O  O31  1  0.56237000  0.36750000  0.11231000  1.0 -0.471425642
O  O32  1  0.53571000  0.41931000  0.08011000  1.0 -0.4434949425
O  O33  1  0.38580000  0.13410000  0.46710000  1.0 -0.471425642
O  O34  1  0.30871000  0.11659000  0.46390000  1.0 -0.4805556503
O  O35  1  0.26570000  0.81970000  0.94850000  1.0 -0.0500333179
O  O36  1  0.00120000  0.51950000  0.35770000  1.0 -0.0703174484
O  O37  1  0.23090000  0.70180000  0.90310000  1.0 -0.4539508315
O  O38  1  0.12451000  0.77510000  0.92119000  1.0 -0.5404435733
O  O39  1  0.23030000  0.78878000  0.85062000  1.0 -0.4805556503
O  O40  1  0.17082000  0.83699000  0.91199000  1.0 -0.4987667568
O  O41  1  0.16131000  0.69415000  0.91017000  1.0 -0.4582383985
O  O42  1  0.16057000  0.74617000  0.82817000  1.0 -0.5291990208
O  O43  1  0.21920000  0.78470000  0.98760000  1.0 -0.4297633934
O  O44  1  0.27080000  0.79730000  0.94680000  1.0 -0.0396795245
O  O45  1  0.40430000  0.32837000  0.03215000  1.0 -0.5404435733
O  O46  1  0.44140000  0.40230000  0.04040000  1.0 -0.4805556503
O  O47  1  0.29540000  0.02130000  0.50770000  1.0 -0.3215083795
O  O48  1  0.34520000  0.98940000  0.48500000  1.0 -0.0703174484
O  O49  1  0.11231000  0.56237000  0.36750000  1.0 -0.471425642
O  O50  1  0.08011000  0.53571000  0.41931000  1.0 -0.4434949425
O  O51  1  0.46710000  0.38580000  0.13410000  1.0 -0.471425642
O  O52  1  0.46390000  0.30871000  0.11659000  1.0 -0.4805556503
O  O53  1  0.94850000  0.26570000  0.81970000  1.0 -0.0500333179
O  O54  1  0.35770000  0.00120000  0.51950000  1.0 -0.0703174484
O  O55  1  0.09690000  0.76910000  0.29820000  1.0 -0.4539508315
O  O56  1  0.07881000  0.87549000  0.22490000  1.0 -0.5404435733
O  O57  1  0.14938000  0.76970000  0.21122000  1.0 -0.4805556503
O  O58  1  0.08801000  0.82918000  0.16301000  1.0 -0.4987667568
O  O59  1  0.08983000  0.83869000  0.30585000  1.0 -0.4582383985
O  O60  1  0.17183000  0.83943000  0.25383000  1.0 -0.5291990208
O  O61  1  0.01240000  0.78080000  0.21530000  1.0 -0.4297633934
O  O62  1  0.05320000  0.72920000  0.20270000  1.0 -0.0396795245
O  O63  1  0.96785000  0.59570000  0.67163000  1.0 -0.5291990208
O  O64  1  0.95960000  0.55860000  0.59770000  1.0 -0.4805556503
O  O65  1  0.49230000  0.70460000  0.97870000  1.0 -0.3215083795
O  O66  1  0.51500000  0.65480000  0.01060000  1.0 -0.0703174484
O  O67  1  0.63250000  0.88769000  0.43763000  1.0 -0.471425642
O  O68  1  0.58069000  0.91989000  0.46429000  1.0 -0.4434949425
O  O69  1  0.86590000  0.53290000  0.61420000  1.0 -0.471425642
O  O70  1  0.88341000  0.53610000  0.69129000  1.0 -0.4805556503
O  O71  1  0.18030000  0.05150000  0.73430000  1.0 -0.0500333179
O  O72  1  0.48050000  0.64230000  0.99880000  1.0 -0.0703174484
O  O73  1  0.29820000  0.09690000  0.76910000  1.0 -0.4539508315
O  O74  1  0.22490000  0.07881000  0.87549000  1.0 -0.5404435733
O  O75  1  0.21122000  0.14938000  0.76970000  1.0 -0.4805556503
O  O76  1  0.16301000  0.08801000  0.82918000  1.0 -0.4987667568
O  O77  1  0.30585000  0.08983000  0.83869000  1.0 -0.4582383985
O  O78  1  0.25383000  0.17183000  0.83943000  1.0 -0.5291990208
O  O79  1  0.21530000  0.01240000  0.78080000  1.0 -0.4297633934
O  O80  1  0.20270000  0.05320000  0.72920000  1.0 -0.0396795245
O  O81  1  0.67163000  0.96785000  0.59570000  1.0 -0.5291990208
O  O82  1  0.59770000  0.95960000  0.55860000  1.0 -0.4805556503
O  O83  1  0.97870000  0.49230000  0.70460000  1.0 -0.3215083795
O  O84  1  0.01060000  0.51500000  0.65480000  1.0 -0.0703174484
O  O85  1  0.43763000  0.63250000  0.88769000  1.0 -0.471425642
O  O86  1  0.46429000  0.58069000  0.91989000  1.0 -0.4434949425
O  O87  1  0.61420000  0.86590000  0.53290000  1.0 -0.471425642
O  O88  1  0.69129000  0.88341000  0.53610000  1.0 -0.4805556503
O  O89  1  0.73430000  0.18030000  0.05150000  1.0 -0.0500333179
O  O90  1  0.99880000  0.48050000  0.64230000  1.0 -0.0703174484
O  O91  1  0.76910000  0.29820000  0.09690000  1.0 -0.4582383985
O  O92  1  0.87549000  0.22490000  0.07881000  1.0 -0.5404435733
O  O93  1  0.76970000  0.21122000  0.14938000  1.0 -0.4805556503
O  O94  1  0.82918000  0.16301000  0.08801000  1.0 -0.4987667568
O  O95  1  0.83869000  0.30585000  0.08983000  1.0 -0.4582383985
O  O96  1  0.83943000  0.25383000  0.17183000  1.0 -0.5291990208
O  O97  1  0.78080000  0.21530000  0.01240000  1.0 -0.4297633934
O  O98  1  0.72920000  0.20270000  0.05320000  1.0 -0.0396795245
O  O99  1  0.59570000  0.67163000  0.96785000  1.0 -0.5291990208
O  O100  1  0.55860000  0.59770000  0.95960000  1.0 -0.4805556503
O  O101  1  0.70460000  0.97870000  0.49230000  1.0 -0.3215083795
O  O102  1  0.65480000  0.01060000  0.51500000  1.0 -0.0703174484
O  O103  1  0.88769000  0.43763000  0.63250000  1.0 -0.471425642
O  O104  1  0.91989000  0.46429000  0.58069000  1.0 -0.4434949425
O  O105  1  0.53290000  0.61420000  0.86590000  1.0 -0.471425642
O  O106  1  0.53610000  0.69129000  0.88341000  1.0 -0.4805556503
O  O107  1  0.05150000  0.73430000  0.18030000  1.0 -0.0500333179
O  O108  1  0.64230000  0.99880000  0.48050000  1.0 -0.0703174484
