# DDEC6 charges by PACMAN v1.1 (https://github.com/mtap-research/PACMAN-charge/)
data_CIGCII_ASR_pacman
_symmetry_space_group_name_H-M   'P 1'
_cell_length_a   6.69660000
_cell_length_b   12.69520000
_cell_length_c   17.23210000
_cell_angle_alpha   109.58300000
_cell_angle_beta   96.61900000
_cell_angle_gamma   89.07800000
_symmetry_Int_Tables_number   1
_chemical_formula_structural   ZnH18C30(NO)4
_chemical_formula_sum   'Zn2 H36 C60 N8 O8'
_cell_volume   1370.64472599
_cell_formula_units_Z   2
loop_
 _symmetry_equiv_pos_site_id
 _symmetry_equiv_pos_as_xyz
  1  'x, y, z'
loop_
 _atom_site_type_symbol
 _atom_site_label
 _atom_site_symmetry_multiplicity
 _atom_site_fract_x
 _atom_site_fract_y
 _atom_site_fract_z
 _atom_site_occupancy
 _atom_site_charge
Zn  Zn1  1  0.80394000  0.98564000  0.29897000  1.0 0.747507314
Zn  Zn2  1  0.19606000  0.01436000  0.70103000  1.0 0.747507314
H  H1  1  0.44410000  0.17114000  0.47837000  1.0 0.1126183894
H  H2  1  0.55590000  0.82886000  0.52163000  1.0 0.1126183894
H  H3  1  0.01539000  0.58559000  0.17666000  1.0 0.1299938716
H  H4  1  0.98461000  0.41441000  0.82334000  1.0 0.1299938716
H  H5  1  0.41055000  0.87294000  0.19522000  1.0 0.1198888979
H  H6  1  0.58945000  0.12706000  0.80478000  1.0 0.1198888979
H  H7  1  0.37058000  0.04862000  0.29653000  1.0 0.1002256151
H  H8  1  0.62942000  0.95138000  0.70347000  1.0 0.1002256151
H  H9  1  0.68451000  0.54587000  0.15652000  1.0 0.1126183894
H  H10  1  0.31549000  0.45413000  0.84348000  1.0 0.1126183894
H  H11  1  0.17450000  0.18268000  0.26585000  1.0 0.1388845693
H  H12  1  0.82550000  0.81732000  0.73415000  1.0 0.1388845693
H  H13  1  0.65705000  0.95964000  0.99064000  1.0 0.1126183894
H  H14  1  0.34295000  0.04036000  0.00936000  1.0 0.1198888979
H  H15  1  0.20738000  0.71888000  0.17641000  1.0 0.1388845693
H  H16  1  0.79262000  0.28112000  0.82359000  1.0 0.1388845693
H  H17  1  0.05022000  0.26883000  0.18284000  1.0 0.1198888979
H  H18  1  0.94978000  0.73117000  0.81716000  1.0 0.1198888979
H  H19  1  0.78131000  0.80006000  0.36459000  1.0 0.1198888979
H  H20  1  0.21869000  0.19994000  0.63541000  1.0 0.1198888979
H  H21  1  0.24737000  0.86062000  0.45577000  1.0 0.1198888979
H  H22  1  0.75263000  0.13938000  0.54423000  1.0 0.1198888979
H  H23  1  0.37692000  0.50101000  0.07201000  1.0 0.1126183894
H  H24  1  0.62308000  0.49899000  0.92799000  1.0 0.1126183894
H  H25  1  0.68154000  0.37101000  0.29819000  1.0 0.1299938716
H  H26  1  0.31846000  0.62899000  0.70181000  1.0 0.1299938716
H  H27  1  0.59483000  0.64011000  0.34612000  1.0 0.1388845693
H  H28  1  0.40517000  0.35989000  0.65388000  1.0 0.1388845693
H  H29  1  0.86071000  0.23205000  0.33008000  1.0 0.1198888979
H  H30  1  0.13929000  0.76795000  0.66992000  1.0 0.1198888979
H  H31  1  0.78984000  0.97994000  0.87740000  1.0 0.1198888979
H  H32  1  0.21016000  0.02006000  0.12260000  1.0 0.1198888979
H  H33  1  0.86163000  0.22729000  0.05821000  1.0 0.1198888979
H  H34  1  0.13837000  0.77271000  0.94179000  1.0 0.1198888979
H  H35  1  0.55631000  0.17952000  0.97290000  1.0 0.1299938716
H  H36  1  0.44369000  0.82048000  0.02710000  1.0 0.1299938716
C  C1  1  0.31590000  0.01750000  0.45930000  1.0 -0.0265896071
C  C2  1  0.68410000  0.98250000  0.54070000  1.0 -0.0265896071
C  C3  1  0.40520000  0.29100000  0.27490000  1.0 0.1126183894
C  C4  1  0.59480000  0.70900000  0.72510000  1.0 0.1126183894
C  C5  1  0.27180000  0.55140000  0.23990000  1.0 0.2001687985
C  C6  1  0.72820000  0.44860000  0.76010000  1.0 0.2001687985
C  C7  1  0.38130000  0.65940000  0.25770000  1.0 0.1002256151
C  C8  1  0.61870000  0.34060000  0.74230000  1.0 0.1002256151
C  C9  1  0.46690000  0.10150000  0.48690000  1.0 -0.1210837574
C  C10  1  0.53310000  0.89850000  0.51310000  1.0 -0.1210837574
C  C11  1  0.08390000  0.52880000  0.19280000  1.0 -0.2285253926
C  C12  1  0.91610000  0.47120000  0.80720000  1.0 -0.2285253926
C  C13  1  0.82900000  0.97920000  0.14190000  1.0 0.5510034662
C  C14  1  0.17100000  0.02080000  0.85810000  1.0 0.5510034662
C  C15  1  0.12260000  0.03660000  0.41360000  1.0 0.5510034662
C  C16  1  0.87740000  0.96340000  0.58640000  1.0 0.5510034662
C  C17  1  0.91930000  0.98860000  0.06890000  1.0 -0.0265896071
C  C18  1  0.08070000  0.01140000  0.93110000  1.0 -0.0265896071
C  C19  1  0.28680000  0.37450000  0.24670000  1.0 0.2088202562
C  C20  1  0.71320000  0.62550000  0.75330000  1.0 0.2088202562
C  C21  1  0.44750000  0.82510000  0.22640000  1.0 0.0897880297
C  C22  1  0.55250000  0.17490000  0.77360000  1.0 0.0897880297
C  C23  1  0.43450000  0.11460000  0.29600000  1.0 0.1002256151
C  C24  1  0.56550000  0.88540000  0.70400000  1.0 0.1002256151
C  C25  1  0.65790000  0.47170000  0.11940000  1.0 -0.1447029609
C  C26  1  0.34210000  0.52830000  0.88060000  1.0 -0.1447029609
C  C27  1  0.31630000  0.19390000  0.27720000  1.0 -0.1700474147
C  C28  1  0.68370000  0.80610000  0.72280000  1.0 -0.1700474147
C  C29  1  0.79650000  0.97620000  0.99470000  1.0 -0.1149392251
C  C30  1  0.20350000  0.02380000  0.00530000  1.0 -0.1149392251
C  C31  1  0.32680000  0.73270000  0.21420000  1.0 -0.1803674001
C  C32  1  0.67320000  0.26730000  0.78580000  1.0 -0.1803674001
C  C33  1  0.10260000  0.34290000  0.19730000  1.0 -0.2285253926
C  C34  1  0.89740000  0.65710000  0.80270000  1.0 -0.2285253926
C  C35  1  0.99700000  0.42120000  0.16960000  1.0 0.1299938716
C  C36  1  0.00300000  0.57880000  0.83040000  1.0 0.1299938716
C  C37  1  0.66530000  0.78200000  0.32490000  1.0 0.0897880297
C  C38  1  0.33470000  0.21800000  0.67510000  1.0 0.0897880297
C  C39  1  0.35000000  0.91720000  0.47340000  1.0 -0.1049781341
C  C40  1  0.65000000  0.08280000  0.52660000  1.0 -0.1049781341
C  C41  1  0.47500000  0.44530000  0.06920000  1.0 -0.1333946783
C  C42  1  0.52500000  0.55470000  0.93080000  1.0 -0.1333946783
C  C43  1  0.61430000  0.30480000  0.29650000  1.0 -0.1700474147
C  C44  1  0.38570000  0.69520000  0.70350000  1.0 -0.1700474147
C  C45  1  0.55380000  0.68690000  0.31450000  1.0 -0.1803674001
C  C46  1  0.44620000  0.31310000  0.68550000  1.0 -0.1803674001
C  C47  1  0.71950000  0.22150000  0.31520000  1.0 0.0772802185
C  C48  1  0.28050000  0.77850000  0.68480000  1.0 0.0772802185
C  C49  1  0.87570000  0.98800000  0.92700000  1.0 -0.1210837574
C  C50  1  0.12430000  0.01200000  0.07300000  1.0 -0.1210837574
C  C51  1  0.43710000  0.33650000  0.01490000  1.0 0.0470879328
C  C52  1  0.56290000  0.66350000  0.98510000  1.0 0.0470879328
C  C53  1  0.76260000  0.28250000  0.06090000  1.0 -0.1210837574
C  C54  1  0.23740000  0.71750000  0.93910000  1.0 -0.1210837574
C  C55  1  0.80190000  0.39100000  0.11600000  1.0 0.0772802185
C  C56  1  0.19810000  0.60900000  0.88400000  1.0 0.0772802185
C  C57  1  0.58200000  0.25370000  0.01020000  1.0 -0.1149392251
C  C58  1  0.41800000  0.74630000  0.98980000  1.0 -0.1149392251
C  C59  1  0.24910000  0.31160000  0.96240000  1.0 0.260773341
C  C60  1  0.75090000  0.68840000  0.03760000  1.0 0.260773341
N  N1  1  0.61550000  0.85040000  0.28070000  1.0 -0.23570094
N  N2  1  0.38450000  0.14960000  0.71930000  1.0 -0.23570094
N  N3  1  0.37060000  0.47570000  0.26710000  1.0 -0.3316502172
N  N4  1  0.62940000  0.52430000  0.73290000  1.0 -0.3316502172
N  N5  1  0.63340000  0.12460000  0.31350000  1.0 -0.2285253926
N  N6  1  0.36660000  0.87540000  0.68650000  1.0 -0.2285253926
N  N7  1  0.09990000  0.29600000  0.92080000  1.0 -0.359704842
N  N8  1  0.90010000  0.70400000  0.07920000  1.0 -0.359704842
O  O1  1  0.95020000  0.98960000  0.20720000  1.0 -0.5422666419
O  O2  1  0.04980000  0.01040000  0.79280000  1.0 -0.5422666419
O  O3  1  0.00520000  0.95170000  0.37830000  1.0 -0.5422666419
O  O4  1  0.99480000  0.04830000  0.62170000  1.0 -0.5422666419
O  O5  1  0.64440000  0.96130000  0.13610000  1.0 -0.5643413264
O  O6  1  0.35560000  0.03870000  0.86390000  1.0 -0.5643413264
O  O7  1  0.08620000  0.13060000  0.40850000  1.0 -0.5520354707
O  O8  1  0.91380000  0.86940000  0.59150000  1.0 -0.5520354707
