# DDEC6 charges by PACMAN v1.1 (https://github.com/mtap-research/PACMAN-charge/)
data_CIGXIA_FSR_pacman
_symmetry_space_group_name_H-M   'P 1'
_cell_length_a   73.34020000
_cell_length_b   73.34020000
_cell_length_c   73.34020000
_cell_angle_alpha   90.00000000
_cell_angle_beta   90.00000000
_cell_angle_gamma   90.00000000
_symmetry_Int_Tables_number   1
_chemical_formula_structural   Fe3(C9O8)2
_chemical_formula_sum   'Fe816 C4896 O4352'
_cell_volume   394481.16296616
_cell_formula_units_Z   272
loop_
 _symmetry_equiv_pos_site_id
 _symmetry_equiv_pos_as_xyz
  1  'x, y, z'
loop_
 _atom_site_type_symbol
 _atom_site_label
 _atom_site_symmetry_multiplicity
 _atom_site_fract_x
 _atom_site_fract_y
 _atom_site_fract_z
 _atom_site_occupancy
 _atom_site_charge
Fe  Fe1  1  0.83958000  0.91042000  0.05720000  1.0 1.1628720519
Fe  Fe2  1  0.08958000  0.58958000  0.30720000  1.0 1.1628720519
Fe  Fe3  1  0.83958000  0.83958000  0.19280000  1.0 1.1628720519
Fe  Fe4  1  0.94280000  0.83958000  0.08958000  1.0 1.1628720519
Fe  Fe5  1  0.41042000  0.83958000  0.55720000  1.0 1.1628720519
Fe  Fe6  1  0.16042000  0.58958000  0.44280000  1.0 1.1628720519
Fe  Fe7  1  0.16042000  0.69280000  0.33958000  1.0 1.1628720519
Fe  Fe8  1  0.16042000  0.16042000  0.80720000  1.0 1.1628720519
Fe  Fe9  1  0.41042000  0.91042000  0.69280000  1.0 1.1628720519
Fe  Fe10  1  0.30720000  0.91042000  0.58958000  1.0 1.1628720519
Fe  Fe11  1  0.08958000  0.16042000  0.94280000  1.0 1.1628720519
Fe  Fe12  1  0.08958000  0.05720000  0.83958000  1.0 1.1628720519
Fe  Fe13  1  0.94280000  0.91042000  0.16042000  1.0 1.1628720519
Fe  Fe14  1  0.16042000  0.05720000  0.91042000  1.0 1.1628720519
Fe  Fe15  1  0.30720000  0.83958000  0.66042000  1.0 1.1628720519
Fe  Fe16  1  0.08958000  0.69280000  0.41042000  1.0 1.1628720519
Fe  Fe17  1  0.91042000  0.94280000  0.16042000  1.0 1.1628720519
Fe  Fe18  1  0.19280000  0.08958000  0.91042000  1.0 1.1628720519
Fe  Fe19  1  0.55720000  0.16042000  0.41042000  1.0 1.1628720519
Fe  Fe20  1  0.19280000  0.16042000  0.83958000  1.0 1.1628720519
Fe  Fe21  1  0.41042000  0.30720000  0.08958000  1.0 1.1628720519
Fe  Fe22  1  0.05720000  0.08958000  0.83958000  1.0 1.1628720519
Fe  Fe23  1  0.83958000  0.94280000  0.08958000  1.0 1.1628720519
Fe  Fe24  1  0.33958000  0.30720000  0.16042000  1.0 1.1628720519
Fe  Fe25  1  0.69280000  0.08958000  0.41042000  1.0 1.1628720519
Fe  Fe26  1  0.83958000  0.41042000  0.55720000  1.0 1.1628720519
Fe  Fe27  1  0.08958000  0.08958000  0.80720000  1.0 1.1628720519
Fe  Fe28  1  0.83958000  0.33958000  0.69280000  1.0 1.1628720519
Fe  Fe29  1  0.94280000  0.33958000  0.58958000  1.0 1.1628720519
Fe  Fe30  1  0.41042000  0.33958000  0.05720000  1.0 1.1628720519
Fe  Fe31  1  0.16042000  0.08958000  0.94280000  1.0 1.1628720519
Fe  Fe32  1  0.16042000  0.19280000  0.83958000  1.0 1.1628720519
Fe  Fe33  1  0.16042000  0.66042000  0.30720000  1.0 1.1628720519
Fe  Fe34  1  0.41042000  0.41042000  0.19280000  1.0 1.1628720519
Fe  Fe35  1  0.30720000  0.41042000  0.08958000  1.0 1.1628720519
Fe  Fe36  1  0.08958000  0.66042000  0.44280000  1.0 1.1628720519
Fe  Fe37  1  0.08958000  0.55720000  0.33958000  1.0 1.1628720519
Fe  Fe38  1  0.94280000  0.41042000  0.66042000  1.0 1.1628720519
Fe  Fe39  1  0.16042000  0.55720000  0.41042000  1.0 1.1628720519
Fe  Fe40  1  0.30720000  0.33958000  0.16042000  1.0 1.1628720519
Fe  Fe41  1  0.08958000  0.19280000  0.91042000  1.0 1.1628720519
Fe  Fe42  1  0.91042000  0.44280000  0.66042000  1.0 1.1628720519
Fe  Fe43  1  0.19280000  0.58958000  0.41042000  1.0 1.1628720519
Fe  Fe44  1  0.55720000  0.66042000  0.91042000  1.0 1.1628720519
Fe  Fe45  1  0.19280000  0.66042000  0.33958000  1.0 1.1628720519
Fe  Fe46  1  0.41042000  0.80720000  0.58958000  1.0 1.1628720519
Fe  Fe47  1  0.05720000  0.58958000  0.33958000  1.0 1.1628720519
Fe  Fe48  1  0.83958000  0.44280000  0.58958000  1.0 1.1628720519
Fe  Fe49  1  0.33958000  0.80720000  0.66042000  1.0 1.1628720519
Fe  Fe50  1  0.69280000  0.58958000  0.91042000  1.0 1.1628720519
Fe  Fe51  1  0.33958000  0.91042000  0.55720000  1.0 1.1628720519
Fe  Fe52  1  0.58958000  0.58958000  0.80720000  1.0 1.1628720519
Fe  Fe53  1  0.33958000  0.83958000  0.69280000  1.0 1.1628720519
Fe  Fe54  1  0.44280000  0.83958000  0.58958000  1.0 1.1628720519
Fe  Fe55  1  0.91042000  0.83958000  0.05720000  1.0 1.1628720519
Fe  Fe56  1  0.66042000  0.58958000  0.94280000  1.0 1.1628720519
Fe  Fe57  1  0.66042000  0.69280000  0.83958000  1.0 1.1628720519
Fe  Fe58  1  0.66042000  0.16042000  0.30720000  1.0 1.1628720519
Fe  Fe59  1  0.91042000  0.91042000  0.19280000  1.0 1.1628720519
Fe  Fe60  1  0.80720000  0.91042000  0.08958000  1.0 1.1628720519
Fe  Fe61  1  0.58958000  0.16042000  0.44280000  1.0 1.1628720519
Fe  Fe62  1  0.58958000  0.05720000  0.33958000  1.0 1.1628720519
Fe  Fe63  1  0.44280000  0.91042000  0.66042000  1.0 1.1628720519
Fe  Fe64  1  0.66042000  0.05720000  0.41042000  1.0 1.1628720519
Fe  Fe65  1  0.80720000  0.83958000  0.16042000  1.0 1.1628720519
Fe  Fe66  1  0.58958000  0.69280000  0.91042000  1.0 1.1628720519
Fe  Fe67  1  0.41042000  0.94280000  0.66042000  1.0 1.1628720519
Fe  Fe68  1  0.05720000  0.16042000  0.91042000  1.0 1.1628720519
Fe  Fe69  1  0.69280000  0.16042000  0.33958000  1.0 1.1628720519
Fe  Fe70  1  0.91042000  0.30720000  0.58958000  1.0 1.1628720519
Fe  Fe71  1  0.55720000  0.08958000  0.33958000  1.0 1.1628720519
Fe  Fe72  1  0.33958000  0.94280000  0.58958000  1.0 1.1628720519
Fe  Fe73  1  0.83958000  0.30720000  0.66042000  1.0 1.1628720519
Fe  Fe74  1  0.33958000  0.41042000  0.05720000  1.0 1.1628720519
Fe  Fe75  1  0.58958000  0.08958000  0.30720000  1.0 1.1628720519
Fe  Fe76  1  0.33958000  0.33958000  0.19280000  1.0 1.1628720519
Fe  Fe77  1  0.44280000  0.33958000  0.08958000  1.0 1.1628720519
Fe  Fe78  1  0.91042000  0.33958000  0.55720000  1.0 1.1628720519
Fe  Fe79  1  0.66042000  0.08958000  0.44280000  1.0 1.1628720519
Fe  Fe80  1  0.66042000  0.19280000  0.33958000  1.0 1.1628720519
Fe  Fe81  1  0.66042000  0.66042000  0.80720000  1.0 1.1628720519
Fe  Fe82  1  0.91042000  0.41042000  0.69280000  1.0 1.1628720519
Fe  Fe83  1  0.80720000  0.41042000  0.58958000  1.0 1.1628720519
Fe  Fe84  1  0.58958000  0.66042000  0.94280000  1.0 1.1628720519
Fe  Fe85  1  0.58958000  0.55720000  0.83958000  1.0 1.1628720519
Fe  Fe86  1  0.44280000  0.41042000  0.16042000  1.0 1.1628720519
Fe  Fe87  1  0.66042000  0.55720000  0.91042000  1.0 1.1628720519
Fe  Fe88  1  0.80720000  0.33958000  0.66042000  1.0 1.1628720519
Fe  Fe89  1  0.58958000  0.19280000  0.41042000  1.0 1.1628720519
Fe  Fe90  1  0.41042000  0.44280000  0.16042000  1.0 1.1628720519
Fe  Fe91  1  0.05720000  0.66042000  0.41042000  1.0 1.1628720519
Fe  Fe92  1  0.69280000  0.66042000  0.83958000  1.0 1.1628720519
Fe  Fe93  1  0.91042000  0.80720000  0.08958000  1.0 1.1628720519
Fe  Fe94  1  0.55720000  0.58958000  0.83958000  1.0 1.1628720519
Fe  Fe95  1  0.33958000  0.44280000  0.08958000  1.0 1.1628720519
Fe  Fe96  1  0.83958000  0.80720000  0.16042000  1.0 1.1628720519
Fe  Fe97  1  0.87500000  0.87500000  0.90520000  1.0 1.1098388267
Fe  Fe98  1  0.12500000  0.62500000  0.15520000  1.0 1.1098388267
Fe  Fe99  1  0.87500000  0.87500000  0.34480000  1.0 1.1098388267
Fe  Fe100  1  0.09480000  0.87500000  0.12500000  1.0 1.1098388267
Fe  Fe101  1  0.37500000  0.87500000  0.40520000  1.0 1.1098388267
Fe  Fe102  1  0.12500000  0.62500000  0.59480000  1.0 1.1098388267
Fe  Fe103  1  0.12500000  0.84480000  0.37500000  1.0 1.1098388267
Fe  Fe104  1  0.12500000  0.12500000  0.65520000  1.0 1.1098388267
Fe  Fe105  1  0.37500000  0.87500000  0.84480000  1.0 1.1098388267
Fe  Fe106  1  0.15520000  0.87500000  0.62500000  1.0 1.1098388267
Fe  Fe107  1  0.12500000  0.12500000  0.09480000  1.0 1.1098388267
Fe  Fe108  1  0.12500000  0.90520000  0.87500000  1.0 1.1098388267
Fe  Fe109  1  0.87500000  0.09480000  0.12500000  1.0 1.1098388267
Fe  Fe110  1  0.34480000  0.12500000  0.87500000  1.0 1.1098388267
Fe  Fe111  1  0.40520000  0.12500000  0.37500000  1.0 1.1098388267
Fe  Fe112  1  0.37500000  0.15520000  0.12500000  1.0 1.1098388267
Fe  Fe113  1  0.90520000  0.12500000  0.87500000  1.0 1.1098388267
Fe  Fe114  1  0.84480000  0.12500000  0.37500000  1.0 1.1098388267
Fe  Fe115  1  0.87500000  0.37500000  0.40520000  1.0 1.1098388267
Fe  Fe116  1  0.87500000  0.37500000  0.84480000  1.0 1.1098388267
Fe  Fe117  1  0.09480000  0.37500000  0.62500000  1.0 1.1098388267
Fe  Fe118  1  0.37500000  0.37500000  0.90520000  1.0 1.1098388267
Fe  Fe119  1  0.12500000  0.34480000  0.87500000  1.0 1.1098388267
Fe  Fe120  1  0.37500000  0.37500000  0.34480000  1.0 1.1098388267
Fe  Fe121  1  0.15520000  0.37500000  0.12500000  1.0 1.1098388267
Fe  Fe122  1  0.12500000  0.40520000  0.37500000  1.0 1.1098388267
Fe  Fe123  1  0.87500000  0.59480000  0.62500000  1.0 1.1098388267
Fe  Fe124  1  0.34480000  0.62500000  0.37500000  1.0 1.1098388267
Fe  Fe125  1  0.40520000  0.62500000  0.87500000  1.0 1.1098388267
Fe  Fe126  1  0.37500000  0.65520000  0.62500000  1.0 1.1098388267
Fe  Fe127  1  0.90520000  0.62500000  0.37500000  1.0 1.1098388267
Fe  Fe128  1  0.84480000  0.62500000  0.87500000  1.0 1.1098388267
Fe  Fe129  1  0.62500000  0.62500000  0.65520000  1.0 1.1098388267
Fe  Fe130  1  0.59480000  0.87500000  0.62500000  1.0 1.1098388267
Fe  Fe131  1  0.62500000  0.62500000  0.09480000  1.0 1.1098388267
Fe  Fe132  1  0.62500000  0.84480000  0.87500000  1.0 1.1098388267
Fe  Fe133  1  0.62500000  0.12500000  0.15520000  1.0 1.1098388267
Fe  Fe134  1  0.65520000  0.87500000  0.12500000  1.0 1.1098388267
Fe  Fe135  1  0.62500000  0.12500000  0.59480000  1.0 1.1098388267
Fe  Fe136  1  0.62500000  0.90520000  0.37500000  1.0 1.1098388267
Fe  Fe137  1  0.37500000  0.09480000  0.62500000  1.0 1.1098388267
Fe  Fe138  1  0.87500000  0.15520000  0.62500000  1.0 1.1098388267
Fe  Fe139  1  0.59480000  0.37500000  0.12500000  1.0 1.1098388267
Fe  Fe140  1  0.62500000  0.34480000  0.37500000  1.0 1.1098388267
Fe  Fe141  1  0.65520000  0.37500000  0.62500000  1.0 1.1098388267
Fe  Fe142  1  0.62500000  0.40520000  0.87500000  1.0 1.1098388267
Fe  Fe143  1  0.37500000  0.59480000  0.12500000  1.0 1.1098388267
Fe  Fe144  1  0.87500000  0.65520000  0.12500000  1.0 1.1098388267
Fe  Fe145  1  0.85905000  0.85905000  0.86420000  1.0 1.1829124284
Fe  Fe146  1  0.14095000  0.60905000  0.11420000  1.0 1.1829124284
Fe  Fe147  1  0.85905000  0.89095000  0.38580000  1.0 1.1829124284
Fe  Fe148  1  0.13580000  0.85905000  0.14095000  1.0 1.1829124284
Fe  Fe149  1  0.39095000  0.89095000  0.36420000  1.0 1.1829124284
Fe  Fe150  1  0.10905000  0.60905000  0.63580000  1.0 1.1829124284
Fe  Fe151  1  0.14095000  0.88580000  0.39095000  1.0 1.1829124284
Fe  Fe152  1  0.10905000  0.14095000  0.61420000  1.0 1.1829124284
Fe  Fe153  1  0.39095000  0.85905000  0.88580000  1.0 1.1829124284
Fe  Fe154  1  0.11420000  0.89095000  0.64095000  1.0 1.1829124284
Fe  Fe155  1  0.14095000  0.14095000  0.13580000  1.0 1.1829124284
Fe  Fe156  1  0.10905000  0.86420000  0.89095000  1.0 1.1829124284
Fe  Fe157  1  0.13580000  0.89095000  0.10905000  1.0 1.1829124284
Fe  Fe158  1  0.14095000  0.86420000  0.85905000  1.0 1.1829124284
Fe  Fe159  1  0.11420000  0.85905000  0.60905000  1.0 1.1829124284
Fe  Fe160  1  0.10905000  0.88580000  0.35905000  1.0 1.1829124284
Fe  Fe161  1  0.85905000  0.13580000  0.14095000  1.0 1.1829124284
Fe  Fe162  1  0.38580000  0.14095000  0.89095000  1.0 1.1829124284
Fe  Fe163  1  0.36420000  0.10905000  0.39095000  1.0 1.1829124284
Fe  Fe164  1  0.38580000  0.10905000  0.85905000  1.0 1.1829124284
Fe  Fe165  1  0.35905000  0.11420000  0.10905000  1.0 1.1829124284
Fe  Fe166  1  0.86420000  0.14095000  0.85905000  1.0 1.1829124284
Fe  Fe167  1  0.89095000  0.13580000  0.10905000  1.0 1.1829124284
Fe  Fe168  1  0.39095000  0.11420000  0.14095000  1.0 1.1829124284
Fe  Fe169  1  0.88580000  0.14095000  0.39095000  1.0 1.1829124284
Fe  Fe170  1  0.85905000  0.35905000  0.36420000  1.0 1.1829124284
Fe  Fe171  1  0.14095000  0.10905000  0.61420000  1.0 1.1829124284
Fe  Fe172  1  0.85905000  0.39095000  0.88580000  1.0 1.1829124284
Fe  Fe173  1  0.13580000  0.35905000  0.64095000  1.0 1.1829124284
Fe  Fe174  1  0.39095000  0.39095000  0.86420000  1.0 1.1829124284
Fe  Fe175  1  0.10905000  0.10905000  0.13580000  1.0 1.1829124284
Fe  Fe176  1  0.14095000  0.38580000  0.89095000  1.0 1.1829124284
Fe  Fe177  1  0.10905000  0.64095000  0.11420000  1.0 1.1829124284
Fe  Fe178  1  0.39095000  0.35905000  0.38580000  1.0 1.1829124284
Fe  Fe179  1  0.11420000  0.39095000  0.14095000  1.0 1.1829124284
Fe  Fe180  1  0.14095000  0.64095000  0.63580000  1.0 1.1829124284
Fe  Fe181  1  0.10905000  0.36420000  0.39095000  1.0 1.1829124284
Fe  Fe182  1  0.13580000  0.39095000  0.60905000  1.0 1.1829124284
Fe  Fe183  1  0.14095000  0.36420000  0.35905000  1.0 1.1829124284
Fe  Fe184  1  0.11420000  0.35905000  0.10905000  1.0 1.1829124284
Fe  Fe185  1  0.10905000  0.38580000  0.85905000  1.0 1.1829124284
Fe  Fe186  1  0.85905000  0.63580000  0.64095000  1.0 1.1829124284
Fe  Fe187  1  0.38580000  0.64095000  0.39095000  1.0 1.1829124284
Fe  Fe188  1  0.36420000  0.60905000  0.89095000  1.0 1.1829124284
Fe  Fe189  1  0.38580000  0.60905000  0.35905000  1.0 1.1829124284
Fe  Fe190  1  0.35905000  0.61420000  0.60905000  1.0 1.1829124284
Fe  Fe191  1  0.86420000  0.64095000  0.35905000  1.0 1.1829124284
Fe  Fe192  1  0.89095000  0.63580000  0.60905000  1.0 1.1829124284
Fe  Fe193  1  0.39095000  0.61420000  0.64095000  1.0 1.1829124284
Fe  Fe194  1  0.88580000  0.64095000  0.89095000  1.0 1.1829124284
Fe  Fe195  1  0.35905000  0.85905000  0.36420000  1.0 1.1829124284
Fe  Fe196  1  0.64095000  0.60905000  0.61420000  1.0 1.1829124284
Fe  Fe197  1  0.35905000  0.89095000  0.88580000  1.0 1.1829124284
Fe  Fe198  1  0.63580000  0.85905000  0.64095000  1.0 1.1829124284
Fe  Fe199  1  0.89095000  0.89095000  0.86420000  1.0 1.1829124284
Fe  Fe200  1  0.60905000  0.60905000  0.13580000  1.0 1.1829124284
Fe  Fe201  1  0.64095000  0.88580000  0.89095000  1.0 1.1829124284
Fe  Fe202  1  0.60905000  0.14095000  0.11420000  1.0 1.1829124284
Fe  Fe203  1  0.89095000  0.85905000  0.38580000  1.0 1.1829124284
Fe  Fe204  1  0.61420000  0.89095000  0.14095000  1.0 1.1829124284
Fe  Fe205  1  0.64095000  0.14095000  0.63580000  1.0 1.1829124284
Fe  Fe206  1  0.60905000  0.86420000  0.39095000  1.0 1.1829124284
Fe  Fe207  1  0.63580000  0.89095000  0.60905000  1.0 1.1829124284
Fe  Fe208  1  0.64095000  0.86420000  0.35905000  1.0 1.1829124284
Fe  Fe209  1  0.61420000  0.85905000  0.10905000  1.0 1.1829124284
Fe  Fe210  1  0.60905000  0.88580000  0.85905000  1.0 1.1829124284
Fe  Fe211  1  0.35905000  0.13580000  0.64095000  1.0 1.1829124284
Fe  Fe212  1  0.86420000  0.10905000  0.89095000  1.0 1.1829124284
Fe  Fe213  1  0.88580000  0.10905000  0.35905000  1.0 1.1829124284
Fe  Fe214  1  0.85905000  0.11420000  0.60905000  1.0 1.1829124284
Fe  Fe215  1  0.36420000  0.14095000  0.35905000  1.0 1.1829124284
Fe  Fe216  1  0.39095000  0.13580000  0.60905000  1.0 1.1829124284
Fe  Fe217  1  0.89095000  0.11420000  0.64095000  1.0 1.1829124284
Fe  Fe218  1  0.35905000  0.35905000  0.86420000  1.0 1.1829124284
Fe  Fe219  1  0.64095000  0.10905000  0.11420000  1.0 1.1829124284
Fe  Fe220  1  0.35905000  0.39095000  0.38580000  1.0 1.1829124284
Fe  Fe221  1  0.63580000  0.35905000  0.14095000  1.0 1.1829124284
Fe  Fe222  1  0.89095000  0.39095000  0.36420000  1.0 1.1829124284
Fe  Fe223  1  0.60905000  0.10905000  0.63580000  1.0 1.1829124284
Fe  Fe224  1  0.64095000  0.38580000  0.39095000  1.0 1.1829124284
Fe  Fe225  1  0.60905000  0.64095000  0.61420000  1.0 1.1829124284
Fe  Fe226  1  0.89095000  0.35905000  0.88580000  1.0 1.1829124284
Fe  Fe227  1  0.61420000  0.39095000  0.64095000  1.0 1.1829124284
Fe  Fe228  1  0.64095000  0.64095000  0.13580000  1.0 1.1829124284
Fe  Fe229  1  0.60905000  0.36420000  0.89095000  1.0 1.1829124284
Fe  Fe230  1  0.63580000  0.39095000  0.10905000  1.0 1.1829124284
Fe  Fe231  1  0.64095000  0.36420000  0.85905000  1.0 1.1829124284
Fe  Fe232  1  0.61420000  0.35905000  0.60905000  1.0 1.1829124284
Fe  Fe233  1  0.60905000  0.38580000  0.35905000  1.0 1.1829124284
Fe  Fe234  1  0.35905000  0.63580000  0.14095000  1.0 1.1829124284
Fe  Fe235  1  0.86420000  0.60905000  0.39095000  1.0 1.1829124284
Fe  Fe236  1  0.88580000  0.60905000  0.85905000  1.0 1.1829124284
Fe  Fe237  1  0.85905000  0.61420000  0.10905000  1.0 1.1829124284
Fe  Fe238  1  0.36420000  0.64095000  0.85905000  1.0 1.1829124284
Fe  Fe239  1  0.39095000  0.63580000  0.10905000  1.0 1.1829124284
Fe  Fe240  1  0.89095000  0.61420000  0.14095000  1.0 1.1829124284
Fe  Fe241  1  0.81842000  0.93159000  0.96400000  1.0 1.0043441548
Fe  Fe242  1  0.06841000  0.56842000  0.21400000  1.0 1.0043441548
Fe  Fe243  1  0.81842000  0.81841000  0.28600000  1.0 1.0043441548
Fe  Fe244  1  0.03600000  0.81842000  0.06841000  1.0 1.0043441548
Fe  Fe245  1  0.43158000  0.81841000  0.46400000  1.0 1.0043441548
Fe  Fe246  1  0.18159000  0.56842000  0.53600000  1.0 1.0043441548
Fe  Fe247  1  0.18158000  0.78600000  0.31841000  1.0 1.0043441548
Fe  Fe248  1  0.18159000  0.18158000  0.71400000  1.0 1.0043441548
Fe  Fe249  1  0.43158000  0.93159000  0.78600000  1.0 1.0043441548
Fe  Fe250  1  0.21400000  0.93158000  0.56841000  1.0 1.0043441548
Fe  Fe251  1  0.06841000  0.18158000  0.03600000  1.0 1.0043441548
Fe  Fe252  1  0.06842000  0.96400000  0.81841000  1.0 1.0043441548
Fe  Fe253  1  0.03600000  0.93158000  0.18159000  1.0 1.0043441548
Fe  Fe254  1  0.18158000  0.96400000  0.93159000  1.0 1.0043441548
Fe  Fe255  1  0.21400000  0.81842000  0.68159000  1.0 1.0043441548
Fe  Fe256  1  0.06842000  0.78600000  0.43159000  1.0 1.0043441548
Fe  Fe257  1  0.93159000  0.03600000  0.18158000  1.0 1.0043441548
Fe  Fe258  1  0.28600000  0.06841000  0.93158000  1.0 1.0043441548
Fe  Fe259  1  0.46400000  0.18159000  0.43158000  1.0 1.0043441548
Fe  Fe260  1  0.28600000  0.18159000  0.81842000  1.0 1.0043441548
Fe  Fe261  1  0.43159000  0.21400000  0.06842000  1.0 1.0043441548
Fe  Fe262  1  0.96400000  0.06841000  0.81842000  1.0 1.0043441548
Fe  Fe263  1  0.81841000  0.03600000  0.06842000  1.0 1.0043441548
Fe  Fe264  1  0.31841000  0.21400000  0.18158000  1.0 1.0043441548
Fe  Fe265  1  0.78600000  0.06841000  0.43158000  1.0 1.0043441548
Fe  Fe266  1  0.81842000  0.43159000  0.46400000  1.0 1.0043441548
Fe  Fe267  1  0.06841000  0.06842000  0.71400000  1.0 1.0043441548
Fe  Fe268  1  0.81842000  0.31841000  0.78600000  1.0 1.0043441548
Fe  Fe269  1  0.03600000  0.31842000  0.56841000  1.0 1.0043441548
Fe  Fe270  1  0.43158000  0.31841000  0.96400000  1.0 1.0043441548
Fe  Fe271  1  0.18159000  0.06842000  0.03600000  1.0 1.0043441548
Fe  Fe272  1  0.18158000  0.28600000  0.81841000  1.0 1.0043441548
Fe  Fe273  1  0.18159000  0.68158000  0.21400000  1.0 1.0043441548
Fe  Fe274  1  0.43158000  0.43159000  0.28600000  1.0 1.0043441548
Fe  Fe275  1  0.21400000  0.43158000  0.06841000  1.0 1.0043441548
Fe  Fe276  1  0.06841000  0.68158000  0.53600000  1.0 1.0043441548
Fe  Fe277  1  0.06842000  0.46400000  0.31841000  1.0 1.0043441548
Fe  Fe278  1  0.03600000  0.43158000  0.68159000  1.0 1.0043441548
Fe  Fe279  1  0.18158000  0.46400000  0.43159000  1.0 1.0043441548
Fe  Fe280  1  0.21400000  0.31842000  0.18159000  1.0 1.0043441548
Fe  Fe281  1  0.06842000  0.28600000  0.93159000  1.0 1.0043441548
Fe  Fe282  1  0.93159000  0.53600000  0.68158000  1.0 1.0043441548
Fe  Fe283  1  0.28600000  0.56841000  0.43158000  1.0 1.0043441548
Fe  Fe284  1  0.46400000  0.68159000  0.93158000  1.0 1.0043441548
Fe  Fe285  1  0.28600000  0.68159000  0.31842000  1.0 1.0043441548
Fe  Fe286  1  0.43159000  0.71400000  0.56842000  1.0 1.0043441548
Fe  Fe287  1  0.96400000  0.56841000  0.31842000  1.0 1.0043441548
Fe  Fe288  1  0.81841000  0.53600000  0.56842000  1.0 1.0043441548
Fe  Fe289  1  0.31841000  0.71400000  0.68158000  1.0 1.0043441548
Fe  Fe290  1  0.78600000  0.56841000  0.93158000  1.0 1.0043441548
Fe  Fe291  1  0.31842000  0.93159000  0.46400000  1.0 1.0043441548
Fe  Fe292  1  0.56841000  0.56842000  0.71400000  1.0 1.0043441548
Fe  Fe293  1  0.31842000  0.81841000  0.78600000  1.0 1.0043441548
Fe  Fe294  1  0.53600000  0.81842000  0.56841000  1.0 1.0043441548
Fe  Fe295  1  0.93158000  0.81841000  0.96400000  1.0 1.0043441548
Fe  Fe296  1  0.68159000  0.56842000  0.03600000  1.0 1.0043441548
Fe  Fe297  1  0.68158000  0.78600000  0.81841000  1.0 1.0043441548
Fe  Fe298  1  0.68159000  0.18158000  0.21400000  1.0 1.0043441548
Fe  Fe299  1  0.93158000  0.93159000  0.28600000  1.0 1.0043441548
Fe  Fe300  1  0.71400000  0.93158000  0.06841000  1.0 1.0043441548
Fe  Fe301  1  0.56841000  0.18158000  0.53600000  1.0 1.0043441548
Fe  Fe302  1  0.56842000  0.96400000  0.31841000  1.0 1.0043441548
Fe  Fe303  1  0.53600000  0.93158000  0.68159000  1.0 1.0043441548
Fe  Fe304  1  0.68158000  0.96400000  0.43159000  1.0 1.0043441548
Fe  Fe305  1  0.71400000  0.81842000  0.18159000  1.0 1.0043441548
Fe  Fe306  1  0.56842000  0.78600000  0.93159000  1.0 1.0043441548
Fe  Fe307  1  0.43159000  0.03600000  0.68158000  1.0 1.0043441548
Fe  Fe308  1  0.96400000  0.18159000  0.93158000  1.0 1.0043441548
Fe  Fe309  1  0.78600000  0.18159000  0.31842000  1.0 1.0043441548
Fe  Fe310  1  0.93159000  0.21400000  0.56842000  1.0 1.0043441548
Fe  Fe311  1  0.46400000  0.06841000  0.31842000  1.0 1.0043441548
Fe  Fe312  1  0.31841000  0.03600000  0.56842000  1.0 1.0043441548
Fe  Fe313  1  0.81841000  0.21400000  0.68158000  1.0 1.0043441548
Fe  Fe314  1  0.31842000  0.43159000  0.96400000  1.0 1.0043441548
Fe  Fe315  1  0.56841000  0.06842000  0.21400000  1.0 1.0043441548
Fe  Fe316  1  0.31842000  0.31841000  0.28600000  1.0 1.0043441548
Fe  Fe317  1  0.53600000  0.31842000  0.06841000  1.0 1.0043441548
Fe  Fe318  1  0.93158000  0.31841000  0.46400000  1.0 1.0043441548
Fe  Fe319  1  0.68159000  0.06842000  0.53600000  1.0 1.0043441548
Fe  Fe320  1  0.68158000  0.28600000  0.31841000  1.0 1.0043441548
Fe  Fe321  1  0.68159000  0.68158000  0.71400000  1.0 1.0043441548
Fe  Fe322  1  0.93158000  0.43159000  0.78600000  1.0 1.0043441548
Fe  Fe323  1  0.71400000  0.43158000  0.56841000  1.0 1.0043441548
Fe  Fe324  1  0.56841000  0.68158000  0.03600000  1.0 1.0043441548
Fe  Fe325  1  0.56842000  0.46400000  0.81841000  1.0 1.0043441548
Fe  Fe326  1  0.53600000  0.43158000  0.18159000  1.0 1.0043441548
Fe  Fe327  1  0.68158000  0.46400000  0.93159000  1.0 1.0043441548
Fe  Fe328  1  0.71400000  0.31842000  0.68159000  1.0 1.0043441548
Fe  Fe329  1  0.56842000  0.28600000  0.43159000  1.0 1.0043441548
Fe  Fe330  1  0.43159000  0.53600000  0.18158000  1.0 1.0043441548
Fe  Fe331  1  0.96400000  0.68159000  0.43158000  1.0 1.0043441548
Fe  Fe332  1  0.78600000  0.68159000  0.81842000  1.0 1.0043441548
Fe  Fe333  1  0.93159000  0.71400000  0.06842000  1.0 1.0043441548
Fe  Fe334  1  0.46400000  0.56841000  0.81842000  1.0 1.0043441548
Fe  Fe335  1  0.31841000  0.53600000  0.06842000  1.0 1.0043441548
Fe  Fe336  1  0.81841000  0.71400000  0.18158000  1.0 1.0043441548
Fe  Fe337  1  0.77406000  0.94298000  0.95240000  1.0 1.3080956608
Fe  Fe338  1  0.05702000  0.52406000  0.20240000  1.0 1.3080956608
Fe  Fe339  1  0.77406000  0.80702000  0.29760000  1.0 1.3080956608
Fe  Fe340  1  0.04760000  0.77406000  0.05702000  1.0 1.3080956608
Fe  Fe341  1  0.47594000  0.80702000  0.45240000  1.0 1.3080956608
Fe  Fe342  1  0.19298000  0.52406000  0.54760000  1.0 1.3080956608
Fe  Fe343  1  0.22594000  0.79760000  0.30702000  1.0 1.3080956608
Fe  Fe344  1  0.19298000  0.22594000  0.70240000  1.0 1.3080956608
Fe  Fe345  1  0.47594000  0.94298000  0.79760000  1.0 1.3080956608
Fe  Fe346  1  0.20240000  0.97594000  0.55702000  1.0 1.3080956608
Fe  Fe347  1  0.05702000  0.22594000  0.04760000  1.0 1.3080956608
Fe  Fe348  1  0.02406000  0.95240000  0.80702000  1.0 1.3080956608
Fe  Fe349  1  0.04760000  0.97594000  0.19298000  1.0 1.3080956608
Fe  Fe350  1  0.22594000  0.95240000  0.94298000  1.0 1.3080956608
Fe  Fe351  1  0.20240000  0.77406000  0.69298000  1.0 1.3080956608
Fe  Fe352  1  0.02406000  0.79760000  0.44298000  1.0 1.3080956608
Fe  Fe353  1  0.94298000  0.04760000  0.22594000  1.0 1.3080956608
Fe  Fe354  1  0.29760000  0.05702000  0.97594000  1.0 1.3080956608
Fe  Fe355  1  0.45240000  0.19298000  0.47594000  1.0 1.3080956608
Fe  Fe356  1  0.29760000  0.19298000  0.77406000  1.0 1.3080956608
Fe  Fe357  1  0.44298000  0.20240000  0.02406000  1.0 1.3080956608
Fe  Fe358  1  0.95240000  0.05702000  0.77406000  1.0 1.3080956608
Fe  Fe359  1  0.80702000  0.04760000  0.02406000  1.0 1.3080956608
Fe  Fe360  1  0.30702000  0.20240000  0.22594000  1.0 1.3080956608
Fe  Fe361  1  0.79760000  0.05702000  0.47594000  1.0 1.3080956608
Fe  Fe362  1  0.77406000  0.44298000  0.45240000  1.0 1.3080956608
Fe  Fe363  1  0.05702000  0.02406000  0.70240000  1.0 1.3080956608
Fe  Fe364  1  0.77406000  0.30702000  0.79760000  1.0 1.3080956608
Fe  Fe365  1  0.04760000  0.27406000  0.55702000  1.0 1.3080956608
Fe  Fe366  1  0.47594000  0.30702000  0.95240000  1.0 1.3080956608
Fe  Fe367  1  0.19298000  0.02406000  0.04760000  1.0 1.3080956608
Fe  Fe368  1  0.22594000  0.29760000  0.80702000  1.0 1.3080956608
Fe  Fe369  1  0.19298000  0.72594000  0.20240000  1.0 1.3080956608
Fe  Fe370  1  0.47594000  0.44298000  0.29760000  1.0 1.3080956608
Fe  Fe371  1  0.20240000  0.47594000  0.05702000  1.0 1.3080956608
Fe  Fe372  1  0.05702000  0.72594000  0.54760000  1.0 1.3080956608
Fe  Fe373  1  0.02406000  0.45240000  0.30702000  1.0 1.3080956608
Fe  Fe374  1  0.04760000  0.47594000  0.69298000  1.0 1.3080956608
Fe  Fe375  1  0.22594000  0.45240000  0.44298000  1.0 1.3080956608
Fe  Fe376  1  0.20240000  0.27406000  0.19298000  1.0 1.3080956608
Fe  Fe377  1  0.02406000  0.29760000  0.94298000  1.0 1.3080956608
Fe  Fe378  1  0.94298000  0.54760000  0.72594000  1.0 1.3080956608
Fe  Fe379  1  0.29760000  0.55702000  0.47594000  1.0 1.3080956608
Fe  Fe380  1  0.45240000  0.69298000  0.97594000  1.0 1.3080956608
Fe  Fe381  1  0.29760000  0.69298000  0.27406000  1.0 1.3080956608
Fe  Fe382  1  0.44298000  0.70240000  0.52406000  1.0 1.3080956608
Fe  Fe383  1  0.95240000  0.55702000  0.27406000  1.0 1.3080956608
Fe  Fe384  1  0.80702000  0.54760000  0.52406000  1.0 1.3080956608
Fe  Fe385  1  0.30702000  0.70240000  0.72594000  1.0 1.3080956608
Fe  Fe386  1  0.79760000  0.55702000  0.97594000  1.0 1.3080956608
Fe  Fe387  1  0.27406000  0.94298000  0.45240000  1.0 1.3080956608
Fe  Fe388  1  0.55702000  0.52406000  0.70240000  1.0 1.3080956608
Fe  Fe389  1  0.27406000  0.80702000  0.79760000  1.0 1.3080956608
Fe  Fe390  1  0.54760000  0.77406000  0.55702000  1.0 1.3080956608
Fe  Fe391  1  0.97594000  0.80702000  0.95240000  1.0 1.3080956608
Fe  Fe392  1  0.69298000  0.52406000  0.04760000  1.0 1.3080956608
Fe  Fe393  1  0.72594000  0.79760000  0.80702000  1.0 1.3080956608
Fe  Fe394  1  0.69298000  0.22594000  0.20240000  1.0 1.3080956608
Fe  Fe395  1  0.97594000  0.94298000  0.29760000  1.0 1.3080956608
Fe  Fe396  1  0.70240000  0.97594000  0.05702000  1.0 1.3080956608
Fe  Fe397  1  0.55702000  0.22594000  0.54760000  1.0 1.3080956608
Fe  Fe398  1  0.52406000  0.95240000  0.30702000  1.0 1.3080956608
Fe  Fe399  1  0.54760000  0.97594000  0.69298000  1.0 1.3080956608
Fe  Fe400  1  0.72594000  0.95240000  0.44298000  1.0 1.3080956608
Fe  Fe401  1  0.70240000  0.77406000  0.19298000  1.0 1.3080956608
Fe  Fe402  1  0.52406000  0.79760000  0.94298000  1.0 1.3080956608
Fe  Fe403  1  0.44298000  0.04760000  0.72594000  1.0 1.3080956608
Fe  Fe404  1  0.95240000  0.19298000  0.97594000  1.0 1.3080956608
Fe  Fe405  1  0.79760000  0.19298000  0.27406000  1.0 1.3080956608
Fe  Fe406  1  0.94298000  0.20240000  0.52406000  1.0 1.3080956608
Fe  Fe407  1  0.45240000  0.05702000  0.27406000  1.0 1.3080956608
Fe  Fe408  1  0.30702000  0.04760000  0.52406000  1.0 1.3080956608
Fe  Fe409  1  0.80702000  0.20240000  0.72594000  1.0 1.3080956608
Fe  Fe410  1  0.27406000  0.44298000  0.95240000  1.0 1.3080956608
Fe  Fe411  1  0.55702000  0.02406000  0.20240000  1.0 1.3080956608
Fe  Fe412  1  0.27406000  0.30702000  0.29760000  1.0 1.3080956608
Fe  Fe413  1  0.54760000  0.27406000  0.05702000  1.0 1.3080956608
Fe  Fe414  1  0.97594000  0.30702000  0.45240000  1.0 1.3080956608
Fe  Fe415  1  0.69298000  0.02406000  0.54760000  1.0 1.3080956608
Fe  Fe416  1  0.72594000  0.29760000  0.30702000  1.0 1.3080956608
Fe  Fe417  1  0.69298000  0.72594000  0.70240000  1.0 1.3080956608
Fe  Fe418  1  0.97594000  0.44298000  0.79760000  1.0 1.3080956608
Fe  Fe419  1  0.70240000  0.47594000  0.55702000  1.0 1.3080956608
Fe  Fe420  1  0.55702000  0.72594000  0.04760000  1.0 1.3080956608
Fe  Fe421  1  0.52406000  0.45240000  0.80702000  1.0 1.3080956608
Fe  Fe422  1  0.54760000  0.47594000  0.19298000  1.0 1.3080956608
Fe  Fe423  1  0.72594000  0.45240000  0.94298000  1.0 1.3080956608
Fe  Fe424  1  0.70240000  0.27406000  0.69298000  1.0 1.3080956608
Fe  Fe425  1  0.52406000  0.29760000  0.44298000  1.0 1.3080956608
Fe  Fe426  1  0.44298000  0.54760000  0.22594000  1.0 1.3080956608
Fe  Fe427  1  0.95240000  0.69298000  0.47594000  1.0 1.3080956608
Fe  Fe428  1  0.79760000  0.69298000  0.77406000  1.0 1.3080956608
Fe  Fe429  1  0.94298000  0.70240000  0.02406000  1.0 1.3080956608
Fe  Fe430  1  0.45240000  0.55702000  0.77406000  1.0 1.3080956608
Fe  Fe431  1  0.30702000  0.54760000  0.02406000  1.0 1.3080956608
Fe  Fe432  1  0.80702000  0.70240000  0.22594000  1.0 1.3080956608
Fe  Fe433  1  0.22594000  0.05702000  0.04760000  1.0 1.3080956608
Fe  Fe434  1  0.94298000  0.47594000  0.79760000  1.0 1.3080956608
Fe  Fe435  1  0.22594000  0.19298000  0.70240000  1.0 1.3080956608
Fe  Fe436  1  0.95240000  0.22594000  0.94298000  1.0 1.3080956608
Fe  Fe437  1  0.52406000  0.19298000  0.54760000  1.0 1.3080956608
Fe  Fe438  1  0.80702000  0.47594000  0.45240000  1.0 1.3080956608
Fe  Fe439  1  0.77406000  0.20240000  0.69298000  1.0 1.3080956608
Fe  Fe440  1  0.80702000  0.77406000  0.29760000  1.0 1.3080956608
Fe  Fe441  1  0.52406000  0.05702000  0.20240000  1.0 1.3080956608
Fe  Fe442  1  0.79760000  0.02406000  0.44298000  1.0 1.3080956608
Fe  Fe443  1  0.94298000  0.77406000  0.95240000  1.0 1.3080956608
Fe  Fe444  1  0.97594000  0.04760000  0.19298000  1.0 1.3080956608
Fe  Fe445  1  0.95240000  0.02406000  0.80702000  1.0 1.3080956608
Fe  Fe446  1  0.77406000  0.04760000  0.05702000  1.0 1.3080956608
Fe  Fe447  1  0.79760000  0.22594000  0.30702000  1.0 1.3080956608
Fe  Fe448  1  0.97594000  0.20240000  0.55702000  1.0 1.3080956608
Fe  Fe449  1  0.05702000  0.95240000  0.77406000  1.0 1.3080956608
Fe  Fe450  1  0.70240000  0.94298000  0.02406000  1.0 1.3080956608
Fe  Fe451  1  0.54760000  0.80702000  0.52406000  1.0 1.3080956608
Fe  Fe452  1  0.70240000  0.80702000  0.22594000  1.0 1.3080956608
Fe  Fe453  1  0.55702000  0.79760000  0.97594000  1.0 1.3080956608
Fe  Fe454  1  0.04760000  0.94298000  0.22594000  1.0 1.3080956608
Fe  Fe455  1  0.19298000  0.95240000  0.97594000  1.0 1.3080956608
Fe  Fe456  1  0.69298000  0.79760000  0.77406000  1.0 1.3080956608
Fe  Fe457  1  0.20240000  0.94298000  0.52406000  1.0 1.3080956608
Fe  Fe458  1  0.22594000  0.55702000  0.54760000  1.0 1.3080956608
Fe  Fe459  1  0.94298000  0.97594000  0.29760000  1.0 1.3080956608
Fe  Fe460  1  0.22594000  0.69298000  0.20240000  1.0 1.3080956608
Fe  Fe461  1  0.95240000  0.72594000  0.44298000  1.0 1.3080956608
Fe  Fe462  1  0.52406000  0.69298000  0.04760000  1.0 1.3080956608
Fe  Fe463  1  0.80702000  0.97594000  0.95240000  1.0 1.3080956608
Fe  Fe464  1  0.77406000  0.70240000  0.19298000  1.0 1.3080956608
Fe  Fe465  1  0.80702000  0.27406000  0.79760000  1.0 1.3080956608
Fe  Fe466  1  0.52406000  0.55702000  0.70240000  1.0 1.3080956608
Fe  Fe467  1  0.79760000  0.52406000  0.94298000  1.0 1.3080956608
Fe  Fe468  1  0.94298000  0.27406000  0.45240000  1.0 1.3080956608
Fe  Fe469  1  0.97594000  0.54760000  0.69298000  1.0 1.3080956608
Fe  Fe470  1  0.95240000  0.52406000  0.30702000  1.0 1.3080956608
Fe  Fe471  1  0.77406000  0.54760000  0.55702000  1.0 1.3080956608
Fe  Fe472  1  0.79760000  0.72594000  0.80702000  1.0 1.3080956608
Fe  Fe473  1  0.97594000  0.70240000  0.05702000  1.0 1.3080956608
Fe  Fe474  1  0.05702000  0.45240000  0.27406000  1.0 1.3080956608
Fe  Fe475  1  0.70240000  0.44298000  0.52406000  1.0 1.3080956608
Fe  Fe476  1  0.54760000  0.30702000  0.02406000  1.0 1.3080956608
Fe  Fe477  1  0.70240000  0.30702000  0.72594000  1.0 1.3080956608
Fe  Fe478  1  0.55702000  0.29760000  0.47594000  1.0 1.3080956608
Fe  Fe479  1  0.04760000  0.44298000  0.72594000  1.0 1.3080956608
Fe  Fe480  1  0.19298000  0.45240000  0.47594000  1.0 1.3080956608
Fe  Fe481  1  0.69298000  0.29760000  0.27406000  1.0 1.3080956608
Fe  Fe482  1  0.20240000  0.44298000  0.02406000  1.0 1.3080956608
Fe  Fe483  1  0.72594000  0.05702000  0.54760000  1.0 1.3080956608
Fe  Fe484  1  0.44298000  0.47594000  0.29760000  1.0 1.3080956608
Fe  Fe485  1  0.72594000  0.19298000  0.20240000  1.0 1.3080956608
Fe  Fe486  1  0.45240000  0.22594000  0.44298000  1.0 1.3080956608
Fe  Fe487  1  0.02406000  0.19298000  0.04760000  1.0 1.3080956608
Fe  Fe488  1  0.30702000  0.47594000  0.95240000  1.0 1.3080956608
Fe  Fe489  1  0.27406000  0.20240000  0.19298000  1.0 1.3080956608
Fe  Fe490  1  0.30702000  0.77406000  0.79760000  1.0 1.3080956608
Fe  Fe491  1  0.02406000  0.05702000  0.70240000  1.0 1.3080956608
Fe  Fe492  1  0.29760000  0.02406000  0.94298000  1.0 1.3080956608
Fe  Fe493  1  0.44298000  0.77406000  0.45240000  1.0 1.3080956608
Fe  Fe494  1  0.47594000  0.04760000  0.69298000  1.0 1.3080956608
Fe  Fe495  1  0.45240000  0.02406000  0.30702000  1.0 1.3080956608
Fe  Fe496  1  0.27406000  0.04760000  0.55702000  1.0 1.3080956608
Fe  Fe497  1  0.29760000  0.22594000  0.80702000  1.0 1.3080956608
Fe  Fe498  1  0.47594000  0.20240000  0.05702000  1.0 1.3080956608
Fe  Fe499  1  0.55702000  0.95240000  0.27406000  1.0 1.3080956608
Fe  Fe500  1  0.04760000  0.80702000  0.02406000  1.0 1.3080956608
Fe  Fe501  1  0.20240000  0.80702000  0.72594000  1.0 1.3080956608
Fe  Fe502  1  0.05702000  0.79760000  0.47594000  1.0 1.3080956608
Fe  Fe503  1  0.54760000  0.94298000  0.72594000  1.0 1.3080956608
Fe  Fe504  1  0.69298000  0.95240000  0.47594000  1.0 1.3080956608
Fe  Fe505  1  0.19298000  0.79760000  0.27406000  1.0 1.3080956608
Fe  Fe506  1  0.72594000  0.55702000  0.04760000  1.0 1.3080956608
Fe  Fe507  1  0.44298000  0.97594000  0.79760000  1.0 1.3080956608
Fe  Fe508  1  0.72594000  0.69298000  0.70240000  1.0 1.3080956608
Fe  Fe509  1  0.45240000  0.72594000  0.94298000  1.0 1.3080956608
Fe  Fe510  1  0.02406000  0.69298000  0.54760000  1.0 1.3080956608
Fe  Fe511  1  0.30702000  0.97594000  0.45240000  1.0 1.3080956608
Fe  Fe512  1  0.27406000  0.70240000  0.69298000  1.0 1.3080956608
Fe  Fe513  1  0.30702000  0.27406000  0.29760000  1.0 1.3080956608
Fe  Fe514  1  0.02406000  0.55702000  0.20240000  1.0 1.3080956608
Fe  Fe515  1  0.29760000  0.52406000  0.44298000  1.0 1.3080956608
Fe  Fe516  1  0.44298000  0.27406000  0.95240000  1.0 1.3080956608
Fe  Fe517  1  0.47594000  0.54760000  0.19298000  1.0 1.3080956608
Fe  Fe518  1  0.45240000  0.52406000  0.80702000  1.0 1.3080956608
Fe  Fe519  1  0.27406000  0.54760000  0.05702000  1.0 1.3080956608
Fe  Fe520  1  0.29760000  0.72594000  0.30702000  1.0 1.3080956608
Fe  Fe521  1  0.47594000  0.70240000  0.55702000  1.0 1.3080956608
Fe  Fe522  1  0.55702000  0.45240000  0.77406000  1.0 1.3080956608
Fe  Fe523  1  0.04760000  0.30702000  0.52406000  1.0 1.3080956608
Fe  Fe524  1  0.20240000  0.30702000  0.22594000  1.0 1.3080956608
Fe  Fe525  1  0.05702000  0.29760000  0.97594000  1.0 1.3080956608
Fe  Fe526  1  0.54760000  0.44298000  0.22594000  1.0 1.3080956608
Fe  Fe527  1  0.69298000  0.45240000  0.97594000  1.0 1.3080956608
Fe  Fe528  1  0.19298000  0.29760000  0.77406000  1.0 1.3080956608
Fe  Fe529  1  0.92388000  0.75000000  0.82612000  1.0 1.2392801587
Fe  Fe530  1  0.25000000  0.67388000  0.07612000  1.0 1.2392801587
Fe  Fe531  1  0.92388000  0.00000000  0.42388000  1.0 1.2392801587
Fe  Fe532  1  0.17388000  0.92388000  0.25000000  1.0 1.2392801587
Fe  Fe533  1  0.32612000  0.00000000  0.32612000  1.0 1.2392801587
Fe  Fe534  1  0.00000000  0.67388000  0.67388000  1.0 1.2392801587
Fe  Fe535  1  0.07612000  0.92388000  0.50000000  1.0 1.2392801587
Fe  Fe536  1  0.00000000  0.07612000  0.57612000  1.0 1.2392801587
Fe  Fe537  1  0.32612000  0.75000000  0.92388000  1.0 1.2392801587
Fe  Fe538  1  0.07612000  0.82612000  0.75000000  1.0 1.2392801587
Fe  Fe539  1  0.25000000  0.07612000  0.17388000  1.0 1.2392801587
Fe  Fe540  1  0.17388000  0.82612000  0.00000000  1.0 1.2392801587
Fe  Fe541  1  0.75000000  0.17388000  0.07612000  1.0 1.2392801587
Fe  Fe542  1  0.42388000  0.25000000  0.82612000  1.0 1.2392801587
Fe  Fe543  1  0.42388000  0.00000000  0.92388000  1.0 1.2392801587
Fe  Fe544  1  0.82612000  0.25000000  0.92388000  1.0 1.2392801587
Fe  Fe545  1  0.00000000  0.17388000  0.17388000  1.0 1.2392801587
Fe  Fe546  1  0.50000000  0.07612000  0.07612000  1.0 1.2392801587
Fe  Fe547  1  0.92388000  0.25000000  0.32612000  1.0 1.2392801587
Fe  Fe548  1  0.25000000  0.17388000  0.57612000  1.0 1.2392801587
Fe  Fe549  1  0.92388000  0.50000000  0.92388000  1.0 1.2392801587
Fe  Fe550  1  0.17388000  0.42388000  0.75000000  1.0 1.2392801587
Fe  Fe551  1  0.32612000  0.50000000  0.82612000  1.0 1.2392801587
Fe  Fe552  1  0.07612000  0.42388000  0.00000000  1.0 1.2392801587
Fe  Fe553  1  0.00000000  0.57612000  0.07612000  1.0 1.2392801587
Fe  Fe554  1  0.32612000  0.25000000  0.42388000  1.0 1.2392801587
Fe  Fe555  1  0.07612000  0.32612000  0.25000000  1.0 1.2392801587
Fe  Fe556  1  0.25000000  0.57612000  0.67388000  1.0 1.2392801587
Fe  Fe557  1  0.17388000  0.32612000  0.50000000  1.0 1.2392801587
Fe  Fe558  1  0.75000000  0.67388000  0.57612000  1.0 1.2392801587
Fe  Fe559  1  0.42388000  0.75000000  0.32612000  1.0 1.2392801587
Fe  Fe560  1  0.42388000  0.50000000  0.42388000  1.0 1.2392801587
Fe  Fe561  1  0.82612000  0.75000000  0.42388000  1.0 1.2392801587
Fe  Fe562  1  0.50000000  0.57612000  0.57612000  1.0 1.2392801587
Fe  Fe563  1  0.67388000  0.92388000  0.75000000  1.0 1.2392801587
Fe  Fe564  1  0.82612000  0.00000000  0.82612000  1.0 1.2392801587
Fe  Fe565  1  0.50000000  0.67388000  0.17388000  1.0 1.2392801587
Fe  Fe566  1  0.57612000  0.92388000  0.00000000  1.0 1.2392801587
Fe  Fe567  1  0.57612000  0.82612000  0.25000000  1.0 1.2392801587
Fe  Fe568  1  0.75000000  0.07612000  0.67388000  1.0 1.2392801587
Fe  Fe569  1  0.67388000  0.82612000  0.50000000  1.0 1.2392801587
Fe  Fe570  1  0.50000000  0.17388000  0.67388000  1.0 1.2392801587
Fe  Fe571  1  0.67388000  0.42388000  0.25000000  1.0 1.2392801587
Fe  Fe572  1  0.82612000  0.50000000  0.32612000  1.0 1.2392801587
Fe  Fe573  1  0.57612000  0.42388000  0.50000000  1.0 1.2392801587
Fe  Fe574  1  0.57612000  0.32612000  0.75000000  1.0 1.2392801587
Fe  Fe575  1  0.75000000  0.57612000  0.17388000  1.0 1.2392801587
Fe  Fe576  1  0.67388000  0.32612000  0.00000000  1.0 1.2392801587
Fe  Fe577  1  0.07612000  0.25000000  0.17388000  1.0 1.2392801587
Fe  Fe578  1  0.75000000  0.32612000  0.92388000  1.0 1.2392801587
Fe  Fe579  1  0.07612000  0.00000000  0.57612000  1.0 1.2392801587
Fe  Fe580  1  0.82612000  0.07612000  0.75000000  1.0 1.2392801587
Fe  Fe581  1  0.67388000  0.00000000  0.67388000  1.0 1.2392801587
Fe  Fe582  1  0.00000000  0.32612000  0.32612000  1.0 1.2392801587
Fe  Fe583  1  0.92388000  0.07612000  0.50000000  1.0 1.2392801587
Fe  Fe584  1  0.00000000  0.92388000  0.42388000  1.0 1.2392801587
Fe  Fe585  1  0.67388000  0.25000000  0.07612000  1.0 1.2392801587
Fe  Fe586  1  0.92388000  0.17388000  0.25000000  1.0 1.2392801587
Fe  Fe587  1  0.75000000  0.92388000  0.82612000  1.0 1.2392801587
Fe  Fe588  1  0.82612000  0.17388000  0.00000000  1.0 1.2392801587
Fe  Fe589  1  0.25000000  0.82612000  0.92388000  1.0 1.2392801587
Fe  Fe590  1  0.57612000  0.75000000  0.17388000  1.0 1.2392801587
Fe  Fe591  1  0.57612000  0.00000000  0.07612000  1.0 1.2392801587
Fe  Fe592  1  0.17388000  0.75000000  0.07612000  1.0 1.2392801587
Fe  Fe593  1  0.00000000  0.82612000  0.82612000  1.0 1.2392801587
Fe  Fe594  1  0.50000000  0.92388000  0.92388000  1.0 1.2392801587
Fe  Fe595  1  0.07612000  0.75000000  0.67388000  1.0 1.2392801587
Fe  Fe596  1  0.75000000  0.82612000  0.42388000  1.0 1.2392801587
Fe  Fe597  1  0.07612000  0.50000000  0.07612000  1.0 1.2392801587
Fe  Fe598  1  0.82612000  0.57612000  0.25000000  1.0 1.2392801587
Fe  Fe599  1  0.67388000  0.50000000  0.17388000  1.0 1.2392801587
Fe  Fe600  1  0.92388000  0.57612000  0.00000000  1.0 1.2392801587
Fe  Fe601  1  0.00000000  0.42388000  0.92388000  1.0 1.2392801587
Fe  Fe602  1  0.67388000  0.75000000  0.57612000  1.0 1.2392801587
Fe  Fe603  1  0.92388000  0.67388000  0.75000000  1.0 1.2392801587
Fe  Fe604  1  0.75000000  0.42388000  0.32612000  1.0 1.2392801587
Fe  Fe605  1  0.82612000  0.67388000  0.50000000  1.0 1.2392801587
Fe  Fe606  1  0.25000000  0.32612000  0.42388000  1.0 1.2392801587
Fe  Fe607  1  0.57612000  0.25000000  0.67388000  1.0 1.2392801587
Fe  Fe608  1  0.57612000  0.50000000  0.57612000  1.0 1.2392801587
Fe  Fe609  1  0.17388000  0.25000000  0.57612000  1.0 1.2392801587
Fe  Fe610  1  0.50000000  0.42388000  0.42388000  1.0 1.2392801587
Fe  Fe611  1  0.32612000  0.07612000  0.25000000  1.0 1.2392801587
Fe  Fe612  1  0.17388000  0.00000000  0.17388000  1.0 1.2392801587
Fe  Fe613  1  0.50000000  0.32612000  0.82612000  1.0 1.2392801587
Fe  Fe614  1  0.42388000  0.07612000  0.00000000  1.0 1.2392801587
Fe  Fe615  1  0.42388000  0.17388000  0.75000000  1.0 1.2392801587
Fe  Fe616  1  0.25000000  0.92388000  0.32612000  1.0 1.2392801587
Fe  Fe617  1  0.32612000  0.17388000  0.50000000  1.0 1.2392801587
Fe  Fe618  1  0.50000000  0.82612000  0.32612000  1.0 1.2392801587
Fe  Fe619  1  0.32612000  0.57612000  0.75000000  1.0 1.2392801587
Fe  Fe620  1  0.17388000  0.50000000  0.67388000  1.0 1.2392801587
Fe  Fe621  1  0.42388000  0.57612000  0.50000000  1.0 1.2392801587
Fe  Fe622  1  0.42388000  0.67388000  0.25000000  1.0 1.2392801587
Fe  Fe623  1  0.25000000  0.42388000  0.82612000  1.0 1.2392801587
Fe  Fe624  1  0.32612000  0.67388000  0.00000000  1.0 1.2392801587
Fe  Fe625  1  0.91078000  0.73657000  0.86708000  1.0 1.1829124284
Fe  Fe626  1  0.26343000  0.66078000  0.11708000  1.0 1.1829124284
Fe  Fe627  1  0.91078000  0.01343000  0.38292000  1.0 1.1829124284
Fe  Fe628  1  0.13292000  0.91078000  0.26343000  1.0 1.1829124284
Fe  Fe629  1  0.33922000  0.01343000  0.36708000  1.0 1.1829124284
Fe  Fe630  1  0.98657000  0.66078000  0.63292000  1.0 1.1829124284
Fe  Fe631  1  0.08922000  0.88292000  0.51343000  1.0 1.1829124284
Fe  Fe632  1  0.98657000  0.08922000  0.61708000  1.0 1.1829124284
Fe  Fe633  1  0.33922000  0.73657000  0.88292000  1.0 1.1829124284
Fe  Fe634  1  0.11708000  0.83922000  0.76343000  1.0 1.1829124284
Fe  Fe635  1  0.26343000  0.08922000  0.13292000  1.0 1.1829124284
Fe  Fe636  1  0.16078000  0.86708000  0.01343000  1.0 1.1852474915
Fe  Fe637  1  0.13292000  0.83922000  0.98657000  1.0 1.1829124284
Fe  Fe638  1  0.08922000  0.86708000  0.73657000  1.0 1.1829124284
Fe  Fe639  1  0.11708000  0.91078000  0.48657000  1.0 1.1829124284
Fe  Fe640  1  0.16078000  0.88292000  0.23657000  1.0 1.1829124284
Fe  Fe641  1  0.73657000  0.13292000  0.08922000  1.0 1.1829124284
Fe  Fe642  1  0.38292000  0.26343000  0.83922000  1.0 1.1829124284
Fe  Fe643  1  0.36708000  0.98657000  0.33922000  1.0 1.1829124284
Fe  Fe644  1  0.38292000  0.98657000  0.91078000  1.0 1.1829124284
Fe  Fe645  1  0.23657000  0.11708000  0.16078000  1.0 1.1829124284
Fe  Fe646  1  0.86708000  0.26343000  0.91078000  1.0 1.1829124284
Fe  Fe647  1  0.01343000  0.13292000  0.16078000  1.0 1.1829124284
Fe  Fe648  1  0.51343000  0.11708000  0.08922000  1.0 1.1829124284
Fe  Fe649  1  0.88292000  0.26343000  0.33922000  1.0 1.1829124284
Fe  Fe650  1  0.91078000  0.23657000  0.36708000  1.0 1.1829124284
Fe  Fe651  1  0.26343000  0.16078000  0.61708000  1.0 1.1829124284
Fe  Fe652  1  0.91078000  0.51343000  0.88292000  1.0 1.1829124284
Fe  Fe653  1  0.13292000  0.41078000  0.76343000  1.0 1.1829124284
Fe  Fe654  1  0.33922000  0.51343000  0.86708000  1.0 1.1829124284
Fe  Fe655  1  0.98657000  0.16078000  0.13292000  1.0 1.1829124284
Fe  Fe656  1  0.08922000  0.38292000  0.01343000  1.0 1.1829124284
Fe  Fe657  1  0.98657000  0.58922000  0.11708000  1.0 1.1829124284
Fe  Fe658  1  0.33922000  0.23657000  0.38292000  1.0 1.1829124284
Fe  Fe659  1  0.11708000  0.33922000  0.26343000  1.0 1.1829124284
Fe  Fe660  1  0.26343000  0.58922000  0.63292000  1.0 1.1829124284
Fe  Fe661  1  0.16078000  0.36708000  0.51343000  1.0 1.1829124284
Fe  Fe662  1  0.13292000  0.33922000  0.48657000  1.0 1.1829124284
Fe  Fe663  1  0.08922000  0.36708000  0.23657000  1.0 1.1829124284
Fe  Fe664  1  0.11708000  0.41078000  0.98657000  1.0 1.1829124284
Fe  Fe665  1  0.16078000  0.38292000  0.73657000  1.0 1.1829124284
Fe  Fe666  1  0.73657000  0.63292000  0.58922000  1.0 1.1829124284
Fe  Fe667  1  0.38292000  0.76343000  0.33922000  1.0 1.1829124284
Fe  Fe668  1  0.36708000  0.48657000  0.83922000  1.0 1.1829124284
Fe  Fe669  1  0.38292000  0.48657000  0.41078000  1.0 1.1829124284
Fe  Fe670  1  0.23657000  0.61708000  0.66078000  1.0 1.1829124284
Fe  Fe671  1  0.86708000  0.76343000  0.41078000  1.0 1.1829124284
Fe  Fe672  1  0.01343000  0.63292000  0.66078000  1.0 1.1829124284
Fe  Fe673  1  0.51343000  0.61708000  0.58922000  1.0 1.1829124284
Fe  Fe674  1  0.88292000  0.76343000  0.83922000  1.0 1.1829124284
Fe  Fe675  1  0.41078000  0.73657000  0.36708000  1.0 1.1829124284
Fe  Fe676  1  0.76343000  0.66078000  0.61708000  1.0 1.1829124284
Fe  Fe677  1  0.41078000  0.01343000  0.88292000  1.0 1.1829124284
Fe  Fe678  1  0.63292000  0.91078000  0.76343000  1.0 1.1829124284
Fe  Fe679  1  0.83922000  0.01343000  0.86708000  1.0 1.1829124284
Fe  Fe680  1  0.48657000  0.66078000  0.13292000  1.0 1.1829124284
Fe  Fe681  1  0.58922000  0.88292000  0.01343000  1.0 1.1829124284
Fe  Fe682  1  0.48657000  0.08922000  0.11708000  1.0 1.1829124284
Fe  Fe683  1  0.83922000  0.73657000  0.38292000  1.0 1.1829124284
Fe  Fe684  1  0.61708000  0.83922000  0.26343000  1.0 1.1829124284
Fe  Fe685  1  0.76343000  0.08922000  0.63292000  1.0 1.1829124284
Fe  Fe686  1  0.66078000  0.86708000  0.51343000  1.0 1.1829124284
Fe  Fe687  1  0.63292000  0.83922000  0.48657000  1.0 1.1829124284
Fe  Fe688  1  0.58922000  0.86708000  0.23657000  1.0 1.1829124284
Fe  Fe689  1  0.61708000  0.91078000  0.98657000  1.0 1.1829124284
Fe  Fe690  1  0.66078000  0.88292000  0.73657000  1.0 1.1829124284
Fe  Fe691  1  0.23657000  0.13292000  0.58922000  1.0 1.1829124284
Fe  Fe692  1  0.86708000  0.98657000  0.83922000  1.0 1.1829124284
Fe  Fe693  1  0.88292000  0.98657000  0.41078000  1.0 1.1829124284
Fe  Fe694  1  0.73657000  0.11708000  0.66078000  1.0 1.1829124284
Fe  Fe695  1  0.36708000  0.26343000  0.41078000  1.0 1.1829124284
Fe  Fe696  1  0.51343000  0.13292000  0.66078000  1.0 1.1829124284
Fe  Fe697  1  0.01343000  0.11708000  0.58922000  1.0 1.1829124284
Fe  Fe698  1  0.41078000  0.23657000  0.86708000  1.0 1.1829124284
Fe  Fe699  1  0.76343000  0.16078000  0.11708000  1.0 1.1829124284
Fe  Fe700  1  0.41078000  0.51343000  0.38292000  1.0 1.1829124284
Fe  Fe701  1  0.63292000  0.41078000  0.26343000  1.0 1.1829124284
Fe  Fe702  1  0.83922000  0.51343000  0.36708000  1.0 1.1829124284
Fe  Fe703  1  0.48657000  0.16078000  0.63292000  1.0 1.1829124284
Fe  Fe704  1  0.58922000  0.38292000  0.51343000  1.0 1.1829124284
Fe  Fe705  1  0.48657000  0.58922000  0.61708000  1.0 1.1829124284
Fe  Fe706  1  0.83922000  0.23657000  0.88292000  1.0 1.1829124284
Fe  Fe707  1  0.61708000  0.33922000  0.76343000  1.0 1.1829124284
Fe  Fe708  1  0.76343000  0.58922000  0.13292000  1.0 1.1829124284
Fe  Fe709  1  0.66078000  0.36708000  0.01343000  1.0 1.1829124284
Fe  Fe710  1  0.63292000  0.33922000  0.98657000  1.0 1.1829124284
Fe  Fe711  1  0.58922000  0.36708000  0.73657000  1.0 1.1829124284
Fe  Fe712  1  0.61708000  0.41078000  0.48657000  1.0 1.1829124284
Fe  Fe713  1  0.66078000  0.38292000  0.23657000  1.0 1.1829124284
Fe  Fe714  1  0.23657000  0.63292000  0.08922000  1.0 1.1829124284
Fe  Fe715  1  0.86708000  0.48657000  0.33922000  1.0 1.1829124284
Fe  Fe716  1  0.88292000  0.48657000  0.91078000  1.0 1.1829124284
Fe  Fe717  1  0.73657000  0.61708000  0.16078000  1.0 1.1829124284
Fe  Fe718  1  0.36708000  0.76343000  0.91078000  1.0 1.1829124284
Fe  Fe719  1  0.51343000  0.63292000  0.16078000  1.0 1.1829124284
Fe  Fe720  1  0.01343000  0.61708000  0.08922000  1.0 1.1852474915
Fe  Fe721  1  0.08922000  0.26343000  0.13292000  1.0 1.1829124284
Fe  Fe722  1  0.73657000  0.33922000  0.88292000  1.0 1.1829124284
Fe  Fe723  1  0.08922000  0.98657000  0.61708000  1.0 1.1829124284
Fe  Fe724  1  0.86708000  0.08922000  0.73657000  1.0 1.1829124284
Fe  Fe725  1  0.66078000  0.98657000  0.63292000  1.0 1.1829124284
Fe  Fe726  1  0.01343000  0.33922000  0.36708000  1.0 1.1829124284
Fe  Fe727  1  0.91078000  0.11708000  0.48657000  1.0 1.1829124284
Fe  Fe728  1  0.01343000  0.91078000  0.38292000  1.0 1.1829124284
Fe  Fe729  1  0.66078000  0.26343000  0.11708000  1.0 1.1829124284
Fe  Fe730  1  0.88292000  0.16078000  0.23657000  1.0 1.1829124284
Fe  Fe731  1  0.73657000  0.91078000  0.86708000  1.0 1.1829124284
Fe  Fe732  1  0.83922000  0.13292000  0.98657000  1.0 1.1829124284
Fe  Fe733  1  0.86708000  0.16078000  0.01343000  1.0 1.1829124284
Fe  Fe734  1  0.91078000  0.13292000  0.26343000  1.0 1.1829124284
Fe  Fe735  1  0.88292000  0.08922000  0.51343000  1.0 1.1829124284
Fe  Fe736  1  0.83922000  0.11708000  0.76343000  1.0 1.1829124284
Fe  Fe737  1  0.26343000  0.86708000  0.91078000  1.0 1.1829124284
Fe  Fe738  1  0.61708000  0.73657000  0.16078000  1.0 1.1829124284
Fe  Fe739  1  0.63292000  0.01343000  0.66078000  1.0 1.1829124284
Fe  Fe740  1  0.61708000  0.01343000  0.08922000  1.0 1.1829124284
Fe  Fe741  1  0.76343000  0.88292000  0.83922000  1.0 1.1829124284
Fe  Fe742  1  0.13292000  0.73657000  0.08922000  1.0 1.1829124284
Fe  Fe743  1  0.98657000  0.86708000  0.83922000  1.0 1.1829124284
Fe  Fe744  1  0.48657000  0.88292000  0.91078000  1.0 1.1829124284
Fe  Fe745  1  0.11708000  0.73657000  0.66078000  1.0 1.1829124284
Fe  Fe746  1  0.08922000  0.76343000  0.63292000  1.0 1.1829124284
Fe  Fe747  1  0.73657000  0.83922000  0.38292000  1.0 1.1829124284
Fe  Fe748  1  0.08922000  0.48657000  0.11708000  1.0 1.1829124284
Fe  Fe749  1  0.86708000  0.58922000  0.23657000  1.0 1.1829124284
Fe  Fe750  1  0.66078000  0.48657000  0.13292000  1.0 1.1829124284
Fe  Fe751  1  0.01343000  0.83922000  0.86708000  1.0 1.1829124284
Fe  Fe752  1  0.91078000  0.61708000  0.98657000  1.0 1.1829124284
Fe  Fe753  1  0.01343000  0.41078000  0.88292000  1.0 1.1829124284
Fe  Fe754  1  0.66078000  0.76343000  0.61708000  1.0 1.1829124284
Fe  Fe755  1  0.88292000  0.66078000  0.73657000  1.0 1.1829124284
Fe  Fe756  1  0.73657000  0.41078000  0.36708000  1.0 1.1829124284
Fe  Fe757  1  0.83922000  0.63292000  0.48657000  1.0 1.1829124284
Fe  Fe758  1  0.86708000  0.66078000  0.51343000  1.0 1.1829124284
Fe  Fe759  1  0.91078000  0.63292000  0.76343000  1.0 1.1829124284
Fe  Fe760  1  0.88292000  0.58922000  0.01343000  1.0 1.1829124284
Fe  Fe761  1  0.83922000  0.61708000  0.26343000  1.0 1.1829124284
Fe  Fe762  1  0.26343000  0.36708000  0.41078000  1.0 1.1829124284
Fe  Fe763  1  0.61708000  0.23657000  0.66078000  1.0 1.1829124284
Fe  Fe764  1  0.63292000  0.51343000  0.16078000  1.0 1.1829124284
Fe  Fe765  1  0.61708000  0.51343000  0.58922000  1.0 1.1829124284
Fe  Fe766  1  0.76343000  0.38292000  0.33922000  1.0 1.1829124284
Fe  Fe767  1  0.13292000  0.23657000  0.58922000  1.0 1.1829124284
Fe  Fe768  1  0.98657000  0.36708000  0.33922000  1.0 1.1829124284
Fe  Fe769  1  0.48657000  0.38292000  0.41078000  1.0 1.1829124284
Fe  Fe770  1  0.11708000  0.23657000  0.16078000  1.0 1.1829124284
Fe  Fe771  1  0.58922000  0.26343000  0.63292000  1.0 1.1829124284
Fe  Fe772  1  0.23657000  0.33922000  0.38292000  1.0 1.1829124284
Fe  Fe773  1  0.58922000  0.98657000  0.11708000  1.0 1.1852474915
Fe  Fe774  1  0.36708000  0.08922000  0.23657000  1.0 1.1829124284
Fe  Fe775  1  0.16078000  0.98657000  0.13292000  1.0 1.1852474915
Fe  Fe776  1  0.51343000  0.33922000  0.86708000  1.0 1.1829124284
Fe  Fe777  1  0.41078000  0.11708000  0.98657000  1.0 1.1829124284
Fe  Fe778  1  0.51343000  0.91078000  0.88292000  1.0 1.1829124284
Fe  Fe779  1  0.16078000  0.26343000  0.61708000  1.0 1.1829124284
Fe  Fe780  1  0.38292000  0.16078000  0.73657000  1.0 1.1829124284
Fe  Fe781  1  0.23657000  0.91078000  0.36708000  1.0 1.1829124284
Fe  Fe782  1  0.33922000  0.13292000  0.48657000  1.0 1.1829124284
Fe  Fe783  1  0.36708000  0.16078000  0.51343000  1.0 1.1829124284
Fe  Fe784  1  0.41078000  0.13292000  0.76343000  1.0 1.1829124284
Fe  Fe785  1  0.38292000  0.08922000  0.01343000  1.0 1.1829124284
Fe  Fe786  1  0.33922000  0.11708000  0.26343000  1.0 1.1829124284
Fe  Fe787  1  0.76343000  0.86708000  0.41078000  1.0 1.1829124284
Fe  Fe788  1  0.13292000  0.01343000  0.16078000  1.0 1.1829124284
Fe  Fe789  1  0.11708000  0.01343000  0.58922000  1.0 1.1829124284
Fe  Fe790  1  0.26343000  0.88292000  0.33922000  1.0 1.1829124284
Fe  Fe791  1  0.63292000  0.73657000  0.58922000  1.0 1.1829124284
Fe  Fe792  1  0.48657000  0.86708000  0.33922000  1.0 1.1829124284
Fe  Fe793  1  0.98657000  0.88292000  0.41078000  1.0 1.1829124284
Fe  Fe794  1  0.58922000  0.76343000  0.13292000  1.0 1.1829124284
Fe  Fe795  1  0.23657000  0.83922000  0.88292000  1.0 1.1829124284
Fe  Fe796  1  0.58922000  0.48657000  0.61708000  1.0 1.1829124284
Fe  Fe797  1  0.36708000  0.58922000  0.73657000  1.0 1.1829124284
Fe  Fe798  1  0.16078000  0.48657000  0.63292000  1.0 1.1829124284
Fe  Fe799  1  0.51343000  0.83922000  0.36708000  1.0 1.1829124284
Fe  Fe800  1  0.41078000  0.61708000  0.48657000  1.0 1.1829124284
Fe  Fe801  1  0.51343000  0.41078000  0.38292000  1.0 1.1829124284
Fe  Fe802  1  0.16078000  0.76343000  0.11708000  1.0 1.1852474915
Fe  Fe803  1  0.38292000  0.66078000  0.23657000  1.0 1.1829124284
Fe  Fe804  1  0.23657000  0.41078000  0.86708000  1.0 1.1829124284
Fe  Fe805  1  0.33922000  0.63292000  0.98657000  1.0 1.1829124284
Fe  Fe806  1  0.36708000  0.66078000  0.01343000  1.0 1.1829124284
Fe  Fe807  1  0.41078000  0.63292000  0.26343000  1.0 1.1829124284
Fe  Fe808  1  0.38292000  0.58922000  0.51343000  1.0 1.1829124284
Fe  Fe809  1  0.33922000  0.61708000  0.76343000  1.0 1.1829124284
Fe  Fe810  1  0.76343000  0.36708000  0.91078000  1.0 1.1829124284
Fe  Fe811  1  0.13292000  0.51343000  0.66078000  1.0 1.1829124284
Fe  Fe812  1  0.11708000  0.51343000  0.08922000  1.0 1.1829124284
Fe  Fe813  1  0.26343000  0.38292000  0.83922000  1.0 1.1829124284
Fe  Fe814  1  0.63292000  0.23657000  0.08922000  1.0 1.1829124284
Fe  Fe815  1  0.48657000  0.36708000  0.83922000  1.0 1.1829124284
Fe  Fe816  1  0.98657000  0.38292000  0.91078000  1.0 1.1829124284
C  C1  1  0.75780000  0.99220000  0.98350000  1.0 -0.1812128888
C  C2  1  0.00780000  0.50780000  0.23350000  1.0 -0.1812128888
C  C3  1  0.75780000  0.75780000  0.26650000  1.0 -0.1812128888
C  C4  1  0.01650000  0.75780000  0.00780000  1.0 -0.1812128888
C  C5  1  0.49220000  0.75780000  0.48350000  1.0 -0.1812128888
C  C6  1  0.24220000  0.50780000  0.51650000  1.0 -0.1812128888
C  C7  1  0.24220000  0.76650000  0.25780000  1.0 -0.1812128888
C  C8  1  0.24220000  0.24220000  0.73350000  1.0 -0.1812128888
C  C9  1  0.49220000  0.99220000  0.76650000  1.0 -0.1812128888
C  C10  1  0.23350000  0.99220000  0.50780000  1.0 -0.1812128888
C  C11  1  0.00780000  0.24220000  0.01650000  1.0 -0.1812128888
C  C12  1  0.00780000  0.98350000  0.75780000  1.0 -0.1812128888
C  C13  1  0.01650000  0.99220000  0.24220000  1.0 -0.1812128888
C  C14  1  0.24220000  0.98350000  0.99220000  1.0 -0.1812128888
C  C15  1  0.23350000  0.75780000  0.74220000  1.0 -0.1812128888
C  C16  1  0.00780000  0.76650000  0.49220000  1.0 -0.1812128888
C  C17  1  0.99220000  0.01650000  0.24220000  1.0 -0.1812128888
C  C18  1  0.26650000  0.00780000  0.99220000  1.0 -0.1812128888
C  C19  1  0.48350000  0.24220000  0.49220000  1.0 -0.1812128888
C  C20  1  0.26650000  0.24220000  0.75780000  1.0 -0.1812128888
C  C21  1  0.49220000  0.23350000  0.00780000  1.0 -0.1812128888
C  C22  1  0.98350000  0.00780000  0.75780000  1.0 -0.1812128888
C  C23  1  0.75780000  0.01650000  0.00780000  1.0 -0.1812128888
C  C24  1  0.25780000  0.23350000  0.24220000  1.0 -0.1812128888
C  C25  1  0.76650000  0.00780000  0.49220000  1.0 -0.1812128888
C  C26  1  0.75780000  0.49220000  0.48350000  1.0 -0.1812128888
C  C27  1  0.00780000  0.00780000  0.73350000  1.0 -0.1812128888
C  C28  1  0.75780000  0.25780000  0.76650000  1.0 -0.1812128888
C  C29  1  0.01650000  0.25780000  0.50780000  1.0 -0.1812128888
C  C30  1  0.49220000  0.25780000  0.98350000  1.0 -0.1812128888
C  C31  1  0.24220000  0.00780000  0.01650000  1.0 -0.1812128888
C  C32  1  0.24220000  0.26650000  0.75780000  1.0 -0.1812128888
C  C33  1  0.24220000  0.74220000  0.23350000  1.0 -0.1812128888
C  C34  1  0.49220000  0.49220000  0.26650000  1.0 -0.1812128888
C  C35  1  0.23350000  0.49220000  0.00780000  1.0 -0.1812128888
C  C36  1  0.00780000  0.74220000  0.51650000  1.0 -0.1812128888
C  C37  1  0.00780000  0.48350000  0.25780000  1.0 -0.1812128888
C  C38  1  0.01650000  0.49220000  0.74220000  1.0 -0.1812128888
C  C39  1  0.24220000  0.48350000  0.49220000  1.0 -0.1812128888
C  C40  1  0.23350000  0.25780000  0.24220000  1.0 -0.1812128888
C  C41  1  0.00780000  0.26650000  0.99220000  1.0 -0.1812128888
C  C42  1  0.99220000  0.51650000  0.74220000  1.0 -0.1812128888
C  C43  1  0.26650000  0.50780000  0.49220000  1.0 -0.1812128888
C  C44  1  0.48350000  0.74220000  0.99220000  1.0 -0.1812128888
C  C45  1  0.26650000  0.74220000  0.25780000  1.0 -0.1812128888
C  C46  1  0.49220000  0.73350000  0.50780000  1.0 -0.1812128888
C  C47  1  0.98350000  0.50780000  0.25780000  1.0 -0.1812128888
C  C48  1  0.75780000  0.51650000  0.50780000  1.0 -0.1812128888
C  C49  1  0.25780000  0.73350000  0.74220000  1.0 -0.1812128888
C  C50  1  0.76650000  0.50780000  0.99220000  1.0 -0.1812128888
C  C51  1  0.25780000  0.99220000  0.48350000  1.0 -0.1812128888
C  C52  1  0.50780000  0.50780000  0.73350000  1.0 -0.1812128888
C  C53  1  0.25780000  0.75780000  0.76650000  1.0 -0.1812128888
C  C54  1  0.51650000  0.75780000  0.50780000  1.0 -0.1812128888
C  C55  1  0.99220000  0.75780000  0.98350000  1.0 -0.1812128888
C  C56  1  0.74220000  0.50780000  0.01650000  1.0 -0.1812128888
C  C57  1  0.74220000  0.76650000  0.75780000  1.0 -0.1812128888
C  C58  1  0.74220000  0.24220000  0.23350000  1.0 -0.1812128888
C  C59  1  0.99220000  0.99220000  0.26650000  1.0 -0.1812128888
C  C60  1  0.73350000  0.99220000  0.00780000  1.0 -0.1812128888
C  C61  1  0.50780000  0.24220000  0.51650000  1.0 -0.1812128888
C  C62  1  0.50780000  0.98350000  0.25780000  1.0 -0.1812128888
C  C63  1  0.51650000  0.99220000  0.74220000  1.0 -0.1812128888
C  C64  1  0.74220000  0.98350000  0.49220000  1.0 -0.1812128888
C  C65  1  0.73350000  0.75780000  0.24220000  1.0 -0.1812128888
C  C66  1  0.50780000  0.76650000  0.99220000  1.0 -0.1812128888
C  C67  1  0.49220000  0.01650000  0.74220000  1.0 -0.1812128888
C  C68  1  0.98350000  0.24220000  0.99220000  1.0 -0.1812128888
C  C69  1  0.76650000  0.24220000  0.25780000  1.0 -0.1812128888
C  C70  1  0.99220000  0.23350000  0.50780000  1.0 -0.1812128888
C  C71  1  0.48350000  0.00780000  0.25780000  1.0 -0.1812128888
C  C72  1  0.25780000  0.01650000  0.50780000  1.0 -0.1812128888
C  C73  1  0.75780000  0.23350000  0.74220000  1.0 -0.1812128888
C  C74  1  0.25780000  0.49220000  0.98350000  1.0 -0.1812128888
C  C75  1  0.50780000  0.00780000  0.23350000  1.0 -0.1812128888
C  C76  1  0.25780000  0.25780000  0.26650000  1.0 -0.1812128888
C  C77  1  0.51650000  0.25780000  0.00780000  1.0 -0.1812128888
C  C78  1  0.99220000  0.25780000  0.48350000  1.0 -0.1812128888
C  C79  1  0.74220000  0.00780000  0.51650000  1.0 -0.1812128888
C  C80  1  0.74220000  0.26650000  0.25780000  1.0 -0.1812128888
C  C81  1  0.74220000  0.74220000  0.73350000  1.0 -0.1812128888
C  C82  1  0.99220000  0.49220000  0.76650000  1.0 -0.1812128888
C  C83  1  0.73350000  0.49220000  0.50780000  1.0 -0.1812128888
C  C84  1  0.50780000  0.74220000  0.01650000  1.0 -0.1812128888
C  C85  1  0.50780000  0.48350000  0.75780000  1.0 -0.1812128888
C  C86  1  0.51650000  0.49220000  0.24220000  1.0 -0.1812128888
C  C87  1  0.74220000  0.48350000  0.99220000  1.0 -0.1812128888
C  C88  1  0.73350000  0.25780000  0.74220000  1.0 -0.1812128888
C  C89  1  0.50780000  0.26650000  0.49220000  1.0 -0.1812128888
C  C90  1  0.49220000  0.51650000  0.24220000  1.0 -0.1812128888
C  C91  1  0.98350000  0.74220000  0.49220000  1.0 -0.1812128888
C  C92  1  0.76650000  0.74220000  0.75780000  1.0 -0.1812128888
C  C93  1  0.99220000  0.73350000  0.00780000  1.0 -0.1812128888
C  C94  1  0.48350000  0.50780000  0.75780000  1.0 -0.1812128888
C  C95  1  0.25780000  0.51650000  0.00780000  1.0 -0.1812128888
C  C96  1  0.75780000  0.73350000  0.24220000  1.0 -0.1812128888
C  C97  1  0.73960000  0.98670000  0.98960000  1.0 0.0981836333
C  C98  1  0.01330000  0.48960000  0.23960000  1.0 0.0981836333
C  C99  1  0.73960000  0.76330000  0.26040000  1.0 0.0981836333
C  C100  1  0.01040000  0.73960000  0.01330000  1.0 0.0981836333
C  C101  1  0.51040000  0.76330000  0.48960000  1.0 0.0981836333
C  C102  1  0.23670000  0.48960000  0.51040000  1.0 0.0981836333
C  C103  1  0.26040000  0.76040000  0.26330000  1.0 0.0981836333
C  C104  1  0.23670000  0.26040000  0.73960000  1.0 0.0981836333
C  C105  1  0.51040000  0.98670000  0.76040000  1.0 0.0981836333
C  C106  1  0.23960000  0.01040000  0.51330000  1.0 0.0981836333
C  C107  1  0.01330000  0.26040000  0.01040000  1.0 0.0981836333
C  C108  1  0.98960000  0.98960000  0.76330000  1.0 0.0981836333
C  C109  1  0.01040000  0.01040000  0.23670000  1.0 0.0981836333
C  C110  1  0.26040000  0.98960000  0.98670000  1.0 0.0981836333
C  C111  1  0.23960000  0.73960000  0.73670000  1.0 0.0981836333
C  C112  1  0.98960000  0.76040000  0.48670000  1.0 0.0981836333
C  C113  1  0.98670000  0.01040000  0.26040000  1.0 0.0981836333
C  C114  1  0.26040000  0.01330000  0.01040000  1.0 0.0981836333
C  C115  1  0.48960000  0.23670000  0.51040000  1.0 0.0981836333
C  C116  1  0.26040000  0.23670000  0.73960000  1.0 0.0981836333
C  C117  1  0.48670000  0.23960000  0.98960000  1.0 0.0981836333
C  C118  1  0.98960000  0.01330000  0.73960000  1.0 0.0981836333
C  C119  1  0.76330000  0.01040000  0.98960000  1.0 0.0981836333
C  C120  1  0.26330000  0.23960000  0.26040000  1.0 0.0981836333
C  C121  1  0.76040000  0.01330000  0.51040000  1.0 0.0981836333
C  C122  1  0.73960000  0.48670000  0.48960000  1.0 0.0981836333
C  C123  1  0.01330000  0.98960000  0.73960000  1.0 0.0981836333
C  C124  1  0.73960000  0.26330000  0.76040000  1.0 0.0981836333
C  C125  1  0.01040000  0.23960000  0.51330000  1.0 0.0981836333
C  C126  1  0.51040000  0.26330000  0.98960000  1.0 0.0981836333
C  C127  1  0.23670000  0.98960000  0.01040000  1.0 0.0981836333
C  C128  1  0.26040000  0.26040000  0.76330000  1.0 0.0981836333
C  C129  1  0.23670000  0.76040000  0.23960000  1.0 0.0981836333
C  C130  1  0.51040000  0.48670000  0.26040000  1.0 0.0981836333
C  C131  1  0.23960000  0.51040000  0.01330000  1.0 0.0981836333
C  C132  1  0.01330000  0.76040000  0.51040000  1.0 0.0981836333
C  C133  1  0.98960000  0.48960000  0.26330000  1.0 0.0981836333
C  C134  1  0.01040000  0.51040000  0.73670000  1.0 0.0981836333
C  C135  1  0.26040000  0.48960000  0.48670000  1.0 0.0981836333
C  C136  1  0.23960000  0.23960000  0.23670000  1.0 0.0981836333
C  C137  1  0.98960000  0.26040000  0.98670000  1.0 0.0981836333
C  C138  1  0.98670000  0.51040000  0.76040000  1.0 0.0981836333
C  C139  1  0.26040000  0.51330000  0.51040000  1.0 0.0981836333
C  C140  1  0.48960000  0.73670000  0.01040000  1.0 0.0981836333
C  C141  1  0.26040000  0.73670000  0.23960000  1.0 0.0981836333
C  C142  1  0.48670000  0.73960000  0.48960000  1.0 0.0981836333
C  C143  1  0.98960000  0.51330000  0.23960000  1.0 0.0981836333
C  C144  1  0.76330000  0.51040000  0.48960000  1.0 0.0981836333
C  C145  1  0.26330000  0.73960000  0.76040000  1.0 0.0981836333
C  C146  1  0.76040000  0.51330000  0.01040000  1.0 0.0981836333
C  C147  1  0.23960000  0.98670000  0.48960000  1.0 0.0981836333
C  C148  1  0.51330000  0.48960000  0.73960000  1.0 0.0981836333
C  C149  1  0.23960000  0.76330000  0.76040000  1.0 0.0981836333
C  C150  1  0.51040000  0.73960000  0.51330000  1.0 0.0981836333
C  C151  1  0.01040000  0.76330000  0.98960000  1.0 0.0981836333
C  C152  1  0.73670000  0.48960000  0.01040000  1.0 0.0981836333
C  C153  1  0.76040000  0.76040000  0.76330000  1.0 0.0981836333
C  C154  1  0.73670000  0.26040000  0.23960000  1.0 0.0981836333
C  C155  1  0.01040000  0.98670000  0.26040000  1.0 0.0981836333
C  C156  1  0.73960000  0.01040000  0.01330000  1.0 0.0981836333
C  C157  1  0.51330000  0.26040000  0.51040000  1.0 0.0981836333
C  C158  1  0.48960000  0.98960000  0.26330000  1.0 0.0981836333
C  C159  1  0.51040000  0.01040000  0.73670000  1.0 0.0981836333
C  C160  1  0.76040000  0.98960000  0.48670000  1.0 0.0981836333
C  C161  1  0.73960000  0.73960000  0.23670000  1.0 0.0981836333
C  C162  1  0.48960000  0.76040000  0.98670000  1.0 0.0981836333
C  C163  1  0.48670000  0.01040000  0.76040000  1.0 0.0981836333
C  C164  1  0.98960000  0.23670000  0.01040000  1.0 0.0981836333
C  C165  1  0.76040000  0.23670000  0.23960000  1.0 0.0981836333
C  C166  1  0.98670000  0.23960000  0.48960000  1.0 0.0981836333
C  C167  1  0.48960000  0.01330000  0.23960000  1.0 0.0981836333
C  C168  1  0.26330000  0.01040000  0.48960000  1.0 0.0981836333
C  C169  1  0.76330000  0.23960000  0.76040000  1.0 0.0981836333
C  C170  1  0.23960000  0.48670000  0.98960000  1.0 0.0981836333
C  C171  1  0.51330000  0.98960000  0.23960000  1.0 0.0981836333
C  C172  1  0.23960000  0.26330000  0.26040000  1.0 0.0981836333
C  C173  1  0.51040000  0.23960000  0.01330000  1.0 0.0981836333
C  C174  1  0.01040000  0.26330000  0.48960000  1.0 0.0981836333
C  C175  1  0.73670000  0.98960000  0.51040000  1.0 0.0981836333
C  C176  1  0.76040000  0.26040000  0.26330000  1.0 0.0981836333
C  C177  1  0.73670000  0.76040000  0.73960000  1.0 0.0981836333
C  C178  1  0.01040000  0.48670000  0.76040000  1.0 0.0981836333
C  C179  1  0.73960000  0.51040000  0.51330000  1.0 0.0981836333
C  C180  1  0.51330000  0.76040000  0.01040000  1.0 0.0981836333
C  C181  1  0.48960000  0.48960000  0.76330000  1.0 0.0981836333
C  C182  1  0.51040000  0.51040000  0.23670000  1.0 0.0981836333
C  C183  1  0.76040000  0.48960000  0.98670000  1.0 0.0981836333
C  C184  1  0.73960000  0.23960000  0.73670000  1.0 0.0981836333
C  C185  1  0.48960000  0.26040000  0.48670000  1.0 0.0981836333
C  C186  1  0.48670000  0.51040000  0.26040000  1.0 0.0981836333
C  C187  1  0.98960000  0.73670000  0.51040000  1.0 0.0981836333
C  C188  1  0.76040000  0.73670000  0.73960000  1.0 0.0981836333
C  C189  1  0.98670000  0.73960000  0.98960000  1.0 0.0981836333
C  C190  1  0.48960000  0.51330000  0.73960000  1.0 0.0981836333
C  C191  1  0.26330000  0.51040000  0.98960000  1.0 0.0981836333
C  C192  1  0.76330000  0.73960000  0.26040000  1.0 0.0981836333
C  C193  1  0.76790000  0.98210000  0.96830000  1.0 0.6603537358
C  C194  1  0.01790000  0.51790000  0.21830000  1.0 0.6603537358
C  C195  1  0.76790000  0.76790000  0.28170000  1.0 0.6603537358
C  C196  1  0.03170000  0.76790000  0.01790000  1.0 0.6603537358
C  C197  1  0.48210000  0.76790000  0.46830000  1.0 0.6603537358
C  C198  1  0.23210000  0.51790000  0.53170000  1.0 0.6603537358
C  C199  1  0.23210000  0.78170000  0.26790000  1.0 0.6603537358
C  C200  1  0.23210000  0.23210000  0.71830000  1.0 0.6603537358
C  C201  1  0.48210000  0.98210000  0.78170000  1.0 0.6603537358
C  C202  1  0.21830000  0.98210000  0.51790000  1.0 0.6603537358
C  C203  1  0.01790000  0.23210000  0.03170000  1.0 0.6603537358
C  C204  1  0.01790000  0.96830000  0.76790000  1.0 0.6603537358
C  C205  1  0.03170000  0.98210000  0.23210000  1.0 0.6603537358
C  C206  1  0.23210000  0.96830000  0.98210000  1.0 0.6603537358
C  C207  1  0.21830000  0.76790000  0.73210000  1.0 0.6603537358
C  C208  1  0.01790000  0.78170000  0.48210000  1.0 0.6603537358
C  C209  1  0.98210000  0.03170000  0.23210000  1.0 0.6603537358
C  C210  1  0.28170000  0.01790000  0.98210000  1.0 0.6603537358
C  C211  1  0.46830000  0.23210000  0.48210000  1.0 0.6603537358
C  C212  1  0.28170000  0.23210000  0.76790000  1.0 0.6603537358
C  C213  1  0.48210000  0.21830000  0.01790000  1.0 0.6603537358
C  C214  1  0.96830000  0.01790000  0.76790000  1.0 0.6603537358
C  C215  1  0.76790000  0.03170000  0.01790000  1.0 0.6603537358
C  C216  1  0.26790000  0.21830000  0.23210000  1.0 0.6603537358
C  C217  1  0.78170000  0.01790000  0.48210000  1.0 0.6603537358
C  C218  1  0.76790000  0.48210000  0.46830000  1.0 0.6603537358
C  C219  1  0.01790000  0.01790000  0.71830000  1.0 0.6603537358
C  C220  1  0.76790000  0.26790000  0.78170000  1.0 0.6603537358
C  C221  1  0.03170000  0.26790000  0.51790000  1.0 0.6603537358
C  C222  1  0.48210000  0.26790000  0.96830000  1.0 0.6603537358
C  C223  1  0.23210000  0.01790000  0.03170000  1.0 0.6603537358
C  C224  1  0.23210000  0.28170000  0.76790000  1.0 0.6603537358
C  C225  1  0.23210000  0.73210000  0.21830000  1.0 0.6603537358
C  C226  1  0.48210000  0.48210000  0.28170000  1.0 0.6603537358
C  C227  1  0.21830000  0.48210000  0.01790000  1.0 0.6603537358
C  C228  1  0.01790000  0.73210000  0.53170000  1.0 0.6603537358
C  C229  1  0.01790000  0.46830000  0.26790000  1.0 0.6603537358
C  C230  1  0.03170000  0.48210000  0.73210000  1.0 0.6603537358
C  C231  1  0.23210000  0.46830000  0.48210000  1.0 0.6603537358
C  C232  1  0.21830000  0.26790000  0.23210000  1.0 0.6603537358
C  C233  1  0.01790000  0.28170000  0.98210000  1.0 0.6603537358
C  C234  1  0.98210000  0.53170000  0.73210000  1.0 0.6603537358
C  C235  1  0.28170000  0.51790000  0.48210000  1.0 0.6603537358
C  C236  1  0.46830000  0.73210000  0.98210000  1.0 0.6603537358
C  C237  1  0.28170000  0.73210000  0.26790000  1.0 0.6603537358
C  C238  1  0.48210000  0.71830000  0.51790000  1.0 0.6603537358
C  C239  1  0.96830000  0.51790000  0.26790000  1.0 0.6603537358
C  C240  1  0.76790000  0.53170000  0.51790000  1.0 0.6603537358
C  C241  1  0.26790000  0.71830000  0.73210000  1.0 0.6603537358
C  C242  1  0.78170000  0.51790000  0.98210000  1.0 0.6603537358
C  C243  1  0.26790000  0.98210000  0.46830000  1.0 0.6603537358
C  C244  1  0.51790000  0.51790000  0.71830000  1.0 0.6603537358
C  C245  1  0.26790000  0.76790000  0.78170000  1.0 0.6603537358
C  C246  1  0.53170000  0.76790000  0.51790000  1.0 0.6603537358
C  C247  1  0.98210000  0.76790000  0.96830000  1.0 0.6603537358
C  C248  1  0.73210000  0.51790000  0.03170000  1.0 0.6603537358
C  C249  1  0.73210000  0.78170000  0.76790000  1.0 0.6603537358
C  C250  1  0.73210000  0.23210000  0.21830000  1.0 0.6603537358
C  C251  1  0.98210000  0.98210000  0.28170000  1.0 0.6603537358
C  C252  1  0.71830000  0.98210000  0.01790000  1.0 0.6603537358
C  C253  1  0.51790000  0.23210000  0.53170000  1.0 0.6603537358
C  C254  1  0.51790000  0.96830000  0.26790000  1.0 0.6603537358
C  C255  1  0.53170000  0.98210000  0.73210000  1.0 0.6603537358
C  C256  1  0.73210000  0.96830000  0.48210000  1.0 0.6603537358
C  C257  1  0.71830000  0.76790000  0.23210000  1.0 0.6603537358
C  C258  1  0.51790000  0.78170000  0.98210000  1.0 0.6603537358
C  C259  1  0.48210000  0.03170000  0.73210000  1.0 0.6603537358
C  C260  1  0.96830000  0.23210000  0.98210000  1.0 0.6603537358
C  C261  1  0.78170000  0.23210000  0.26790000  1.0 0.6603537358
C  C262  1  0.98210000  0.21830000  0.51790000  1.0 0.6603537358
C  C263  1  0.46830000  0.01790000  0.26790000  1.0 0.6603537358
C  C264  1  0.26790000  0.03170000  0.51790000  1.0 0.6603537358
C  C265  1  0.76790000  0.21830000  0.73210000  1.0 0.6603537358
C  C266  1  0.26790000  0.48210000  0.96830000  1.0 0.6603537358
C  C267  1  0.51790000  0.01790000  0.21830000  1.0 0.6603537358
C  C268  1  0.26790000  0.26790000  0.28170000  1.0 0.6603537358
C  C269  1  0.53170000  0.26790000  0.01790000  1.0 0.6603537358
C  C270  1  0.98210000  0.26790000  0.46830000  1.0 0.6603537358
C  C271  1  0.73210000  0.01790000  0.53170000  1.0 0.6603537358
C  C272  1  0.73210000  0.28170000  0.26790000  1.0 0.6603537358
C  C273  1  0.73210000  0.73210000  0.71830000  1.0 0.6603537358
C  C274  1  0.98210000  0.48210000  0.78170000  1.0 0.6603537358
C  C275  1  0.71830000  0.48210000  0.51790000  1.0 0.6603537358
C  C276  1  0.51790000  0.73210000  0.03170000  1.0 0.6603537358
C  C277  1  0.51790000  0.46830000  0.76790000  1.0 0.6603537358
C  C278  1  0.53170000  0.48210000  0.23210000  1.0 0.6603537358
C  C279  1  0.73210000  0.46830000  0.98210000  1.0 0.6603537358
C  C280  1  0.71830000  0.26790000  0.73210000  1.0 0.6603537358
C  C281  1  0.51790000  0.28170000  0.48210000  1.0 0.6603537358
C  C282  1  0.48210000  0.53170000  0.23210000  1.0 0.6603537358
C  C283  1  0.96830000  0.73210000  0.48210000  1.0 0.6603537358
C  C284  1  0.78170000  0.73210000  0.76790000  1.0 0.6603537358
C  C285  1  0.98210000  0.71830000  0.01790000  1.0 0.6603537358
C  C286  1  0.46830000  0.51790000  0.76790000  1.0 0.6603537358
C  C287  1  0.26790000  0.53170000  0.01790000  1.0 0.6603537358
C  C288  1  0.76790000  0.71830000  0.23210000  1.0 0.6603537358
C  C289  1  0.85280000  0.85280000  0.07860000  1.0 0.1377218819
C  C290  1  0.14720000  0.60280000  0.32860000  1.0 0.1377218819
C  C291  1  0.85280000  0.89720000  0.17140000  1.0 0.1377218819
C  C292  1  0.92140000  0.85280000  0.14720000  1.0 0.1377218819
C  C293  1  0.39720000  0.89720000  0.57860000  1.0 0.1377218819
C  C294  1  0.10280000  0.60280000  0.42140000  1.0 0.1377218819
C  C295  1  0.14720000  0.67140000  0.39720000  1.0 0.1377218819
C  C296  1  0.10280000  0.14720000  0.82860000  1.0 0.1377218819
C  C297  1  0.39720000  0.85280000  0.67140000  1.0 0.1377218819
C  C298  1  0.32860000  0.89720000  0.64720000  1.0 0.1377218819
C  C299  1  0.14720000  0.14720000  0.92140000  1.0 0.1377218819
C  C300  1  0.10280000  0.07860000  0.89720000  1.0 0.1377218819
C  C301  1  0.92140000  0.89720000  0.10280000  1.0 0.1377218819
C  C302  1  0.14720000  0.07860000  0.85280000  1.0 0.1377218819
C  C303  1  0.32860000  0.85280000  0.60280000  1.0 0.1377218819
C  C304  1  0.10280000  0.67140000  0.35280000  1.0 0.1377218819
C  C305  1  0.85280000  0.92140000  0.14720000  1.0 0.1377218819
C  C306  1  0.17140000  0.14720000  0.89720000  1.0 0.1377218819
C  C307  1  0.57860000  0.10280000  0.39720000  1.0 0.1377218819
C  C308  1  0.17140000  0.10280000  0.85280000  1.0 0.1377218819
C  C309  1  0.35280000  0.32860000  0.10280000  1.0 0.1377218819
C  C310  1  0.07860000  0.14720000  0.85280000  1.0 0.1377218819
C  C311  1  0.89720000  0.92140000  0.10280000  1.0 0.1377218819
C  C312  1  0.39720000  0.32860000  0.14720000  1.0 0.1377218819
C  C313  1  0.67140000  0.14720000  0.39720000  1.0 0.1377218819
C  C314  1  0.85280000  0.35280000  0.57860000  1.0 0.1377218819
C  C315  1  0.14720000  0.10280000  0.82860000  1.0 0.1377218819
C  C316  1  0.85280000  0.39720000  0.67140000  1.0 0.1377218819
C  C317  1  0.92140000  0.35280000  0.64720000  1.0 0.1377218819
C  C318  1  0.39720000  0.39720000  0.07860000  1.0 0.1377218819
C  C319  1  0.10280000  0.10280000  0.92140000  1.0 0.1377218819
C  C320  1  0.14720000  0.17140000  0.89720000  1.0 0.1377218819
C  C321  1  0.10280000  0.64720000  0.32860000  1.0 0.1377218819
C  C322  1  0.39720000  0.35280000  0.17140000  1.0 0.1377218819
C  C323  1  0.32860000  0.39720000  0.14720000  1.0 0.1377218819
C  C324  1  0.14720000  0.64720000  0.42140000  1.0 0.1377218819
C  C325  1  0.10280000  0.57860000  0.39720000  1.0 0.1377218819
C  C326  1  0.92140000  0.39720000  0.60280000  1.0 0.1377218819
C  C327  1  0.14720000  0.57860000  0.35280000  1.0 0.1377218819
C  C328  1  0.32860000  0.35280000  0.10280000  1.0 0.1377218819
C  C329  1  0.10280000  0.17140000  0.85280000  1.0 0.1377218819
C  C330  1  0.85280000  0.42140000  0.64720000  1.0 0.1377218819
C  C331  1  0.17140000  0.64720000  0.39720000  1.0 0.1377218819
C  C332  1  0.57860000  0.60280000  0.89720000  1.0 0.1377218819
C  C333  1  0.17140000  0.60280000  0.35280000  1.0 0.1377218819
C  C334  1  0.35280000  0.82860000  0.60280000  1.0 0.1377218819
C  C335  1  0.07860000  0.64720000  0.35280000  1.0 0.1377218819
C  C336  1  0.89720000  0.42140000  0.60280000  1.0 0.1377218819
C  C337  1  0.39720000  0.82860000  0.64720000  1.0 0.1377218819
C  C338  1  0.67140000  0.64720000  0.89720000  1.0 0.1377218819
C  C339  1  0.35280000  0.85280000  0.57860000  1.0 0.1377218819
C  C340  1  0.64720000  0.60280000  0.82860000  1.0 0.1377218819
C  C341  1  0.35280000  0.89720000  0.67140000  1.0 0.1377218819
C  C342  1  0.42140000  0.85280000  0.64720000  1.0 0.1377218819
C  C343  1  0.89720000  0.89720000  0.07860000  1.0 0.1377218819
C  C344  1  0.60280000  0.60280000  0.92140000  1.0 0.1377218819
C  C345  1  0.64720000  0.67140000  0.89720000  1.0 0.1377218819
C  C346  1  0.60280000  0.14720000  0.32860000  1.0 0.1377218819
C  C347  1  0.89720000  0.85280000  0.17140000  1.0 0.1377218819
C  C348  1  0.82860000  0.89720000  0.14720000  1.0 0.1377218819
C  C349  1  0.64720000  0.14720000  0.42140000  1.0 0.1377218819
C  C350  1  0.60280000  0.07860000  0.39720000  1.0 0.1377218819
C  C351  1  0.42140000  0.89720000  0.60280000  1.0 0.1377218819
C  C352  1  0.64720000  0.07860000  0.35280000  1.0 0.1377218819
C  C353  1  0.82860000  0.85280000  0.10280000  1.0 0.1377218819
C  C354  1  0.60280000  0.67140000  0.85280000  1.0 0.1377218819
C  C355  1  0.35280000  0.92140000  0.64720000  1.0 0.1377218819
C  C356  1  0.07860000  0.10280000  0.89720000  1.0 0.1377218819
C  C357  1  0.67140000  0.10280000  0.35280000  1.0 0.1377218819
C  C358  1  0.85280000  0.32860000  0.60280000  1.0 0.1377218819
C  C359  1  0.57860000  0.14720000  0.35280000  1.0 0.1377218819
C  C360  1  0.39720000  0.92140000  0.60280000  1.0 0.1377218819
C  C361  1  0.89720000  0.32860000  0.64720000  1.0 0.1377218819
C  C362  1  0.35280000  0.35280000  0.07860000  1.0 0.1377218819
C  C363  1  0.64720000  0.10280000  0.32860000  1.0 0.1377218819
C  C364  1  0.35280000  0.39720000  0.17140000  1.0 0.1377218819
C  C365  1  0.42140000  0.35280000  0.14720000  1.0 0.1377218819
C  C366  1  0.89720000  0.39720000  0.57860000  1.0 0.1377218819
C  C367  1  0.60280000  0.10280000  0.42140000  1.0 0.1377218819
C  C368  1  0.64720000  0.17140000  0.39720000  1.0 0.1377218819
C  C369  1  0.60280000  0.64720000  0.82860000  1.0 0.1377218819
C  C370  1  0.89720000  0.35280000  0.67140000  1.0 0.1377218819
C  C371  1  0.82860000  0.39720000  0.64720000  1.0 0.1377218819
C  C372  1  0.64720000  0.64720000  0.92140000  1.0 0.1377218819
C  C373  1  0.60280000  0.57860000  0.89720000  1.0 0.1377218819
C  C374  1  0.42140000  0.39720000  0.10280000  1.0 0.1377218819
C  C375  1  0.64720000  0.57860000  0.85280000  1.0 0.1377218819
C  C376  1  0.82860000  0.35280000  0.60280000  1.0 0.1377218819
C  C377  1  0.60280000  0.17140000  0.35280000  1.0 0.1377218819
C  C378  1  0.35280000  0.42140000  0.14720000  1.0 0.1377218819
C  C379  1  0.07860000  0.60280000  0.39720000  1.0 0.1377218819
C  C380  1  0.67140000  0.60280000  0.85280000  1.0 0.1377218819
C  C381  1  0.85280000  0.82860000  0.10280000  1.0 0.1377218819
C  C382  1  0.57860000  0.64720000  0.85280000  1.0 0.1377218819
C  C383  1  0.39720000  0.42140000  0.10280000  1.0 0.1377218819
C  C384  1  0.89720000  0.82860000  0.14720000  1.0 0.1377218819
C  C385  1  0.83660000  0.86070000  0.08660000  1.0 -0.2407887924
C  C386  1  0.13930000  0.58660000  0.33660000  1.0 -0.2407887924
C  C387  1  0.83660000  0.88930000  0.16340000  1.0 -0.2407887924
C  C388  1  0.91340000  0.83660000  0.13930000  1.0 -0.2407887924
C  C389  1  0.41340000  0.88930000  0.58660000  1.0 -0.2407887924
C  C390  1  0.11070000  0.58660000  0.41340000  1.0 -0.2407887924
C  C391  1  0.16340000  0.66340000  0.38930000  1.0 -0.2407887924
C  C392  1  0.11070000  0.16340000  0.83660000  1.0 -0.2407887924
C  C393  1  0.41340000  0.86070000  0.66340000  1.0 -0.2407887924
C  C394  1  0.33660000  0.91340000  0.63930000  1.0 -0.2407887924
C  C395  1  0.13930000  0.16340000  0.91340000  1.0 -0.2407887924
C  C396  1  0.08660000  0.08660000  0.88930000  1.0 -0.2407887924
C  C397  1  0.91340000  0.91340000  0.11070000  1.0 -0.2407887924
C  C398  1  0.16340000  0.08660000  0.86070000  1.0 -0.2407887924
C  C399  1  0.33660000  0.83660000  0.61070000  1.0 -0.2407887924
C  C400  1  0.08660000  0.66340000  0.36070000  1.0 -0.2407887924
C  C401  1  0.86070000  0.91340000  0.16340000  1.0 -0.2407887924
C  C402  1  0.16340000  0.13930000  0.91340000  1.0 -0.2407887924
C  C403  1  0.58660000  0.11070000  0.41340000  1.0 -0.2407887924
C  C404  1  0.16340000  0.11070000  0.83660000  1.0 -0.2407887924
C  C405  1  0.36070000  0.33660000  0.08660000  1.0 -0.2407887924
C  C406  1  0.08660000  0.13930000  0.83660000  1.0 -0.2407887924
C  C407  1  0.88930000  0.91340000  0.08660000  1.0 -0.2407887924
C  C408  1  0.38930000  0.33660000  0.16340000  1.0 -0.2407887924
C  C409  1  0.66340000  0.13930000  0.41340000  1.0 -0.2407887924
C  C410  1  0.83660000  0.36070000  0.58660000  1.0 -0.2407887924
C  C411  1  0.13930000  0.08660000  0.83660000  1.0 -0.2407887924
C  C412  1  0.83660000  0.38930000  0.66340000  1.0 -0.2407887924
C  C413  1  0.91340000  0.33660000  0.63930000  1.0 -0.2407887924
C  C414  1  0.41340000  0.38930000  0.08660000  1.0 -0.2407887924
C  C415  1  0.11070000  0.08660000  0.91340000  1.0 -0.2407887924
C  C416  1  0.16340000  0.16340000  0.88930000  1.0 -0.2407887924
C  C417  1  0.11070000  0.66340000  0.33660000  1.0 -0.2407887924
C  C418  1  0.41340000  0.36070000  0.16340000  1.0 -0.2407887924
C  C419  1  0.33660000  0.41340000  0.13930000  1.0 -0.2407887924
C  C420  1  0.13930000  0.66340000  0.41340000  1.0 -0.2407887924
C  C421  1  0.08660000  0.58660000  0.38930000  1.0 -0.2407887924
C  C422  1  0.91340000  0.41340000  0.61070000  1.0 -0.2407887924
C  C423  1  0.16340000  0.58660000  0.36070000  1.0 -0.2407887924
C  C424  1  0.33660000  0.33660000  0.11070000  1.0 -0.2407887924
C  C425  1  0.08660000  0.16340000  0.86070000  1.0 -0.2407887924
C  C426  1  0.86070000  0.41340000  0.66340000  1.0 -0.2407887924
C  C427  1  0.16340000  0.63930000  0.41340000  1.0 -0.2407887924
C  C428  1  0.58660000  0.61070000  0.91340000  1.0 -0.2407887924
C  C429  1  0.16340000  0.61070000  0.33660000  1.0 -0.2407887924
C  C430  1  0.36070000  0.83660000  0.58660000  1.0 -0.2407887924
C  C431  1  0.08660000  0.63930000  0.33660000  1.0 -0.2407887924
C  C432  1  0.88930000  0.41340000  0.58660000  1.0 -0.2407887924
C  C433  1  0.38930000  0.83660000  0.66340000  1.0 -0.2407887924
C  C434  1  0.66340000  0.63930000  0.91340000  1.0 -0.2407887924
C  C435  1  0.33660000  0.86070000  0.58660000  1.0 -0.2407887924
C  C436  1  0.63930000  0.58660000  0.83660000  1.0 -0.2407887924
C  C437  1  0.33660000  0.88930000  0.66340000  1.0 -0.2407887924
C  C438  1  0.41340000  0.83660000  0.63930000  1.0 -0.2407887924
C  C439  1  0.91340000  0.88930000  0.08660000  1.0 -0.2407887924
C  C440  1  0.61070000  0.58660000  0.91340000  1.0 -0.2407887924
C  C441  1  0.66340000  0.66340000  0.88930000  1.0 -0.2407887924
C  C442  1  0.61070000  0.16340000  0.33660000  1.0 -0.2407887924
C  C443  1  0.91340000  0.86070000  0.16340000  1.0 -0.2407887924
C  C444  1  0.83660000  0.91340000  0.13930000  1.0 -0.2407887924
C  C445  1  0.63930000  0.16340000  0.41340000  1.0 -0.2407887924
C  C446  1  0.58660000  0.08660000  0.38930000  1.0 -0.2407887924
C  C447  1  0.41340000  0.91340000  0.61070000  1.0 -0.2407887924
C  C448  1  0.66340000  0.08660000  0.36070000  1.0 -0.2407887924
C  C449  1  0.83660000  0.83660000  0.11070000  1.0 -0.2407887924
C  C450  1  0.58660000  0.66340000  0.86070000  1.0 -0.2407887924
C  C451  1  0.36070000  0.91340000  0.66340000  1.0 -0.2407887924
C  C452  1  0.08660000  0.11070000  0.91340000  1.0 -0.2407887924
C  C453  1  0.66340000  0.11070000  0.33660000  1.0 -0.2407887924
C  C454  1  0.86070000  0.33660000  0.58660000  1.0 -0.2407887924
C  C455  1  0.58660000  0.13930000  0.33660000  1.0 -0.2407887924
C  C456  1  0.38930000  0.91340000  0.58660000  1.0 -0.2407887924
C  C457  1  0.88930000  0.33660000  0.66340000  1.0 -0.2407887924
C  C458  1  0.33660000  0.36070000  0.08660000  1.0 -0.2407887924
C  C459  1  0.63930000  0.08660000  0.33660000  1.0 -0.2407887924
C  C460  1  0.33660000  0.38930000  0.16340000  1.0 -0.2407887924
C  C461  1  0.41340000  0.33660000  0.13930000  1.0 -0.2407887924
C  C462  1  0.91340000  0.38930000  0.58660000  1.0 -0.2407887924
C  C463  1  0.61070000  0.08660000  0.41340000  1.0 -0.2407887924
C  C464  1  0.66340000  0.16340000  0.38930000  1.0 -0.2407887924
C  C465  1  0.61070000  0.66340000  0.83660000  1.0 -0.2407887924
C  C466  1  0.91340000  0.36070000  0.66340000  1.0 -0.2407887924
C  C467  1  0.83660000  0.41340000  0.63930000  1.0 -0.2407887924
C  C468  1  0.63930000  0.66340000  0.91340000  1.0 -0.2407887924
C  C469  1  0.58660000  0.58660000  0.88930000  1.0 -0.2407887924
C  C470  1  0.41340000  0.41340000  0.11070000  1.0 -0.2407887924
C  C471  1  0.66340000  0.58660000  0.86070000  1.0 -0.2407887924
C  C472  1  0.83660000  0.33660000  0.61070000  1.0 -0.2407887924
C  C473  1  0.58660000  0.16340000  0.36070000  1.0 -0.2407887924
C  C474  1  0.36070000  0.41340000  0.16340000  1.0 -0.2407887924
C  C475  1  0.08660000  0.61070000  0.41340000  1.0 -0.2407887924
C  C476  1  0.66340000  0.61070000  0.83660000  1.0 -0.2407887924
C  C477  1  0.86070000  0.83660000  0.08660000  1.0 -0.2407887924
C  C478  1  0.58660000  0.63930000  0.83660000  1.0 -0.2407887924
C  C479  1  0.38930000  0.41340000  0.08660000  1.0 -0.2407887924
C  C480  1  0.88930000  0.83660000  0.16340000  1.0 -0.2407887924
C  C481  1  0.82850000  0.87640000  0.07850000  1.0 0.6261865156
C  C482  1  0.12360000  0.57850000  0.32850000  1.0 0.6261865156
C  C483  1  0.82850000  0.87360000  0.17150000  1.0 0.6261865156
C  C484  1  0.92150000  0.82850000  0.12360000  1.0 0.6261865156
C  C485  1  0.42150000  0.87360000  0.57850000  1.0 0.6261865156
C  C486  1  0.12640000  0.57850000  0.42150000  1.0 0.6261865156
C  C487  1  0.17150000  0.67150000  0.37360000  1.0 0.6261865156
C  C488  1  0.12640000  0.17150000  0.82850000  1.0 0.6261865156
C  C489  1  0.42150000  0.87640000  0.67150000  1.0 0.6261865156
C  C490  1  0.32850000  0.92150000  0.62360000  1.0 0.6261865156
C  C491  1  0.12360000  0.17150000  0.92150000  1.0 0.6261865156
C  C492  1  0.07850000  0.07850000  0.87360000  1.0 0.6261865156
C  C493  1  0.92150000  0.92150000  0.12640000  1.0 0.6261865156
C  C494  1  0.17150000  0.07850000  0.87640000  1.0 0.6261865156
C  C495  1  0.32850000  0.82850000  0.62640000  1.0 0.6261865156
C  C496  1  0.07850000  0.67150000  0.37640000  1.0 0.6261865156
C  C497  1  0.87640000  0.92150000  0.17150000  1.0 0.6261865156
C  C498  1  0.17150000  0.12360000  0.92150000  1.0 0.6261865156
C  C499  1  0.57850000  0.12640000  0.42150000  1.0 0.6261865156
C  C500  1  0.17150000  0.12640000  0.82850000  1.0 0.6261865156
C  C501  1  0.37640000  0.32850000  0.07850000  1.0 0.6261865156
C  C502  1  0.07850000  0.12360000  0.82850000  1.0 0.6261865156
C  C503  1  0.87360000  0.92150000  0.07850000  1.0 0.6261865156
C  C504  1  0.37360000  0.32850000  0.17150000  1.0 0.6261865156
C  C505  1  0.67150000  0.12360000  0.42150000  1.0 0.6261865156
C  C506  1  0.82850000  0.37640000  0.57850000  1.0 0.6261865156
C  C507  1  0.12360000  0.07850000  0.82850000  1.0 0.6261865156
C  C508  1  0.82850000  0.37360000  0.67150000  1.0 0.6261865156
C  C509  1  0.92150000  0.32850000  0.62360000  1.0 0.6261865156
C  C510  1  0.42150000  0.37360000  0.07850000  1.0 0.6261865156
C  C511  1  0.12640000  0.07850000  0.92150000  1.0 0.6261865156
C  C512  1  0.17150000  0.17150000  0.87360000  1.0 0.6261865156
C  C513  1  0.12640000  0.67150000  0.32850000  1.0 0.6261865156
C  C514  1  0.42150000  0.37640000  0.17150000  1.0 0.6261865156
C  C515  1  0.32850000  0.42150000  0.12360000  1.0 0.6261865156
C  C516  1  0.12360000  0.67150000  0.42150000  1.0 0.6261865156
C  C517  1  0.07850000  0.57850000  0.37360000  1.0 0.6261865156
C  C518  1  0.92150000  0.42150000  0.62640000  1.0 0.6261865156
C  C519  1  0.17150000  0.57850000  0.37640000  1.0 0.6261865156
C  C520  1  0.32850000  0.32850000  0.12640000  1.0 0.6261865156
C  C521  1  0.07850000  0.17150000  0.87640000  1.0 0.6261865156
C  C522  1  0.87640000  0.42150000  0.67150000  1.0 0.6261865156
C  C523  1  0.17150000  0.62360000  0.42150000  1.0 0.6261865156
C  C524  1  0.57850000  0.62640000  0.92150000  1.0 0.6261865156
C  C525  1  0.17150000  0.62640000  0.32850000  1.0 0.6261865156
C  C526  1  0.37640000  0.82850000  0.57850000  1.0 0.6261865156
C  C527  1  0.07850000  0.62360000  0.32850000  1.0 0.6261865156
C  C528  1  0.87360000  0.42150000  0.57850000  1.0 0.6261865156
C  C529  1  0.37360000  0.82850000  0.67150000  1.0 0.6261865156
C  C530  1  0.67150000  0.62360000  0.92150000  1.0 0.6261865156
C  C531  1  0.32850000  0.87640000  0.57850000  1.0 0.6261865156
C  C532  1  0.62360000  0.57850000  0.82850000  1.0 0.6261865156
C  C533  1  0.32850000  0.87360000  0.67150000  1.0 0.6261865156
C  C534  1  0.42150000  0.82850000  0.62360000  1.0 0.6261865156
C  C535  1  0.92150000  0.87360000  0.07850000  1.0 0.6261865156
C  C536  1  0.62640000  0.57850000  0.92150000  1.0 0.6261865156
C  C537  1  0.67150000  0.67150000  0.87360000  1.0 0.6261865156
C  C538  1  0.62640000  0.17150000  0.32850000  1.0 0.6261865156
C  C539  1  0.92150000  0.87640000  0.17150000  1.0 0.6261865156
C  C540  1  0.82850000  0.92150000  0.12360000  1.0 0.6261865156
C  C541  1  0.62360000  0.17150000  0.42150000  1.0 0.6261865156
C  C542  1  0.57850000  0.07850000  0.37360000  1.0 0.6261865156
C  C543  1  0.42150000  0.92150000  0.62640000  1.0 0.6261865156
C  C544  1  0.67150000  0.07850000  0.37640000  1.0 0.6261865156
C  C545  1  0.82850000  0.82850000  0.12640000  1.0 0.6261865156
C  C546  1  0.57850000  0.67150000  0.87640000  1.0 0.6261865156
C  C547  1  0.37640000  0.92150000  0.67150000  1.0 0.6261865156
C  C548  1  0.07850000  0.12640000  0.92150000  1.0 0.6261865156
C  C549  1  0.67150000  0.12640000  0.32850000  1.0 0.6261865156
C  C550  1  0.87640000  0.32850000  0.57850000  1.0 0.6261865156
C  C551  1  0.57850000  0.12360000  0.32850000  1.0 0.6261865156
C  C552  1  0.37360000  0.92150000  0.57850000  1.0 0.6261865156
C  C553  1  0.87360000  0.32850000  0.67150000  1.0 0.6261865156
C  C554  1  0.32850000  0.37640000  0.07850000  1.0 0.6261865156
C  C555  1  0.62360000  0.07850000  0.32850000  1.0 0.6261865156
C  C556  1  0.32850000  0.37360000  0.17150000  1.0 0.6261865156
C  C557  1  0.42150000  0.32850000  0.12360000  1.0 0.6261865156
C  C558  1  0.92150000  0.37360000  0.57850000  1.0 0.6261865156
C  C559  1  0.62640000  0.07850000  0.42150000  1.0 0.6261865156
C  C560  1  0.67150000  0.17150000  0.37360000  1.0 0.6261865156
C  C561  1  0.62640000  0.67150000  0.82850000  1.0 0.6261865156
C  C562  1  0.92150000  0.37640000  0.67150000  1.0 0.6261865156
C  C563  1  0.82850000  0.42150000  0.62360000  1.0 0.6261865156
C  C564  1  0.62360000  0.67150000  0.92150000  1.0 0.6261865156
C  C565  1  0.57850000  0.57850000  0.87360000  1.0 0.6261865156
C  C566  1  0.42150000  0.42150000  0.12640000  1.0 0.6261865156
C  C567  1  0.67150000  0.57850000  0.87640000  1.0 0.6261865156
C  C568  1  0.82850000  0.32850000  0.62640000  1.0 0.6261865156
C  C569  1  0.57850000  0.17150000  0.37640000  1.0 0.6261865156
C  C570  1  0.37640000  0.42150000  0.17150000  1.0 0.6261865156
C  C571  1  0.07850000  0.62640000  0.42150000  1.0 0.6261865156
C  C572  1  0.67150000  0.62640000  0.82850000  1.0 0.6261865156
C  C573  1  0.87640000  0.82850000  0.07850000  1.0 0.6261865156
C  C574  1  0.57850000  0.62360000  0.82850000  1.0 0.6261865156
C  C575  1  0.37360000  0.42150000  0.07850000  1.0 0.6261865156
C  C576  1  0.87360000  0.82850000  0.17150000  1.0 0.6261865156
C  C577  1  0.90090000  0.82400000  0.82960000  1.0 0.0825244325
C  C578  1  0.17600000  0.65090000  0.07960000  1.0 0.0825244325
C  C579  1  0.90090000  0.92600000  0.42040000  1.0 0.0825244325
C  C580  1  0.17040000  0.90090000  0.17600000  1.0 0.0825244325
C  C581  1  0.34910000  0.92600000  0.32960000  1.0 0.0825244325
C  C582  1  0.07400000  0.65090000  0.67040000  1.0 0.0825244325
C  C583  1  0.09910000  0.92040000  0.42600000  1.0 0.0825244325
C  C584  1  0.07400000  0.09910000  0.57960000  1.0 0.0825244325
C  C585  1  0.34910000  0.82400000  0.92040000  1.0 0.0825244325
C  C586  1  0.07960000  0.84910000  0.67600000  1.0 0.0825244325
C  C587  1  0.17600000  0.09910000  0.17040000  1.0 0.0825244325
C  C588  1  0.15090000  0.82960000  0.92600000  1.0 0.0825244325
C  C589  1  0.17040000  0.84910000  0.07400000  1.0 0.0825244325
C  C590  1  0.09910000  0.82960000  0.82400000  1.0 0.0825244325
C  C591  1  0.07960000  0.90090000  0.57400000  1.0 0.0825244325
C  C592  1  0.15090000  0.92040000  0.32400000  1.0 0.0825244325
C  C593  1  0.82400000  0.17040000  0.09910000  1.0 0.0825244325
C  C594  1  0.42040000  0.17600000  0.84910000  1.0 0.0825244325
C  C595  1  0.32960000  0.07400000  0.34910000  1.0 0.0825244325
C  C596  1  0.42040000  0.07400000  0.90090000  1.0 0.0825244325
C  C597  1  0.32400000  0.07960000  0.15090000  1.0 0.0825244325
C  C598  1  0.82960000  0.17600000  0.90090000  1.0 0.0825244325
C  C599  1  0.92600000  0.17040000  0.15090000  1.0 0.0825244325
C  C600  1  0.42600000  0.07960000  0.09910000  1.0 0.0825244325
C  C601  1  0.92040000  0.17600000  0.34910000  1.0 0.0825244325
C  C602  1  0.90090000  0.32400000  0.32960000  1.0 0.0825244325
C  C603  1  0.17600000  0.15090000  0.57960000  1.0 0.0825244325
C  C604  1  0.90090000  0.42600000  0.92040000  1.0 0.0825244325
C  C605  1  0.17040000  0.40090000  0.67600000  1.0 0.0825244325
C  C606  1  0.34910000  0.42600000  0.82960000  1.0 0.0825244325
C  C607  1  0.07400000  0.15090000  0.17040000  1.0 0.0825244325
C  C608  1  0.09910000  0.42040000  0.92600000  1.0 0.0825244325
C  C609  1  0.07400000  0.59910000  0.07960000  1.0 0.0825244325
C  C610  1  0.34910000  0.32400000  0.42040000  1.0 0.0825244325
C  C611  1  0.07960000  0.34910000  0.17600000  1.0 0.0825244325
C  C612  1  0.17600000  0.59910000  0.67040000  1.0 0.0825244325
C  C613  1  0.15090000  0.32960000  0.42600000  1.0 0.0825244325
C  C614  1  0.17040000  0.34910000  0.57400000  1.0 0.0825244325
C  C615  1  0.09910000  0.32960000  0.32400000  1.0 0.0825244325
C  C616  1  0.07960000  0.40090000  0.07400000  1.0 0.0825244325
C  C617  1  0.15090000  0.42040000  0.82400000  1.0 0.0825244325
C  C618  1  0.82400000  0.67040000  0.59910000  1.0 0.0825244325
C  C619  1  0.42040000  0.67600000  0.34910000  1.0 0.0825244325
C  C620  1  0.32960000  0.57400000  0.84910000  1.0 0.0825244325
C  C621  1  0.42040000  0.57400000  0.40090000  1.0 0.0825244325
C  C622  1  0.32400000  0.57960000  0.65090000  1.0 0.0825244325
C  C623  1  0.82960000  0.67600000  0.40090000  1.0 0.0825244325
C  C624  1  0.92600000  0.67040000  0.65090000  1.0 0.0825244325
C  C625  1  0.42600000  0.57960000  0.59910000  1.0 0.0825244325
C  C626  1  0.92040000  0.67600000  0.84910000  1.0 0.0825244325
C  C627  1  0.40090000  0.82400000  0.32960000  1.0 0.0825244325
C  C628  1  0.67600000  0.65090000  0.57960000  1.0 0.0825244325
C  C629  1  0.40090000  0.92600000  0.92040000  1.0 0.0825244325
C  C630  1  0.67040000  0.90090000  0.67600000  1.0 0.0825244325
C  C631  1  0.84910000  0.92600000  0.82960000  1.0 0.0825244325
C  C632  1  0.57400000  0.65090000  0.17040000  1.0 0.0825244325
C  C633  1  0.59910000  0.92040000  0.92600000  1.0 0.0825244325
C  C634  1  0.57400000  0.09910000  0.07960000  1.0 0.0825244325
C  C635  1  0.84910000  0.82400000  0.42040000  1.0 0.0825244325
C  C636  1  0.57960000  0.84910000  0.17600000  1.0 0.0825244325
C  C637  1  0.67600000  0.09910000  0.67040000  1.0 0.0825244325
C  C638  1  0.65090000  0.82960000  0.42600000  1.0 0.0825244325
C  C639  1  0.67040000  0.84910000  0.57400000  1.0 0.0825244325
C  C640  1  0.59910000  0.82960000  0.32400000  1.0 0.0825244325
C  C641  1  0.57960000  0.90090000  0.07400000  1.0 0.0825244325
C  C642  1  0.65090000  0.92040000  0.82400000  1.0 0.0825244325
C  C643  1  0.32400000  0.17040000  0.59910000  1.0 0.0825244325
C  C644  1  0.82960000  0.07400000  0.84910000  1.0 0.0825244325
C  C645  1  0.92040000  0.07400000  0.40090000  1.0 0.0825244325
C  C646  1  0.82400000  0.07960000  0.65090000  1.0 0.0825244325
C  C647  1  0.32960000  0.17600000  0.40090000  1.0 0.0825244325
C  C648  1  0.42600000  0.17040000  0.65090000  1.0 0.0825244325
C  C649  1  0.92600000  0.07960000  0.59910000  1.0 0.0825244325
C  C650  1  0.40090000  0.32400000  0.82960000  1.0 0.0825244325
C  C651  1  0.67600000  0.15090000  0.07960000  1.0 0.0825244325
C  C652  1  0.40090000  0.42600000  0.42040000  1.0 0.0825244325
C  C653  1  0.67040000  0.40090000  0.17600000  1.0 0.0825244325
C  C654  1  0.84910000  0.42600000  0.32960000  1.0 0.0825244325
C  C655  1  0.57400000  0.15090000  0.67040000  1.0 0.0825244325
C  C656  1  0.59910000  0.42040000  0.42600000  1.0 0.0825244325
C  C657  1  0.57400000  0.59910000  0.57960000  1.0 0.0825244325
C  C658  1  0.84910000  0.32400000  0.92040000  1.0 0.0825244325
C  C659  1  0.57960000  0.34910000  0.67600000  1.0 0.0825244325
C  C660  1  0.67600000  0.59910000  0.17040000  1.0 0.0825244325
C  C661  1  0.65090000  0.32960000  0.92600000  1.0 0.0825244325
C  C662  1  0.67040000  0.34910000  0.07400000  1.0 0.0825244325
C  C663  1  0.59910000  0.32960000  0.82400000  1.0 0.0825244325
C  C664  1  0.57960000  0.40090000  0.57400000  1.0 0.0825244325
C  C665  1  0.65090000  0.42040000  0.32400000  1.0 0.0825244325
C  C666  1  0.32400000  0.67040000  0.09910000  1.0 0.0825244325
C  C667  1  0.82960000  0.57400000  0.34910000  1.0 0.0825244325
C  C668  1  0.92040000  0.57400000  0.90090000  1.0 0.0825244325
C  C669  1  0.82400000  0.57960000  0.15090000  1.0 0.0825244325
C  C670  1  0.32960000  0.67600000  0.90090000  1.0 0.0825244325
C  C671  1  0.42600000  0.67040000  0.15090000  1.0 0.0825244325
C  C672  1  0.92600000  0.57960000  0.09910000  1.0 0.0825244325
C  C673  1  0.09910000  0.17600000  0.17040000  1.0 0.0825244325
C  C674  1  0.82400000  0.34910000  0.92040000  1.0 0.0825244325
C  C675  1  0.09910000  0.07400000  0.57960000  1.0 0.0825244325
C  C676  1  0.82960000  0.09910000  0.82400000  1.0 0.0825244325
C  C677  1  0.65090000  0.07400000  0.67040000  1.0 0.0825244325
C  C678  1  0.92600000  0.34910000  0.32960000  1.0 0.0825244325
C  C679  1  0.90090000  0.07960000  0.57400000  1.0 0.0825244325
C  C680  1  0.92600000  0.90090000  0.42040000  1.0 0.0825244325
C  C681  1  0.65090000  0.17600000  0.07960000  1.0 0.0825244325
C  C682  1  0.92040000  0.15090000  0.32400000  1.0 0.0825244325
C  C683  1  0.82400000  0.90090000  0.82960000  1.0 0.0825244325
C  C684  1  0.84910000  0.17040000  0.07400000  1.0 0.0825244325
C  C685  1  0.82960000  0.15090000  0.92600000  1.0 0.0825244325
C  C686  1  0.90090000  0.17040000  0.17600000  1.0 0.0825244325
C  C687  1  0.92040000  0.09910000  0.42600000  1.0 0.0825244325
C  C688  1  0.84910000  0.07960000  0.67600000  1.0 0.0825244325
C  C689  1  0.17600000  0.82960000  0.90090000  1.0 0.0825244325
C  C690  1  0.57960000  0.82400000  0.15090000  1.0 0.0825244325
C  C691  1  0.67040000  0.92600000  0.65090000  1.0 0.0825244325
C  C692  1  0.57960000  0.92600000  0.09910000  1.0 0.0825244325
C  C693  1  0.67600000  0.92040000  0.84910000  1.0 0.0825244325
C  C694  1  0.17040000  0.82400000  0.09910000  1.0 0.0825244325
C  C695  1  0.07400000  0.82960000  0.84910000  1.0 0.0825244325
C  C696  1  0.57400000  0.92040000  0.90090000  1.0 0.0825244325
C  C697  1  0.07960000  0.82400000  0.65090000  1.0 0.0825244325
C  C698  1  0.09910000  0.67600000  0.67040000  1.0 0.0825244325
C  C699  1  0.82400000  0.84910000  0.42040000  1.0 0.0825244325
C  C700  1  0.09910000  0.57400000  0.07960000  1.0 0.0825244325
C  C701  1  0.82960000  0.59910000  0.32400000  1.0 0.0825244325
C  C702  1  0.65090000  0.57400000  0.17040000  1.0 0.0825244325
C  C703  1  0.92600000  0.84910000  0.82960000  1.0 0.0825244325
C  C704  1  0.90090000  0.57960000  0.07400000  1.0 0.0825244325
C  C705  1  0.92600000  0.40090000  0.92040000  1.0 0.0825244325
C  C706  1  0.65090000  0.67600000  0.57960000  1.0 0.0825244325
C  C707  1  0.92040000  0.65090000  0.82400000  1.0 0.0825244325
C  C708  1  0.82400000  0.40090000  0.32960000  1.0 0.0825244325
C  C709  1  0.84910000  0.67040000  0.57400000  1.0 0.0825244325
C  C710  1  0.82960000  0.65090000  0.42600000  1.0 0.0825244325
C  C711  1  0.90090000  0.67040000  0.67600000  1.0 0.0825244325
C  C712  1  0.92040000  0.59910000  0.92600000  1.0 0.0825244325
C  C713  1  0.84910000  0.57960000  0.17600000  1.0 0.0825244325
C  C714  1  0.17600000  0.32960000  0.40090000  1.0 0.0825244325
C  C715  1  0.57960000  0.32400000  0.65090000  1.0 0.0825244325
C  C716  1  0.67040000  0.42600000  0.15090000  1.0 0.0825244325
C  C717  1  0.57960000  0.42600000  0.59910000  1.0 0.0825244325
C  C718  1  0.67600000  0.42040000  0.34910000  1.0 0.0825244325
C  C719  1  0.17040000  0.32400000  0.59910000  1.0 0.0825244325
C  C720  1  0.07400000  0.32960000  0.34910000  1.0 0.0825244325
C  C721  1  0.57400000  0.42040000  0.40090000  1.0 0.0825244325
C  C722  1  0.07960000  0.32400000  0.15090000  1.0 0.0825244325
C  C723  1  0.59910000  0.17600000  0.67040000  1.0 0.0825244325
C  C724  1  0.32400000  0.34910000  0.42040000  1.0 0.0825244325
C  C725  1  0.59910000  0.07400000  0.07960000  1.0 0.0825244325
C  C726  1  0.32960000  0.09910000  0.32400000  1.0 0.0825244325
C  C727  1  0.15090000  0.07400000  0.17040000  1.0 0.0825244325
C  C728  1  0.42600000  0.34910000  0.82960000  1.0 0.0825244325
C  C729  1  0.40090000  0.07960000  0.07400000  1.0 0.0825244325
C  C730  1  0.42600000  0.90090000  0.92040000  1.0 0.0825244325
C  C731  1  0.15090000  0.17600000  0.57960000  1.0 0.0825244325
C  C732  1  0.42040000  0.15090000  0.82400000  1.0 0.0825244325
C  C733  1  0.32400000  0.90090000  0.32960000  1.0 0.0825244325
C  C734  1  0.34910000  0.17040000  0.57400000  1.0 0.0825244325
C  C735  1  0.32960000  0.15090000  0.42600000  1.0 0.0825244325
C  C736  1  0.40090000  0.17040000  0.67600000  1.0 0.0825244325
C  C737  1  0.42040000  0.09910000  0.92600000  1.0 0.0825244325
C  C738  1  0.34910000  0.07960000  0.17600000  1.0 0.0825244325
C  C739  1  0.67600000  0.82960000  0.40090000  1.0 0.0825244325
C  C740  1  0.17040000  0.92600000  0.15090000  1.0 0.0825244325
C  C741  1  0.07960000  0.92600000  0.59910000  1.0 0.0825244325
C  C742  1  0.17600000  0.92040000  0.34910000  1.0 0.0825244325
C  C743  1  0.67040000  0.82400000  0.59910000  1.0 0.0825244325
C  C744  1  0.57400000  0.82960000  0.34910000  1.0 0.0825244325
C  C745  1  0.07400000  0.92040000  0.40090000  1.0 0.0825244325
C  C746  1  0.59910000  0.67600000  0.17040000  1.0 0.0825244325
C  C747  1  0.32400000  0.84910000  0.92040000  1.0 0.0825244325
C  C748  1  0.59910000  0.57400000  0.57960000  1.0 0.0825244325
C  C749  1  0.32960000  0.59910000  0.82400000  1.0 0.0825244325
C  C750  1  0.15090000  0.57400000  0.67040000  1.0 0.0825244325
C  C751  1  0.42600000  0.84910000  0.32960000  1.0 0.0825244325
C  C752  1  0.40090000  0.57960000  0.57400000  1.0 0.0825244325
C  C753  1  0.42600000  0.40090000  0.42040000  1.0 0.0825244325
C  C754  1  0.15090000  0.67600000  0.07960000  1.0 0.0825244325
C  C755  1  0.42040000  0.65090000  0.32400000  1.0 0.0825244325
C  C756  1  0.32400000  0.40090000  0.82960000  1.0 0.0825244325
C  C757  1  0.34910000  0.67040000  0.07400000  1.0 0.0825244325
C  C758  1  0.32960000  0.65090000  0.92600000  1.0 0.0825244325
C  C759  1  0.40090000  0.67040000  0.17600000  1.0 0.0825244325
C  C760  1  0.42040000  0.59910000  0.42600000  1.0 0.0825244325
C  C761  1  0.34910000  0.57960000  0.67600000  1.0 0.0825244325
C  C762  1  0.67600000  0.32960000  0.90090000  1.0 0.0825244325
C  C763  1  0.17040000  0.42600000  0.65090000  1.0 0.0825244325
C  C764  1  0.07960000  0.42600000  0.09910000  1.0 0.0825244325
C  C765  1  0.17600000  0.42040000  0.84910000  1.0 0.0825244325
C  C766  1  0.67040000  0.32400000  0.09910000  1.0 0.0825244325
C  C767  1  0.57400000  0.32960000  0.84910000  1.0 0.0825244325
C  C768  1  0.07400000  0.42040000  0.90090000  1.0 0.0825244325
C  C769  1  0.91560000  0.81030000  0.82670000  1.0 -0.1193160579
C  C770  1  0.18970000  0.66560000  0.07670000  1.0 -0.1193160579
C  C771  1  0.91560000  0.93970000  0.42330000  1.0 -0.1193160579
C  C772  1  0.17330000  0.91560000  0.18970000  1.0 -0.1193160579
C  C773  1  0.33440000  0.93970000  0.32670000  1.0 -0.1193160579
C  C774  1  0.06030000  0.66560000  0.67330000  1.0 -0.1193160579
C  C775  1  0.08440000  0.92330000  0.43970000  1.0 -0.1193160579
C  C776  1  0.06030000  0.08440000  0.57670000  1.0 -0.1193160579
C  C777  1  0.33440000  0.81030000  0.92330000  1.0 -0.1193160579
C  C778  1  0.07670000  0.83440000  0.68970000  1.0 -0.1193160579
C  C779  1  0.18970000  0.08440000  0.17330000  1.0 -0.1193160579
C  C780  1  0.16560000  0.82670000  0.93970000  1.0 -0.1193160579
C  C781  1  0.17330000  0.83440000  0.06030000  1.0 -0.1193160579
C  C782  1  0.08440000  0.82670000  0.81030000  1.0 -0.1193160579
C  C783  1  0.07670000  0.91560000  0.56030000  1.0 -0.1193160579
C  C784  1  0.16560000  0.92330000  0.31030000  1.0 -0.1193160579
C  C785  1  0.81030000  0.17330000  0.08440000  1.0 -0.1193160579
C  C786  1  0.42330000  0.18970000  0.83440000  1.0 -0.1193160579
C  C787  1  0.32670000  0.06030000  0.33440000  1.0 -0.1193160579
C  C788  1  0.42330000  0.06030000  0.91560000  1.0 -0.1193160579
C  C789  1  0.31030000  0.07670000  0.16560000  1.0 -0.1193160579
C  C790  1  0.82670000  0.18970000  0.91560000  1.0 -0.1193160579
C  C791  1  0.93970000  0.17330000  0.16560000  1.0 -0.1193160579
C  C792  1  0.43970000  0.07670000  0.08440000  1.0 -0.1193160579
C  C793  1  0.92330000  0.18970000  0.33440000  1.0 -0.1193160579
C  C794  1  0.91560000  0.31030000  0.32670000  1.0 -0.1193160579
C  C795  1  0.18970000  0.16560000  0.57670000  1.0 -0.1193160579
C  C796  1  0.91560000  0.43970000  0.92330000  1.0 -0.1193160579
C  C797  1  0.17330000  0.41560000  0.68970000  1.0 -0.1193160579
C  C798  1  0.33440000  0.43970000  0.82670000  1.0 -0.1193160579
C  C799  1  0.06030000  0.16560000  0.17330000  1.0 -0.1193160579
C  C800  1  0.08440000  0.42330000  0.93970000  1.0 -0.1193160579
C  C801  1  0.06030000  0.58440000  0.07670000  1.0 -0.1193160579
C  C802  1  0.33440000  0.31030000  0.42330000  1.0 -0.1193160579
C  C803  1  0.07670000  0.33440000  0.18970000  1.0 -0.1193160579
C  C804  1  0.18970000  0.58440000  0.67330000  1.0 -0.1193160579
C  C805  1  0.16560000  0.32670000  0.43970000  1.0 -0.1193160579
C  C806  1  0.17330000  0.33440000  0.56030000  1.0 -0.1193160579
C  C807  1  0.08440000  0.32670000  0.31030000  1.0 -0.1193160579
C  C808  1  0.07670000  0.41560000  0.06030000  1.0 -0.1193160579
C  C809  1  0.16560000  0.42330000  0.81030000  1.0 -0.1193160579
C  C810  1  0.81030000  0.67330000  0.58440000  1.0 -0.1193160579
C  C811  1  0.42330000  0.68970000  0.33440000  1.0 -0.1193160579
C  C812  1  0.32670000  0.56030000  0.83440000  1.0 -0.1193160579
C  C813  1  0.42330000  0.56030000  0.41560000  1.0 -0.1193160579
C  C814  1  0.31030000  0.57670000  0.66560000  1.0 -0.1193160579
C  C815  1  0.82670000  0.68970000  0.41560000  1.0 -0.1193160579
C  C816  1  0.93970000  0.67330000  0.66560000  1.0 -0.1193160579
C  C817  1  0.43970000  0.57670000  0.58440000  1.0 -0.1193160579
C  C818  1  0.92330000  0.68970000  0.83440000  1.0 -0.1193160579
C  C819  1  0.41560000  0.81030000  0.32670000  1.0 -0.1193160579
C  C820  1  0.68970000  0.66560000  0.57670000  1.0 -0.1193160579
C  C821  1  0.41560000  0.93970000  0.92330000  1.0 -0.1193160579
C  C822  1  0.67330000  0.91560000  0.68970000  1.0 -0.1193160579
C  C823  1  0.83440000  0.93970000  0.82670000  1.0 -0.1193160579
C  C824  1  0.56030000  0.66560000  0.17330000  1.0 -0.1193160579
C  C825  1  0.58440000  0.92330000  0.93970000  1.0 -0.1193160579
C  C826  1  0.56030000  0.08440000  0.07670000  1.0 -0.1193160579
C  C827  1  0.83440000  0.81030000  0.42330000  1.0 -0.1193160579
C  C828  1  0.57670000  0.83440000  0.18970000  1.0 -0.1193160579
C  C829  1  0.68970000  0.08440000  0.67330000  1.0 -0.1193160579
C  C830  1  0.66560000  0.82670000  0.43970000  1.0 -0.1193160579
C  C831  1  0.67330000  0.83440000  0.56030000  1.0 -0.1193160579
C  C832  1  0.58440000  0.82670000  0.31030000  1.0 -0.1193160579
C  C833  1  0.57670000  0.91560000  0.06030000  1.0 -0.1193160579
C  C834  1  0.66560000  0.92330000  0.81030000  1.0 -0.1193160579
C  C835  1  0.31030000  0.17330000  0.58440000  1.0 -0.1193160579
C  C836  1  0.82670000  0.06030000  0.83440000  1.0 -0.1193160579
C  C837  1  0.92330000  0.06030000  0.41560000  1.0 -0.1193160579
C  C838  1  0.81030000  0.07670000  0.66560000  1.0 -0.1193160579
C  C839  1  0.32670000  0.18970000  0.41560000  1.0 -0.1193160579
C  C840  1  0.43970000  0.17330000  0.66560000  1.0 -0.1193160579
C  C841  1  0.93970000  0.07670000  0.58440000  1.0 -0.1193160579
C  C842  1  0.41560000  0.31030000  0.82670000  1.0 -0.1193160579
C  C843  1  0.68970000  0.16560000  0.07670000  1.0 -0.1193160579
C  C844  1  0.41560000  0.43970000  0.42330000  1.0 -0.1193160579
C  C845  1  0.67330000  0.41560000  0.18970000  1.0 -0.1193160579
C  C846  1  0.83440000  0.43970000  0.32670000  1.0 -0.1193160579
C  C847  1  0.56030000  0.16560000  0.67330000  1.0 -0.1193160579
C  C848  1  0.58440000  0.42330000  0.43970000  1.0 -0.1193160579
C  C849  1  0.56030000  0.58440000  0.57670000  1.0 -0.1193160579
C  C850  1  0.83440000  0.31030000  0.92330000  1.0 -0.1193160579
C  C851  1  0.57670000  0.33440000  0.68970000  1.0 -0.1193160579
C  C852  1  0.68970000  0.58440000  0.17330000  1.0 -0.1193160579
C  C853  1  0.66560000  0.32670000  0.93970000  1.0 -0.1193160579
C  C854  1  0.67330000  0.33440000  0.06030000  1.0 -0.1193160579
C  C855  1  0.58440000  0.32670000  0.81030000  1.0 -0.1193160579
C  C856  1  0.57670000  0.41560000  0.56030000  1.0 -0.1193160579
C  C857  1  0.66560000  0.42330000  0.31030000  1.0 -0.1193160579
C  C858  1  0.31030000  0.67330000  0.08440000  1.0 -0.1193160579
C  C859  1  0.82670000  0.56030000  0.33440000  1.0 -0.1193160579
C  C860  1  0.92330000  0.56030000  0.91560000  1.0 -0.1193160579
C  C861  1  0.81030000  0.57670000  0.16560000  1.0 -0.1193160579
C  C862  1  0.32670000  0.68970000  0.91560000  1.0 -0.1193160579
C  C863  1  0.43970000  0.67330000  0.16560000  1.0 -0.1193160579
C  C864  1  0.93970000  0.57670000  0.08440000  1.0 -0.1193160579
C  C865  1  0.08440000  0.18970000  0.17330000  1.0 -0.1193160579
C  C866  1  0.81030000  0.33440000  0.92330000  1.0 -0.1193160579
C  C867  1  0.08440000  0.06030000  0.57670000  1.0 -0.1193160579
C  C868  1  0.82670000  0.08440000  0.81030000  1.0 -0.1193160579
C  C869  1  0.66560000  0.06030000  0.67330000  1.0 -0.1193160579
C  C870  1  0.93970000  0.33440000  0.32670000  1.0 -0.1193160579
C  C871  1  0.91560000  0.07670000  0.56030000  1.0 -0.1193160579
C  C872  1  0.93970000  0.91560000  0.42330000  1.0 -0.1193160579
C  C873  1  0.66560000  0.18970000  0.07670000  1.0 -0.1193160579
C  C874  1  0.92330000  0.16560000  0.31030000  1.0 -0.1193160579
C  C875  1  0.81030000  0.91560000  0.82670000  1.0 -0.1193160579
C  C876  1  0.83440000  0.17330000  0.06030000  1.0 -0.1193160579
C  C877  1  0.82670000  0.16560000  0.93970000  1.0 -0.1193160579
C  C878  1  0.91560000  0.17330000  0.18970000  1.0 -0.1193160579
C  C879  1  0.92330000  0.08440000  0.43970000  1.0 -0.1193160579
C  C880  1  0.83440000  0.07670000  0.68970000  1.0 -0.1193160579
C  C881  1  0.18970000  0.82670000  0.91560000  1.0 -0.1193160579
C  C882  1  0.57670000  0.81030000  0.16560000  1.0 -0.1193160579
C  C883  1  0.67330000  0.93970000  0.66560000  1.0 -0.1193160579
C  C884  1  0.57670000  0.93970000  0.08440000  1.0 -0.1193160579
C  C885  1  0.68970000  0.92330000  0.83440000  1.0 -0.1193160579
C  C886  1  0.17330000  0.81030000  0.08440000  1.0 -0.1193160579
C  C887  1  0.06030000  0.82670000  0.83440000  1.0 -0.1193160579
C  C888  1  0.56030000  0.92330000  0.91560000  1.0 -0.1193160579
C  C889  1  0.07670000  0.81030000  0.66560000  1.0 -0.1193160579
C  C890  1  0.08440000  0.68970000  0.67330000  1.0 -0.1193160579
C  C891  1  0.81030000  0.83440000  0.42330000  1.0 -0.1193160579
C  C892  1  0.08440000  0.56030000  0.07670000  1.0 -0.1193160579
C  C893  1  0.82670000  0.58440000  0.31030000  1.0 -0.1193160579
C  C894  1  0.66560000  0.56030000  0.17330000  1.0 -0.1193160579
C  C895  1  0.93970000  0.83440000  0.82670000  1.0 -0.1193160579
C  C896  1  0.91560000  0.57670000  0.06030000  1.0 -0.1193160579
C  C897  1  0.93970000  0.41560000  0.92330000  1.0 -0.1193160579
C  C898  1  0.66560000  0.68970000  0.57670000  1.0 -0.1193160579
C  C899  1  0.92330000  0.66560000  0.81030000  1.0 -0.1193160579
C  C900  1  0.81030000  0.41560000  0.32670000  1.0 -0.1193160579
C  C901  1  0.83440000  0.67330000  0.56030000  1.0 -0.1193160579
C  C902  1  0.82670000  0.66560000  0.43970000  1.0 -0.1193160579
C  C903  1  0.91560000  0.67330000  0.68970000  1.0 -0.1193160579
C  C904  1  0.92330000  0.58440000  0.93970000  1.0 -0.1193160579
C  C905  1  0.83440000  0.57670000  0.18970000  1.0 -0.1193160579
C  C906  1  0.18970000  0.32670000  0.41560000  1.0 -0.1193160579
C  C907  1  0.57670000  0.31030000  0.66560000  1.0 -0.1193160579
C  C908  1  0.67330000  0.43970000  0.16560000  1.0 -0.1193160579
C  C909  1  0.57670000  0.43970000  0.58440000  1.0 -0.1193160579
C  C910  1  0.68970000  0.42330000  0.33440000  1.0 -0.1193160579
C  C911  1  0.17330000  0.31030000  0.58440000  1.0 -0.1193160579
C  C912  1  0.06030000  0.32670000  0.33440000  1.0 -0.1193160579
C  C913  1  0.56030000  0.42330000  0.41560000  1.0 -0.1193160579
C  C914  1  0.07670000  0.31030000  0.16560000  1.0 -0.1193160579
C  C915  1  0.58440000  0.18970000  0.67330000  1.0 -0.1193160579
C  C916  1  0.31030000  0.33440000  0.42330000  1.0 -0.1193160579
C  C917  1  0.58440000  0.06030000  0.07670000  1.0 -0.1193160579
C  C918  1  0.32670000  0.08440000  0.31030000  1.0 -0.1193160579
C  C919  1  0.16560000  0.06030000  0.17330000  1.0 -0.1193160579
C  C920  1  0.43970000  0.33440000  0.82670000  1.0 -0.1193160579
C  C921  1  0.41560000  0.07670000  0.06030000  1.0 -0.1193160579
C  C922  1  0.43970000  0.91560000  0.92330000  1.0 -0.1193160579
C  C923  1  0.16560000  0.18970000  0.57670000  1.0 -0.1193160579
C  C924  1  0.42330000  0.16560000  0.81030000  1.0 -0.1193160579
C  C925  1  0.31030000  0.91560000  0.32670000  1.0 -0.1193160579
C  C926  1  0.33440000  0.17330000  0.56030000  1.0 -0.1193160579
C  C927  1  0.32670000  0.16560000  0.43970000  1.0 -0.1193160579
C  C928  1  0.41560000  0.17330000  0.68970000  1.0 -0.1193160579
C  C929  1  0.42330000  0.08440000  0.93970000  1.0 -0.1193160579
C  C930  1  0.33440000  0.07670000  0.18970000  1.0 -0.1193160579
C  C931  1  0.68970000  0.82670000  0.41560000  1.0 -0.1193160579
C  C932  1  0.17330000  0.93970000  0.16560000  1.0 -0.1193160579
C  C933  1  0.07670000  0.93970000  0.58440000  1.0 -0.1193160579
C  C934  1  0.18970000  0.92330000  0.33440000  1.0 -0.1193160579
C  C935  1  0.67330000  0.81030000  0.58440000  1.0 -0.1193160579
C  C936  1  0.56030000  0.82670000  0.33440000  1.0 -0.1193160579
C  C937  1  0.06030000  0.92330000  0.41560000  1.0 -0.1193160579
C  C938  1  0.58440000  0.68970000  0.17330000  1.0 -0.1193160579
C  C939  1  0.31030000  0.83440000  0.92330000  1.0 -0.1193160579
C  C940  1  0.58440000  0.56030000  0.57670000  1.0 -0.1193160579
C  C941  1  0.32670000  0.58440000  0.81030000  1.0 -0.1193160579
C  C942  1  0.16560000  0.56030000  0.67330000  1.0 -0.1193160579
C  C943  1  0.43970000  0.83440000  0.32670000  1.0 -0.1193160579
C  C944  1  0.41560000  0.57670000  0.56030000  1.0 -0.1193160579
C  C945  1  0.43970000  0.41560000  0.42330000  1.0 -0.1193160579
C  C946  1  0.16560000  0.68970000  0.07670000  1.0 -0.1193160579
C  C947  1  0.42330000  0.66560000  0.31030000  1.0 -0.1193160579
C  C948  1  0.31030000  0.41560000  0.82670000  1.0 -0.1193160579
C  C949  1  0.33440000  0.67330000  0.06030000  1.0 -0.1193160579
C  C950  1  0.32670000  0.66560000  0.93970000  1.0 -0.1193160579
C  C951  1  0.41560000  0.67330000  0.18970000  1.0 -0.1193160579
C  C952  1  0.42330000  0.58440000  0.43970000  1.0 -0.1193160579
C  C953  1  0.33440000  0.57670000  0.68970000  1.0 -0.1193160579
C  C954  1  0.68970000  0.32670000  0.91560000  1.0 -0.1193160579
C  C955  1  0.17330000  0.43970000  0.66560000  1.0 -0.1193160579
C  C956  1  0.07670000  0.43970000  0.08440000  1.0 -0.1193160579
C  C957  1  0.18970000  0.42330000  0.83440000  1.0 -0.1193160579
C  C958  1  0.67330000  0.31030000  0.08440000  1.0 -0.1193160579
C  C959  1  0.56030000  0.32670000  0.83440000  1.0 -0.1193160579
C  C960  1  0.06030000  0.42330000  0.91560000  1.0 -0.1193160579
C  C961  1  0.89290000  0.85710000  0.84350000  1.0 0.6001776091
C  C962  1  0.14290000  0.64290000  0.09350000  1.0 0.6001776091
C  C963  1  0.89290000  0.89290000  0.40650000  1.0 0.6001776091
C  C964  1  0.15650000  0.89290000  0.14290000  1.0 0.6001776091
C  C965  1  0.35710000  0.89290000  0.34350000  1.0 0.6001776091
C  C966  1  0.10710000  0.64290000  0.65650000  1.0 0.6001776091
C  C967  1  0.10710000  0.90650000  0.39290000  1.0 0.6001776091
C  C968  1  0.10710000  0.10710000  0.59350000  1.0 0.6001776091
C  C969  1  0.35710000  0.85710000  0.90650000  1.0 0.6001776091
C  C970  1  0.09350000  0.85710000  0.64290000  1.0 0.6001776091
C  C971  1  0.14290000  0.10710000  0.15650000  1.0 0.6001776091
C  C972  1  0.14290000  0.84350000  0.89290000  1.0 0.6001776091
C  C973  1  0.15650000  0.85710000  0.10710000  1.0 0.6001776091
C  C974  1  0.10710000  0.84350000  0.85710000  1.0 0.6001776091
C  C975  1  0.09350000  0.89290000  0.60710000  1.0 0.6001776091
C  C976  1  0.14290000  0.90650000  0.35710000  1.0 0.6001776091
C  C977  1  0.85710000  0.15650000  0.10710000  1.0 0.6001776091
C  C978  1  0.40650000  0.14290000  0.85710000  1.0 0.6001776091
C  C979  1  0.34350000  0.10710000  0.35710000  1.0 0.6001776091
C  C980  1  0.40650000  0.10710000  0.89290000  1.0 0.6001776091
C  C981  1  0.35710000  0.09350000  0.14290000  1.0 0.6001776091
C  C982  1  0.84350000  0.14290000  0.89290000  1.0 0.6001776091
C  C983  1  0.89290000  0.15650000  0.14290000  1.0 0.6001776091
C  C984  1  0.39290000  0.09350000  0.10710000  1.0 0.6001776091
C  C985  1  0.90650000  0.14290000  0.35710000  1.0 0.6001776091
C  C986  1  0.89290000  0.35710000  0.34350000  1.0 0.6001776091
C  C987  1  0.14290000  0.14290000  0.59350000  1.0 0.6001776091
C  C988  1  0.89290000  0.39290000  0.90650000  1.0 0.6001776091
C  C989  1  0.15650000  0.39290000  0.64290000  1.0 0.6001776091
C  C990  1  0.35710000  0.39290000  0.84350000  1.0 0.6001776091
C  C991  1  0.10710000  0.14290000  0.15650000  1.0 0.6001776091
C  C992  1  0.10710000  0.40650000  0.89290000  1.0 0.6001776091
C  C993  1  0.10710000  0.60710000  0.09350000  1.0 0.6001776091
C  C994  1  0.35710000  0.35710000  0.40650000  1.0 0.6001776091
C  C995  1  0.09350000  0.35710000  0.14290000  1.0 0.6001776091
C  C996  1  0.14290000  0.60710000  0.65650000  1.0 0.6001776091
C  C997  1  0.14290000  0.34350000  0.39290000  1.0 0.6001776091
C  C998  1  0.15650000  0.35710000  0.60710000  1.0 0.6001776091
C  C999  1  0.10710000  0.34350000  0.35710000  1.0 0.6001776091
C  C1000  1  0.09350000  0.39290000  0.10710000  1.0 0.6001776091
C  C1001  1  0.14290000  0.40650000  0.85710000  1.0 0.6001776091
C  C1002  1  0.85710000  0.65650000  0.60710000  1.0 0.6001776091
C  C1003  1  0.40650000  0.64290000  0.35710000  1.0 0.6001776091
C  C1004  1  0.34350000  0.60710000  0.85710000  1.0 0.6001776091
C  C1005  1  0.40650000  0.60710000  0.39290000  1.0 0.6001776091
C  C1006  1  0.35710000  0.59350000  0.64290000  1.0 0.6001776091
C  C1007  1  0.84350000  0.64290000  0.39290000  1.0 0.6001776091
C  C1008  1  0.89290000  0.65650000  0.64290000  1.0 0.6001776091
C  C1009  1  0.39290000  0.59350000  0.60710000  1.0 0.6001776091
C  C1010  1  0.90650000  0.64290000  0.85710000  1.0 0.6001776091
C  C1011  1  0.39290000  0.85710000  0.34350000  1.0 0.6001776091
C  C1012  1  0.64290000  0.64290000  0.59350000  1.0 0.6001776091
C  C1013  1  0.39290000  0.89290000  0.90650000  1.0 0.6001776091
C  C1014  1  0.65650000  0.89290000  0.64290000  1.0 0.6001776091
C  C1015  1  0.85710000  0.89290000  0.84350000  1.0 0.6001776091
C  C1016  1  0.60710000  0.64290000  0.15650000  1.0 0.6001776091
C  C1017  1  0.60710000  0.90650000  0.89290000  1.0 0.6001776091
C  C1018  1  0.60710000  0.10710000  0.09350000  1.0 0.6001776091
C  C1019  1  0.85710000  0.85710000  0.40650000  1.0 0.6001776091
C  C1020  1  0.59350000  0.85710000  0.14290000  1.0 0.6001776091
C  C1021  1  0.64290000  0.10710000  0.65650000  1.0 0.6001776091
C  C1022  1  0.64290000  0.84350000  0.39290000  1.0 0.6001776091
C  C1023  1  0.65650000  0.85710000  0.60710000  1.0 0.6001776091
C  C1024  1  0.60710000  0.84350000  0.35710000  1.0 0.6001776091
C  C1025  1  0.59350000  0.89290000  0.10710000  1.0 0.6001776091
C  C1026  1  0.64290000  0.90650000  0.85710000  1.0 0.6001776091
C  C1027  1  0.35710000  0.15650000  0.60710000  1.0 0.6001776091
C  C1028  1  0.84350000  0.10710000  0.85710000  1.0 0.6001776091
C  C1029  1  0.90650000  0.10710000  0.39290000  1.0 0.6001776091
C  C1030  1  0.85710000  0.09350000  0.64290000  1.0 0.6001776091
C  C1031  1  0.34350000  0.14290000  0.39290000  1.0 0.6001776091
C  C1032  1  0.39290000  0.15650000  0.64290000  1.0 0.6001776091
C  C1033  1  0.89290000  0.09350000  0.60710000  1.0 0.6001776091
C  C1034  1  0.39290000  0.35710000  0.84350000  1.0 0.6001776091
C  C1035  1  0.64290000  0.14290000  0.09350000  1.0 0.6001776091
C  C1036  1  0.39290000  0.39290000  0.40650000  1.0 0.6001776091
C  C1037  1  0.65650000  0.39290000  0.14290000  1.0 0.6001776091
C  C1038  1  0.85710000  0.39290000  0.34350000  1.0 0.6001776091
C  C1039  1  0.60710000  0.14290000  0.65650000  1.0 0.6001776091
C  C1040  1  0.60710000  0.40650000  0.39290000  1.0 0.6001776091
C  C1041  1  0.60710000  0.60710000  0.59350000  1.0 0.6001776091
C  C1042  1  0.85710000  0.35710000  0.90650000  1.0 0.6001776091
C  C1043  1  0.59350000  0.35710000  0.64290000  1.0 0.6001776091
C  C1044  1  0.64290000  0.60710000  0.15650000  1.0 0.6001776091
C  C1045  1  0.64290000  0.34350000  0.89290000  1.0 0.6001776091
C  C1046  1  0.65650000  0.35710000  0.10710000  1.0 0.6001776091
C  C1047  1  0.60710000  0.34350000  0.85710000  1.0 0.6001776091
C  C1048  1  0.59350000  0.39290000  0.60710000  1.0 0.6001776091
C  C1049  1  0.64290000  0.40650000  0.35710000  1.0 0.6001776091
C  C1050  1  0.35710000  0.65650000  0.10710000  1.0 0.6001776091
C  C1051  1  0.84350000  0.60710000  0.35710000  1.0 0.6001776091
C  C1052  1  0.90650000  0.60710000  0.89290000  1.0 0.6001776091
C  C1053  1  0.85710000  0.59350000  0.14290000  1.0 0.6001776091
C  C1054  1  0.34350000  0.64290000  0.89290000  1.0 0.6001776091
C  C1055  1  0.39290000  0.65650000  0.14290000  1.0 0.6001776091
C  C1056  1  0.89290000  0.59350000  0.10710000  1.0 0.6001776091
C  C1057  1  0.90730000  0.84270000  0.83520000  1.0 -0.1193160579
C  C1058  1  0.15730000  0.65730000  0.08520000  1.0 -0.1193160579
C  C1059  1  0.90730000  0.90730000  0.41480000  1.0 -0.1193160579
C  C1060  1  0.16480000  0.90730000  0.15730000  1.0 -0.1193160579
C  C1061  1  0.34270000  0.90730000  0.33520000  1.0 -0.1193160579
C  C1062  1  0.09270000  0.65730000  0.66480000  1.0 -0.1193160579
C  C1063  1  0.09270000  0.91480000  0.40730000  1.0 -0.1193160579
C  C1064  1  0.09270000  0.09270000  0.58520000  1.0 -0.1193160579
C  C1065  1  0.34270000  0.84270000  0.91480000  1.0 -0.1193160579
C  C1066  1  0.08520000  0.84270000  0.65730000  1.0 -0.1193160579
C  C1067  1  0.15730000  0.09270000  0.16480000  1.0 -0.1193160579
C  C1068  1  0.15730000  0.83520000  0.90730000  1.0 -0.1193160579
C  C1069  1  0.16480000  0.84270000  0.09270000  1.0 -0.1193160579
C  C1070  1  0.09270000  0.83520000  0.84270000  1.0 -0.1193160579
C  C1071  1  0.08520000  0.90730000  0.59270000  1.0 -0.1193160579
C  C1072  1  0.15730000  0.91480000  0.34270000  1.0 -0.1193160579
C  C1073  1  0.84270000  0.16480000  0.09270000  1.0 -0.1193160579
C  C1074  1  0.41480000  0.15730000  0.84270000  1.0 -0.1193160579
C  C1075  1  0.33520000  0.09270000  0.34270000  1.0 -0.1193160579
C  C1076  1  0.41480000  0.09270000  0.90730000  1.0 -0.1193160579
C  C1077  1  0.34270000  0.08520000  0.15730000  1.0 -0.1193160579
C  C1078  1  0.83520000  0.15730000  0.90730000  1.0 -0.1193160579
C  C1079  1  0.90730000  0.16480000  0.15730000  1.0 -0.1193160579
C  C1080  1  0.40730000  0.08520000  0.09270000  1.0 -0.1193160579
C  C1081  1  0.91480000  0.15730000  0.34270000  1.0 -0.1193160579
C  C1082  1  0.90730000  0.34270000  0.33520000  1.0 -0.1193160579
C  C1083  1  0.15730000  0.15730000  0.58520000  1.0 -0.1193160579
C  C1084  1  0.90730000  0.40730000  0.91480000  1.0 -0.1193160579
C  C1085  1  0.16480000  0.40730000  0.65730000  1.0 -0.1193160579
C  C1086  1  0.34270000  0.40730000  0.83520000  1.0 -0.1193160579
C  C1087  1  0.09270000  0.15730000  0.16480000  1.0 -0.1193160579
C  C1088  1  0.09270000  0.41480000  0.90730000  1.0 -0.1193160579
C  C1089  1  0.09270000  0.59270000  0.08520000  1.0 -0.1193160579
C  C1090  1  0.34270000  0.34270000  0.41480000  1.0 -0.1193160579
C  C1091  1  0.08520000  0.34270000  0.15730000  1.0 -0.1193160579
C  C1092  1  0.15730000  0.59270000  0.66480000  1.0 -0.1193160579
C  C1093  1  0.15730000  0.33520000  0.40730000  1.0 -0.1193160579
C  C1094  1  0.16480000  0.34270000  0.59270000  1.0 -0.1193160579
C  C1095  1  0.09270000  0.33520000  0.34270000  1.0 -0.1193160579
C  C1096  1  0.08520000  0.40730000  0.09270000  1.0 -0.1193160579
C  C1097  1  0.15730000  0.41480000  0.84270000  1.0 -0.1193160579
C  C1098  1  0.84270000  0.66480000  0.59270000  1.0 -0.1193160579
C  C1099  1  0.41480000  0.65730000  0.34270000  1.0 -0.1193160579
C  C1100  1  0.33520000  0.59270000  0.84270000  1.0 -0.1193160579
C  C1101  1  0.41480000  0.59270000  0.40730000  1.0 -0.1193160579
C  C1102  1  0.34270000  0.58520000  0.65730000  1.0 -0.1193160579
C  C1103  1  0.83520000  0.65730000  0.40730000  1.0 -0.1193160579
C  C1104  1  0.90730000  0.66480000  0.65730000  1.0 -0.1193160579
C  C1105  1  0.40730000  0.58520000  0.59270000  1.0 -0.1193160579
C  C1106  1  0.91480000  0.65730000  0.84270000  1.0 -0.1193160579
C  C1107  1  0.40730000  0.84270000  0.33520000  1.0 -0.1193160579
C  C1108  1  0.65730000  0.65730000  0.58520000  1.0 -0.1193160579
C  C1109  1  0.40730000  0.90730000  0.91480000  1.0 -0.1193160579
C  C1110  1  0.66480000  0.90730000  0.65730000  1.0 -0.1193160579
C  C1111  1  0.84270000  0.90730000  0.83520000  1.0 -0.1193160579
C  C1112  1  0.59270000  0.65730000  0.16480000  1.0 -0.1193160579
C  C1113  1  0.59270000  0.91480000  0.90730000  1.0 -0.1193160579
C  C1114  1  0.59270000  0.09270000  0.08520000  1.0 -0.1193160579
C  C1115  1  0.84270000  0.84270000  0.41480000  1.0 -0.1193160579
C  C1116  1  0.58520000  0.84270000  0.15730000  1.0 -0.1193160579
C  C1117  1  0.65730000  0.09270000  0.66480000  1.0 -0.1193160579
C  C1118  1  0.65730000  0.83520000  0.40730000  1.0 -0.1193160579
C  C1119  1  0.66480000  0.84270000  0.59270000  1.0 -0.1193160579
C  C1120  1  0.59270000  0.83520000  0.34270000  1.0 -0.1193160579
C  C1121  1  0.58520000  0.90730000  0.09270000  1.0 -0.1193160579
C  C1122  1  0.65730000  0.91480000  0.84270000  1.0 -0.1193160579
C  C1123  1  0.34270000  0.16480000  0.59270000  1.0 -0.1193160579
C  C1124  1  0.83520000  0.09270000  0.84270000  1.0 -0.1193160579
C  C1125  1  0.91480000  0.09270000  0.40730000  1.0 -0.1193160579
C  C1126  1  0.84270000  0.08520000  0.65730000  1.0 -0.1193160579
C  C1127  1  0.33520000  0.15730000  0.40730000  1.0 -0.1193160579
C  C1128  1  0.40730000  0.16480000  0.65730000  1.0 -0.1193160579
C  C1129  1  0.90730000  0.08520000  0.59270000  1.0 -0.1193160579
C  C1130  1  0.40730000  0.34270000  0.83520000  1.0 -0.1193160579
C  C1131  1  0.65730000  0.15730000  0.08520000  1.0 -0.1193160579
C  C1132  1  0.40730000  0.40730000  0.41480000  1.0 -0.1193160579
C  C1133  1  0.66480000  0.40730000  0.15730000  1.0 -0.1193160579
C  C1134  1  0.84270000  0.40730000  0.33520000  1.0 -0.1193160579
C  C1135  1  0.59270000  0.15730000  0.66480000  1.0 -0.1193160579
C  C1136  1  0.59270000  0.41480000  0.40730000  1.0 -0.1193160579
C  C1137  1  0.59270000  0.59270000  0.58520000  1.0 -0.1193160579
C  C1138  1  0.84270000  0.34270000  0.91480000  1.0 -0.1193160579
C  C1139  1  0.58520000  0.34270000  0.65730000  1.0 -0.1193160579
C  C1140  1  0.65730000  0.59270000  0.16480000  1.0 -0.1193160579
C  C1141  1  0.65730000  0.33520000  0.90730000  1.0 -0.1193160579
C  C1142  1  0.66480000  0.34270000  0.09270000  1.0 -0.1193160579
C  C1143  1  0.59270000  0.33520000  0.84270000  1.0 -0.1193160579
C  C1144  1  0.58520000  0.40730000  0.59270000  1.0 -0.1193160579
C  C1145  1  0.65730000  0.41480000  0.34270000  1.0 -0.1193160579
C  C1146  1  0.34270000  0.66480000  0.09270000  1.0 -0.1193160579
C  C1147  1  0.83520000  0.59270000  0.34270000  1.0 -0.1193160579
C  C1148  1  0.91480000  0.59270000  0.90730000  1.0 -0.1193160579
C  C1149  1  0.84270000  0.58520000  0.15730000  1.0 -0.1193160579
C  C1150  1  0.33520000  0.65730000  0.90730000  1.0 -0.1193160579
C  C1151  1  0.40730000  0.66480000  0.15730000  1.0 -0.1193160579
C  C1152  1  0.90730000  0.58520000  0.09270000  1.0 -0.1193160579
C  C1153  1  0.93360000  0.81640000  0.82140000  1.0 0.0537704363
C  C1154  1  0.18360000  0.68360000  0.07140000  1.0 0.0537704363
C  C1155  1  0.93360000  0.93360000  0.42860000  1.0 0.0537704363
C  C1156  1  0.17860000  0.93360000  0.18360000  1.0 0.0537704363
C  C1157  1  0.31640000  0.93360000  0.32140000  1.0 0.0537704363
C  C1158  1  0.06640000  0.68360000  0.67860000  1.0 0.0537704363
C  C1159  1  0.06640000  0.92860000  0.43360000  1.0 0.0537704363
C  C1160  1  0.06640000  0.06640000  0.57140000  1.0 0.0537704363
C  C1161  1  0.31640000  0.81640000  0.92860000  1.0 0.0537704363
C  C1162  1  0.07140000  0.81640000  0.68360000  1.0 0.0537704363
C  C1163  1  0.18360000  0.06640000  0.17860000  1.0 0.0537704363
C  C1164  1  0.18360000  0.82140000  0.93360000  1.0 0.0537704363
C  C1165  1  0.17860000  0.81640000  0.06640000  1.0 0.0537704363
C  C1166  1  0.06640000  0.82140000  0.81640000  1.0 0.0537704363
C  C1167  1  0.07140000  0.93360000  0.56640000  1.0 0.0537704363
C  C1168  1  0.18360000  0.92860000  0.31640000  1.0 0.0537704363
C  C1169  1  0.81640000  0.17860000  0.06640000  1.0 0.0537704363
C  C1170  1  0.42860000  0.18360000  0.81640000  1.0 0.0537704363
C  C1171  1  0.32140000  0.06640000  0.31640000  1.0 0.0537704363
C  C1172  1  0.42860000  0.06640000  0.93360000  1.0 0.0537704363
C  C1173  1  0.31640000  0.07140000  0.18360000  1.0 0.0537704363
C  C1174  1  0.82140000  0.18360000  0.93360000  1.0 0.0537704363
C  C1175  1  0.93360000  0.17860000  0.18360000  1.0 0.0537704363
C  C1176  1  0.43360000  0.07140000  0.06640000  1.0 0.0537704363
C  C1177  1  0.92860000  0.18360000  0.31640000  1.0 0.0537704363
C  C1178  1  0.93360000  0.31640000  0.32140000  1.0 0.0537704363
C  C1179  1  0.18360000  0.18360000  0.57140000  1.0 0.0537704363
C  C1180  1  0.93360000  0.43360000  0.92860000  1.0 0.0537704363
C  C1181  1  0.17860000  0.43360000  0.68360000  1.0 0.0537704363
C  C1182  1  0.31640000  0.43360000  0.82140000  1.0 0.0537704363
C  C1183  1  0.06640000  0.18360000  0.17860000  1.0 0.0537704363
C  C1184  1  0.06640000  0.42860000  0.93360000  1.0 0.0537704363
C  C1185  1  0.06640000  0.56640000  0.07140000  1.0 0.0537704363
C  C1186  1  0.31640000  0.31640000  0.42860000  1.0 0.0537704363
C  C1187  1  0.07140000  0.31640000  0.18360000  1.0 0.0537704363
C  C1188  1  0.18360000  0.56640000  0.67860000  1.0 0.0537704363
C  C1189  1  0.18360000  0.32140000  0.43360000  1.0 0.0537704363
C  C1190  1  0.17860000  0.31640000  0.56640000  1.0 0.0537704363
C  C1191  1  0.06640000  0.32140000  0.31640000  1.0 0.0537704363
C  C1192  1  0.07140000  0.43360000  0.06640000  1.0 0.0537704363
C  C1193  1  0.18360000  0.42860000  0.81640000  1.0 0.0537704363
C  C1194  1  0.81640000  0.67860000  0.56640000  1.0 0.0537704363
C  C1195  1  0.42860000  0.68360000  0.31640000  1.0 0.0537704363
C  C1196  1  0.32140000  0.56640000  0.81640000  1.0 0.0537704363
C  C1197  1  0.42860000  0.56640000  0.43360000  1.0 0.0537704363
C  C1198  1  0.31640000  0.57140000  0.68360000  1.0 0.0537704363
C  C1199  1  0.82140000  0.68360000  0.43360000  1.0 0.0537704363
C  C1200  1  0.93360000  0.67860000  0.68360000  1.0 0.0537704363
C  C1201  1  0.43360000  0.57140000  0.56640000  1.0 0.0537704363
C  C1202  1  0.92860000  0.68360000  0.81640000  1.0 0.0537704363
C  C1203  1  0.43360000  0.81640000  0.32140000  1.0 0.0537704363
C  C1204  1  0.68360000  0.68360000  0.57140000  1.0 0.0537704363
C  C1205  1  0.43360000  0.93360000  0.92860000  1.0 0.0537704363
C  C1206  1  0.67860000  0.93360000  0.68360000  1.0 0.0537704363
C  C1207  1  0.81640000  0.93360000  0.82140000  1.0 0.0537704363
C  C1208  1  0.56640000  0.68360000  0.17860000  1.0 0.0537704363
C  C1209  1  0.56640000  0.92860000  0.93360000  1.0 0.0537704363
C  C1210  1  0.56640000  0.06640000  0.07140000  1.0 0.0537704363
C  C1211  1  0.81640000  0.81640000  0.42860000  1.0 0.0537704363
C  C1212  1  0.57140000  0.81640000  0.18360000  1.0 0.0537704363
C  C1213  1  0.68360000  0.06640000  0.67860000  1.0 0.0537704363
C  C1214  1  0.68360000  0.82140000  0.43360000  1.0 0.0537704363
C  C1215  1  0.67860000  0.81640000  0.56640000  1.0 0.0537704363
C  C1216  1  0.56640000  0.82140000  0.31640000  1.0 0.0537704363
C  C1217  1  0.57140000  0.93360000  0.06640000  1.0 0.0537704363
C  C1218  1  0.68360000  0.92860000  0.81640000  1.0 0.0537704363
C  C1219  1  0.31640000  0.17860000  0.56640000  1.0 0.0537704363
C  C1220  1  0.82140000  0.06640000  0.81640000  1.0 0.059451856
C  C1221  1  0.92860000  0.06640000  0.43360000  1.0 0.059451856
C  C1222  1  0.81640000  0.07140000  0.68360000  1.0 0.059451856
C  C1223  1  0.32140000  0.18360000  0.43360000  1.0 0.0537704363
C  C1224  1  0.43360000  0.17860000  0.68360000  1.0 0.0537704363
C  C1225  1  0.93360000  0.07140000  0.56640000  1.0 0.0537704363
C  C1226  1  0.43360000  0.31640000  0.82140000  1.0 0.0537704363
C  C1227  1  0.68360000  0.18360000  0.07140000  1.0 0.0537704363
C  C1228  1  0.43360000  0.43360000  0.42860000  1.0 0.0537704363
C  C1229  1  0.67860000  0.43360000  0.18360000  1.0 0.0537704363
C  C1230  1  0.81640000  0.43360000  0.32140000  1.0 0.0537704363
C  C1231  1  0.56640000  0.18360000  0.67860000  1.0 0.0537704363
C  C1232  1  0.56640000  0.42860000  0.43360000  1.0 0.0537704363
C  C1233  1  0.56640000  0.56640000  0.57140000  1.0 0.0537704363
C  C1234  1  0.81640000  0.31640000  0.92860000  1.0 0.0537704363
C  C1235  1  0.57140000  0.31640000  0.68360000  1.0 0.0537704363
C  C1236  1  0.68360000  0.56640000  0.17860000  1.0 0.0537704363
C  C1237  1  0.68360000  0.32140000  0.93360000  1.0 0.0537704363
C  C1238  1  0.67860000  0.31640000  0.06640000  1.0 0.0537704363
C  C1239  1  0.56640000  0.32140000  0.81640000  1.0 0.0537704363
C  C1240  1  0.57140000  0.43360000  0.56640000  1.0 0.0537704363
C  C1241  1  0.68360000  0.42860000  0.31640000  1.0 0.0537704363
C  C1242  1  0.31640000  0.67860000  0.06640000  1.0 0.0537704363
C  C1243  1  0.82140000  0.56640000  0.31640000  1.0 0.0537704363
C  C1244  1  0.92860000  0.56640000  0.93360000  1.0 0.0537704363
C  C1245  1  0.81640000  0.57140000  0.18360000  1.0 0.0537704363
C  C1246  1  0.32140000  0.68360000  0.93360000  1.0 0.0537704363
C  C1247  1  0.43360000  0.67860000  0.18360000  1.0 0.0537704363
C  C1248  1  0.93360000  0.57140000  0.06640000  1.0 0.0537704363
C  C1249  1  0.91020000  0.78970000  0.82590000  1.0 0.60821305
C  C1250  1  0.21030000  0.66020000  0.07590000  1.0 0.60821305
C  C1251  1  0.91020000  0.96030000  0.42410000  1.0 0.60821305
C  C1252  1  0.17410000  0.91020000  0.21030000  1.0 0.60821305
C  C1253  1  0.33980000  0.96030000  0.32590000  1.0 0.60821305
C  C1254  1  0.03970000  0.66020000  0.67410000  1.0 0.60821305
C  C1255  1  0.08980000  0.92410000  0.46030000  1.0 0.60821305
C  C1256  1  0.03970000  0.08980000  0.57590000  1.0 0.60821305
C  C1257  1  0.33980000  0.78970000  0.92410000  1.0 0.60821305
C  C1258  1  0.07590000  0.83980000  0.71030000  1.0 0.60821305
C  C1259  1  0.21030000  0.08980000  0.17410000  1.0 0.60821305
C  C1260  1  0.16020000  0.82590000  0.96030000  1.0 0.60821305
C  C1261  1  0.17410000  0.83980000  0.03970000  1.0 0.60821305
C  C1262  1  0.08980000  0.82590000  0.78970000  1.0 0.60821305
C  C1263  1  0.07590000  0.91020000  0.53970000  1.0 0.60821305
C  C1264  1  0.16020000  0.92410000  0.28970000  1.0 0.60821305
C  C1265  1  0.78970000  0.17410000  0.08980000  1.0 0.60821305
C  C1266  1  0.42410000  0.21030000  0.83980000  1.0 0.60821305
C  C1267  1  0.32590000  0.03970000  0.33980000  1.0 0.60821305
C  C1268  1  0.42410000  0.03970000  0.91020000  1.0 0.60821305
C  C1269  1  0.28970000  0.07590000  0.16020000  1.0 0.60821305
C  C1270  1  0.82590000  0.21030000  0.91020000  1.0 0.60821305
C  C1271  1  0.96030000  0.17410000  0.16020000  1.0 0.60821305
C  C1272  1  0.46030000  0.07590000  0.08980000  1.0 0.60821305
C  C1273  1  0.92410000  0.21030000  0.33980000  1.0 0.60821305
C  C1274  1  0.91020000  0.28970000  0.32590000  1.0 0.60821305
C  C1275  1  0.21030000  0.16020000  0.57590000  1.0 0.60821305
C  C1276  1  0.91020000  0.46030000  0.92410000  1.0 0.60821305
C  C1277  1  0.17410000  0.41020000  0.71030000  1.0 0.60821305
C  C1278  1  0.33980000  0.46030000  0.82590000  1.0 0.60821305
C  C1279  1  0.03970000  0.16020000  0.17410000  1.0 0.60821305
C  C1280  1  0.08980000  0.42410000  0.96030000  1.0 0.60821305
C  C1281  1  0.03970000  0.58980000  0.07590000  1.0 0.60821305
C  C1282  1  0.33980000  0.28970000  0.42410000  1.0 0.60821305
C  C1283  1  0.07590000  0.33980000  0.21030000  1.0 0.60821305
C  C1284  1  0.21030000  0.58980000  0.67410000  1.0 0.60821305
C  C1285  1  0.16020000  0.32590000  0.46030000  1.0 0.60821305
C  C1286  1  0.17410000  0.33980000  0.53970000  1.0 0.60821305
C  C1287  1  0.08980000  0.32590000  0.28970000  1.0 0.60821305
C  C1288  1  0.07590000  0.41020000  0.03970000  1.0 0.60821305
C  C1289  1  0.16020000  0.42410000  0.78970000  1.0 0.60821305
C  C1290  1  0.78970000  0.67410000  0.58980000  1.0 0.60821305
C  C1291  1  0.42410000  0.71030000  0.33980000  1.0 0.60821305
C  C1292  1  0.32590000  0.53970000  0.83980000  1.0 0.60821305
C  C1293  1  0.42410000  0.53970000  0.41020000  1.0 0.60821305
C  C1294  1  0.28970000  0.57590000  0.66020000  1.0 0.60821305
C  C1295  1  0.82590000  0.71030000  0.41020000  1.0 0.60821305
C  C1296  1  0.96030000  0.67410000  0.66020000  1.0 0.60821305
C  C1297  1  0.46030000  0.57590000  0.58980000  1.0 0.60821305
C  C1298  1  0.92410000  0.71030000  0.83980000  1.0 0.60821305
C  C1299  1  0.41020000  0.78970000  0.32590000  1.0 0.60821305
C  C1300  1  0.71030000  0.66020000  0.57590000  1.0 0.60821305
C  C1301  1  0.41020000  0.96030000  0.92410000  1.0 0.60821305
C  C1302  1  0.67410000  0.91020000  0.71030000  1.0 0.60821305
C  C1303  1  0.83980000  0.96030000  0.82590000  1.0 0.60821305
C  C1304  1  0.53970000  0.66020000  0.17410000  1.0 0.60821305
C  C1305  1  0.58980000  0.92410000  0.96030000  1.0 0.60821305
C  C1306  1  0.53970000  0.08980000  0.07590000  1.0 0.60821305
C  C1307  1  0.83980000  0.78970000  0.42410000  1.0 0.60821305
C  C1308  1  0.57590000  0.83980000  0.21030000  1.0 0.60821305
C  C1309  1  0.71030000  0.08980000  0.67410000  1.0 0.60821305
C  C1310  1  0.66020000  0.82590000  0.46030000  1.0 0.60821305
C  C1311  1  0.67410000  0.83980000  0.53970000  1.0 0.60821305
C  C1312  1  0.58980000  0.82590000  0.28970000  1.0 0.60821305
C  C1313  1  0.57590000  0.91020000  0.03970000  1.0 0.60821305
C  C1314  1  0.66020000  0.92410000  0.78970000  1.0 0.60821305
C  C1315  1  0.28970000  0.17410000  0.58980000  1.0 0.60821305
C  C1316  1  0.82590000  0.03970000  0.83980000  1.0 0.60821305
C  C1317  1  0.92410000  0.03970000  0.41020000  1.0 0.60821305
C  C1318  1  0.78970000  0.07590000  0.66020000  1.0 0.60821305
C  C1319  1  0.32590000  0.21030000  0.41020000  1.0 0.60821305
C  C1320  1  0.46030000  0.17410000  0.66020000  1.0 0.60821305
C  C1321  1  0.96030000  0.07590000  0.58980000  1.0 0.60821305
C  C1322  1  0.41020000  0.28970000  0.82590000  1.0 0.60821305
C  C1323  1  0.71030000  0.16020000  0.07590000  1.0 0.60821305
C  C1324  1  0.41020000  0.46030000  0.42410000  1.0 0.60821305
C  C1325  1  0.67410000  0.41020000  0.21030000  1.0 0.60821305
C  C1326  1  0.83980000  0.46030000  0.32590000  1.0 0.60821305
C  C1327  1  0.53970000  0.16020000  0.67410000  1.0 0.60821305
C  C1328  1  0.58980000  0.42410000  0.46030000  1.0 0.60821305
C  C1329  1  0.53970000  0.58980000  0.57590000  1.0 0.60821305
C  C1330  1  0.83980000  0.28970000  0.92410000  1.0 0.60821305
C  C1331  1  0.57590000  0.33980000  0.71030000  1.0 0.60821305
C  C1332  1  0.71030000  0.58980000  0.17410000  1.0 0.60821305
C  C1333  1  0.66020000  0.32590000  0.96030000  1.0 0.60821305
C  C1334  1  0.67410000  0.33980000  0.03970000  1.0 0.60821305
C  C1335  1  0.58980000  0.32590000  0.78970000  1.0 0.60821305
C  C1336  1  0.57590000  0.41020000  0.53970000  1.0 0.60821305
C  C1337  1  0.66020000  0.42410000  0.28970000  1.0 0.60821305
C  C1338  1  0.28970000  0.67410000  0.08980000  1.0 0.60821305
C  C1339  1  0.82590000  0.53970000  0.33980000  1.0 0.60821305
C  C1340  1  0.92410000  0.53970000  0.91020000  1.0 0.60821305
C  C1341  1  0.78970000  0.57590000  0.16020000  1.0 0.60821305
C  C1342  1  0.32590000  0.71030000  0.91020000  1.0 0.60821305
C  C1343  1  0.46030000  0.67410000  0.16020000  1.0 0.60821305
C  C1344  1  0.96030000  0.57590000  0.08980000  1.0 0.60821305
C  C1345  1  0.08980000  0.21030000  0.17410000  1.0 0.60821305
C  C1346  1  0.78970000  0.33980000  0.92410000  1.0 0.60821305
C  C1347  1  0.08980000  0.03970000  0.57590000  1.0 0.60821305
C  C1348  1  0.82590000  0.08980000  0.78970000  1.0 0.60821305
C  C1349  1  0.66020000  0.03970000  0.67410000  1.0 0.60821305
C  C1350  1  0.96030000  0.33980000  0.32590000  1.0 0.60821305
C  C1351  1  0.91020000  0.07590000  0.53970000  1.0 0.60821305
C  C1352  1  0.96030000  0.91020000  0.42410000  1.0 0.60821305
C  C1353  1  0.66020000  0.21030000  0.07590000  1.0 0.60821305
C  C1354  1  0.92410000  0.16020000  0.28970000  1.0 0.60821305
C  C1355  1  0.78970000  0.91020000  0.82590000  1.0 0.60821305
C  C1356  1  0.83980000  0.17410000  0.03970000  1.0 0.60821305
C  C1357  1  0.82590000  0.16020000  0.96030000  1.0 0.60821305
C  C1358  1  0.91020000  0.17410000  0.21030000  1.0 0.60821305
C  C1359  1  0.92410000  0.08980000  0.46030000  1.0 0.60821305
C  C1360  1  0.83980000  0.07590000  0.71030000  1.0 0.60821305
C  C1361  1  0.21030000  0.82590000  0.91020000  1.0 0.60821305
C  C1362  1  0.57590000  0.78970000  0.16020000  1.0 0.60821305
C  C1363  1  0.67410000  0.96030000  0.66020000  1.0 0.60821305
C  C1364  1  0.57590000  0.96030000  0.08980000  1.0 0.60821305
C  C1365  1  0.71030000  0.92410000  0.83980000  1.0 0.60821305
C  C1366  1  0.17410000  0.78970000  0.08980000  1.0 0.60821305
C  C1367  1  0.03970000  0.82590000  0.83980000  1.0 0.60821305
C  C1368  1  0.53970000  0.92410000  0.91020000  1.0 0.60821305
C  C1369  1  0.07590000  0.78970000  0.66020000  1.0 0.60821305
C  C1370  1  0.08980000  0.71030000  0.67410000  1.0 0.60821305
C  C1371  1  0.78970000  0.83980000  0.42410000  1.0 0.60821305
C  C1372  1  0.08980000  0.53970000  0.07590000  1.0 0.60821305
C  C1373  1  0.82590000  0.58980000  0.28970000  1.0 0.60821305
C  C1374  1  0.66020000  0.53970000  0.17410000  1.0 0.60821305
C  C1375  1  0.96030000  0.83980000  0.82590000  1.0 0.60821305
C  C1376  1  0.91020000  0.57590000  0.03970000  1.0 0.60821305
C  C1377  1  0.96030000  0.41020000  0.92410000  1.0 0.60821305
C  C1378  1  0.66020000  0.71030000  0.57590000  1.0 0.60821305
C  C1379  1  0.92410000  0.66020000  0.78970000  1.0 0.60821305
C  C1380  1  0.78970000  0.41020000  0.32590000  1.0 0.60821305
C  C1381  1  0.83980000  0.67410000  0.53970000  1.0 0.60821305
C  C1382  1  0.82590000  0.66020000  0.46030000  1.0 0.60821305
C  C1383  1  0.91020000  0.67410000  0.71030000  1.0 0.60821305
C  C1384  1  0.92410000  0.58980000  0.96030000  1.0 0.60821305
C  C1385  1  0.83980000  0.57590000  0.21030000  1.0 0.60821305
C  C1386  1  0.21030000  0.32590000  0.41020000  1.0 0.60821305
C  C1387  1  0.57590000  0.28970000  0.66020000  1.0 0.60821305
C  C1388  1  0.67410000  0.46030000  0.16020000  1.0 0.60821305
C  C1389  1  0.57590000  0.46030000  0.58980000  1.0 0.60821305
C  C1390  1  0.71030000  0.42410000  0.33980000  1.0 0.60821305
C  C1391  1  0.17410000  0.28970000  0.58980000  1.0 0.60821305
C  C1392  1  0.03970000  0.32590000  0.33980000  1.0 0.60821305
C  C1393  1  0.53970000  0.42410000  0.41020000  1.0 0.60821305
C  C1394  1  0.07590000  0.28970000  0.16020000  1.0 0.60821305
C  C1395  1  0.58980000  0.21030000  0.67410000  1.0 0.60821305
C  C1396  1  0.28970000  0.33980000  0.42410000  1.0 0.60821305
C  C1397  1  0.58980000  0.03970000  0.07590000  1.0 0.60821305
C  C1398  1  0.32590000  0.08980000  0.28970000  1.0 0.60821305
C  C1399  1  0.16020000  0.03970000  0.17410000  1.0 0.60821305
C  C1400  1  0.46030000  0.33980000  0.82590000  1.0 0.60821305
C  C1401  1  0.41020000  0.07590000  0.03970000  1.0 0.60821305
C  C1402  1  0.46030000  0.91020000  0.92410000  1.0 0.60821305
C  C1403  1  0.16020000  0.21030000  0.57590000  1.0 0.60821305
C  C1404  1  0.42410000  0.16020000  0.78970000  1.0 0.60821305
C  C1405  1  0.28970000  0.91020000  0.32590000  1.0 0.60821305
C  C1406  1  0.33980000  0.17410000  0.53970000  1.0 0.60821305
C  C1407  1  0.32590000  0.16020000  0.46030000  1.0 0.60821305
C  C1408  1  0.41020000  0.17410000  0.71030000  1.0 0.60821305
C  C1409  1  0.42410000  0.08980000  0.96030000  1.0 0.60821305
C  C1410  1  0.33980000  0.07590000  0.21030000  1.0 0.60821305
C  C1411  1  0.71030000  0.82590000  0.41020000  1.0 0.60821305
C  C1412  1  0.17410000  0.96030000  0.16020000  1.0 0.60821305
C  C1413  1  0.07590000  0.96030000  0.58980000  1.0 0.60821305
C  C1414  1  0.21030000  0.92410000  0.33980000  1.0 0.60821305
C  C1415  1  0.67410000  0.78970000  0.58980000  1.0 0.60821305
C  C1416  1  0.53970000  0.82590000  0.33980000  1.0 0.60821305
C  C1417  1  0.03970000  0.92410000  0.41020000  1.0 0.60821305
C  C1418  1  0.58980000  0.71030000  0.17410000  1.0 0.60821305
C  C1419  1  0.28970000  0.83980000  0.92410000  1.0 0.60821305
C  C1420  1  0.58980000  0.53970000  0.57590000  1.0 0.60821305
C  C1421  1  0.32590000  0.58980000  0.78970000  1.0 0.60821305
C  C1422  1  0.16020000  0.53970000  0.67410000  1.0 0.60821305
C  C1423  1  0.46030000  0.83980000  0.32590000  1.0 0.60821305
C  C1424  1  0.41020000  0.57590000  0.53970000  1.0 0.60821305
C  C1425  1  0.46030000  0.41020000  0.42410000  1.0 0.60821305
C  C1426  1  0.16020000  0.71030000  0.07590000  1.0 0.60821305
C  C1427  1  0.42410000  0.66020000  0.28970000  1.0 0.60821305
C  C1428  1  0.28970000  0.41020000  0.82590000  1.0 0.60821305
C  C1429  1  0.33980000  0.67410000  0.03970000  1.0 0.60821305
C  C1430  1  0.32590000  0.66020000  0.96030000  1.0 0.60821305
C  C1431  1  0.41020000  0.67410000  0.21030000  1.0 0.60821305
C  C1432  1  0.42410000  0.58980000  0.46030000  1.0 0.60821305
C  C1433  1  0.33980000  0.57590000  0.71030000  1.0 0.60821305
C  C1434  1  0.71030000  0.32590000  0.91020000  1.0 0.60821305
C  C1435  1  0.17410000  0.46030000  0.66020000  1.0 0.60821305
C  C1436  1  0.07590000  0.46030000  0.08980000  1.0 0.60821305
C  C1437  1  0.21030000  0.42410000  0.83980000  1.0 0.60821305
C  C1438  1  0.67410000  0.28970000  0.08980000  1.0 0.60821305
C  C1439  1  0.53970000  0.32590000  0.83980000  1.0 0.60821305
C  C1440  1  0.03970000  0.42410000  0.91020000  1.0 0.60821305
C  C1441  1  0.79250000  0.90690000  0.01760000  1.0 0.0723510582
C  C1442  1  0.09310000  0.54250000  0.26760000  1.0 0.0723510582
C  C1443  1  0.79250000  0.84310000  0.23240000  1.0 0.0723510582
C  C1444  1  0.98240000  0.79250000  0.09310000  1.0 0.0723510582
C  C1445  1  0.45750000  0.84310000  0.51760000  1.0 0.0723510582
C  C1446  1  0.15690000  0.54250000  0.48240000  1.0 0.0723510582
C  C1447  1  0.20750000  0.73240000  0.34310000  1.0 0.0723510582
C  C1448  1  0.15690000  0.20750000  0.76760000  1.0 0.0723510582
C  C1449  1  0.45750000  0.90690000  0.73240000  1.0 0.0723510582
C  C1450  1  0.26760000  0.95750000  0.59310000  1.0 0.0723510582
C  C1451  1  0.09310000  0.20750000  0.98240000  1.0 0.0723510582
C  C1452  1  0.04250000  0.01760000  0.84310000  1.0 0.0723510582
C  C1453  1  0.98240000  0.95750000  0.15690000  1.0 0.0723510582
C  C1454  1  0.20750000  0.01760000  0.90690000  1.0 0.0723510582
C  C1455  1  0.26760000  0.79250000  0.65690000  1.0 0.0723510582
C  C1456  1  0.04250000  0.73240000  0.40690000  1.0 0.0723510582
C  C1457  1  0.90690000  0.98240000  0.20750000  1.0 0.0723510582
C  C1458  1  0.23240000  0.09310000  0.95750000  1.0 0.0723510582
C  C1459  1  0.51760000  0.15690000  0.45750000  1.0 0.0723510582
C  C1460  1  0.23240000  0.15690000  0.79250000  1.0 0.0723510582
C  C1461  1  0.40690000  0.26760000  0.04250000  1.0 0.0723510582
C  C1462  1  0.01760000  0.09310000  0.79250000  1.0 0.0723510582
C  C1463  1  0.84310000  0.98240000  0.04250000  1.0 0.0723510582
C  C1464  1  0.34310000  0.26760000  0.20750000  1.0 0.0723510582
C  C1465  1  0.73240000  0.09310000  0.45750000  1.0 0.0723510582
C  C1466  1  0.79250000  0.40690000  0.51760000  1.0 0.0723510582
C  C1467  1  0.09310000  0.04250000  0.76760000  1.0 0.0723510582
C  C1468  1  0.79250000  0.34310000  0.73240000  1.0 0.0723510582
C  C1469  1  0.98240000  0.29250000  0.59310000  1.0 0.0723510582
C  C1470  1  0.45750000  0.34310000  0.01760000  1.0 0.0723510582
C  C1471  1  0.15690000  0.04250000  0.98240000  1.0 0.0723510582
C  C1472  1  0.20750000  0.23240000  0.84310000  1.0 0.0723510582
C  C1473  1  0.15690000  0.70750000  0.26760000  1.0 0.0723510582
C  C1474  1  0.45750000  0.40690000  0.23240000  1.0 0.0723510582
C  C1475  1  0.26760000  0.45750000  0.09310000  1.0 0.0723510582
C  C1476  1  0.09310000  0.70750000  0.48240000  1.0 0.0723510582
C  C1477  1  0.04250000  0.51760000  0.34310000  1.0 0.0723510582
C  C1478  1  0.98240000  0.45750000  0.65690000  1.0 0.0723510582
C  C1479  1  0.20750000  0.51760000  0.40690000  1.0 0.0723510582
C  C1480  1  0.26760000  0.29250000  0.15690000  1.0 0.0723510582
C  C1481  1  0.04250000  0.23240000  0.90690000  1.0 0.0723510582
C  C1482  1  0.90690000  0.48240000  0.70750000  1.0 0.0723510582
C  C1483  1  0.23240000  0.59310000  0.45750000  1.0 0.0723510582
C  C1484  1  0.51760000  0.65690000  0.95750000  1.0 0.0723510582
C  C1485  1  0.23240000  0.65690000  0.29250000  1.0 0.0723510582
C  C1486  1  0.40690000  0.76760000  0.54250000  1.0 0.0723510582
C  C1487  1  0.01760000  0.59310000  0.29250000  1.0 0.0723510582
C  C1488  1  0.84310000  0.48240000  0.54250000  1.0 0.0723510582
C  C1489  1  0.34310000  0.76760000  0.70750000  1.0 0.0723510582
C  C1490  1  0.73240000  0.59310000  0.95750000  1.0 0.0723510582
C  C1491  1  0.29250000  0.90690000  0.51760000  1.0 0.0723510582
C  C1492  1  0.59310000  0.54250000  0.76760000  1.0 0.0723510582
C  C1493  1  0.29250000  0.84310000  0.73240000  1.0 0.0723510582
C  C1494  1  0.48240000  0.79250000  0.59310000  1.0 0.0723510582
C  C1495  1  0.95750000  0.84310000  0.01760000  1.0 0.0723510582
C  C1496  1  0.65690000  0.54250000  0.98240000  1.0 0.0723510582
C  C1497  1  0.70750000  0.73240000  0.84310000  1.0 0.0723510582
C  C1498  1  0.65690000  0.20750000  0.26760000  1.0 0.0723510582
C  C1499  1  0.95750000  0.90690000  0.23240000  1.0 0.0723510582
C  C1500  1  0.76760000  0.95750000  0.09310000  1.0 0.0723510582
C  C1501  1  0.59310000  0.20750000  0.48240000  1.0 0.0723510582
C  C1502  1  0.54250000  0.01760000  0.34310000  1.0 0.0723510582
C  C1503  1  0.48240000  0.95750000  0.65690000  1.0 0.0723510582
C  C1504  1  0.70750000  0.01760000  0.40690000  1.0 0.0723510582
C  C1505  1  0.76760000  0.79250000  0.15690000  1.0 0.0723510582
C  C1506  1  0.54250000  0.73240000  0.90690000  1.0 0.0723510582
C  C1507  1  0.40690000  0.98240000  0.70750000  1.0 0.0723510582
C  C1508  1  0.01760000  0.15690000  0.95750000  1.0 0.0723510582
C  C1509  1  0.73240000  0.15690000  0.29250000  1.0 0.0723510582
C  C1510  1  0.90690000  0.26760000  0.54250000  1.0 0.0723510582
C  C1511  1  0.51760000  0.09310000  0.29250000  1.0 0.0723510582
C  C1512  1  0.34310000  0.98240000  0.54250000  1.0 0.0723510582
C  C1513  1  0.84310000  0.26760000  0.70750000  1.0 0.0723510582
C  C1514  1  0.29250000  0.40690000  0.01760000  1.0 0.0723510582
C  C1515  1  0.59310000  0.04250000  0.26760000  1.0 0.0723510582
C  C1516  1  0.29250000  0.34310000  0.23240000  1.0 0.0723510582
C  C1517  1  0.48240000  0.29250000  0.09310000  1.0 0.0723510582
C  C1518  1  0.95750000  0.34310000  0.51760000  1.0 0.0723510582
C  C1519  1  0.65690000  0.04250000  0.48240000  1.0 0.0723510582
C  C1520  1  0.70750000  0.23240000  0.34310000  1.0 0.0723510582
C  C1521  1  0.65690000  0.70750000  0.76760000  1.0 0.0723510582
C  C1522  1  0.95750000  0.40690000  0.73240000  1.0 0.0723510582
C  C1523  1  0.76760000  0.45750000  0.59310000  1.0 0.0723510582
C  C1524  1  0.59310000  0.70750000  0.98240000  1.0 0.0723510582
C  C1525  1  0.54250000  0.51760000  0.84310000  1.0 0.0723510582
C  C1526  1  0.48240000  0.45750000  0.15690000  1.0 0.0723510582
C  C1527  1  0.70750000  0.51760000  0.90690000  1.0 0.0723510582
C  C1528  1  0.76760000  0.29250000  0.65690000  1.0 0.0723510582
C  C1529  1  0.54250000  0.23240000  0.40690000  1.0 0.0723510582
C  C1530  1  0.40690000  0.48240000  0.20750000  1.0 0.0723510582
C  C1531  1  0.01760000  0.65690000  0.45750000  1.0 0.0723510582
C  C1532  1  0.73240000  0.65690000  0.79250000  1.0 0.0723510582
C  C1533  1  0.90690000  0.76760000  0.04250000  1.0 0.0723510582
C  C1534  1  0.51760000  0.59310000  0.79250000  1.0 0.0723510582
C  C1535  1  0.34310000  0.48240000  0.04250000  1.0 0.0723510582
C  C1536  1  0.84310000  0.76760000  0.20750000  1.0 0.0723510582
C  C1537  1  0.20750000  0.09310000  0.98240000  1.0 0.0723510582
C  C1538  1  0.90690000  0.45750000  0.73240000  1.0 0.0723510582
C  C1539  1  0.20750000  0.15690000  0.76760000  1.0 0.0723510582
C  C1540  1  0.01760000  0.20750000  0.90690000  1.0 0.0723510582
C  C1541  1  0.54250000  0.15690000  0.48240000  1.0 0.0723510582
C  C1542  1  0.84310000  0.45750000  0.51760000  1.0 0.0723510582
C  C1543  1  0.79250000  0.26760000  0.65690000  1.0 0.0723510582
C  C1544  1  0.84310000  0.79250000  0.23240000  1.0 0.0723510582
C  C1545  1  0.54250000  0.09310000  0.26760000  1.0 0.0723510582
C  C1546  1  0.73240000  0.04250000  0.40690000  1.0 0.0723510582
C  C1547  1  0.90690000  0.79250000  0.01760000  1.0 0.0723510582
C  C1548  1  0.95750000  0.98240000  0.15690000  1.0 0.0723510582
C  C1549  1  0.01760000  0.04250000  0.84310000  1.0 0.0723510582
C  C1550  1  0.79250000  0.98240000  0.09310000  1.0 0.0723510582
C  C1551  1  0.73240000  0.20750000  0.34310000  1.0 0.0723510582
C  C1552  1  0.95750000  0.26760000  0.59310000  1.0 0.0723510582
C  C1553  1  0.09310000  0.01760000  0.79250000  1.0 0.0723510582
C  C1554  1  0.76760000  0.90690000  0.04250000  1.0 0.0723510582
C  C1555  1  0.48240000  0.84310000  0.54250000  1.0 0.0723510582
C  C1556  1  0.76760000  0.84310000  0.20750000  1.0 0.0723510582
C  C1557  1  0.59310000  0.73240000  0.95750000  1.0 0.0723510582
C  C1558  1  0.98240000  0.90690000  0.20750000  1.0 0.0723510582
C  C1559  1  0.15690000  0.01760000  0.95750000  1.0 0.0723510582
C  C1560  1  0.65690000  0.73240000  0.79250000  1.0 0.0723510582
C  C1561  1  0.26760000  0.90690000  0.54250000  1.0 0.0723510582
C  C1562  1  0.20750000  0.59310000  0.48240000  1.0 0.0723510582
C  C1563  1  0.90690000  0.95750000  0.23240000  1.0 0.0723510582
C  C1564  1  0.20750000  0.65690000  0.26760000  1.0 0.0723510582
C  C1565  1  0.01760000  0.70750000  0.40690000  1.0 0.0723510582
C  C1566  1  0.54250000  0.65690000  0.98240000  1.0 0.0723510582
C  C1567  1  0.84310000  0.95750000  0.01760000  1.0 0.0723510582
C  C1568  1  0.79250000  0.76760000  0.15690000  1.0 0.0723510582
C  C1569  1  0.84310000  0.29250000  0.73240000  1.0 0.0723510582
C  C1570  1  0.54250000  0.59310000  0.76760000  1.0 0.0723510582
C  C1571  1  0.73240000  0.54250000  0.90690000  1.0 0.0723510582
C  C1572  1  0.90690000  0.29250000  0.51760000  1.0 0.0723510582
C  C1573  1  0.95750000  0.48240000  0.65690000  1.0 0.0723510582
C  C1574  1  0.01760000  0.54250000  0.34310000  1.0 0.0723510582
C  C1575  1  0.79250000  0.48240000  0.59310000  1.0 0.0723510582
C  C1576  1  0.73240000  0.70750000  0.84310000  1.0 0.0723510582
C  C1577  1  0.95750000  0.76760000  0.09310000  1.0 0.0723510582
C  C1578  1  0.09310000  0.51760000  0.29250000  1.0 0.0723510582
C  C1579  1  0.76760000  0.40690000  0.54250000  1.0 0.0723510582
C  C1580  1  0.48240000  0.34310000  0.04250000  1.0 0.0723510582
C  C1581  1  0.76760000  0.34310000  0.70750000  1.0 0.0723510582
C  C1582  1  0.59310000  0.23240000  0.45750000  1.0 0.0723510582
C  C1583  1  0.98240000  0.40690000  0.70750000  1.0 0.0723510582
C  C1584  1  0.15690000  0.51760000  0.45750000  1.0 0.0723510582
C  C1585  1  0.65690000  0.23240000  0.29250000  1.0 0.0723510582
C  C1586  1  0.26760000  0.40690000  0.04250000  1.0 0.0723510582
C  C1587  1  0.70750000  0.09310000  0.48240000  1.0 0.0723510582
C  C1588  1  0.40690000  0.45750000  0.23240000  1.0 0.0723510582
C  C1589  1  0.70750000  0.15690000  0.26760000  1.0 0.0723510582
C  C1590  1  0.51760000  0.20750000  0.40690000  1.0 0.0723510582
C  C1591  1  0.04250000  0.15690000  0.98240000  1.0 0.0723510582
C  C1592  1  0.34310000  0.45750000  0.01760000  1.0 0.0723510582
C  C1593  1  0.29250000  0.26760000  0.15690000  1.0 0.0723510582
C  C1594  1  0.34310000  0.79250000  0.73240000  1.0 0.0723510582
C  C1595  1  0.04250000  0.09310000  0.76760000  1.0 0.0723510582
C  C1596  1  0.23240000  0.04250000  0.90690000  1.0 0.0723510582
C  C1597  1  0.40690000  0.79250000  0.51760000  1.0 0.0723510582
C  C1598  1  0.45750000  0.98240000  0.65690000  1.0 0.0723510582
C  C1599  1  0.51760000  0.04250000  0.34310000  1.0 0.0723510582
C  C1600  1  0.29250000  0.98240000  0.59310000  1.0 0.0723510582
C  C1601  1  0.23240000  0.20750000  0.84310000  1.0 0.0723510582
C  C1602  1  0.45750000  0.26760000  0.09310000  1.0 0.0723510582
C  C1603  1  0.59310000  0.01760000  0.29250000  1.0 0.0723510582
C  C1604  1  0.98240000  0.84310000  0.04250000  1.0 0.0723510582
C  C1605  1  0.26760000  0.84310000  0.70750000  1.0 0.0723510582
C  C1606  1  0.09310000  0.73240000  0.45750000  1.0 0.0723510582
C  C1607  1  0.48240000  0.90690000  0.70750000  1.0 0.0723510582
C  C1608  1  0.65690000  0.01760000  0.45750000  1.0 0.0723510582
C  C1609  1  0.15690000  0.73240000  0.29250000  1.0 0.0723510582
C  C1610  1  0.70750000  0.59310000  0.98240000  1.0 0.0723510582
C  C1611  1  0.40690000  0.95750000  0.73240000  1.0 0.0723510582
C  C1612  1  0.70750000  0.65690000  0.76760000  1.0 0.0723510582
C  C1613  1  0.51760000  0.70750000  0.90690000  1.0 0.0723510582
C  C1614  1  0.04250000  0.65690000  0.48240000  1.0 0.0723510582
C  C1615  1  0.34310000  0.95750000  0.51760000  1.0 0.0723510582
C  C1616  1  0.29250000  0.76760000  0.65690000  1.0 0.0723510582
C  C1617  1  0.34310000  0.29250000  0.23240000  1.0 0.0723510582
C  C1618  1  0.04250000  0.59310000  0.26760000  1.0 0.0723510582
C  C1619  1  0.23240000  0.54250000  0.40690000  1.0 0.0723510582
C  C1620  1  0.40690000  0.29250000  0.01760000  1.0 0.0723510582
C  C1621  1  0.45750000  0.48240000  0.15690000  1.0 0.0723510582
C  C1622  1  0.51760000  0.54250000  0.84310000  1.0 0.0723510582
C  C1623  1  0.29250000  0.48240000  0.09310000  1.0 0.0723510582
C  C1624  1  0.23240000  0.70750000  0.34310000  1.0 0.0723510582
C  C1625  1  0.45750000  0.76760000  0.59310000  1.0 0.0723510582
C  C1626  1  0.59310000  0.51760000  0.79250000  1.0 0.0723510582
C  C1627  1  0.98240000  0.34310000  0.54250000  1.0 0.0723510582
C  C1628  1  0.26760000  0.34310000  0.20750000  1.0 0.0723510582
C  C1629  1  0.09310000  0.23240000  0.95750000  1.0 0.0723510582
C  C1630  1  0.48240000  0.40690000  0.20750000  1.0 0.0723510582
C  C1631  1  0.65690000  0.51760000  0.95750000  1.0 0.0723510582
C  C1632  1  0.15690000  0.23240000  0.79250000  1.0 0.0723510582
C  C1633  1  0.78050000  0.91530000  0.00410000  1.0 -0.1193160579
C  C1634  1  0.08470000  0.53050000  0.25410000  1.0 -0.1193160579
C  C1635  1  0.78050000  0.83470000  0.24590000  1.0 -0.1193160579
C  C1636  1  0.99590000  0.78050000  0.08470000  1.0 -0.1193160579
C  C1637  1  0.46950000  0.83470000  0.50410000  1.0 -0.1193160579
C  C1638  1  0.16530000  0.53050000  0.49590000  1.0 -0.1193160579
C  C1639  1  0.21950000  0.74590000  0.33470000  1.0 -0.1193160579
C  C1640  1  0.16530000  0.21950000  0.75410000  1.0 -0.1193160579
C  C1641  1  0.46950000  0.91530000  0.74590000  1.0 -0.1193160579
C  C1642  1  0.25410000  0.96950000  0.58470000  1.0 -0.1193160579
C  C1643  1  0.08470000  0.21950000  0.99590000  1.0 -0.1193160579
C  C1644  1  0.03050000  0.00410000  0.83470000  1.0 -0.1193160579
C  C1645  1  0.99590000  0.96950000  0.16530000  1.0 -0.1193160579
C  C1646  1  0.21950000  0.00410000  0.91530000  1.0 -0.1193160579
C  C1647  1  0.25410000  0.78050000  0.66530000  1.0 -0.1193160579
C  C1648  1  0.03050000  0.74590000  0.41530000  1.0 -0.1193160579
C  C1649  1  0.91530000  0.99590000  0.21950000  1.0 -0.1193160579
C  C1650  1  0.24590000  0.08470000  0.96950000  1.0 -0.1193160579
C  C1651  1  0.50410000  0.16530000  0.46950000  1.0 -0.1193160579
C  C1652  1  0.24590000  0.16530000  0.78050000  1.0 -0.1193160579
C  C1653  1  0.41530000  0.25410000  0.03050000  1.0 -0.1193160579
C  C1654  1  0.00410000  0.08470000  0.78050000  1.0 -0.1193160579
C  C1655  1  0.83470000  0.99590000  0.03050000  1.0 -0.1193160579
C  C1656  1  0.33470000  0.25410000  0.21950000  1.0 -0.1193160579
C  C1657  1  0.74590000  0.08470000  0.46950000  1.0 -0.1193160579
C  C1658  1  0.78050000  0.41530000  0.50410000  1.0 -0.1193160579
C  C1659  1  0.08470000  0.03050000  0.75410000  1.0 -0.1193160579
C  C1660  1  0.78050000  0.33470000  0.74590000  1.0 -0.1193160579
C  C1661  1  0.99590000  0.28050000  0.58470000  1.0 -0.1193160579
C  C1662  1  0.46950000  0.33470000  0.00410000  1.0 -0.1193160579
C  C1663  1  0.16530000  0.03050000  0.99590000  1.0 -0.1193160579
C  C1664  1  0.21950000  0.24590000  0.83470000  1.0 -0.1193160579
C  C1665  1  0.16530000  0.71950000  0.25410000  1.0 -0.1193160579
C  C1666  1  0.46950000  0.41530000  0.24590000  1.0 -0.1193160579
C  C1667  1  0.25410000  0.46950000  0.08470000  1.0 -0.1193160579
C  C1668  1  0.08470000  0.71950000  0.49590000  1.0 -0.1193160579
C  C1669  1  0.03050000  0.50410000  0.33470000  1.0 -0.1193160579
C  C1670  1  0.99590000  0.46950000  0.66530000  1.0 -0.1193160579
C  C1671  1  0.21950000  0.50410000  0.41530000  1.0 -0.1193160579
C  C1672  1  0.25410000  0.28050000  0.16530000  1.0 -0.1193160579
C  C1673  1  0.03050000  0.24590000  0.91530000  1.0 -0.1193160579
C  C1674  1  0.91530000  0.49590000  0.71950000  1.0 -0.1193160579
C  C1675  1  0.24590000  0.58470000  0.46950000  1.0 -0.1193160579
C  C1676  1  0.50410000  0.66530000  0.96950000  1.0 -0.1193160579
C  C1677  1  0.24590000  0.66530000  0.28050000  1.0 -0.1193160579
C  C1678  1  0.41530000  0.75410000  0.53050000  1.0 -0.1193160579
C  C1679  1  0.00410000  0.58470000  0.28050000  1.0 -0.1193160579
C  C1680  1  0.83470000  0.49590000  0.53050000  1.0 -0.1193160579
C  C1681  1  0.33470000  0.75410000  0.71950000  1.0 -0.1193160579
C  C1682  1  0.74590000  0.58470000  0.96950000  1.0 -0.1193160579
C  C1683  1  0.28050000  0.91530000  0.50410000  1.0 -0.1193160579
C  C1684  1  0.58470000  0.53050000  0.75410000  1.0 -0.1193160579
C  C1685  1  0.28050000  0.83470000  0.74590000  1.0 -0.1193160579
C  C1686  1  0.49590000  0.78050000  0.58470000  1.0 -0.1193160579
C  C1687  1  0.96950000  0.83470000  0.00410000  1.0 -0.1193160579
C  C1688  1  0.66530000  0.53050000  0.99590000  1.0 -0.1193160579
C  C1689  1  0.71950000  0.74590000  0.83470000  1.0 -0.1193160579
C  C1690  1  0.66530000  0.21950000  0.25410000  1.0 -0.1193160579
C  C1691  1  0.96950000  0.91530000  0.24590000  1.0 -0.1193160579
C  C1692  1  0.75410000  0.96950000  0.08470000  1.0 -0.1193160579
C  C1693  1  0.58470000  0.21950000  0.49590000  1.0 -0.1193160579
C  C1694  1  0.53050000  0.00410000  0.33470000  1.0 -0.1193160579
C  C1695  1  0.49590000  0.96950000  0.66530000  1.0 -0.1193160579
C  C1696  1  0.71950000  0.00410000  0.41530000  1.0 -0.1193160579
C  C1697  1  0.75410000  0.78050000  0.16530000  1.0 -0.1193160579
C  C1698  1  0.53050000  0.74590000  0.91530000  1.0 -0.1193160579
C  C1699  1  0.41530000  0.99590000  0.71950000  1.0 -0.1193160579
C  C1700  1  0.00410000  0.16530000  0.96950000  1.0 -0.1193160579
C  C1701  1  0.74590000  0.16530000  0.28050000  1.0 -0.1193160579
C  C1702  1  0.91530000  0.25410000  0.53050000  1.0 -0.1193160579
C  C1703  1  0.50410000  0.08470000  0.28050000  1.0 -0.1193160579
C  C1704  1  0.33470000  0.99590000  0.53050000  1.0 -0.1193160579
C  C1705  1  0.83470000  0.25410000  0.71950000  1.0 -0.1193160579
C  C1706  1  0.28050000  0.41530000  0.00410000  1.0 -0.1193160579
C  C1707  1  0.58470000  0.03050000  0.25410000  1.0 -0.1193160579
C  C1708  1  0.28050000  0.33470000  0.24590000  1.0 -0.1193160579
C  C1709  1  0.49590000  0.28050000  0.08470000  1.0 -0.1193160579
C  C1710  1  0.96950000  0.33470000  0.50410000  1.0 -0.1193160579
C  C1711  1  0.66530000  0.03050000  0.49590000  1.0 -0.1193160579
C  C1712  1  0.71950000  0.24590000  0.33470000  1.0 -0.1193160579
C  C1713  1  0.66530000  0.71950000  0.75410000  1.0 -0.1193160579
C  C1714  1  0.96950000  0.41530000  0.74590000  1.0 -0.1193160579
C  C1715  1  0.75410000  0.46950000  0.58470000  1.0 -0.1193160579
C  C1716  1  0.58470000  0.71950000  0.99590000  1.0 -0.1193160579
C  C1717  1  0.53050000  0.50410000  0.83470000  1.0 -0.1193160579
C  C1718  1  0.49590000  0.46950000  0.16530000  1.0 -0.1193160579
C  C1719  1  0.71950000  0.50410000  0.91530000  1.0 -0.1193160579
C  C1720  1  0.75410000  0.28050000  0.66530000  1.0 -0.1193160579
C  C1721  1  0.53050000  0.24590000  0.41530000  1.0 -0.1193160579
C  C1722  1  0.41530000  0.49590000  0.21950000  1.0 -0.1193160579
C  C1723  1  0.00410000  0.66530000  0.46950000  1.0 -0.1193160579
C  C1724  1  0.74590000  0.66530000  0.78050000  1.0 -0.1193160579
C  C1725  1  0.91530000  0.75410000  0.03050000  1.0 -0.1193160579
C  C1726  1  0.50410000  0.58470000  0.78050000  1.0 -0.1193160579
C  C1727  1  0.33470000  0.49590000  0.03050000  1.0 -0.1193160579
C  C1728  1  0.83470000  0.75410000  0.21950000  1.0 -0.1193160579
C  C1729  1  0.21950000  0.08470000  0.99590000  1.0 -0.1193160579
C  C1730  1  0.91530000  0.46950000  0.74590000  1.0 -0.1193160579
C  C1731  1  0.21950000  0.16530000  0.75410000  1.0 -0.1193160579
C  C1732  1  0.00410000  0.21950000  0.91530000  1.0 -0.1193160579
C  C1733  1  0.53050000  0.16530000  0.49590000  1.0 -0.1193160579
C  C1734  1  0.83470000  0.46950000  0.50410000  1.0 -0.1193160579
C  C1735  1  0.78050000  0.25410000  0.66530000  1.0 -0.1193160579
C  C1736  1  0.83470000  0.78050000  0.24590000  1.0 -0.1193160579
C  C1737  1  0.53050000  0.08470000  0.25410000  1.0 -0.1193160579
C  C1738  1  0.74590000  0.03050000  0.41530000  1.0 -0.1193160579
C  C1739  1  0.91530000  0.78050000  0.00410000  1.0 -0.1193160579
C  C1740  1  0.96950000  0.99590000  0.16530000  1.0 -0.1193160579
C  C1741  1  0.00410000  0.03050000  0.83470000  1.0 -0.1193160579
C  C1742  1  0.78050000  0.99590000  0.08470000  1.0 -0.1193160579
C  C1743  1  0.74590000  0.21950000  0.33470000  1.0 -0.1193160579
C  C1744  1  0.96950000  0.25410000  0.58470000  1.0 -0.1193160579
C  C1745  1  0.08470000  0.00410000  0.78050000  1.0 -0.1193160579
C  C1746  1  0.75410000  0.91530000  0.03050000  1.0 -0.1193160579
C  C1747  1  0.49590000  0.83470000  0.53050000  1.0 -0.1193160579
C  C1748  1  0.75410000  0.83470000  0.21950000  1.0 -0.1193160579
C  C1749  1  0.58470000  0.74590000  0.96950000  1.0 -0.1193160579
C  C1750  1  0.99590000  0.91530000  0.21950000  1.0 -0.1193160579
C  C1751  1  0.16530000  0.00410000  0.96950000  1.0 -0.1193160579
C  C1752  1  0.66530000  0.74590000  0.78050000  1.0 -0.1193160579
C  C1753  1  0.25410000  0.91530000  0.53050000  1.0 -0.1193160579
C  C1754  1  0.21950000  0.58470000  0.49590000  1.0 -0.1193160579
C  C1755  1  0.91530000  0.96950000  0.24590000  1.0 -0.1193160579
C  C1756  1  0.21950000  0.66530000  0.25410000  1.0 -0.1193160579
C  C1757  1  0.00410000  0.71950000  0.41530000  1.0 -0.1193160579
C  C1758  1  0.53050000  0.66530000  0.99590000  1.0 -0.1193160579
C  C1759  1  0.83470000  0.96950000  0.00410000  1.0 -0.1193160579
C  C1760  1  0.78050000  0.75410000  0.16530000  1.0 -0.1193160579
C  C1761  1  0.83470000  0.28050000  0.74590000  1.0 -0.1193160579
C  C1762  1  0.53050000  0.58470000  0.75410000  1.0 -0.1193160579
C  C1763  1  0.74590000  0.53050000  0.91530000  1.0 -0.1193160579
C  C1764  1  0.91530000  0.28050000  0.50410000  1.0 -0.1193160579
C  C1765  1  0.96950000  0.49590000  0.66530000  1.0 -0.1193160579
C  C1766  1  0.00410000  0.53050000  0.33470000  1.0 -0.1193160579
C  C1767  1  0.78050000  0.49590000  0.58470000  1.0 -0.1193160579
C  C1768  1  0.74590000  0.71950000  0.83470000  1.0 -0.1193160579
C  C1769  1  0.96950000  0.75410000  0.08470000  1.0 -0.1193160579
C  C1770  1  0.08470000  0.50410000  0.28050000  1.0 -0.1193160579
C  C1771  1  0.75410000  0.41530000  0.53050000  1.0 -0.1193160579
C  C1772  1  0.49590000  0.33470000  0.03050000  1.0 -0.1193160579
C  C1773  1  0.75410000  0.33470000  0.71950000  1.0 -0.1193160579
C  C1774  1  0.58470000  0.24590000  0.46950000  1.0 -0.1193160579
C  C1775  1  0.99590000  0.41530000  0.71950000  1.0 -0.1193160579
C  C1776  1  0.16530000  0.50410000  0.46950000  1.0 -0.1193160579
C  C1777  1  0.66530000  0.24590000  0.28050000  1.0 -0.1193160579
C  C1778  1  0.25410000  0.41530000  0.03050000  1.0 -0.1193160579
C  C1779  1  0.71950000  0.08470000  0.49590000  1.0 -0.1193160579
C  C1780  1  0.41530000  0.46950000  0.24590000  1.0 -0.1193160579
C  C1781  1  0.71950000  0.16530000  0.25410000  1.0 -0.1193160579
C  C1782  1  0.50410000  0.21950000  0.41530000  1.0 -0.1193160579
C  C1783  1  0.03050000  0.16530000  0.99590000  1.0 -0.1193160579
C  C1784  1  0.33470000  0.46950000  0.00410000  1.0 -0.1193160579
C  C1785  1  0.28050000  0.25410000  0.16530000  1.0 -0.1193160579
C  C1786  1  0.33470000  0.78050000  0.74590000  1.0 -0.1193160579
C  C1787  1  0.03050000  0.08470000  0.75410000  1.0 -0.1193160579
C  C1788  1  0.24590000  0.03050000  0.91530000  1.0 -0.1193160579
C  C1789  1  0.41530000  0.78050000  0.50410000  1.0 -0.1193160579
C  C1790  1  0.46950000  0.99590000  0.66530000  1.0 -0.1193160579
C  C1791  1  0.50410000  0.03050000  0.33470000  1.0 -0.1193160579
C  C1792  1  0.28050000  0.99590000  0.58470000  1.0 -0.1193160579
C  C1793  1  0.24590000  0.21950000  0.83470000  1.0 -0.1193160579
C  C1794  1  0.46950000  0.25410000  0.08470000  1.0 -0.1193160579
C  C1795  1  0.58470000  0.00410000  0.28050000  1.0 -0.1193160579
C  C1796  1  0.99590000  0.83470000  0.03050000  1.0 -0.1193160579
C  C1797  1  0.25410000  0.83470000  0.71950000  1.0 -0.1193160579
C  C1798  1  0.08470000  0.74590000  0.46950000  1.0 -0.1193160579
C  C1799  1  0.49590000  0.91530000  0.71950000  1.0 -0.1193160579
C  C1800  1  0.66530000  0.00410000  0.46950000  1.0 -0.1193160579
C  C1801  1  0.16530000  0.74590000  0.28050000  1.0 -0.1193160579
C  C1802  1  0.71950000  0.58470000  0.99590000  1.0 -0.1193160579
C  C1803  1  0.41530000  0.96950000  0.74590000  1.0 -0.1193160579
C  C1804  1  0.71950000  0.66530000  0.75410000  1.0 -0.1193160579
C  C1805  1  0.50410000  0.71950000  0.91530000  1.0 -0.1193160579
C  C1806  1  0.03050000  0.66530000  0.49590000  1.0 -0.1193160579
C  C1807  1  0.33470000  0.96950000  0.50410000  1.0 -0.1193160579
C  C1808  1  0.28050000  0.75410000  0.66530000  1.0 -0.1193160579
C  C1809  1  0.33470000  0.28050000  0.24590000  1.0 -0.1193160579
C  C1810  1  0.03050000  0.58470000  0.25410000  1.0 -0.1193160579
C  C1811  1  0.24590000  0.53050000  0.41530000  1.0 -0.1193160579
C  C1812  1  0.41530000  0.28050000  0.00410000  1.0 -0.1193160579
C  C1813  1  0.46950000  0.49590000  0.16530000  1.0 -0.1193160579
C  C1814  1  0.50410000  0.53050000  0.83470000  1.0 -0.1193160579
C  C1815  1  0.28050000  0.49590000  0.08470000  1.0 -0.1193160579
C  C1816  1  0.24590000  0.71950000  0.33470000  1.0 -0.1193160579
C  C1817  1  0.46950000  0.75410000  0.58470000  1.0 -0.1193160579
C  C1818  1  0.58470000  0.50410000  0.78050000  1.0 -0.1193160579
C  C1819  1  0.99590000  0.33470000  0.53050000  1.0 -0.1193160579
C  C1820  1  0.25410000  0.33470000  0.21950000  1.0 -0.1193160579
C  C1821  1  0.08470000  0.24590000  0.96950000  1.0 -0.1193160579
C  C1822  1  0.49590000  0.41530000  0.21950000  1.0 -0.1193160579
C  C1823  1  0.66530000  0.50410000  0.96950000  1.0 -0.1193160579
C  C1824  1  0.16530000  0.24590000  0.78050000  1.0 -0.1193160579
C  C1825  1  0.80189000  0.90220000  0.05190000  1.0 0.555449556
C  C1826  1  0.09780000  0.55189000  0.30190000  1.0 0.554603597
C  C1827  1  0.80189000  0.84780000  0.19810000  1.0 0.555449556
C  C1828  1  0.94810000  0.80189000  0.09780000  1.0 0.555449556
C  C1829  1  0.44811000  0.84780000  0.55190000  1.0 0.555449556
C  C1830  1  0.15220000  0.55189000  0.44810000  1.0 0.554603597
C  C1831  1  0.19811000  0.69810000  0.34780000  1.0 0.554603597
C  C1832  1  0.15220000  0.19811000  0.80190000  1.0 0.554603597
C  C1833  1  0.44811000  0.90220000  0.69810000  1.0 0.555449556
C  C1834  1  0.30190000  0.94811000  0.59780000  1.0 0.555449556
C  C1835  1  0.09780000  0.19811000  0.94810000  1.0 0.554603597
C  C1836  1  0.05189000  0.05190000  0.84780000  1.0 0.554603597
C  C1837  1  0.94810000  0.94811000  0.15220000  1.0 0.555449556
C  C1838  1  0.19811000  0.05190000  0.90220000  1.0 0.554603597
C  C1839  1  0.30190000  0.80189000  0.65220000  1.0 0.555449556
C  C1840  1  0.05189000  0.69810000  0.40220000  1.0 0.554603597
C  C1841  1  0.90220000  0.94810000  0.19811000  1.0 0.555449556
C  C1842  1  0.19810000  0.09780000  0.94811000  1.0 0.554603597
C  C1843  1  0.55190000  0.15220000  0.44811000  1.0 0.554603597
C  C1844  1  0.19810000  0.15220000  0.80189000  1.0 0.554603597
C  C1845  1  0.40220000  0.30190000  0.05189000  1.0 0.554603597
C  C1846  1  0.05190000  0.09780000  0.80189000  1.0 0.554603597
C  C1847  1  0.84780000  0.94810000  0.05189000  1.0 0.555449556
C  C1848  1  0.34780000  0.30190000  0.19811000  1.0 0.554603597
C  C1849  1  0.69810000  0.09780000  0.44811000  1.0 0.554603597
C  C1850  1  0.80189000  0.40220000  0.55190000  1.0 0.554603597
C  C1851  1  0.09780000  0.05189000  0.80190000  1.0 0.554603597
C  C1852  1  0.80189000  0.34780000  0.69810000  1.0 0.554603597
C  C1853  1  0.94810000  0.30189000  0.59780000  1.0 0.554603597
C  C1854  1  0.44811000  0.34780000  0.05190000  1.0 0.554603597
C  C1855  1  0.15220000  0.05189000  0.94810000  1.0 0.554603597
C  C1856  1  0.19811000  0.19810000  0.84780000  1.0 0.554603597
C  C1857  1  0.15220000  0.69811000  0.30190000  1.0 0.554603597
C  C1858  1  0.44811000  0.40220000  0.19810000  1.0 0.554603597
C  C1859  1  0.30190000  0.44811000  0.09780000  1.0 0.554603597
C  C1860  1  0.09780000  0.69811000  0.44810000  1.0 0.554603597
C  C1861  1  0.05189000  0.55190000  0.34780000  1.0 0.554603597
C  C1862  1  0.94810000  0.44811000  0.65220000  1.0 0.554603597
C  C1863  1  0.19811000  0.55190000  0.40220000  1.0 0.554603597
C  C1864  1  0.30190000  0.30189000  0.15220000  1.0 0.554603597
C  C1865  1  0.05189000  0.19810000  0.90220000  1.0 0.554603597
C  C1866  1  0.90220000  0.44810000  0.69811000  1.0 0.554603597
C  C1867  1  0.19810000  0.59780000  0.44811000  1.0 0.554603597
C  C1868  1  0.55190000  0.65220000  0.94811000  1.0 0.554603597
C  C1869  1  0.19810000  0.65220000  0.30189000  1.0 0.554603597
C  C1870  1  0.40220000  0.80190000  0.55189000  1.0 0.554603597
C  C1871  1  0.05190000  0.59780000  0.30189000  1.0 0.554603597
C  C1872  1  0.84780000  0.44810000  0.55189000  1.0 0.554603597
C  C1873  1  0.34780000  0.80190000  0.69811000  1.0 0.555449556
C  C1874  1  0.69810000  0.59780000  0.94811000  1.0 0.554603597
C  C1875  1  0.30189000  0.90220000  0.55190000  1.0 0.555449556
C  C1876  1  0.59780000  0.55189000  0.80190000  1.0 0.554603597
C  C1877  1  0.30189000  0.84780000  0.69810000  1.0 0.555449556
C  C1878  1  0.44810000  0.80189000  0.59780000  1.0 0.554603597
C  C1879  1  0.94811000  0.84780000  0.05190000  1.0 0.555449556
C  C1880  1  0.65220000  0.55189000  0.94810000  1.0 0.554603597
C  C1881  1  0.69811000  0.69810000  0.84780000  1.0 0.554603597
C  C1882  1  0.65220000  0.19811000  0.30190000  1.0 0.554603597
C  C1883  1  0.94811000  0.90220000  0.19810000  1.0 0.555449556
C  C1884  1  0.80190000  0.94811000  0.09780000  1.0 0.555449556
C  C1885  1  0.59780000  0.19811000  0.44810000  1.0 0.554603597
C  C1886  1  0.55189000  0.05190000  0.34780000  1.0 0.554603597
C  C1887  1  0.44810000  0.94811000  0.65220000  1.0 0.555449556
C  C1888  1  0.69811000  0.05190000  0.40220000  1.0 0.554603597
C  C1889  1  0.80190000  0.80189000  0.15220000  1.0 0.555449556
C  C1890  1  0.55189000  0.69810000  0.90220000  1.0 0.554603597
C  C1891  1  0.40220000  0.94810000  0.69811000  1.0 0.555449556
C  C1892  1  0.05190000  0.15220000  0.94811000  1.0 0.554603597
C  C1893  1  0.69810000  0.15220000  0.30189000  1.0 0.554603597
C  C1894  1  0.90220000  0.30190000  0.55189000  1.0 0.554603597
C  C1895  1  0.55190000  0.09780000  0.30189000  1.0 0.554603597
C  C1896  1  0.34780000  0.94810000  0.55189000  1.0 0.555449556
C  C1897  1  0.84780000  0.30190000  0.69811000  1.0 0.554603597
C  C1898  1  0.30189000  0.40220000  0.05190000  1.0 0.554603597
C  C1899  1  0.59780000  0.05189000  0.30190000  1.0 0.554603597
C  C1900  1  0.30189000  0.34780000  0.19810000  1.0 0.554603597
C  C1901  1  0.44810000  0.30189000  0.09780000  1.0 0.554603597
C  C1902  1  0.94811000  0.34780000  0.55190000  1.0 0.554603597
C  C1903  1  0.65220000  0.05189000  0.44810000  1.0 0.554603597
C  C1904  1  0.69811000  0.19810000  0.34780000  1.0 0.554603597
C  C1905  1  0.65220000  0.69811000  0.80190000  1.0 0.554603597
C  C1906  1  0.94811000  0.40220000  0.69810000  1.0 0.554603597
C  C1907  1  0.80190000  0.44811000  0.59780000  1.0 0.554603597
C  C1908  1  0.59780000  0.69811000  0.94810000  1.0 0.554603597
C  C1909  1  0.55189000  0.55190000  0.84780000  1.0 0.554603597
C  C1910  1  0.44810000  0.44811000  0.15220000  1.0 0.554603597
C  C1911  1  0.69811000  0.55190000  0.90220000  1.0 0.554603597
C  C1912  1  0.80190000  0.30189000  0.65220000  1.0 0.554603597
C  C1913  1  0.55189000  0.19810000  0.40220000  1.0 0.554603597
C  C1914  1  0.40220000  0.44810000  0.19811000  1.0 0.554603597
C  C1915  1  0.05190000  0.65220000  0.44811000  1.0 0.554603597
C  C1916  1  0.69810000  0.65220000  0.80189000  1.0 0.554603597
C  C1917  1  0.90220000  0.80190000  0.05189000  1.0 0.555449556
C  C1918  1  0.55190000  0.59780000  0.80189000  1.0 0.554603597
C  C1919  1  0.34780000  0.44810000  0.05189000  1.0 0.554603597
C  C1920  1  0.84780000  0.80190000  0.19811000  1.0 0.555449556
C  C1921  1  0.78710000  0.90700000  0.03710000  1.0 -0.1116419026
C  C1922  1  0.09300000  0.53710000  0.28710000  1.0 -0.1116419026
C  C1923  1  0.78710000  0.84300000  0.21290000  1.0 -0.1116419026
C  C1924  1  0.96290000  0.78710000  0.09300000  1.0 -0.1116419026
C  C1925  1  0.46290000  0.84300000  0.53710000  1.0 -0.1116419026
C  C1926  1  0.15700000  0.53710000  0.46290000  1.0 -0.1116419026
C  C1927  1  0.21290000  0.71290000  0.34300000  1.0 -0.1116419026
C  C1928  1  0.15700000  0.21290000  0.78710000  1.0 -0.1116419026
C  C1929  1  0.46290000  0.90700000  0.71290000  1.0 -0.1116419026
C  C1930  1  0.28710000  0.96290000  0.59300000  1.0 -0.1116419026
C  C1931  1  0.09300000  0.21290000  0.96290000  1.0 -0.1116419026
C  C1932  1  0.03710000  0.03710000  0.84300000  1.0 -0.1116419026
C  C1933  1  0.96290000  0.96290000  0.15700000  1.0 -0.1116419026
C  C1934  1  0.21290000  0.03710000  0.90700000  1.0 -0.1116419026
C  C1935  1  0.28710000  0.78710000  0.65700000  1.0 -0.1116419026
C  C1936  1  0.03710000  0.71290000  0.40700000  1.0 -0.1116419026
C  C1937  1  0.90700000  0.96290000  0.21290000  1.0 -0.1116419026
C  C1938  1  0.21290000  0.09300000  0.96290000  1.0 -0.1116419026
C  C1939  1  0.53710000  0.15700000  0.46290000  1.0 -0.1116419026
C  C1940  1  0.21290000  0.15700000  0.78710000  1.0 -0.1116419026
C  C1941  1  0.40700000  0.28710000  0.03710000  1.0 -0.1116419026
C  C1942  1  0.03710000  0.09300000  0.78710000  1.0 -0.1116419026
C  C1943  1  0.84300000  0.96290000  0.03710000  1.0 -0.1116419026
C  C1944  1  0.34300000  0.28710000  0.21290000  1.0 -0.1116419026
C  C1945  1  0.71290000  0.09300000  0.46290000  1.0 -0.1116419026
C  C1946  1  0.78710000  0.40700000  0.53710000  1.0 -0.1116419026
C  C1947  1  0.09300000  0.03710000  0.78710000  1.0 -0.1116419026
C  C1948  1  0.78710000  0.34300000  0.71290000  1.0 -0.1116419026
C  C1949  1  0.96290000  0.28710000  0.59300000  1.0 -0.1116419026
C  C1950  1  0.46290000  0.34300000  0.03710000  1.0 -0.1116419026
C  C1951  1  0.15700000  0.03710000  0.96290000  1.0 -0.1116419026
C  C1952  1  0.21290000  0.21290000  0.84300000  1.0 -0.1116419026
C  C1953  1  0.15700000  0.71290000  0.28710000  1.0 -0.1116419026
C  C1954  1  0.46290000  0.40700000  0.21290000  1.0 -0.1116419026
C  C1955  1  0.28710000  0.46290000  0.09300000  1.0 -0.1116419026
C  C1956  1  0.09300000  0.71290000  0.46290000  1.0 -0.1116419026
C  C1957  1  0.03710000  0.53710000  0.34300000  1.0 -0.1116419026
C  C1958  1  0.96290000  0.46290000  0.65700000  1.0 -0.1116419026
C  C1959  1  0.21290000  0.53710000  0.40700000  1.0 -0.1116419026
C  C1960  1  0.28710000  0.28710000  0.15700000  1.0 -0.1116419026
C  C1961  1  0.03710000  0.21290000  0.90700000  1.0 -0.1116419026
C  C1962  1  0.90700000  0.46290000  0.71290000  1.0 -0.1116419026
C  C1963  1  0.21290000  0.59300000  0.46290000  1.0 -0.1116419026
C  C1964  1  0.53710000  0.65700000  0.96290000  1.0 -0.1116419026
C  C1965  1  0.21290000  0.65700000  0.28710000  1.0 -0.1116419026
C  C1966  1  0.40700000  0.78710000  0.53710000  1.0 -0.1116419026
C  C1967  1  0.03710000  0.59300000  0.28710000  1.0 -0.1116419026
C  C1968  1  0.84300000  0.46290000  0.53710000  1.0 -0.1116419026
C  C1969  1  0.34300000  0.78710000  0.71290000  1.0 -0.1116419026
C  C1970  1  0.71290000  0.59300000  0.96290000  1.0 -0.1116419026
C  C1971  1  0.28710000  0.90700000  0.53710000  1.0 -0.1116419026
C  C1972  1  0.59300000  0.53710000  0.78710000  1.0 -0.1116419026
C  C1973  1  0.28710000  0.84300000  0.71290000  1.0 -0.1116419026
C  C1974  1  0.46290000  0.78710000  0.59300000  1.0 -0.1116419026
C  C1975  1  0.96290000  0.84300000  0.03710000  1.0 -0.1116419026
C  C1976  1  0.65700000  0.53710000  0.96290000  1.0 -0.1116419026
C  C1977  1  0.71290000  0.71290000  0.84300000  1.0 -0.1116419026
C  C1978  1  0.65700000  0.21290000  0.28710000  1.0 -0.1116419026
C  C1979  1  0.96290000  0.90700000  0.21290000  1.0 -0.1116419026
C  C1980  1  0.78710000  0.96290000  0.09300000  1.0 -0.1116419026
C  C1981  1  0.59300000  0.21290000  0.46290000  1.0 -0.1116419026
C  C1982  1  0.53710000  0.03710000  0.34300000  1.0 -0.1116419026
C  C1983  1  0.46290000  0.96290000  0.65700000  1.0 -0.1116419026
C  C1984  1  0.71290000  0.03710000  0.40700000  1.0 -0.1116419026
C  C1985  1  0.78710000  0.78710000  0.15700000  1.0 -0.1116419026
C  C1986  1  0.53710000  0.71290000  0.90700000  1.0 -0.1116419026
C  C1987  1  0.40700000  0.96290000  0.71290000  1.0 -0.1116419026
C  C1988  1  0.03710000  0.15700000  0.96290000  1.0 -0.1116419026
C  C1989  1  0.71290000  0.15700000  0.28710000  1.0 -0.1116419026
C  C1990  1  0.90700000  0.28710000  0.53710000  1.0 -0.1116419026
C  C1991  1  0.53710000  0.09300000  0.28710000  1.0 -0.1116419026
C  C1992  1  0.34300000  0.96290000  0.53710000  1.0 -0.1116419026
C  C1993  1  0.84300000  0.28710000  0.71290000  1.0 -0.1116419026
C  C1994  1  0.28710000  0.40700000  0.03710000  1.0 -0.1116419026
C  C1995  1  0.59300000  0.03710000  0.28710000  1.0 -0.1116419026
C  C1996  1  0.28710000  0.34300000  0.21290000  1.0 -0.1116419026
C  C1997  1  0.46290000  0.28710000  0.09300000  1.0 -0.1116419026
C  C1998  1  0.96290000  0.34300000  0.53710000  1.0 -0.1116419026
C  C1999  1  0.65700000  0.03710000  0.46290000  1.0 -0.1116419026
C  C2000  1  0.71290000  0.21290000  0.34300000  1.0 -0.1116419026
C  C2001  1  0.65700000  0.71290000  0.78710000  1.0 -0.1116419026
C  C2002  1  0.96290000  0.40700000  0.71290000  1.0 -0.1116419026
C  C2003  1  0.78710000  0.46290000  0.59300000  1.0 -0.1116419026
C  C2004  1  0.59300000  0.71290000  0.96290000  1.0 -0.1116419026
C  C2005  1  0.53710000  0.53710000  0.84300000  1.0 -0.1116419026
C  C2006  1  0.46290000  0.46290000  0.15700000  1.0 -0.1116419026
C  C2007  1  0.71290000  0.53710000  0.90700000  1.0 -0.1116419026
C  C2008  1  0.78710000  0.28710000  0.65700000  1.0 -0.1116419026
C  C2009  1  0.53710000  0.21290000  0.40700000  1.0 -0.1116419026
C  C2010  1  0.40700000  0.46290000  0.21290000  1.0 -0.1116419026
C  C2011  1  0.03710000  0.65700000  0.46290000  1.0 -0.1116419026
C  C2012  1  0.71290000  0.65700000  0.78710000  1.0 -0.1116419026
C  C2013  1  0.90700000  0.78710000  0.03710000  1.0 -0.1116419026
C  C2014  1  0.53710000  0.59300000  0.78710000  1.0 -0.1116419026
C  C2015  1  0.34300000  0.46290000  0.03710000  1.0 -0.1116419026
C  C2016  1  0.84300000  0.78710000  0.21290000  1.0 -0.1116419026
C  C2017  1  0.76020000  0.91910000  0.01020000  1.0 -0.0038672848
C  C2018  1  0.08090000  0.51020000  0.26020000  1.0 -0.0055155627
C  C2019  1  0.76020000  0.83090000  0.23980000  1.0 -0.0038672848
C  C2020  1  0.98980000  0.76020000  0.08090000  1.0 -0.0038672848
C  C2021  1  0.48980000  0.83090000  0.51020000  1.0 -0.0038672848
C  C2022  1  0.16910000  0.51020000  0.48980000  1.0 -0.0055155627
C  C2023  1  0.23980000  0.73980000  0.33090000  1.0 -0.0055155627
C  C2024  1  0.16910000  0.23980000  0.76020000  1.0 -0.0055155627
C  C2025  1  0.48980000  0.91910000  0.73980000  1.0 -0.0038672848
C  C2026  1  0.26020000  0.98980000  0.58090000  1.0 -0.0055155627
C  C2027  1  0.08090000  0.23980000  0.98980000  1.0 -0.0055155627
C  C2028  1  0.01020000  0.01020000  0.83090000  1.0 -0.0038672848
C  C2029  1  0.98980000  0.98980000  0.16910000  1.0 -0.0038672848
C  C2030  1  0.23980000  0.01020000  0.91910000  1.0 -0.0055155627
C  C2031  1  0.26020000  0.76020000  0.66910000  1.0 -0.0055155627
C  C2032  1  0.01020000  0.73980000  0.41910000  1.0 -0.0038672848
C  C2033  1  0.91910000  0.98980000  0.23980000  1.0 -0.0038672848
C  C2034  1  0.23980000  0.08090000  0.98980000  1.0 -0.0055155627
C  C2035  1  0.51020000  0.16910000  0.48980000  1.0 -0.0038672848
C  C2036  1  0.23980000  0.16910000  0.76020000  1.0 -0.0055155627
C  C2037  1  0.41910000  0.26020000  0.01020000  1.0 -0.0038672848
C  C2038  1  0.01020000  0.08090000  0.76020000  1.0 -0.0038672848
C  C2039  1  0.83090000  0.98980000  0.01020000  1.0 -0.0038672848
C  C2040  1  0.33090000  0.26020000  0.23980000  1.0 -0.0038672848
C  C2041  1  0.73980000  0.08090000  0.48980000  1.0 -0.0038672848
C  C2042  1  0.76020000  0.41910000  0.51020000  1.0 -0.0038672848
C  C2043  1  0.08090000  0.01020000  0.76020000  1.0 -0.0055155627
C  C2044  1  0.76020000  0.33090000  0.73980000  1.0 -0.0038672848
C  C2045  1  0.98980000  0.26020000  0.58090000  1.0 -0.0055155627
C  C2046  1  0.48980000  0.33090000  0.01020000  1.0 -0.0038672848
C  C2047  1  0.16910000  0.01020000  0.98980000  1.0 -0.0055155627
C  C2048  1  0.23980000  0.23980000  0.83090000  1.0 -0.0055155627
C  C2049  1  0.16910000  0.73980000  0.26020000  1.0 -0.0055155627
C  C2050  1  0.48980000  0.41910000  0.23980000  1.0 -0.0038672848
C  C2051  1  0.26020000  0.48980000  0.08090000  1.0 -0.0038672848
C  C2052  1  0.08090000  0.73980000  0.48980000  1.0 -0.0055155627
C  C2053  1  0.01020000  0.51020000  0.33090000  1.0 -0.0038672848
C  C2054  1  0.98980000  0.48980000  0.66910000  1.0 -0.0055155627
C  C2055  1  0.23980000  0.51020000  0.41910000  1.0 -0.0055155627
C  C2056  1  0.26020000  0.26020000  0.16910000  1.0 -0.0038672848
C  C2057  1  0.01020000  0.23980000  0.91910000  1.0 -0.0055155627
C  C2058  1  0.91910000  0.48980000  0.73980000  1.0 -0.0038672848
C  C2059  1  0.23980000  0.58090000  0.48980000  1.0 -0.0055155627
C  C2060  1  0.51020000  0.66910000  0.98980000  1.0 -0.0055155627
C  C2061  1  0.23980000  0.66910000  0.26020000  1.0 -0.0038672848
C  C2062  1  0.41910000  0.76020000  0.51020000  1.0 -0.0038672848
C  C2063  1  0.01020000  0.58090000  0.26020000  1.0 -0.0038672848
C  C2064  1  0.83090000  0.48980000  0.51020000  1.0 -0.0038672848
C  C2065  1  0.33090000  0.76020000  0.73980000  1.0 -0.0055155627
C  C2066  1  0.73980000  0.58090000  0.98980000  1.0 -0.0055155627
C  C2067  1  0.26020000  0.91910000  0.51020000  1.0 -0.0055155627
C  C2068  1  0.58090000  0.51020000  0.76020000  1.0 -0.0055155627
C  C2069  1  0.26020000  0.83090000  0.73980000  1.0 -0.0055155627
C  C2070  1  0.48980000  0.76020000  0.58090000  1.0 -0.0038672848
C  C2071  1  0.98980000  0.83090000  0.01020000  1.0 -0.0038672848
C  C2072  1  0.66910000  0.51020000  0.98980000  1.0 -0.0055155627
C  C2073  1  0.73980000  0.73980000  0.83090000  1.0 -0.0038672848
C  C2074  1  0.66910000  0.23980000  0.26020000  1.0 -0.0038672848
C  C2075  1  0.98980000  0.91910000  0.23980000  1.0 -0.0038672848
C  C2076  1  0.76020000  0.98980000  0.08090000  1.0 -0.0038672848
C  C2077  1  0.58090000  0.23980000  0.48980000  1.0 -0.0038672848
C  C2078  1  0.51020000  0.01020000  0.33090000  1.0 -0.0038672848
C  C2079  1  0.48980000  0.98980000  0.66910000  1.0 -0.0055155627
C  C2080  1  0.73980000  0.01020000  0.41910000  1.0 -0.0038672848
C  C2081  1  0.76020000  0.76020000  0.16910000  1.0 -0.0038672848
C  C2082  1  0.51020000  0.73980000  0.91910000  1.0 -0.0055155627
C  C2083  1  0.41910000  0.98980000  0.73980000  1.0 -0.0055155627
C  C2084  1  0.01020000  0.16910000  0.98980000  1.0 -0.0055155627
C  C2085  1  0.73980000  0.16910000  0.26020000  1.0 -0.0038672848
C  C2086  1  0.91910000  0.26020000  0.51020000  1.0 -0.0038672848
C  C2087  1  0.51020000  0.08090000  0.26020000  1.0 -0.0038672848
C  C2088  1  0.33090000  0.98980000  0.51020000  1.0 -0.0055155627
C  C2089  1  0.83090000  0.26020000  0.73980000  1.0 -0.0038672848
C  C2090  1  0.26020000  0.41910000  0.01020000  1.0 -0.0038672848
C  C2091  1  0.58090000  0.01020000  0.26020000  1.0 -0.0038672848
C  C2092  1  0.26020000  0.33090000  0.23980000  1.0 -0.0055155627
C  C2093  1  0.48980000  0.26020000  0.08090000  1.0 -0.0038672848
C  C2094  1  0.98980000  0.33090000  0.51020000  1.0 -0.0055155627
C  C2095  1  0.66910000  0.01020000  0.48980000  1.0 -0.0038672848
C  C2096  1  0.73980000  0.23980000  0.33090000  1.0 -0.0038672848
C  C2097  1  0.66910000  0.73980000  0.76020000  1.0 -0.0038672848
C  C2098  1  0.98980000  0.41910000  0.73980000  1.0 -0.0055155627
C  C2099  1  0.76020000  0.48980000  0.58090000  1.0 -0.0038672848
C  C2100  1  0.58090000  0.73980000  0.98980000  1.0 -0.0055155627
C  C2101  1  0.51020000  0.51020000  0.83090000  1.0 -0.0055155627
C  C2102  1  0.48980000  0.48980000  0.16910000  1.0 -0.0038672848
C  C2103  1  0.73980000  0.51020000  0.91910000  1.0 -0.0038672848
C  C2104  1  0.76020000  0.26020000  0.66910000  1.0 -0.0038672848
C  C2105  1  0.51020000  0.23980000  0.41910000  1.0 -0.0038672848
C  C2106  1  0.41910000  0.48980000  0.23980000  1.0 -0.0038672848
C  C2107  1  0.01020000  0.66910000  0.48980000  1.0 -0.0038672848
C  C2108  1  0.73980000  0.66910000  0.76020000  1.0 -0.0038672848
C  C2109  1  0.91910000  0.76020000  0.01020000  1.0 -0.0038672848
C  C2110  1  0.51020000  0.58090000  0.76020000  1.0 -0.0055155627
C  C2111  1  0.33090000  0.48980000  0.01020000  1.0 -0.0038672848
C  C2112  1  0.83090000  0.76020000  0.23980000  1.0 -0.0038672848
C  C2113  1  0.78940000  0.92110000  0.98540000  1.0 0.6001776091
C  C2114  1  0.07890000  0.53940000  0.23540000  1.0 0.6001776091
C  C2115  1  0.78940000  0.82890000  0.26460000  1.0 0.6001776091
C  C2116  1  0.01460000  0.78940000  0.07890000  1.0 0.6001776091
C  C2117  1  0.46060000  0.82890000  0.48540000  1.0 0.6001776091
C  C2118  1  0.17110000  0.53940000  0.51460000  1.0 0.6001776091
C  C2119  1  0.21060000  0.76460000  0.32890000  1.0 0.6001776091
C  C2120  1  0.17110000  0.21060000  0.73540000  1.0 0.6001776091
C  C2121  1  0.46060000  0.92110000  0.76460000  1.0 0.6001776091
C  C2122  1  0.23540000  0.96060000  0.57890000  1.0 0.6001776091
C  C2123  1  0.07890000  0.21060000  0.01460000  1.0 0.6001776091
C  C2124  1  0.03940000  0.98540000  0.82890000  1.0 0.6001776091
C  C2125  1  0.01460000  0.96060000  0.17110000  1.0 0.6001776091
C  C2126  1  0.21060000  0.98540000  0.92110000  1.0 0.6001776091
C  C2127  1  0.23540000  0.78940000  0.67110000  1.0 0.6001776091
C  C2128  1  0.03940000  0.76460000  0.42110000  1.0 0.6001776091
C  C2129  1  0.92110000  0.01460000  0.21060000  1.0 0.6001776091
C  C2130  1  0.26460000  0.07890000  0.96060000  1.0 0.6001776091
C  C2131  1  0.48540000  0.17110000  0.46060000  1.0 0.6001776091
C  C2132  1  0.26460000  0.17110000  0.78940000  1.0 0.6001776091
C  C2133  1  0.42110000  0.23540000  0.03940000  1.0 0.6001776091
C  C2134  1  0.98540000  0.07890000  0.78940000  1.0 0.6001776091
C  C2135  1  0.82890000  0.01460000  0.03940000  1.0 0.6001776091
C  C2136  1  0.32890000  0.23540000  0.21060000  1.0 0.6001776091
C  C2137  1  0.76460000  0.07890000  0.46060000  1.0 0.6001776091
C  C2138  1  0.78940000  0.42110000  0.48540000  1.0 0.6001776091
C  C2139  1  0.07890000  0.03940000  0.73540000  1.0 0.6001776091
C  C2140  1  0.78940000  0.32890000  0.76460000  1.0 0.6001776091
C  C2141  1  0.01460000  0.28940000  0.57890000  1.0 0.6001776091
C  C2142  1  0.46060000  0.32890000  0.98540000  1.0 0.6001776091
C  C2143  1  0.17110000  0.03940000  0.01460000  1.0 0.6001776091
C  C2144  1  0.21060000  0.26460000  0.82890000  1.0 0.6001776091
C  C2145  1  0.17110000  0.71060000  0.23540000  1.0 0.6001776091
C  C2146  1  0.46060000  0.42110000  0.26460000  1.0 0.6001776091
C  C2147  1  0.23540000  0.46060000  0.07890000  1.0 0.6001776091
C  C2148  1  0.07890000  0.71060000  0.51460000  1.0 0.6001776091
C  C2149  1  0.03940000  0.48540000  0.32890000  1.0 0.6001776091
C  C2150  1  0.01460000  0.46060000  0.67110000  1.0 0.6001776091
C  C2151  1  0.21060000  0.48540000  0.42110000  1.0 0.6001776091
C  C2152  1  0.23540000  0.28940000  0.17110000  1.0 0.6001776091
C  C2153  1  0.03940000  0.26460000  0.92110000  1.0 0.6001776091
C  C2154  1  0.92110000  0.51460000  0.71060000  1.0 0.6001776091
C  C2155  1  0.26460000  0.57890000  0.46060000  1.0 0.6001776091
C  C2156  1  0.48540000  0.67110000  0.96060000  1.0 0.6001776091
C  C2157  1  0.26460000  0.67110000  0.28940000  1.0 0.6001776091
C  C2158  1  0.42110000  0.73540000  0.53940000  1.0 0.6001776091
C  C2159  1  0.98540000  0.57890000  0.28940000  1.0 0.6001776091
C  C2160  1  0.82890000  0.51460000  0.53940000  1.0 0.6001776091
C  C2161  1  0.32890000  0.73540000  0.71060000  1.0 0.6001776091
C  C2162  1  0.76460000  0.57890000  0.96060000  1.0 0.6001776091
C  C2163  1  0.28940000  0.92110000  0.48540000  1.0 0.6001776091
C  C2164  1  0.57890000  0.53940000  0.73540000  1.0 0.6001776091
C  C2165  1  0.28940000  0.82890000  0.76460000  1.0 0.6001776091
C  C2166  1  0.51460000  0.78940000  0.57890000  1.0 0.6001776091
C  C2167  1  0.96060000  0.82890000  0.98540000  1.0 0.6001776091
C  C2168  1  0.67110000  0.53940000  0.01460000  1.0 0.6001776091
C  C2169  1  0.71060000  0.76460000  0.82890000  1.0 0.6001776091
C  C2170  1  0.67110000  0.21060000  0.23540000  1.0 0.6001776091
C  C2171  1  0.96060000  0.92110000  0.26460000  1.0 0.6001776091
C  C2172  1  0.73540000  0.96060000  0.07890000  1.0 0.6001776091
C  C2173  1  0.57890000  0.21060000  0.51460000  1.0 0.6001776091
C  C2174  1  0.53940000  0.98540000  0.32890000  1.0 0.6001776091
C  C2175  1  0.51460000  0.96060000  0.67110000  1.0 0.6001776091
C  C2176  1  0.71060000  0.98540000  0.42110000  1.0 0.6001776091
C  C2177  1  0.73540000  0.78940000  0.17110000  1.0 0.6001776091
C  C2178  1  0.53940000  0.76460000  0.92110000  1.0 0.6001776091
C  C2179  1  0.42110000  0.01460000  0.71060000  1.0 0.6001776091
C  C2180  1  0.98540000  0.17110000  0.96060000  1.0 0.6001776091
C  C2181  1  0.76460000  0.17110000  0.28940000  1.0 0.6001776091
C  C2182  1  0.92110000  0.23540000  0.53940000  1.0 0.6001776091
C  C2183  1  0.48540000  0.07890000  0.28940000  1.0 0.6001776091
C  C2184  1  0.32890000  0.01460000  0.53940000  1.0 0.6001776091
C  C2185  1  0.82890000  0.23540000  0.71060000  1.0 0.6001776091
C  C2186  1  0.28940000  0.42110000  0.98540000  1.0 0.6001776091
C  C2187  1  0.57890000  0.03940000  0.23540000  1.0 0.6001776091
C  C2188  1  0.28940000  0.32890000  0.26460000  1.0 0.6001776091
C  C2189  1  0.51460000  0.28940000  0.07890000  1.0 0.6001776091
C  C2190  1  0.96060000  0.32890000  0.48540000  1.0 0.6001776091
C  C2191  1  0.67110000  0.03940000  0.51460000  1.0 0.6001776091
C  C2192  1  0.71060000  0.26460000  0.32890000  1.0 0.6001776091
C  C2193  1  0.67110000  0.71060000  0.73540000  1.0 0.6001776091
C  C2194  1  0.96060000  0.42110000  0.76460000  1.0 0.6001776091
C  C2195  1  0.73540000  0.46060000  0.57890000  1.0 0.6001776091
C  C2196  1  0.57890000  0.71060000  0.01460000  1.0 0.6001776091
C  C2197  1  0.53940000  0.48540000  0.82890000  1.0 0.6001776091
C  C2198  1  0.51460000  0.46060000  0.17110000  1.0 0.6001776091
C  C2199  1  0.71060000  0.48540000  0.92110000  1.0 0.6001776091
C  C2200  1  0.73540000  0.28940000  0.67110000  1.0 0.6001776091
C  C2201  1  0.53940000  0.26460000  0.42110000  1.0 0.6001776091
C  C2202  1  0.42110000  0.51460000  0.21060000  1.0 0.6001776091
C  C2203  1  0.98540000  0.67110000  0.46060000  1.0 0.6001776091
C  C2204  1  0.76460000  0.67110000  0.78940000  1.0 0.6001776091
C  C2205  1  0.92110000  0.73540000  0.03940000  1.0 0.6001776091
C  C2206  1  0.48540000  0.57890000  0.78940000  1.0 0.6001776091
C  C2207  1  0.32890000  0.51460000  0.03940000  1.0 0.6001776091
C  C2208  1  0.82890000  0.73540000  0.21060000  1.0 0.6001776091
C  C2209  1  0.21060000  0.07890000  0.01460000  1.0 0.6001776091
C  C2210  1  0.92110000  0.46060000  0.76460000  1.0 0.6001776091
C  C2211  1  0.21060000  0.17110000  0.73540000  1.0 0.6001776091
C  C2212  1  0.98540000  0.21060000  0.92110000  1.0 0.6001776091
C  C2213  1  0.53940000  0.17110000  0.51460000  1.0 0.6001776091
C  C2214  1  0.82890000  0.46060000  0.48540000  1.0 0.6001776091
C  C2215  1  0.78940000  0.23540000  0.67110000  1.0 0.6001776091
C  C2216  1  0.82890000  0.78940000  0.26460000  1.0 0.6001776091
C  C2217  1  0.53940000  0.07890000  0.23540000  1.0 0.6001776091
C  C2218  1  0.76460000  0.03940000  0.42110000  1.0 0.6001776091
C  C2219  1  0.92110000  0.78940000  0.98540000  1.0 0.6001776091
C  C2220  1  0.96060000  0.01460000  0.17110000  1.0 0.6001776091
C  C2221  1  0.98540000  0.03940000  0.82890000  1.0 0.6001776091
C  C2222  1  0.78940000  0.01460000  0.07890000  1.0 0.6001776091
C  C2223  1  0.76460000  0.21060000  0.32890000  1.0 0.6001776091
C  C2224  1  0.96060000  0.23540000  0.57890000  1.0 0.6001776091
C  C2225  1  0.07890000  0.98540000  0.78940000  1.0 0.6001776091
C  C2226  1  0.73540000  0.92110000  0.03940000  1.0 0.6001776091
C  C2227  1  0.51460000  0.82890000  0.53940000  1.0 0.6001776091
C  C2228  1  0.73540000  0.82890000  0.21060000  1.0 0.6001776091
C  C2229  1  0.57890000  0.76460000  0.96060000  1.0 0.6001776091
C  C2230  1  0.01460000  0.92110000  0.21060000  1.0 0.6001776091
C  C2231  1  0.17110000  0.98540000  0.96060000  1.0 0.6001776091
C  C2232  1  0.67110000  0.76460000  0.78940000  1.0 0.6001776091
C  C2233  1  0.23540000  0.92110000  0.53940000  1.0 0.6001776091
C  C2234  1  0.21060000  0.57890000  0.51460000  1.0 0.6001776091
C  C2235  1  0.92110000  0.96060000  0.26460000  1.0 0.6001776091
C  C2236  1  0.21060000  0.67110000  0.23540000  1.0 0.6001776091
C  C2237  1  0.98540000  0.71060000  0.42110000  1.0 0.6001776091
C  C2238  1  0.53940000  0.67110000  0.01460000  1.0 0.6001776091
C  C2239  1  0.82890000  0.96060000  0.98540000  1.0 0.6001776091
C  C2240  1  0.78940000  0.73540000  0.17110000  1.0 0.6001776091
C  C2241  1  0.82890000  0.28940000  0.76460000  1.0 0.6001776091
C  C2242  1  0.53940000  0.57890000  0.73540000  1.0 0.6001776091
C  C2243  1  0.76460000  0.53940000  0.92110000  1.0 0.6001776091
C  C2244  1  0.92110000  0.28940000  0.48540000  1.0 0.6001776091
C  C2245  1  0.96060000  0.51460000  0.67110000  1.0 0.6001776091
C  C2246  1  0.98540000  0.53940000  0.32890000  1.0 0.6001776091
C  C2247  1  0.78940000  0.51460000  0.57890000  1.0 0.6001776091
C  C2248  1  0.76460000  0.71060000  0.82890000  1.0 0.6001776091
C  C2249  1  0.96060000  0.73540000  0.07890000  1.0 0.6001776091
C  C2250  1  0.07890000  0.48540000  0.28940000  1.0 0.6001776091
C  C2251  1  0.73540000  0.42110000  0.53940000  1.0 0.6001776091
C  C2252  1  0.51460000  0.32890000  0.03940000  1.0 0.6001776091
C  C2253  1  0.73540000  0.32890000  0.71060000  1.0 0.6001776091
C  C2254  1  0.57890000  0.26460000  0.46060000  1.0 0.6001776091
C  C2255  1  0.01460000  0.42110000  0.71060000  1.0 0.6001776091
C  C2256  1  0.17110000  0.48540000  0.46060000  1.0 0.6001776091
C  C2257  1  0.67110000  0.26460000  0.28940000  1.0 0.6001776091
C  C2258  1  0.23540000  0.42110000  0.03940000  1.0 0.6001776091
C  C2259  1  0.71060000  0.07890000  0.51460000  1.0 0.6001776091
C  C2260  1  0.42110000  0.46060000  0.26460000  1.0 0.6001776091
C  C2261  1  0.71060000  0.17110000  0.23540000  1.0 0.6001776091
C  C2262  1  0.48540000  0.21060000  0.42110000  1.0 0.6001776091
C  C2263  1  0.03940000  0.17110000  0.01460000  1.0 0.6001776091
C  C2264  1  0.32890000  0.46060000  0.98540000  1.0 0.6001776091
C  C2265  1  0.28940000  0.23540000  0.17110000  1.0 0.6001776091
C  C2266  1  0.32890000  0.78940000  0.76460000  1.0 0.6001776091
C  C2267  1  0.03940000  0.07890000  0.73540000  1.0 0.6001776091
C  C2268  1  0.26460000  0.03940000  0.92110000  1.0 0.6001776091
C  C2269  1  0.42110000  0.78940000  0.48540000  1.0 0.6001776091
C  C2270  1  0.46060000  0.01460000  0.67110000  1.0 0.6001776091
C  C2271  1  0.48540000  0.03940000  0.32890000  1.0 0.6001776091
C  C2272  1  0.28940000  0.01460000  0.57890000  1.0 0.6001776091
C  C2273  1  0.26460000  0.21060000  0.82890000  1.0 0.6001776091
C  C2274  1  0.46060000  0.23540000  0.07890000  1.0 0.6001776091
C  C2275  1  0.57890000  0.98540000  0.28940000  1.0 0.6001776091
C  C2276  1  0.01460000  0.82890000  0.03940000  1.0 0.6001776091
C  C2277  1  0.23540000  0.82890000  0.71060000  1.0 0.6001776091
C  C2278  1  0.07890000  0.76460000  0.46060000  1.0 0.6001776091
C  C2279  1  0.51460000  0.92110000  0.71060000  1.0 0.6001776091
C  C2280  1  0.67110000  0.98540000  0.46060000  1.0 0.6001776091
C  C2281  1  0.17110000  0.76460000  0.28940000  1.0 0.6001776091
C  C2282  1  0.71060000  0.57890000  0.01460000  1.0 0.6001776091
C  C2283  1  0.42110000  0.96060000  0.76460000  1.0 0.6001776091
C  C2284  1  0.71060000  0.67110000  0.73540000  1.0 0.6001776091
C  C2285  1  0.48540000  0.71060000  0.92110000  1.0 0.6001776091
C  C2286  1  0.03940000  0.67110000  0.51460000  1.0 0.6001776091
C  C2287  1  0.32890000  0.96060000  0.48540000  1.0 0.6001776091
C  C2288  1  0.28940000  0.73540000  0.67110000  1.0 0.6001776091
C  C2289  1  0.32890000  0.28940000  0.26460000  1.0 0.6001776091
C  C2290  1  0.03940000  0.57890000  0.23540000  1.0 0.6001776091
C  C2291  1  0.26460000  0.53940000  0.42110000  1.0 0.6001776091
C  C2292  1  0.42110000  0.28940000  0.98540000  1.0 0.6001776091
C  C2293  1  0.46060000  0.51460000  0.17110000  1.0 0.6001776091
C  C2294  1  0.48540000  0.53940000  0.82890000  1.0 0.6001776091
C  C2295  1  0.28940000  0.51460000  0.07890000  1.0 0.6001776091
C  C2296  1  0.26460000  0.71060000  0.32890000  1.0 0.6001776091
C  C2297  1  0.46060000  0.73540000  0.57890000  1.0 0.6001776091
C  C2298  1  0.57890000  0.48540000  0.78940000  1.0 0.6001776091
C  C2299  1  0.01460000  0.32890000  0.53940000  1.0 0.6001776091
C  C2300  1  0.23540000  0.32890000  0.21060000  1.0 0.6001776091
C  C2301  1  0.07890000  0.26460000  0.96060000  1.0 0.6001776091
C  C2302  1  0.51460000  0.42110000  0.21060000  1.0 0.6001776091
C  C2303  1  0.67110000  0.48540000  0.96060000  1.0 0.6001776091
C  C2304  1  0.17110000  0.26460000  0.78940000  1.0 0.6001776091
C  C2305  1  0.78370000  0.89770000  0.91030000  1.0 0.094615881
C  C2306  1  0.10230000  0.53370000  0.16030000  1.0 0.094615881
C  C2307  1  0.78370000  0.85230000  0.33970000  1.0 0.094615881
C  C2308  1  0.08970000  0.78370000  0.10230000  1.0 0.094615881
C  C2309  1  0.46630000  0.85230000  0.41030000  1.0 0.094615881
C  C2310  1  0.14770000  0.53370000  0.58970000  1.0 0.094615881
C  C2311  1  0.21630000  0.83970000  0.35230000  1.0 0.094615881
C  C2312  1  0.14770000  0.21630000  0.66030000  1.0 0.094615881
C  C2313  1  0.46630000  0.89770000  0.83970000  1.0 0.094615881
C  C2314  1  0.16030000  0.96630000  0.60230000  1.0 0.094615881
C  C2315  1  0.10230000  0.21630000  0.08970000  1.0 0.094615881
C  C2316  1  0.03370000  0.91030000  0.85230000  1.0 0.094615881
C  C2317  1  0.08970000  0.96630000  0.14770000  1.0 0.094615881
C  C2318  1  0.21630000  0.91030000  0.89770000  1.0 0.094615881
C  C2319  1  0.16030000  0.78370000  0.64770000  1.0 0.094615881
C  C2320  1  0.03370000  0.83970000  0.39770000  1.0 0.094615881
C  C2321  1  0.89770000  0.08970000  0.21630000  1.0 0.0981836333
C  C2322  1  0.33970000  0.10230000  0.96630000  1.0 0.094615881
C  C2323  1  0.41030000  0.14770000  0.46630000  1.0 0.094615881
C  C2324  1  0.33970000  0.14770000  0.78370000  1.0 0.094615881
C  C2325  1  0.39770000  0.16030000  0.03370000  1.0 0.094615881
C  C2326  1  0.91030000  0.10230000  0.78370000  1.0 0.0981836333
C  C2327  1  0.85230000  0.08970000  0.03370000  1.0 0.0981836333
C  C2328  1  0.35230000  0.16030000  0.21630000  1.0 0.094615881
C  C2329  1  0.83970000  0.10230000  0.46630000  1.0 0.0981836333
C  C2330  1  0.78370000  0.39770000  0.41030000  1.0 0.094615881
C  C2331  1  0.10230000  0.03370000  0.66030000  1.0 0.094615881
C  C2332  1  0.78370000  0.35230000  0.83970000  1.0 0.0981836333
C  C2333  1  0.08970000  0.28370000  0.60230000  1.0 0.094615881
C  C2334  1  0.46630000  0.35230000  0.91030000  1.0 0.094615881
C  C2335  1  0.14770000  0.03370000  0.08970000  1.0 0.094615881
C  C2336  1  0.21630000  0.33970000  0.85230000  1.0 0.094615881
C  C2337  1  0.14770000  0.71630000  0.16030000  1.0 0.094615881
C  C2338  1  0.46630000  0.39770000  0.33970000  1.0 0.094615881
C  C2339  1  0.16030000  0.46630000  0.10230000  1.0 0.094615881
C  C2340  1  0.10230000  0.71630000  0.58970000  1.0 0.094615881
C  C2341  1  0.03370000  0.41030000  0.35230000  1.0 0.094615881
C  C2342  1  0.08970000  0.46630000  0.64770000  1.0 0.094615881
C  C2343  1  0.21630000  0.41030000  0.39770000  1.0 0.094615881
C  C2344  1  0.16030000  0.28370000  0.14770000  1.0 0.094615881
C  C2345  1  0.03370000  0.33970000  0.89770000  1.0 0.094615881
C  C2346  1  0.89770000  0.58970000  0.71630000  1.0 0.0981836333
C  C2347  1  0.33970000  0.60230000  0.46630000  1.0 0.094615881
C  C2348  1  0.41030000  0.64770000  0.96630000  1.0 0.094615881
C  C2349  1  0.33970000  0.64770000  0.28370000  1.0 0.094615881
C  C2350  1  0.39770000  0.66030000  0.53370000  1.0 0.094615881
C  C2351  1  0.91030000  0.60230000  0.28370000  1.0 0.094615881
C  C2352  1  0.85230000  0.58970000  0.53370000  1.0 0.094615881
C  C2353  1  0.35230000  0.66030000  0.71630000  1.0 0.094615881
C  C2354  1  0.83970000  0.60230000  0.96630000  1.0 0.094615881
C  C2355  1  0.28370000  0.89770000  0.41030000  1.0 0.094615881
C  C2356  1  0.60230000  0.53370000  0.66030000  1.0 0.094615881
C  C2357  1  0.28370000  0.85230000  0.83970000  1.0 0.094615881
C  C2358  1  0.58970000  0.78370000  0.60230000  1.0 0.094615881
C  C2359  1  0.96630000  0.85230000  0.91030000  1.0 0.094615881
C  C2360  1  0.64770000  0.53370000  0.08970000  1.0 0.094615881
C  C2361  1  0.71630000  0.83970000  0.85230000  1.0 0.094615881
C  C2362  1  0.64770000  0.21630000  0.16030000  1.0 0.094615881
C  C2363  1  0.96630000  0.89770000  0.33970000  1.0 0.094615881
C  C2364  1  0.66030000  0.96630000  0.10230000  1.0 0.094615881
C  C2365  1  0.60230000  0.21630000  0.58970000  1.0 0.094615881
C  C2366  1  0.53370000  0.91030000  0.35230000  1.0 0.094615881
C  C2367  1  0.58970000  0.96630000  0.64770000  1.0 0.094615881
C  C2368  1  0.71630000  0.91030000  0.39770000  1.0 0.094615881
C  C2369  1  0.66030000  0.78370000  0.14770000  1.0 0.094615881
C  C2370  1  0.53370000  0.83970000  0.89770000  1.0 0.094615881
C  C2371  1  0.39770000  0.08970000  0.71630000  1.0 0.094615881
C  C2372  1  0.91030000  0.14770000  0.96630000  1.0 0.0981836333
C  C2373  1  0.83970000  0.14770000  0.28370000  1.0 0.0981836333
C  C2374  1  0.89770000  0.16030000  0.53370000  1.0 0.0981836333
C  C2375  1  0.41030000  0.10230000  0.28370000  1.0 0.094615881
C  C2376  1  0.35230000  0.08970000  0.53370000  1.0 0.094615881
C  C2377  1  0.85230000  0.16030000  0.71630000  1.0 0.0981836333
C  C2378  1  0.28370000  0.39770000  0.91030000  1.0 0.094615881
C  C2379  1  0.60230000  0.03370000  0.16030000  1.0 0.094615881
C  C2380  1  0.28370000  0.35230000  0.33970000  1.0 0.094615881
C  C2381  1  0.58970000  0.28370000  0.10230000  1.0 0.094615881
C  C2382  1  0.96630000  0.35230000  0.41030000  1.0 0.094615881
C  C2383  1  0.64770000  0.03370000  0.58970000  1.0 0.094615881
C  C2384  1  0.71630000  0.33970000  0.35230000  1.0 0.094615881
C  C2385  1  0.64770000  0.71630000  0.66030000  1.0 0.094615881
C  C2386  1  0.96630000  0.39770000  0.83970000  1.0 0.0981836333
C  C2387  1  0.66030000  0.46630000  0.60230000  1.0 0.094615881
C  C2388  1  0.60230000  0.71630000  0.08970000  1.0 0.094615881
C  C2389  1  0.53370000  0.41030000  0.85230000  1.0 0.094615881
C  C2390  1  0.58970000  0.46630000  0.14770000  1.0 0.094615881
C  C2391  1  0.71630000  0.41030000  0.89770000  1.0 0.0981836333
C  C2392  1  0.66030000  0.28370000  0.64770000  1.0 0.094615881
C  C2393  1  0.53370000  0.33970000  0.39770000  1.0 0.094615881
C  C2394  1  0.39770000  0.58970000  0.21630000  1.0 0.094615881
C  C2395  1  0.91030000  0.64770000  0.46630000  1.0 0.0981836333
C  C2396  1  0.83970000  0.64770000  0.78370000  1.0 0.0981836333
C  C2397  1  0.89770000  0.66030000  0.03370000  1.0 0.0981836333
C  C2398  1  0.41030000  0.60230000  0.78370000  1.0 0.094615881
C  C2399  1  0.35230000  0.58970000  0.03370000  1.0 0.094615881
C  C2400  1  0.85230000  0.66030000  0.21630000  1.0 0.094615881
C  C2401  1  0.21630000  0.10230000  0.08970000  1.0 0.094615881
C  C2402  1  0.89770000  0.46630000  0.83970000  1.0 0.0981836333
C  C2403  1  0.21630000  0.14770000  0.66030000  1.0 0.094615881
C  C2404  1  0.91030000  0.21630000  0.89770000  1.0 0.0981836333
C  C2405  1  0.53370000  0.14770000  0.58970000  1.0 0.094615881
C  C2406  1  0.85230000  0.46630000  0.41030000  1.0 0.094615881
C  C2407  1  0.78370000  0.16030000  0.64770000  1.0 0.0981836333
C  C2408  1  0.85230000  0.78370000  0.33970000  1.0 0.094615881
C  C2409  1  0.53370000  0.10230000  0.16030000  1.0 0.094615881
C  C2410  1  0.83970000  0.03370000  0.39770000  1.0 0.0981836333
C  C2411  1  0.89770000  0.78370000  0.91030000  1.0 0.0981836333
C  C2412  1  0.96630000  0.08970000  0.14770000  1.0 0.094615881
C  C2413  1  0.91030000  0.03370000  0.85230000  1.0 0.0981836333
C  C2414  1  0.78370000  0.08970000  0.10230000  1.0 0.094615881
C  C2415  1  0.83970000  0.21630000  0.35230000  1.0 0.094615881
C  C2416  1  0.96630000  0.16030000  0.60230000  1.0 0.094615881
C  C2417  1  0.10230000  0.91030000  0.78370000  1.0 0.094615881
C  C2418  1  0.66030000  0.89770000  0.03370000  1.0 0.094615881
C  C2419  1  0.58970000  0.85230000  0.53370000  1.0 0.094615881
C  C2420  1  0.66030000  0.85230000  0.21630000  1.0 0.094615881
C  C2421  1  0.60230000  0.83970000  0.96630000  1.0 0.094615881
C  C2422  1  0.08970000  0.89770000  0.21630000  1.0 0.094615881
C  C2423  1  0.14770000  0.91030000  0.96630000  1.0 0.094615881
C  C2424  1  0.64770000  0.83970000  0.78370000  1.0 0.094615881
C  C2425  1  0.16030000  0.89770000  0.53370000  1.0 0.094615881
C  C2426  1  0.21630000  0.60230000  0.58970000  1.0 0.094615881
C  C2427  1  0.89770000  0.96630000  0.33970000  1.0 0.094615881
C  C2428  1  0.21630000  0.64770000  0.16030000  1.0 0.094615881
C  C2429  1  0.91030000  0.71630000  0.39770000  1.0 0.0981836333
C  C2430  1  0.53370000  0.64770000  0.08970000  1.0 0.094615881
C  C2431  1  0.85230000  0.96630000  0.91030000  1.0 0.094615881
C  C2432  1  0.78370000  0.66030000  0.14770000  1.0 0.094615881
C  C2433  1  0.85230000  0.28370000  0.83970000  1.0 0.0981836333
C  C2434  1  0.53370000  0.60230000  0.66030000  1.0 0.094615881
C  C2435  1  0.83970000  0.53370000  0.89770000  1.0 0.0981836333
C  C2436  1  0.89770000  0.28370000  0.41030000  1.0 0.0981836333
C  C2437  1  0.96630000  0.58970000  0.64770000  1.0 0.094615881
C  C2438  1  0.91030000  0.53370000  0.35230000  1.0 0.0981836333
C  C2439  1  0.78370000  0.58970000  0.60230000  1.0 0.094615881
C  C2440  1  0.83970000  0.71630000  0.85230000  1.0 0.0981836333
C  C2441  1  0.96630000  0.66030000  0.10230000  1.0 0.094615881
C  C2442  1  0.10230000  0.41030000  0.28370000  1.0 0.094615881
C  C2443  1  0.66030000  0.39770000  0.53370000  1.0 0.094615881
C  C2444  1  0.58970000  0.35230000  0.03370000  1.0 0.094615881
C  C2445  1  0.66030000  0.35230000  0.71630000  1.0 0.094615881
C  C2446  1  0.60230000  0.33970000  0.46630000  1.0 0.094615881
C  C2447  1  0.08970000  0.39770000  0.71630000  1.0 0.094615881
C  C2448  1  0.14770000  0.41030000  0.46630000  1.0 0.094615881
C  C2449  1  0.64770000  0.33970000  0.28370000  1.0 0.094615881
C  C2450  1  0.16030000  0.39770000  0.03370000  1.0 0.094615881
C  C2451  1  0.71630000  0.10230000  0.58970000  1.0 0.094615881
C  C2452  1  0.39770000  0.46630000  0.33970000  1.0 0.094615881
C  C2453  1  0.71630000  0.14770000  0.16030000  1.0 0.094615881
C  C2454  1  0.41030000  0.21630000  0.39770000  1.0 0.094615881
C  C2455  1  0.03370000  0.14770000  0.08970000  1.0 0.094615881
C  C2456  1  0.35230000  0.46630000  0.91030000  1.0 0.094615881
C  C2457  1  0.28370000  0.16030000  0.14770000  1.0 0.094615881
C  C2458  1  0.35230000  0.78370000  0.83970000  1.0 0.094615881
C  C2459  1  0.03370000  0.10230000  0.66030000  1.0 0.094615881
C  C2460  1  0.33970000  0.03370000  0.89770000  1.0 0.094615881
C  C2461  1  0.39770000  0.78370000  0.41030000  1.0 0.094615881
C  C2462  1  0.46630000  0.08970000  0.64770000  1.0 0.094615881
C  C2463  1  0.41030000  0.03370000  0.35230000  1.0 0.094615881
C  C2464  1  0.28370000  0.08970000  0.60230000  1.0 0.094615881
C  C2465  1  0.33970000  0.21630000  0.85230000  1.0 0.094615881
C  C2466  1  0.46630000  0.16030000  0.10230000  1.0 0.094615881
C  C2467  1  0.60230000  0.91030000  0.28370000  1.0 0.094615881
C  C2468  1  0.08970000  0.85230000  0.03370000  1.0 0.094615881
C  C2469  1  0.16030000  0.85230000  0.71630000  1.0 0.094615881
C  C2470  1  0.10230000  0.83970000  0.46630000  1.0 0.094615881
C  C2471  1  0.58970000  0.89770000  0.71630000  1.0 0.094615881
C  C2472  1  0.64770000  0.91030000  0.46630000  1.0 0.094615881
C  C2473  1  0.14770000  0.83970000  0.28370000  1.0 0.094615881
C  C2474  1  0.71630000  0.60230000  0.08970000  1.0 0.094615881
C  C2475  1  0.39770000  0.96630000  0.83970000  1.0 0.094615881
C  C2476  1  0.71630000  0.64770000  0.66030000  1.0 0.094615881
C  C2477  1  0.41030000  0.71630000  0.89770000  1.0 0.094615881
C  C2478  1  0.03370000  0.64770000  0.58970000  1.0 0.094615881
C  C2479  1  0.35230000  0.96630000  0.41030000  1.0 0.094615881
C  C2480  1  0.28370000  0.66030000  0.64770000  1.0 0.094615881
C  C2481  1  0.35230000  0.28370000  0.33970000  1.0 0.094615881
C  C2482  1  0.03370000  0.60230000  0.16030000  1.0 0.094615881
C  C2483  1  0.33970000  0.53370000  0.39770000  1.0 0.094615881
C  C2484  1  0.39770000  0.28370000  0.91030000  1.0 0.094615881
C  C2485  1  0.46630000  0.58970000  0.14770000  1.0 0.094615881
C  C2486  1  0.41030000  0.53370000  0.85230000  1.0 0.094615881
C  C2487  1  0.28370000  0.58970000  0.10230000  1.0 0.094615881
C  C2488  1  0.33970000  0.71630000  0.35230000  1.0 0.094615881
C  C2489  1  0.46630000  0.66030000  0.60230000  1.0 0.094615881
C  C2490  1  0.60230000  0.41030000  0.78370000  1.0 0.094615881
C  C2491  1  0.08970000  0.35230000  0.53370000  1.0 0.094615881
C  C2492  1  0.16030000  0.35230000  0.21630000  1.0 0.094615881
C  C2493  1  0.10230000  0.33970000  0.96630000  1.0 0.094615881
C  C2494  1  0.58970000  0.39770000  0.21630000  1.0 0.094615881
C  C2495  1  0.64770000  0.41030000  0.96630000  1.0 0.094615881
C  C2496  1  0.14770000  0.33970000  0.78370000  1.0 0.094615881
C  C2497  1  0.80330000  0.87800000  0.88840000  1.0 0.1081238779
C  C2498  1  0.12200000  0.55330000  0.13840000  1.0 0.1081238779
C  C2499  1  0.80330000  0.87200000  0.36160000  1.0 0.1081238779
C  C2500  1  0.11160000  0.80330000  0.12200000  1.0 0.1081238779
C  C2501  1  0.44670000  0.87200000  0.38840000  1.0 0.1081238779
C  C2502  1  0.12800000  0.55330000  0.61160000  1.0 0.1081238779
C  C2503  1  0.19670000  0.86160000  0.37200000  1.0 0.1081238779
C  C2504  1  0.12800000  0.19670000  0.63840000  1.0 0.1081238779
C  C2505  1  0.44670000  0.87800000  0.86160000  1.0 0.1081238779
C  C2506  1  0.13840000  0.94670000  0.62200000  1.0 0.1081238779
C  C2507  1  0.12200000  0.19670000  0.11160000  1.0 0.1081238779
C  C2508  1  0.05330000  0.88840000  0.87200000  1.0 0.1081238779
C  C2509  1  0.11160000  0.94670000  0.12800000  1.0 0.1081238779
C  C2510  1  0.19670000  0.88840000  0.87800000  1.0 0.1081238779
C  C2511  1  0.13840000  0.80330000  0.62800000  1.0 0.1081238779
C  C2512  1  0.05330000  0.86160000  0.37800000  1.0 0.1081238779
C  C2513  1  0.87800000  0.11160000  0.19670000  1.0 0.1081238779
C  C2514  1  0.36160000  0.12200000  0.94670000  1.0 0.1081238779
C  C2515  1  0.38840000  0.12800000  0.44670000  1.0 0.1081238779
C  C2516  1  0.36160000  0.12800000  0.80330000  1.0 0.1081238779
C  C2517  1  0.37800000  0.13840000  0.05330000  1.0 0.1081238779
C  C2518  1  0.88840000  0.12200000  0.80330000  1.0 0.1081238779
C  C2519  1  0.87200000  0.11160000  0.05330000  1.0 0.1081238779
C  C2520  1  0.37200000  0.13840000  0.19670000  1.0 0.1081238779
C  C2521  1  0.86160000  0.12200000  0.44670000  1.0 0.1081238779
C  C2522  1  0.80330000  0.37800000  0.38840000  1.0 0.1081238779
C  C2523  1  0.12200000  0.05330000  0.63840000  1.0 0.1081238779
C  C2524  1  0.80330000  0.37200000  0.86160000  1.0 0.1081238779
C  C2525  1  0.11160000  0.30330000  0.62200000  1.0 0.1081238779
C  C2526  1  0.44670000  0.37200000  0.88840000  1.0 0.1081238779
C  C2527  1  0.12800000  0.05330000  0.11160000  1.0 0.1081238779
C  C2528  1  0.19670000  0.36160000  0.87200000  1.0 0.1081238779
C  C2529  1  0.12800000  0.69670000  0.13840000  1.0 0.1081238779
C  C2530  1  0.44670000  0.37800000  0.36160000  1.0 0.1081238779
C  C2531  1  0.13840000  0.44670000  0.12200000  1.0 0.1081238779
C  C2532  1  0.12200000  0.69670000  0.61160000  1.0 0.1081238779
C  C2533  1  0.05330000  0.38840000  0.37200000  1.0 0.1081238779
C  C2534  1  0.11160000  0.44670000  0.62800000  1.0 0.1081238779
C  C2535  1  0.19670000  0.38840000  0.37800000  1.0 0.1081238779
C  C2536  1  0.13840000  0.30330000  0.12800000  1.0 0.1081238779
C  C2537  1  0.05330000  0.36160000  0.87800000  1.0 0.1081238779
C  C2538  1  0.87800000  0.61160000  0.69670000  1.0 0.1081238779
C  C2539  1  0.36160000  0.62200000  0.44670000  1.0 0.1081238779
C  C2540  1  0.38840000  0.62800000  0.94670000  1.0 0.1081238779
C  C2541  1  0.36160000  0.62800000  0.30330000  1.0 0.1081238779
C  C2542  1  0.37800000  0.63840000  0.55330000  1.0 0.1081238779
C  C2543  1  0.88840000  0.62200000  0.30330000  1.0 0.1081238779
C  C2544  1  0.87200000  0.61160000  0.55330000  1.0 0.1081238779
C  C2545  1  0.37200000  0.63840000  0.69670000  1.0 0.1081238779
C  C2546  1  0.86160000  0.62200000  0.94670000  1.0 0.1081238779
C  C2547  1  0.30330000  0.87800000  0.38840000  1.0 0.1081238779
C  C2548  1  0.62200000  0.55330000  0.63840000  1.0 0.1081238779
C  C2549  1  0.30330000  0.87200000  0.86160000  1.0 0.1081238779
C  C2550  1  0.61160000  0.80330000  0.62200000  1.0 0.1081238779
C  C2551  1  0.94670000  0.87200000  0.88840000  1.0 0.1081238779
C  C2552  1  0.62800000  0.55330000  0.11160000  1.0 0.1081238779
C  C2553  1  0.69670000  0.86160000  0.87200000  1.0 0.1081238779
C  C2554  1  0.62800000  0.19670000  0.13840000  1.0 0.1081238779
C  C2555  1  0.94670000  0.87800000  0.36160000  1.0 0.1081238779
C  C2556  1  0.63840000  0.94670000  0.12200000  1.0 0.1081238779
C  C2557  1  0.62200000  0.19670000  0.61160000  1.0 0.1081238779
C  C2558  1  0.55330000  0.88840000  0.37200000  1.0 0.1081238779
C  C2559  1  0.61160000  0.94670000  0.62800000  1.0 0.1081238779
C  C2560  1  0.69670000  0.88840000  0.37800000  1.0 0.1081238779
C  C2561  1  0.63840000  0.80330000  0.12800000  1.0 0.1081238779
C  C2562  1  0.55330000  0.86160000  0.87800000  1.0 0.1081238779
C  C2563  1  0.37800000  0.11160000  0.69670000  1.0 0.1081238779
C  C2564  1  0.88840000  0.12800000  0.94670000  1.0 0.1081238779
C  C2565  1  0.86160000  0.12800000  0.30330000  1.0 0.1081238779
C  C2566  1  0.87800000  0.13840000  0.55330000  1.0 0.1081238779
C  C2567  1  0.38840000  0.12200000  0.30330000  1.0 0.1081238779
C  C2568  1  0.37200000  0.11160000  0.55330000  1.0 0.1081238779
C  C2569  1  0.87200000  0.13840000  0.69670000  1.0 0.1081238779
C  C2570  1  0.30330000  0.37800000  0.88840000  1.0 0.1081238779
C  C2571  1  0.62200000  0.05330000  0.13840000  1.0 0.1081238779
C  C2572  1  0.30330000  0.37200000  0.36160000  1.0 0.1081238779
C  C2573  1  0.61160000  0.30330000  0.12200000  1.0 0.1081238779
C  C2574  1  0.94670000  0.37200000  0.38840000  1.0 0.1081238779
C  C2575  1  0.62800000  0.05330000  0.61160000  1.0 0.1081238779
C  C2576  1  0.69670000  0.36160000  0.37200000  1.0 0.1081238779
C  C2577  1  0.62800000  0.69670000  0.63840000  1.0 0.1081238779
C  C2578  1  0.94670000  0.37800000  0.86160000  1.0 0.1081238779
C  C2579  1  0.63840000  0.44670000  0.62200000  1.0 0.1081238779
C  C2580  1  0.62200000  0.69670000  0.11160000  1.0 0.1081238779
C  C2581  1  0.55330000  0.38840000  0.87200000  1.0 0.1081238779
C  C2582  1  0.61160000  0.44670000  0.12800000  1.0 0.1081238779
C  C2583  1  0.69670000  0.38840000  0.87800000  1.0 0.1081238779
C  C2584  1  0.63840000  0.30330000  0.62800000  1.0 0.1081238779
C  C2585  1  0.55330000  0.36160000  0.37800000  1.0 0.1081238779
C  C2586  1  0.37800000  0.61160000  0.19670000  1.0 0.1081238779
C  C2587  1  0.88840000  0.62800000  0.44670000  1.0 0.1081238779
C  C2588  1  0.86160000  0.62800000  0.80330000  1.0 0.1081238779
C  C2589  1  0.87800000  0.63840000  0.05330000  1.0 0.1081238779
C  C2590  1  0.38840000  0.62200000  0.80330000  1.0 0.1081238779
C  C2591  1  0.37200000  0.61160000  0.05330000  1.0 0.1081238779
C  C2592  1  0.87200000  0.63840000  0.19670000  1.0 0.1081238779
C  C2593  1  0.19670000  0.12200000  0.11160000  1.0 0.1081238779
C  C2594  1  0.87800000  0.44670000  0.86160000  1.0 0.1081238779
C  C2595  1  0.19670000  0.12800000  0.63840000  1.0 0.1081238779
C  C2596  1  0.88840000  0.19670000  0.87800000  1.0 0.1081238779
C  C2597  1  0.55330000  0.12800000  0.61160000  1.0 0.1081238779
C  C2598  1  0.87200000  0.44670000  0.38840000  1.0 0.1081238779
C  C2599  1  0.80330000  0.13840000  0.62800000  1.0 0.1081238779
C  C2600  1  0.87200000  0.80330000  0.36160000  1.0 0.1081238779
C  C2601  1  0.55330000  0.12200000  0.13840000  1.0 0.1081238779
C  C2602  1  0.86160000  0.05330000  0.37800000  1.0 0.1081238779
C  C2603  1  0.87800000  0.80330000  0.88840000  1.0 0.1081238779
C  C2604  1  0.94670000  0.11160000  0.12800000  1.0 0.1081238779
C  C2605  1  0.88840000  0.05330000  0.87200000  1.0 0.1081238779
C  C2606  1  0.80330000  0.11160000  0.12200000  1.0 0.1081238779
C  C2607  1  0.86160000  0.19670000  0.37200000  1.0 0.1081238779
C  C2608  1  0.94670000  0.13840000  0.62200000  1.0 0.1081238779
C  C2609  1  0.12200000  0.88840000  0.80330000  1.0 0.1081238779
C  C2610  1  0.63840000  0.87800000  0.05330000  1.0 0.1081238779
C  C2611  1  0.61160000  0.87200000  0.55330000  1.0 0.1081238779
C  C2612  1  0.63840000  0.87200000  0.19670000  1.0 0.1081238779
C  C2613  1  0.62200000  0.86160000  0.94670000  1.0 0.1081238779
C  C2614  1  0.11160000  0.87800000  0.19670000  1.0 0.1081238779
C  C2615  1  0.12800000  0.88840000  0.94670000  1.0 0.1081238779
C  C2616  1  0.62800000  0.86160000  0.80330000  1.0 0.1081238779
C  C2617  1  0.13840000  0.87800000  0.55330000  1.0 0.1081238779
C  C2618  1  0.19670000  0.62200000  0.61160000  1.0 0.1081238779
C  C2619  1  0.87800000  0.94670000  0.36160000  1.0 0.1081238779
C  C2620  1  0.19670000  0.62800000  0.13840000  1.0 0.1081238779
C  C2621  1  0.88840000  0.69670000  0.37800000  1.0 0.1081238779
C  C2622  1  0.55330000  0.62800000  0.11160000  1.0 0.1081238779
C  C2623  1  0.87200000  0.94670000  0.88840000  1.0 0.1081238779
C  C2624  1  0.80330000  0.63840000  0.12800000  1.0 0.1081238779
C  C2625  1  0.87200000  0.30330000  0.86160000  1.0 0.1081238779
C  C2626  1  0.55330000  0.62200000  0.63840000  1.0 0.1081238779
C  C2627  1  0.86160000  0.55330000  0.87800000  1.0 0.1081238779
C  C2628  1  0.87800000  0.30330000  0.38840000  1.0 0.1081238779
C  C2629  1  0.94670000  0.61160000  0.62800000  1.0 0.1081238779
C  C2630  1  0.88840000  0.55330000  0.37200000  1.0 0.1081238779
C  C2631  1  0.80330000  0.61160000  0.62200000  1.0 0.1081238779
C  C2632  1  0.86160000  0.69670000  0.87200000  1.0 0.1081238779
C  C2633  1  0.94670000  0.63840000  0.12200000  1.0 0.1081238779
C  C2634  1  0.12200000  0.38840000  0.30330000  1.0 0.1081238779
C  C2635  1  0.63840000  0.37800000  0.55330000  1.0 0.1081238779
C  C2636  1  0.61160000  0.37200000  0.05330000  1.0 0.1081238779
C  C2637  1  0.63840000  0.37200000  0.69670000  1.0 0.1081238779
C  C2638  1  0.62200000  0.36160000  0.44670000  1.0 0.1081238779
C  C2639  1  0.11160000  0.37800000  0.69670000  1.0 0.1081238779
C  C2640  1  0.12800000  0.38840000  0.44670000  1.0 0.1081238779
C  C2641  1  0.62800000  0.36160000  0.30330000  1.0 0.1081238779
C  C2642  1  0.13840000  0.37800000  0.05330000  1.0 0.1081238779
C  C2643  1  0.69670000  0.12200000  0.61160000  1.0 0.1081238779
C  C2644  1  0.37800000  0.44670000  0.36160000  1.0 0.1081238779
C  C2645  1  0.69670000  0.12800000  0.13840000  1.0 0.1081238779
C  C2646  1  0.38840000  0.19670000  0.37800000  1.0 0.1081238779
C  C2647  1  0.05330000  0.12800000  0.11160000  1.0 0.1081238779
C  C2648  1  0.37200000  0.44670000  0.88840000  1.0 0.1081238779
C  C2649  1  0.30330000  0.13840000  0.12800000  1.0 0.1081238779
C  C2650  1  0.37200000  0.80330000  0.86160000  1.0 0.1081238779
C  C2651  1  0.05330000  0.12200000  0.63840000  1.0 0.1081238779
C  C2652  1  0.36160000  0.05330000  0.87800000  1.0 0.1081238779
C  C2653  1  0.37800000  0.80330000  0.38840000  1.0 0.1081238779
C  C2654  1  0.44670000  0.11160000  0.62800000  1.0 0.1081238779
C  C2655  1  0.38840000  0.05330000  0.37200000  1.0 0.1081238779
C  C2656  1  0.30330000  0.11160000  0.62200000  1.0 0.1081238779
C  C2657  1  0.36160000  0.19670000  0.87200000  1.0 0.1081238779
C  C2658  1  0.44670000  0.13840000  0.12200000  1.0 0.1081238779
C  C2659  1  0.62200000  0.88840000  0.30330000  1.0 0.1081238779
C  C2660  1  0.11160000  0.87200000  0.05330000  1.0 0.1081238779
C  C2661  1  0.13840000  0.87200000  0.69670000  1.0 0.1081238779
C  C2662  1  0.12200000  0.86160000  0.44670000  1.0 0.1081238779
C  C2663  1  0.61160000  0.87800000  0.69670000  1.0 0.1081238779
C  C2664  1  0.62800000  0.88840000  0.44670000  1.0 0.1081238779
C  C2665  1  0.12800000  0.86160000  0.30330000  1.0 0.1081238779
C  C2666  1  0.69670000  0.62200000  0.11160000  1.0 0.1081238779
C  C2667  1  0.37800000  0.94670000  0.86160000  1.0 0.1081238779
C  C2668  1  0.69670000  0.62800000  0.63840000  1.0 0.1081238779
C  C2669  1  0.38840000  0.69670000  0.87800000  1.0 0.1081238779
C  C2670  1  0.05330000  0.62800000  0.61160000  1.0 0.1081238779
C  C2671  1  0.37200000  0.94670000  0.38840000  1.0 0.1081238779
C  C2672  1  0.30330000  0.63840000  0.62800000  1.0 0.1081238779
C  C2673  1  0.37200000  0.30330000  0.36160000  1.0 0.1081238779
C  C2674  1  0.05330000  0.62200000  0.13840000  1.0 0.1081238779
C  C2675  1  0.36160000  0.55330000  0.37800000  1.0 0.1081238779
C  C2676  1  0.37800000  0.30330000  0.88840000  1.0 0.1081238779
C  C2677  1  0.44670000  0.61160000  0.12800000  1.0 0.1081238779
C  C2678  1  0.38840000  0.55330000  0.87200000  1.0 0.1081238779
C  C2679  1  0.30330000  0.61160000  0.12200000  1.0 0.1081238779
C  C2680  1  0.36160000  0.69670000  0.37200000  1.0 0.1081238779
C  C2681  1  0.44670000  0.63840000  0.62200000  1.0 0.1081238779
C  C2682  1  0.62200000  0.38840000  0.80330000  1.0 0.1081238779
C  C2683  1  0.11160000  0.37200000  0.55330000  1.0 0.1081238779
C  C2684  1  0.13840000  0.37200000  0.19670000  1.0 0.1081238779
C  C2685  1  0.12200000  0.36160000  0.94670000  1.0 0.1081238779
C  C2686  1  0.61160000  0.37800000  0.19670000  1.0 0.1081238779
C  C2687  1  0.62800000  0.38840000  0.94670000  1.0 0.1081238779
C  C2688  1  0.12800000  0.36160000  0.80330000  1.0 0.1081238779
C  C2689  1  0.80080000  0.90010000  0.92180000  1.0 -0.1812128888
C  C2690  1  0.09990000  0.55080000  0.17180000  1.0 -0.1812128888
C  C2691  1  0.80080000  0.84990000  0.32820000  1.0 -0.1812128888
C  C2692  1  0.07820000  0.80080000  0.09990000  1.0 -0.1812128888
C  C2693  1  0.44920000  0.84990000  0.42180000  1.0 -0.1812128888
C  C2694  1  0.15010000  0.55080000  0.57820000  1.0 -0.1812128888
C  C2695  1  0.19920000  0.82820000  0.34990000  1.0 -0.1812128888
C  C2696  1  0.15010000  0.19920000  0.67180000  1.0 -0.1812128888
C  C2697  1  0.44920000  0.90010000  0.82820000  1.0 -0.1812128888
C  C2698  1  0.17180000  0.94920000  0.59990000  1.0 -0.1812128888
C  C2699  1  0.09990000  0.19920000  0.07820000  1.0 -0.1812128888
C  C2700  1  0.05080000  0.92180000  0.84990000  1.0 -0.1812128888
C  C2701  1  0.07820000  0.94920000  0.15010000  1.0 -0.1812128888
C  C2702  1  0.19920000  0.92180000  0.90010000  1.0 -0.1812128888
C  C2703  1  0.17180000  0.80080000  0.65010000  1.0 -0.1812128888
C  C2704  1  0.05080000  0.82820000  0.40010000  1.0 -0.1812128888
C  C2705  1  0.90010000  0.07820000  0.19920000  1.0 -0.1812128888
C  C2706  1  0.32820000  0.09990000  0.94920000  1.0 -0.1812128888
C  C2707  1  0.42180000  0.15010000  0.44920000  1.0 -0.1812128888
C  C2708  1  0.32820000  0.15010000  0.80080000  1.0 -0.1812128888
C  C2709  1  0.40010000  0.17180000  0.05080000  1.0 -0.1812128888
C  C2710  1  0.92180000  0.09990000  0.80080000  1.0 -0.1812128888
C  C2711  1  0.84990000  0.07820000  0.05080000  1.0 -0.1812128888
C  C2712  1  0.34990000  0.17180000  0.19920000  1.0 -0.1812128888
C  C2713  1  0.82820000  0.09990000  0.44920000  1.0 -0.1812128888
C  C2714  1  0.80080000  0.40010000  0.42180000  1.0 -0.1812128888
C  C2715  1  0.09990000  0.05080000  0.67180000  1.0 -0.1812128888
C  C2716  1  0.80080000  0.34990000  0.82820000  1.0 -0.1812128888
C  C2717  1  0.07820000  0.30080000  0.59990000  1.0 -0.1812128888
C  C2718  1  0.44920000  0.34990000  0.92180000  1.0 -0.1812128888
C  C2719  1  0.15010000  0.05080000  0.07820000  1.0 -0.1812128888
C  C2720  1  0.19920000  0.32820000  0.84990000  1.0 -0.1812128888
C  C2721  1  0.15010000  0.69920000  0.17180000  1.0 -0.1812128888
C  C2722  1  0.44920000  0.40010000  0.32820000  1.0 -0.1812128888
C  C2723  1  0.17180000  0.44920000  0.09990000  1.0 -0.1812128888
C  C2724  1  0.09990000  0.69920000  0.57820000  1.0 -0.1812128888
C  C2725  1  0.05080000  0.42180000  0.34990000  1.0 -0.1812128888
C  C2726  1  0.07820000  0.44920000  0.65010000  1.0 -0.1812128888
C  C2727  1  0.19920000  0.42180000  0.40010000  1.0 -0.1812128888
C  C2728  1  0.17180000  0.30080000  0.15010000  1.0 -0.1812128888
C  C2729  1  0.05080000  0.32820000  0.90010000  1.0 -0.1812128888
C  C2730  1  0.90010000  0.57820000  0.69920000  1.0 -0.1812128888
C  C2731  1  0.32820000  0.59990000  0.44920000  1.0 -0.1812128888
C  C2732  1  0.42180000  0.65010000  0.94920000  1.0 -0.1812128888
C  C2733  1  0.32820000  0.65010000  0.30080000  1.0 -0.1812128888
C  C2734  1  0.40010000  0.67180000  0.55080000  1.0 -0.1812128888
C  C2735  1  0.92180000  0.59990000  0.30080000  1.0 -0.1812128888
C  C2736  1  0.84990000  0.57820000  0.55080000  1.0 -0.1812128888
C  C2737  1  0.34990000  0.67180000  0.69920000  1.0 -0.1812128888
C  C2738  1  0.82820000  0.59990000  0.94920000  1.0 -0.1812128888
C  C2739  1  0.30080000  0.90010000  0.42180000  1.0 -0.1812128888
C  C2740  1  0.59990000  0.55080000  0.67180000  1.0 -0.1812128888
C  C2741  1  0.30080000  0.84990000  0.82820000  1.0 -0.1812128888
C  C2742  1  0.57820000  0.80080000  0.59990000  1.0 -0.1812128888
C  C2743  1  0.94920000  0.84990000  0.92180000  1.0 -0.1812128888
C  C2744  1  0.65010000  0.55080000  0.07820000  1.0 -0.1812128888
C  C2745  1  0.69920000  0.82820000  0.84990000  1.0 -0.1812128888
C  C2746  1  0.65010000  0.19920000  0.17180000  1.0 -0.1812128888
C  C2747  1  0.94920000  0.90010000  0.32820000  1.0 -0.1812128888
C  C2748  1  0.67180000  0.94920000  0.09990000  1.0 -0.1812128888
C  C2749  1  0.59990000  0.19920000  0.57820000  1.0 -0.1812128888
C  C2750  1  0.55080000  0.92180000  0.34990000  1.0 -0.1812128888
C  C2751  1  0.57820000  0.94920000  0.65010000  1.0 -0.1812128888
C  C2752  1  0.69920000  0.92180000  0.40010000  1.0 -0.1812128888
C  C2753  1  0.67180000  0.80080000  0.15010000  1.0 -0.1812128888
C  C2754  1  0.55080000  0.82820000  0.90010000  1.0 -0.1812128888
C  C2755  1  0.40010000  0.07820000  0.69920000  1.0 -0.1812128888
C  C2756  1  0.92180000  0.15010000  0.94920000  1.0 -0.1812128888
C  C2757  1  0.82820000  0.15010000  0.30080000  1.0 -0.1812128888
C  C2758  1  0.90010000  0.17180000  0.55080000  1.0 -0.1812128888
C  C2759  1  0.42180000  0.09990000  0.30080000  1.0 -0.1812128888
C  C2760  1  0.34990000  0.07820000  0.55080000  1.0 -0.1812128888
C  C2761  1  0.84990000  0.17180000  0.69920000  1.0 -0.1812128888
C  C2762  1  0.30080000  0.40010000  0.92180000  1.0 -0.1812128888
C  C2763  1  0.59990000  0.05080000  0.17180000  1.0 -0.1812128888
C  C2764  1  0.30080000  0.34990000  0.32820000  1.0 -0.1812128888
C  C2765  1  0.57820000  0.30080000  0.09990000  1.0 -0.1812128888
C  C2766  1  0.94920000  0.34990000  0.42180000  1.0 -0.1812128888
C  C2767  1  0.65010000  0.05080000  0.57820000  1.0 -0.1812128888
C  C2768  1  0.69920000  0.32820000  0.34990000  1.0 -0.1812128888
C  C2769  1  0.65010000  0.69920000  0.67180000  1.0 -0.1812128888
C  C2770  1  0.94920000  0.40010000  0.82820000  1.0 -0.1812128888
C  C2771  1  0.67180000  0.44920000  0.59990000  1.0 -0.1812128888
C  C2772  1  0.59990000  0.69920000  0.07820000  1.0 -0.1812128888
C  C2773  1  0.55080000  0.42180000  0.84990000  1.0 -0.1812128888
C  C2774  1  0.57820000  0.44920000  0.15010000  1.0 -0.1812128888
C  C2775  1  0.69920000  0.42180000  0.90010000  1.0 -0.1812128888
C  C2776  1  0.67180000  0.30080000  0.65010000  1.0 -0.1812128888
C  C2777  1  0.55080000  0.32820000  0.40010000  1.0 -0.1812128888
C  C2778  1  0.40010000  0.57820000  0.19920000  1.0 -0.1812128888
C  C2779  1  0.92180000  0.65010000  0.44920000  1.0 -0.1812128888
C  C2780  1  0.82820000  0.65010000  0.80080000  1.0 -0.1812128888
C  C2781  1  0.90010000  0.67180000  0.05080000  1.0 -0.1812128888
C  C2782  1  0.42180000  0.59990000  0.80080000  1.0 -0.1812128888
C  C2783  1  0.34990000  0.57820000  0.05080000  1.0 -0.1812128888
C  C2784  1  0.84990000  0.67180000  0.19920000  1.0 -0.1812128888
C  C2785  1  0.19920000  0.09990000  0.07820000  1.0 -0.1812128888
C  C2786  1  0.90010000  0.44920000  0.82820000  1.0 -0.1812128888
C  C2787  1  0.19920000  0.15010000  0.67180000  1.0 -0.1812128888
C  C2788  1  0.92180000  0.19920000  0.90010000  1.0 -0.1812128888
C  C2789  1  0.55080000  0.15010000  0.57820000  1.0 -0.1812128888
C  C2790  1  0.84990000  0.44920000  0.42180000  1.0 -0.1812128888
C  C2791  1  0.80080000  0.17180000  0.65010000  1.0 -0.1812128888
C  C2792  1  0.84990000  0.80080000  0.32820000  1.0 -0.1812128888
C  C2793  1  0.55080000  0.09990000  0.17180000  1.0 -0.1812128888
C  C2794  1  0.82820000  0.05080000  0.40010000  1.0 -0.1812128888
C  C2795  1  0.90010000  0.80080000  0.92180000  1.0 -0.1812128888
C  C2796  1  0.94920000  0.07820000  0.15010000  1.0 -0.1812128888
C  C2797  1  0.92180000  0.05080000  0.84990000  1.0 -0.1812128888
C  C2798  1  0.80080000  0.07820000  0.09990000  1.0 -0.1812128888
C  C2799  1  0.82820000  0.19920000  0.34990000  1.0 -0.1812128888
C  C2800  1  0.94920000  0.17180000  0.59990000  1.0 -0.1812128888
C  C2801  1  0.09990000  0.92180000  0.80080000  1.0 -0.1812128888
C  C2802  1  0.67180000  0.90010000  0.05080000  1.0 -0.1812128888
C  C2803  1  0.57820000  0.84990000  0.55080000  1.0 -0.1812128888
C  C2804  1  0.67180000  0.84990000  0.19920000  1.0 -0.1812128888
C  C2805  1  0.59990000  0.82820000  0.94920000  1.0 -0.1812128888
C  C2806  1  0.07820000  0.90010000  0.19920000  1.0 -0.1812128888
C  C2807  1  0.15010000  0.92180000  0.94920000  1.0 -0.1812128888
C  C2808  1  0.65010000  0.82820000  0.80080000  1.0 -0.1812128888
C  C2809  1  0.17180000  0.90010000  0.55080000  1.0 -0.1812128888
C  C2810  1  0.19920000  0.59990000  0.57820000  1.0 -0.1812128888
C  C2811  1  0.90010000  0.94920000  0.32820000  1.0 -0.1812128888
C  C2812  1  0.19920000  0.65010000  0.17180000  1.0 -0.1812128888
C  C2813  1  0.92180000  0.69920000  0.40010000  1.0 -0.1812128888
C  C2814  1  0.55080000  0.65010000  0.07820000  1.0 -0.1812128888
C  C2815  1  0.84990000  0.94920000  0.92180000  1.0 -0.1812128888
C  C2816  1  0.80080000  0.67180000  0.15010000  1.0 -0.1812128888
C  C2817  1  0.84990000  0.30080000  0.82820000  1.0 -0.1812128888
C  C2818  1  0.55080000  0.59990000  0.67180000  1.0 -0.1812128888
C  C2819  1  0.82820000  0.55080000  0.90010000  1.0 -0.1812128888
C  C2820  1  0.90010000  0.30080000  0.42180000  1.0 -0.1812128888
C  C2821  1  0.94920000  0.57820000  0.65010000  1.0 -0.1812128888
C  C2822  1  0.92180000  0.55080000  0.34990000  1.0 -0.1812128888
C  C2823  1  0.80080000  0.57820000  0.59990000  1.0 -0.1812128888
C  C2824  1  0.82820000  0.69920000  0.84990000  1.0 -0.1812128888
C  C2825  1  0.94920000  0.67180000  0.09990000  1.0 -0.1812128888
C  C2826  1  0.09990000  0.42180000  0.30080000  1.0 -0.1812128888
C  C2827  1  0.67180000  0.40010000  0.55080000  1.0 -0.1812128888
C  C2828  1  0.57820000  0.34990000  0.05080000  1.0 -0.1812128888
C  C2829  1  0.67180000  0.34990000  0.69920000  1.0 -0.1812128888
C  C2830  1  0.59990000  0.32820000  0.44920000  1.0 -0.1812128888
C  C2831  1  0.07820000  0.40010000  0.69920000  1.0 -0.1812128888
C  C2832  1  0.15010000  0.42180000  0.44920000  1.0 -0.1812128888
C  C2833  1  0.65010000  0.32820000  0.30080000  1.0 -0.1812128888
C  C2834  1  0.17180000  0.40010000  0.05080000  1.0 -0.1812128888
C  C2835  1  0.69920000  0.09990000  0.57820000  1.0 -0.1812128888
C  C2836  1  0.40010000  0.44920000  0.32820000  1.0 -0.1812128888
C  C2837  1  0.69920000  0.15010000  0.17180000  1.0 -0.1812128888
C  C2838  1  0.42180000  0.19920000  0.40010000  1.0 -0.1812128888
C  C2839  1  0.05080000  0.15010000  0.07820000  1.0 -0.1812128888
C  C2840  1  0.34990000  0.44920000  0.92180000  1.0 -0.1812128888
C  C2841  1  0.30080000  0.17180000  0.15010000  1.0 -0.1812128888
C  C2842  1  0.34990000  0.80080000  0.82820000  1.0 -0.1812128888
C  C2843  1  0.05080000  0.09990000  0.67180000  1.0 -0.1812128888
C  C2844  1  0.32820000  0.05080000  0.90010000  1.0 -0.1812128888
C  C2845  1  0.40010000  0.80080000  0.42180000  1.0 -0.1812128888
C  C2846  1  0.44920000  0.07820000  0.65010000  1.0 -0.1812128888
C  C2847  1  0.42180000  0.05080000  0.34990000  1.0 -0.1812128888
C  C2848  1  0.30080000  0.07820000  0.59990000  1.0 -0.1812128888
C  C2849  1  0.32820000  0.19920000  0.84990000  1.0 -0.1812128888
C  C2850  1  0.44920000  0.17180000  0.09990000  1.0 -0.1812128888
C  C2851  1  0.59990000  0.92180000  0.30080000  1.0 -0.1812128888
C  C2852  1  0.07820000  0.84990000  0.05080000  1.0 -0.1812128888
C  C2853  1  0.17180000  0.84990000  0.69920000  1.0 -0.1812128888
C  C2854  1  0.09990000  0.82820000  0.44920000  1.0 -0.1812128888
C  C2855  1  0.57820000  0.90010000  0.69920000  1.0 -0.1812128888
C  C2856  1  0.65010000  0.92180000  0.44920000  1.0 -0.1812128888
C  C2857  1  0.15010000  0.82820000  0.30080000  1.0 -0.1812128888
C  C2858  1  0.69920000  0.59990000  0.07820000  1.0 -0.1812128888
C  C2859  1  0.40010000  0.94920000  0.82820000  1.0 -0.1812128888
C  C2860  1  0.69920000  0.65010000  0.67180000  1.0 -0.1812128888
C  C2861  1  0.42180000  0.69920000  0.90010000  1.0 -0.1812128888
C  C2862  1  0.05080000  0.65010000  0.57820000  1.0 -0.1812128888
C  C2863  1  0.34990000  0.94920000  0.42180000  1.0 -0.1812128888
C  C2864  1  0.30080000  0.67180000  0.65010000  1.0 -0.1812128888
C  C2865  1  0.34990000  0.30080000  0.32820000  1.0 -0.1812128888
C  C2866  1  0.05080000  0.59990000  0.17180000  1.0 -0.1812128888
C  C2867  1  0.32820000  0.55080000  0.40010000  1.0 -0.1812128888
C  C2868  1  0.40010000  0.30080000  0.92180000  1.0 -0.1812128888
C  C2869  1  0.44920000  0.57820000  0.15010000  1.0 -0.1812128888
C  C2870  1  0.42180000  0.55080000  0.84990000  1.0 -0.1812128888
C  C2871  1  0.30080000  0.57820000  0.09990000  1.0 -0.1812128888
C  C2872  1  0.32820000  0.69920000  0.34990000  1.0 -0.1812128888
C  C2873  1  0.44920000  0.67180000  0.59990000  1.0 -0.1812128888
C  C2874  1  0.59990000  0.42180000  0.80080000  1.0 -0.1812128888
C  C2875  1  0.07820000  0.34990000  0.55080000  1.0 -0.1812128888
C  C2876  1  0.17180000  0.34990000  0.19920000  1.0 -0.1812128888
C  C2877  1  0.09990000  0.32820000  0.94920000  1.0 -0.1812128888
C  C2878  1  0.57820000  0.40010000  0.19920000  1.0 -0.1812128888
C  C2879  1  0.65010000  0.42180000  0.94920000  1.0 -0.1812128888
C  C2880  1  0.15010000  0.32820000  0.80080000  1.0 -0.1812128888
C  C2881  1  0.81910000  0.88170000  0.90090000  1.0 -0.1812128888
C  C2882  1  0.11830000  0.56910000  0.15090000  1.0 -0.1812128888
C  C2883  1  0.81910000  0.86830000  0.34910000  1.0 -0.1812128888
C  C2884  1  0.09910000  0.81910000  0.11830000  1.0 -0.1812128888
C  C2885  1  0.43090000  0.86830000  0.40090000  1.0 -0.1812128888
C  C2886  1  0.13170000  0.56910000  0.59910000  1.0 -0.1812128888
C  C2887  1  0.18090000  0.84910000  0.36830000  1.0 -0.1812128888
C  C2888  1  0.13170000  0.18090000  0.65090000  1.0 -0.1812128888
C  C2889  1  0.43090000  0.88170000  0.84910000  1.0 -0.1812128888
C  C2890  1  0.15090000  0.93090000  0.61830000  1.0 -0.1812128888
C  C2891  1  0.11830000  0.18090000  0.09910000  1.0 -0.1812128888
C  C2892  1  0.06910000  0.90090000  0.86830000  1.0 -0.1812128888
C  C2893  1  0.09910000  0.93090000  0.13170000  1.0 -0.1812128888
C  C2894  1  0.18090000  0.90090000  0.88170000  1.0 -0.1812128888
C  C2895  1  0.15090000  0.81910000  0.63170000  1.0 -0.1812128888
C  C2896  1  0.06910000  0.84910000  0.38170000  1.0 -0.1812128888
C  C2897  1  0.88170000  0.09910000  0.18090000  1.0 -0.1812128888
C  C2898  1  0.34910000  0.11830000  0.93090000  1.0 -0.1812128888
C  C2899  1  0.40090000  0.13170000  0.43090000  1.0 -0.1812128888
C  C2900  1  0.34910000  0.13170000  0.81910000  1.0 -0.1812128888
C  C2901  1  0.38170000  0.15090000  0.06910000  1.0 -0.1812128888
C  C2902  1  0.90090000  0.11830000  0.81910000  1.0 -0.1812128888
C  C2903  1  0.86830000  0.09910000  0.06910000  1.0 -0.1812128888
C  C2904  1  0.36830000  0.15090000  0.18090000  1.0 -0.1812128888
C  C2905  1  0.84910000  0.11830000  0.43090000  1.0 -0.1812128888
C  C2906  1  0.81910000  0.38170000  0.40090000  1.0 -0.1812128888
C  C2907  1  0.11830000  0.06910000  0.65090000  1.0 -0.1812128888
C  C2908  1  0.81910000  0.36830000  0.84910000  1.0 -0.1812128888
C  C2909  1  0.09910000  0.31910000  0.61830000  1.0 -0.1812128888
C  C2910  1  0.43090000  0.36830000  0.90090000  1.0 -0.1812128888
C  C2911  1  0.13170000  0.06910000  0.09910000  1.0 -0.1812128888
C  C2912  1  0.18090000  0.34910000  0.86830000  1.0 -0.1812128888
C  C2913  1  0.13170000  0.68090000  0.15090000  1.0 -0.1812128888
C  C2914  1  0.43090000  0.38170000  0.34910000  1.0 -0.1812128888
C  C2915  1  0.15090000  0.43090000  0.11830000  1.0 -0.1812128888
C  C2916  1  0.11830000  0.68090000  0.59910000  1.0 -0.1812128888
C  C2917  1  0.06910000  0.40090000  0.36830000  1.0 -0.1812128888
C  C2918  1  0.09910000  0.43090000  0.63170000  1.0 -0.1812128888
C  C2919  1  0.18090000  0.40090000  0.38170000  1.0 -0.1812128888
C  C2920  1  0.15090000  0.31910000  0.13170000  1.0 -0.1812128888
C  C2921  1  0.06910000  0.34910000  0.88170000  1.0 -0.1812128888
C  C2922  1  0.88170000  0.59910000  0.68090000  1.0 -0.1812128888
C  C2923  1  0.34910000  0.61830000  0.43090000  1.0 -0.1812128888
C  C2924  1  0.40090000  0.63170000  0.93090000  1.0 -0.1812128888
C  C2925  1  0.34910000  0.63170000  0.31910000  1.0 -0.1812128888
C  C2926  1  0.38170000  0.65090000  0.56910000  1.0 -0.1812128888
C  C2927  1  0.90090000  0.61830000  0.31910000  1.0 -0.1812128888
C  C2928  1  0.86830000  0.59910000  0.56910000  1.0 -0.1812128888
C  C2929  1  0.36830000  0.65090000  0.68090000  1.0 -0.1812128888
C  C2930  1  0.84910000  0.61830000  0.93090000  1.0 -0.1812128888
C  C2931  1  0.31910000  0.88170000  0.40090000  1.0 -0.1812128888
C  C2932  1  0.61830000  0.56910000  0.65090000  1.0 -0.1812128888
C  C2933  1  0.31910000  0.86830000  0.84910000  1.0 -0.1812128888
C  C2934  1  0.59910000  0.81910000  0.61830000  1.0 -0.1812128888
C  C2935  1  0.93090000  0.86830000  0.90090000  1.0 -0.1812128888
C  C2936  1  0.63170000  0.56910000  0.09910000  1.0 -0.1812128888
C  C2937  1  0.68090000  0.84910000  0.86830000  1.0 -0.1812128888
C  C2938  1  0.63170000  0.18090000  0.15090000  1.0 -0.1812128888
C  C2939  1  0.93090000  0.88170000  0.34910000  1.0 -0.1812128888
C  C2940  1  0.65090000  0.93090000  0.11830000  1.0 -0.1812128888
C  C2941  1  0.61830000  0.18090000  0.59910000  1.0 -0.1812128888
C  C2942  1  0.56910000  0.90090000  0.36830000  1.0 -0.1812128888
C  C2943  1  0.59910000  0.93090000  0.63170000  1.0 -0.1812128888
C  C2944  1  0.68090000  0.90090000  0.38170000  1.0 -0.1812128888
C  C2945  1  0.65090000  0.81910000  0.13170000  1.0 -0.1812128888
C  C2946  1  0.56910000  0.84910000  0.88170000  1.0 -0.1812128888
C  C2947  1  0.38170000  0.09910000  0.68090000  1.0 -0.1812128888
C  C2948  1  0.90090000  0.13170000  0.93090000  1.0 -0.1812128888
C  C2949  1  0.84910000  0.13170000  0.31910000  1.0 -0.1812128888
C  C2950  1  0.88170000  0.15090000  0.56910000  1.0 -0.1812128888
C  C2951  1  0.40090000  0.11830000  0.31910000  1.0 -0.1812128888
C  C2952  1  0.36830000  0.09910000  0.56910000  1.0 -0.1812128888
C  C2953  1  0.86830000  0.15090000  0.68090000  1.0 -0.1812128888
C  C2954  1  0.31910000  0.38170000  0.90090000  1.0 -0.1812128888
C  C2955  1  0.61830000  0.06910000  0.15090000  1.0 -0.1812128888
C  C2956  1  0.31910000  0.36830000  0.34910000  1.0 -0.1812128888
C  C2957  1  0.59910000  0.31910000  0.11830000  1.0 -0.1812128888
C  C2958  1  0.93090000  0.36830000  0.40090000  1.0 -0.1812128888
C  C2959  1  0.63170000  0.06910000  0.59910000  1.0 -0.1812128888
C  C2960  1  0.68090000  0.34910000  0.36830000  1.0 -0.1812128888
C  C2961  1  0.63170000  0.68090000  0.65090000  1.0 -0.1812128888
C  C2962  1  0.93090000  0.38170000  0.84910000  1.0 -0.1812128888
C  C2963  1  0.65090000  0.43090000  0.61830000  1.0 -0.1812128888
C  C2964  1  0.61830000  0.68090000  0.09910000  1.0 -0.1812128888
C  C2965  1  0.56910000  0.40090000  0.86830000  1.0 -0.1812128888
C  C2966  1  0.59910000  0.43090000  0.13170000  1.0 -0.1812128888
C  C2967  1  0.68090000  0.40090000  0.88170000  1.0 -0.1812128888
C  C2968  1  0.65090000  0.31910000  0.63170000  1.0 -0.1812128888
C  C2969  1  0.56910000  0.34910000  0.38170000  1.0 -0.1812128888
C  C2970  1  0.38170000  0.59910000  0.18090000  1.0 -0.1812128888
C  C2971  1  0.90090000  0.63170000  0.43090000  1.0 -0.1812128888
C  C2972  1  0.84910000  0.63170000  0.81910000  1.0 -0.1812128888
C  C2973  1  0.88170000  0.65090000  0.06910000  1.0 -0.1812128888
C  C2974  1  0.40090000  0.61830000  0.81910000  1.0 -0.1812128888
C  C2975  1  0.36830000  0.59910000  0.06910000  1.0 -0.1812128888
C  C2976  1  0.86830000  0.65090000  0.18090000  1.0 -0.1812128888
C  C2977  1  0.18090000  0.11830000  0.09910000  1.0 -0.1812128888
C  C2978  1  0.88170000  0.43090000  0.84910000  1.0 -0.1812128888
C  C2979  1  0.18090000  0.13170000  0.65090000  1.0 -0.1812128888
C  C2980  1  0.90090000  0.18090000  0.88170000  1.0 -0.1812128888
C  C2981  1  0.56910000  0.13170000  0.59910000  1.0 -0.1812128888
C  C2982  1  0.86830000  0.43090000  0.40090000  1.0 -0.1812128888
C  C2983  1  0.81910000  0.15090000  0.63170000  1.0 -0.1812128888
C  C2984  1  0.86830000  0.81910000  0.34910000  1.0 -0.1812128888
C  C2985  1  0.56910000  0.11830000  0.15090000  1.0 -0.1812128888
C  C2986  1  0.84910000  0.06910000  0.38170000  1.0 -0.1812128888
C  C2987  1  0.88170000  0.81910000  0.90090000  1.0 -0.1812128888
C  C2988  1  0.93090000  0.09910000  0.13170000  1.0 -0.1812128888
C  C2989  1  0.90090000  0.06910000  0.86830000  1.0 -0.1812128888
C  C2990  1  0.81910000  0.09910000  0.11830000  1.0 -0.1812128888
C  C2991  1  0.84910000  0.18090000  0.36830000  1.0 -0.1812128888
C  C2992  1  0.93090000  0.15090000  0.61830000  1.0 -0.1812128888
C  C2993  1  0.11830000  0.90090000  0.81910000  1.0 -0.1812128888
C  C2994  1  0.65090000  0.88170000  0.06910000  1.0 -0.1812128888
C  C2995  1  0.59910000  0.86830000  0.56910000  1.0 -0.1812128888
C  C2996  1  0.65090000  0.86830000  0.18090000  1.0 -0.1812128888
C  C2997  1  0.61830000  0.84910000  0.93090000  1.0 -0.1812128888
C  C2998  1  0.09910000  0.88170000  0.18090000  1.0 -0.1812128888
C  C2999  1  0.13170000  0.90090000  0.93090000  1.0 -0.1812128888
C  C3000  1  0.63170000  0.84910000  0.81910000  1.0 -0.1812128888
C  C3001  1  0.15090000  0.88170000  0.56910000  1.0 -0.1812128888
C  C3002  1  0.18090000  0.61830000  0.59910000  1.0 -0.1812128888
C  C3003  1  0.88170000  0.93090000  0.34910000  1.0 -0.1812128888
C  C3004  1  0.18090000  0.63170000  0.15090000  1.0 -0.1812128888
C  C3005  1  0.90090000  0.68090000  0.38170000  1.0 -0.1812128888
C  C3006  1  0.56910000  0.63170000  0.09910000  1.0 -0.1812128888
C  C3007  1  0.86830000  0.93090000  0.90090000  1.0 -0.1812128888
C  C3008  1  0.81910000  0.65090000  0.13170000  1.0 -0.1812128888
C  C3009  1  0.86830000  0.31910000  0.84910000  1.0 -0.1812128888
C  C3010  1  0.56910000  0.61830000  0.65090000  1.0 -0.1812128888
C  C3011  1  0.84910000  0.56910000  0.88170000  1.0 -0.1812128888
C  C3012  1  0.88170000  0.31910000  0.40090000  1.0 -0.1812128888
C  C3013  1  0.93090000  0.59910000  0.63170000  1.0 -0.1812128888
C  C3014  1  0.90090000  0.56910000  0.36830000  1.0 -0.1812128888
C  C3015  1  0.81910000  0.59910000  0.61830000  1.0 -0.1812128888
C  C3016  1  0.84910000  0.68090000  0.86830000  1.0 -0.1812128888
C  C3017  1  0.93090000  0.65090000  0.11830000  1.0 -0.1812128888
C  C3018  1  0.11830000  0.40090000  0.31910000  1.0 -0.1812128888
C  C3019  1  0.65090000  0.38170000  0.56910000  1.0 -0.1812128888
C  C3020  1  0.59910000  0.36830000  0.06910000  1.0 -0.1812128888
C  C3021  1  0.65090000  0.36830000  0.68090000  1.0 -0.1812128888
C  C3022  1  0.61830000  0.34910000  0.43090000  1.0 -0.1812128888
C  C3023  1  0.09910000  0.38170000  0.68090000  1.0 -0.1812128888
C  C3024  1  0.13170000  0.40090000  0.43090000  1.0 -0.1812128888
C  C3025  1  0.63170000  0.34910000  0.31910000  1.0 -0.1812128888
C  C3026  1  0.15090000  0.38170000  0.06910000  1.0 -0.1812128888
C  C3027  1  0.68090000  0.11830000  0.59910000  1.0 -0.1812128888
C  C3028  1  0.38170000  0.43090000  0.34910000  1.0 -0.1812128888
C  C3029  1  0.68090000  0.13170000  0.15090000  1.0 -0.1812128888
C  C3030  1  0.40090000  0.18090000  0.38170000  1.0 -0.1812128888
C  C3031  1  0.06910000  0.13170000  0.09910000  1.0 -0.1812128888
C  C3032  1  0.36830000  0.43090000  0.90090000  1.0 -0.1812128888
C  C3033  1  0.31910000  0.15090000  0.13170000  1.0 -0.1812128888
C  C3034  1  0.36830000  0.81910000  0.84910000  1.0 -0.1812128888
C  C3035  1  0.06910000  0.11830000  0.65090000  1.0 -0.1812128888
C  C3036  1  0.34910000  0.06910000  0.88170000  1.0 -0.1812128888
C  C3037  1  0.38170000  0.81910000  0.40090000  1.0 -0.1812128888
C  C3038  1  0.43090000  0.09910000  0.63170000  1.0 -0.1812128888
C  C3039  1  0.40090000  0.06910000  0.36830000  1.0 -0.1812128888
C  C3040  1  0.31910000  0.09910000  0.61830000  1.0 -0.1812128888
C  C3041  1  0.34910000  0.18090000  0.86830000  1.0 -0.1812128888
C  C3042  1  0.43090000  0.15090000  0.11830000  1.0 -0.1812128888
C  C3043  1  0.61830000  0.90090000  0.31910000  1.0 -0.1812128888
C  C3044  1  0.09910000  0.86830000  0.06910000  1.0 -0.1812128888
C  C3045  1  0.15090000  0.86830000  0.68090000  1.0 -0.1812128888
C  C3046  1  0.11830000  0.84910000  0.43090000  1.0 -0.1812128888
C  C3047  1  0.59910000  0.88170000  0.68090000  1.0 -0.1812128888
C  C3048  1  0.63170000  0.90090000  0.43090000  1.0 -0.1812128888
C  C3049  1  0.13170000  0.84910000  0.31910000  1.0 -0.1812128888
C  C3050  1  0.68090000  0.61830000  0.09910000  1.0 -0.1812128888
C  C3051  1  0.38170000  0.93090000  0.84910000  1.0 -0.1812128888
C  C3052  1  0.68090000  0.63170000  0.65090000  1.0 -0.1812128888
C  C3053  1  0.40090000  0.68090000  0.88170000  1.0 -0.1812128888
C  C3054  1  0.06910000  0.63170000  0.59910000  1.0 -0.1812128888
C  C3055  1  0.36830000  0.93090000  0.40090000  1.0 -0.1812128888
C  C3056  1  0.31910000  0.65090000  0.63170000  1.0 -0.1812128888
C  C3057  1  0.36830000  0.31910000  0.34910000  1.0 -0.1812128888
C  C3058  1  0.06910000  0.61830000  0.15090000  1.0 -0.1812128888
C  C3059  1  0.34910000  0.56910000  0.38170000  1.0 -0.1812128888
C  C3060  1  0.38170000  0.31910000  0.90090000  1.0 -0.1812128888
C  C3061  1  0.43090000  0.59910000  0.13170000  1.0 -0.1812128888
C  C3062  1  0.40090000  0.56910000  0.86830000  1.0 -0.1812128888
C  C3063  1  0.31910000  0.59910000  0.11830000  1.0 -0.1812128888
C  C3064  1  0.34910000  0.68090000  0.36830000  1.0 -0.1812128888
C  C3065  1  0.43090000  0.65090000  0.61830000  1.0 -0.1812128888
C  C3066  1  0.61830000  0.40090000  0.81910000  1.0 -0.1812128888
C  C3067  1  0.09910000  0.36830000  0.56910000  1.0 -0.1812128888
C  C3068  1  0.15090000  0.36830000  0.18090000  1.0 -0.1812128888
C  C3069  1  0.11830000  0.34910000  0.93090000  1.0 -0.1812128888
C  C3070  1  0.59910000  0.38170000  0.18090000  1.0 -0.1812128888
C  C3071  1  0.63170000  0.40090000  0.93090000  1.0 -0.1812128888
C  C3072  1  0.13170000  0.34910000  0.81910000  1.0 -0.1812128888
C  C3073  1  0.81700000  0.88880000  0.91940000  1.0 0.1081238779
C  C3074  1  0.11120000  0.56700000  0.16940000  1.0 0.1081238779
C  C3075  1  0.81700000  0.86120000  0.33060000  1.0 0.1081238779
C  C3076  1  0.08060000  0.81700000  0.11120000  1.0 0.1081238779
C  C3077  1  0.43300000  0.86120000  0.41940000  1.0 0.1081238779
C  C3078  1  0.13880000  0.56700000  0.58060000  1.0 0.1081238779
C  C3079  1  0.18300000  0.83060000  0.36120000  1.0 0.1081238779
C  C3080  1  0.13880000  0.18300000  0.66940000  1.0 0.1081238779
C  C3081  1  0.43300000  0.88880000  0.83060000  1.0 0.1081238779
C  C3082  1  0.16940000  0.93300000  0.61120000  1.0 0.1081238779
C  C3083  1  0.11120000  0.18300000  0.08060000  1.0 0.1081238779
C  C3084  1  0.06700000  0.91940000  0.86120000  1.0 0.1081238779
C  C3085  1  0.08060000  0.93300000  0.13880000  1.0 0.1081238779
C  C3086  1  0.18300000  0.91940000  0.88880000  1.0 0.1081238779
C  C3087  1  0.16940000  0.81700000  0.63880000  1.0 0.1081238779
C  C3088  1  0.06700000  0.83060000  0.38880000  1.0 0.1081238779
C  C3089  1  0.88880000  0.08060000  0.18300000  1.0 0.1081238779
C  C3090  1  0.33060000  0.11120000  0.93300000  1.0 0.1081238779
C  C3091  1  0.41940000  0.13880000  0.43300000  1.0 0.1081238779
C  C3092  1  0.33060000  0.13880000  0.81700000  1.0 0.1081238779
C  C3093  1  0.38880000  0.16940000  0.06700000  1.0 0.1081238779
C  C3094  1  0.91940000  0.11120000  0.81700000  1.0 0.1081238779
C  C3095  1  0.86120000  0.08060000  0.06700000  1.0 0.1081238779
C  C3096  1  0.36120000  0.16940000  0.18300000  1.0 0.1081238779
C  C3097  1  0.83060000  0.11120000  0.43300000  1.0 0.1081238779
C  C3098  1  0.81700000  0.38880000  0.41940000  1.0 0.1081238779
C  C3099  1  0.11120000  0.06700000  0.66940000  1.0 0.1081238779
C  C3100  1  0.81700000  0.36120000  0.83060000  1.0 0.1081238779
C  C3101  1  0.08060000  0.31700000  0.61120000  1.0 0.1081238779
C  C3102  1  0.43300000  0.36120000  0.91940000  1.0 0.1081238779
C  C3103  1  0.13880000  0.06700000  0.08060000  1.0 0.1081238779
C  C3104  1  0.18300000  0.33060000  0.86120000  1.0 0.1081238779
C  C3105  1  0.13880000  0.68300000  0.16940000  1.0 0.1081238779
C  C3106  1  0.43300000  0.38880000  0.33060000  1.0 0.1081238779
C  C3107  1  0.16940000  0.43300000  0.11120000  1.0 0.1081238779
C  C3108  1  0.11120000  0.68300000  0.58060000  1.0 0.1081238779
C  C3109  1  0.06700000  0.41940000  0.36120000  1.0 0.1081238779
C  C3110  1  0.08060000  0.43300000  0.63880000  1.0 0.1081238779
C  C3111  1  0.18300000  0.41940000  0.38880000  1.0 0.1081238779
C  C3112  1  0.16940000  0.31700000  0.13880000  1.0 0.1081238779
C  C3113  1  0.06700000  0.33060000  0.88880000  1.0 0.1081238779
C  C3114  1  0.88880000  0.58060000  0.68300000  1.0 0.1081238779
C  C3115  1  0.33060000  0.61120000  0.43300000  1.0 0.1081238779
C  C3116  1  0.41940000  0.63880000  0.93300000  1.0 0.1081238779
C  C3117  1  0.33060000  0.63880000  0.31700000  1.0 0.1081238779
C  C3118  1  0.38880000  0.66940000  0.56700000  1.0 0.1081238779
C  C3119  1  0.91940000  0.61120000  0.31700000  1.0 0.1081238779
C  C3120  1  0.86120000  0.58060000  0.56700000  1.0 0.1081238779
C  C3121  1  0.36120000  0.66940000  0.68300000  1.0 0.1081238779
C  C3122  1  0.83060000  0.61120000  0.93300000  1.0 0.1081238779
C  C3123  1  0.31700000  0.88880000  0.41940000  1.0 0.1081238779
C  C3124  1  0.61120000  0.56700000  0.66940000  1.0 0.1081238779
C  C3125  1  0.31700000  0.86120000  0.83060000  1.0 0.1081238779
C  C3126  1  0.58060000  0.81700000  0.61120000  1.0 0.1081238779
C  C3127  1  0.93300000  0.86120000  0.91940000  1.0 0.1081238779
C  C3128  1  0.63880000  0.56700000  0.08060000  1.0 0.1081238779
C  C3129  1  0.68300000  0.83060000  0.86120000  1.0 0.1081238779
C  C3130  1  0.63880000  0.18300000  0.16940000  1.0 0.1081238779
C  C3131  1  0.93300000  0.88880000  0.33060000  1.0 0.1081238779
C  C3132  1  0.66940000  0.93300000  0.11120000  1.0 0.1081238779
C  C3133  1  0.61120000  0.18300000  0.58060000  1.0 0.1081238779
C  C3134  1  0.56700000  0.91940000  0.36120000  1.0 0.1081238779
C  C3135  1  0.58060000  0.93300000  0.63880000  1.0 0.1081238779
C  C3136  1  0.68300000  0.91940000  0.38880000  1.0 0.1081238779
C  C3137  1  0.66940000  0.81700000  0.13880000  1.0 0.1081238779
C  C3138  1  0.56700000  0.83060000  0.88880000  1.0 0.1081238779
C  C3139  1  0.38880000  0.08060000  0.68300000  1.0 0.1081238779
C  C3140  1  0.91940000  0.13880000  0.93300000  1.0 0.1081238779
C  C3141  1  0.83060000  0.13880000  0.31700000  1.0 0.1081238779
C  C3142  1  0.88880000  0.16940000  0.56700000  1.0 0.1081238779
C  C3143  1  0.41940000  0.11120000  0.31700000  1.0 0.1081238779
C  C3144  1  0.36120000  0.08060000  0.56700000  1.0 0.1081238779
C  C3145  1  0.86120000  0.16940000  0.68300000  1.0 0.1081238779
C  C3146  1  0.31700000  0.38880000  0.91940000  1.0 0.1081238779
C  C3147  1  0.61120000  0.06700000  0.16940000  1.0 0.1081238779
C  C3148  1  0.31700000  0.36120000  0.33060000  1.0 0.1081238779
C  C3149  1  0.58060000  0.31700000  0.11120000  1.0 0.1081238779
C  C3150  1  0.93300000  0.36120000  0.41940000  1.0 0.1081238779
C  C3151  1  0.63880000  0.06700000  0.58060000  1.0 0.1081238779
C  C3152  1  0.68300000  0.33060000  0.36120000  1.0 0.1081238779
C  C3153  1  0.63880000  0.68300000  0.66940000  1.0 0.1081238779
C  C3154  1  0.93300000  0.38880000  0.83060000  1.0 0.1081238779
C  C3155  1  0.66940000  0.43300000  0.61120000  1.0 0.1081238779
C  C3156  1  0.61120000  0.68300000  0.08060000  1.0 0.1081238779
C  C3157  1  0.56700000  0.41940000  0.86120000  1.0 0.1081238779
C  C3158  1  0.58060000  0.43300000  0.13880000  1.0 0.1081238779
C  C3159  1  0.68300000  0.41940000  0.88880000  1.0 0.1081238779
C  C3160  1  0.66940000  0.31700000  0.63880000  1.0 0.1081238779
C  C3161  1  0.56700000  0.33060000  0.38880000  1.0 0.1081238779
C  C3162  1  0.38880000  0.58060000  0.18300000  1.0 0.1081238779
C  C3163  1  0.91940000  0.63880000  0.43300000  1.0 0.1081238779
C  C3164  1  0.83060000  0.63880000  0.81700000  1.0 0.1081238779
C  C3165  1  0.88880000  0.66940000  0.06700000  1.0 0.1081238779
C  C3166  1  0.41940000  0.61120000  0.81700000  1.0 0.1081238779
C  C3167  1  0.36120000  0.58060000  0.06700000  1.0 0.1081238779
C  C3168  1  0.86120000  0.66940000  0.18300000  1.0 0.1081238779
C  C3169  1  0.18300000  0.11120000  0.08060000  1.0 0.1081238779
C  C3170  1  0.88880000  0.43300000  0.83060000  1.0 0.1081238779
C  C3171  1  0.18300000  0.13880000  0.66940000  1.0 0.1081238779
C  C3172  1  0.91940000  0.18300000  0.88880000  1.0 0.1081238779
C  C3173  1  0.56700000  0.13880000  0.58060000  1.0 0.1081238779
C  C3174  1  0.86120000  0.43300000  0.41940000  1.0 0.1081238779
C  C3175  1  0.81700000  0.16940000  0.63880000  1.0 0.1081238779
C  C3176  1  0.86120000  0.81700000  0.33060000  1.0 0.1081238779
C  C3177  1  0.56700000  0.11120000  0.16940000  1.0 0.1081238779
C  C3178  1  0.83060000  0.06700000  0.38880000  1.0 0.1081238779
C  C3179  1  0.88880000  0.81700000  0.91940000  1.0 0.1081238779
C  C3180  1  0.93300000  0.08060000  0.13880000  1.0 0.1081238779
C  C3181  1  0.91940000  0.06700000  0.86120000  1.0 0.1081238779
C  C3182  1  0.81700000  0.08060000  0.11120000  1.0 0.1081238779
C  C3183  1  0.83060000  0.18300000  0.36120000  1.0 0.1081238779
C  C3184  1  0.93300000  0.16940000  0.61120000  1.0 0.1081238779
C  C3185  1  0.11120000  0.91940000  0.81700000  1.0 0.1081238779
C  C3186  1  0.66940000  0.88880000  0.06700000  1.0 0.1081238779
C  C3187  1  0.58060000  0.86120000  0.56700000  1.0 0.1081238779
C  C3188  1  0.66940000  0.86120000  0.18300000  1.0 0.1081238779
C  C3189  1  0.61120000  0.83060000  0.93300000  1.0 0.1081238779
C  C3190  1  0.08060000  0.88880000  0.18300000  1.0 0.1081238779
C  C3191  1  0.13880000  0.91940000  0.93300000  1.0 0.1081238779
C  C3192  1  0.63880000  0.83060000  0.81700000  1.0 0.1081238779
C  C3193  1  0.16940000  0.88880000  0.56700000  1.0 0.1081238779
C  C3194  1  0.18300000  0.61120000  0.58060000  1.0 0.1081238779
C  C3195  1  0.88880000  0.93300000  0.33060000  1.0 0.1081238779
C  C3196  1  0.18300000  0.63880000  0.16940000  1.0 0.1081238779
C  C3197  1  0.91940000  0.68300000  0.38880000  1.0 0.1081238779
C  C3198  1  0.56700000  0.63880000  0.08060000  1.0 0.1081238779
C  C3199  1  0.86120000  0.93300000  0.91940000  1.0 0.1081238779
C  C3200  1  0.81700000  0.66940000  0.13880000  1.0 0.1081238779
C  C3201  1  0.86120000  0.31700000  0.83060000  1.0 0.1081238779
C  C3202  1  0.56700000  0.61120000  0.66940000  1.0 0.1081238779
C  C3203  1  0.83060000  0.56700000  0.88880000  1.0 0.1081238779
C  C3204  1  0.88880000  0.31700000  0.41940000  1.0 0.1081238779
C  C3205  1  0.93300000  0.58060000  0.63880000  1.0 0.1081238779
C  C3206  1  0.91940000  0.56700000  0.36120000  1.0 0.1081238779
C  C3207  1  0.81700000  0.58060000  0.61120000  1.0 0.1081238779
C  C3208  1  0.83060000  0.68300000  0.86120000  1.0 0.1081238779
C  C3209  1  0.93300000  0.66940000  0.11120000  1.0 0.1081238779
C  C3210  1  0.11120000  0.41940000  0.31700000  1.0 0.1081238779
C  C3211  1  0.66940000  0.38880000  0.56700000  1.0 0.1081238779
C  C3212  1  0.58060000  0.36120000  0.06700000  1.0 0.1081238779
C  C3213  1  0.66940000  0.36120000  0.68300000  1.0 0.1081238779
C  C3214  1  0.61120000  0.33060000  0.43300000  1.0 0.1081238779
C  C3215  1  0.08060000  0.38880000  0.68300000  1.0 0.1081238779
C  C3216  1  0.13880000  0.41940000  0.43300000  1.0 0.1081238779
C  C3217  1  0.63880000  0.33060000  0.31700000  1.0 0.1081238779
C  C3218  1  0.16940000  0.38880000  0.06700000  1.0 0.1081238779
C  C3219  1  0.68300000  0.11120000  0.58060000  1.0 0.1081238779
C  C3220  1  0.38880000  0.43300000  0.33060000  1.0 0.1081238779
C  C3221  1  0.68300000  0.13880000  0.16940000  1.0 0.1081238779
C  C3222  1  0.41940000  0.18300000  0.38880000  1.0 0.1081238779
C  C3223  1  0.06700000  0.13880000  0.08060000  1.0 0.1081238779
C  C3224  1  0.36120000  0.43300000  0.91940000  1.0 0.1081238779
C  C3225  1  0.31700000  0.16940000  0.13880000  1.0 0.1081238779
C  C3226  1  0.36120000  0.81700000  0.83060000  1.0 0.1081238779
C  C3227  1  0.06700000  0.11120000  0.66940000  1.0 0.1081238779
C  C3228  1  0.33060000  0.06700000  0.88880000  1.0 0.1081238779
C  C3229  1  0.38880000  0.81700000  0.41940000  1.0 0.1081238779
C  C3230  1  0.43300000  0.08060000  0.63880000  1.0 0.1081238779
C  C3231  1  0.41940000  0.06700000  0.36120000  1.0 0.1081238779
C  C3232  1  0.31700000  0.08060000  0.61120000  1.0 0.1081238779
C  C3233  1  0.33060000  0.18300000  0.86120000  1.0 0.1081238779
C  C3234  1  0.43300000  0.16940000  0.11120000  1.0 0.1081238779
C  C3235  1  0.61120000  0.91940000  0.31700000  1.0 0.1081238779
C  C3236  1  0.08060000  0.86120000  0.06700000  1.0 0.1081238779
C  C3237  1  0.16940000  0.86120000  0.68300000  1.0 0.1081238779
C  C3238  1  0.11120000  0.83060000  0.43300000  1.0 0.1081238779
C  C3239  1  0.58060000  0.88880000  0.68300000  1.0 0.1081238779
C  C3240  1  0.63880000  0.91940000  0.43300000  1.0 0.1081238779
C  C3241  1  0.13880000  0.83060000  0.31700000  1.0 0.1081238779
C  C3242  1  0.68300000  0.61120000  0.08060000  1.0 0.1081238779
C  C3243  1  0.38880000  0.93300000  0.83060000  1.0 0.1081238779
C  C3244  1  0.68300000  0.63880000  0.66940000  1.0 0.1081238779
C  C3245  1  0.41940000  0.68300000  0.88880000  1.0 0.1081238779
C  C3246  1  0.06700000  0.63880000  0.58060000  1.0 0.1081238779
C  C3247  1  0.36120000  0.93300000  0.41940000  1.0 0.1081238779
C  C3248  1  0.31700000  0.66940000  0.63880000  1.0 0.1081238779
C  C3249  1  0.36120000  0.31700000  0.33060000  1.0 0.1081238779
C  C3250  1  0.06700000  0.61120000  0.16940000  1.0 0.1081238779
C  C3251  1  0.33060000  0.56700000  0.38880000  1.0 0.1081238779
C  C3252  1  0.38880000  0.31700000  0.91940000  1.0 0.1081238779
C  C3253  1  0.43300000  0.58060000  0.13880000  1.0 0.1081238779
C  C3254  1  0.41940000  0.56700000  0.86120000  1.0 0.1081238779
C  C3255  1  0.31700000  0.58060000  0.11120000  1.0 0.1081238779
C  C3256  1  0.33060000  0.68300000  0.36120000  1.0 0.1081238779
C  C3257  1  0.43300000  0.66940000  0.61120000  1.0 0.1081238779
C  C3258  1  0.61120000  0.41940000  0.81700000  1.0 0.1081238779
C  C3259  1  0.08060000  0.36120000  0.56700000  1.0 0.1081238779
C  C3260  1  0.16940000  0.36120000  0.18300000  1.0 0.1081238779
C  C3261  1  0.11120000  0.33060000  0.93300000  1.0 0.1081238779
C  C3262  1  0.58060000  0.38880000  0.18300000  1.0 0.1081238779
C  C3263  1  0.63880000  0.41940000  0.93300000  1.0 0.1081238779
C  C3264  1  0.13880000  0.33060000  0.81700000  1.0 0.1081238779
C  C3265  1  0.78670000  0.88880000  0.89180000  1.0 -0.1656856015
C  C3266  1  0.11120000  0.53670000  0.14180000  1.0 -0.1656856015
C  C3267  1  0.78670000  0.86120000  0.35820000  1.0 -0.1656856015
C  C3268  1  0.10820000  0.78670000  0.11120000  1.0 -0.1656856015
C  C3269  1  0.46330000  0.86120000  0.39180000  1.0 -0.1656856015
C  C3270  1  0.13880000  0.53670000  0.60820000  1.0 -0.1656856015
C  C3271  1  0.21330000  0.85820000  0.36120000  1.0 -0.1656856015
C  C3272  1  0.13880000  0.21330000  0.64180000  1.0 -0.1656856015
C  C3273  1  0.46330000  0.88880000  0.85820000  1.0 -0.1656856015
C  C3274  1  0.14180000  0.96330000  0.61120000  1.0 -0.1656856015
C  C3275  1  0.11120000  0.21330000  0.10820000  1.0 -0.1656856015
C  C3276  1  0.03670000  0.89180000  0.86120000  1.0 -0.1656856015
C  C3277  1  0.10820000  0.96330000  0.13880000  1.0 -0.1656856015
C  C3278  1  0.21330000  0.89180000  0.88880000  1.0 -0.1656856015
C  C3279  1  0.14180000  0.78670000  0.63880000  1.0 -0.1656856015
C  C3280  1  0.03670000  0.85820000  0.38880000  1.0 -0.1656856015
C  C3281  1  0.88880000  0.10820000  0.21330000  1.0 -0.1656856015
C  C3282  1  0.35820000  0.11120000  0.96330000  1.0 -0.1656856015
C  C3283  1  0.39180000  0.13880000  0.46330000  1.0 -0.1656856015
C  C3284  1  0.35820000  0.13880000  0.78670000  1.0 -0.1656856015
C  C3285  1  0.38880000  0.14180000  0.03670000  1.0 -0.1656856015
C  C3286  1  0.89180000  0.11120000  0.78670000  1.0 -0.1656856015
C  C3287  1  0.86120000  0.10820000  0.03670000  1.0 -0.1656856015
C  C3288  1  0.36120000  0.14180000  0.21330000  1.0 -0.1656856015
C  C3289  1  0.85820000  0.11120000  0.46330000  1.0 -0.1656856015
C  C3290  1  0.78670000  0.38880000  0.39180000  1.0 -0.1656856015
C  C3291  1  0.11120000  0.03670000  0.64180000  1.0 -0.1656856015
C  C3292  1  0.78670000  0.36120000  0.85820000  1.0 -0.1656856015
C  C3293  1  0.10820000  0.28670000  0.61120000  1.0 -0.1656856015
C  C3294  1  0.46330000  0.36120000  0.89180000  1.0 -0.1656856015
C  C3295  1  0.13880000  0.03670000  0.10820000  1.0 -0.1656856015
C  C3296  1  0.21330000  0.35820000  0.86120000  1.0 -0.1656856015
C  C3297  1  0.13880000  0.71330000  0.14180000  1.0 -0.1656856015
C  C3298  1  0.46330000  0.38880000  0.35820000  1.0 -0.1656856015
C  C3299  1  0.14180000  0.46330000  0.11120000  1.0 -0.1656856015
C  C3300  1  0.11120000  0.71330000  0.60820000  1.0 -0.1656856015
C  C3301  1  0.03670000  0.39180000  0.36120000  1.0 -0.1656856015
C  C3302  1  0.10820000  0.46330000  0.63880000  1.0 -0.1656856015
C  C3303  1  0.21330000  0.39180000  0.38880000  1.0 -0.1656856015
C  C3304  1  0.14180000  0.28670000  0.13880000  1.0 -0.1656856015
C  C3305  1  0.03670000  0.35820000  0.88880000  1.0 -0.1656856015
C  C3306  1  0.88880000  0.60820000  0.71330000  1.0 -0.1656856015
C  C3307  1  0.35820000  0.61120000  0.46330000  1.0 -0.1656856015
C  C3308  1  0.39180000  0.63880000  0.96330000  1.0 -0.1656856015
C  C3309  1  0.35820000  0.63880000  0.28670000  1.0 -0.1656856015
C  C3310  1  0.38880000  0.64180000  0.53670000  1.0 -0.1656856015
C  C3311  1  0.89180000  0.61120000  0.28670000  1.0 -0.1656856015
C  C3312  1  0.86120000  0.60820000  0.53670000  1.0 -0.1656856015
C  C3313  1  0.36120000  0.64180000  0.71330000  1.0 -0.1656856015
C  C3314  1  0.85820000  0.61120000  0.96330000  1.0 -0.1656856015
C  C3315  1  0.28670000  0.88880000  0.39180000  1.0 -0.1656856015
C  C3316  1  0.61120000  0.53670000  0.64180000  1.0 -0.1656856015
C  C3317  1  0.28670000  0.86120000  0.85820000  1.0 -0.1656856015
C  C3318  1  0.60820000  0.78670000  0.61120000  1.0 -0.1656856015
C  C3319  1  0.96330000  0.86120000  0.89180000  1.0 -0.1656856015
C  C3320  1  0.63880000  0.53670000  0.10820000  1.0 -0.1656856015
C  C3321  1  0.71330000  0.85820000  0.86120000  1.0 -0.1656856015
C  C3322  1  0.63880000  0.21330000  0.14180000  1.0 -0.1656856015
C  C3323  1  0.96330000  0.88880000  0.35820000  1.0 -0.1656856015
C  C3324  1  0.64180000  0.96330000  0.11120000  1.0 -0.1656856015
C  C3325  1  0.61120000  0.21330000  0.60820000  1.0 -0.1656856015
C  C3326  1  0.53670000  0.89180000  0.36120000  1.0 -0.1656856015
C  C3327  1  0.60820000  0.96330000  0.63880000  1.0 -0.1656856015
C  C3328  1  0.71330000  0.89180000  0.38880000  1.0 -0.1656856015
C  C3329  1  0.64180000  0.78670000  0.13880000  1.0 -0.1656856015
C  C3330  1  0.53670000  0.85820000  0.88880000  1.0 -0.1656856015
C  C3331  1  0.38880000  0.10820000  0.71330000  1.0 -0.1656856015
C  C3332  1  0.89180000  0.13880000  0.96330000  1.0 -0.1656856015
C  C3333  1  0.85820000  0.13880000  0.28670000  1.0 -0.1656856015
C  C3334  1  0.88880000  0.14180000  0.53670000  1.0 -0.1656856015
C  C3335  1  0.39180000  0.11120000  0.28670000  1.0 -0.1656856015
C  C3336  1  0.36120000  0.10820000  0.53670000  1.0 -0.1656856015
C  C3337  1  0.86120000  0.14180000  0.71330000  1.0 -0.1656856015
C  C3338  1  0.28670000  0.38880000  0.89180000  1.0 -0.1656856015
C  C3339  1  0.61120000  0.03670000  0.14180000  1.0 -0.1656856015
C  C3340  1  0.28670000  0.36120000  0.35820000  1.0 -0.1656856015
C  C3341  1  0.60820000  0.28670000  0.11120000  1.0 -0.1656856015
C  C3342  1  0.96330000  0.36120000  0.39180000  1.0 -0.1656856015
C  C3343  1  0.63880000  0.03670000  0.60820000  1.0 -0.1656856015
C  C3344  1  0.71330000  0.35820000  0.36120000  1.0 -0.1656856015
C  C3345  1  0.63880000  0.71330000  0.64180000  1.0 -0.1656856015
C  C3346  1  0.96330000  0.38880000  0.85820000  1.0 -0.1656856015
C  C3347  1  0.64180000  0.46330000  0.61120000  1.0 -0.1656856015
C  C3348  1  0.61120000  0.71330000  0.10820000  1.0 -0.1656856015
C  C3349  1  0.53670000  0.39180000  0.86120000  1.0 -0.1656856015
C  C3350  1  0.60820000  0.46330000  0.13880000  1.0 -0.1656856015
C  C3351  1  0.71330000  0.39180000  0.88880000  1.0 -0.1656856015
C  C3352  1  0.64180000  0.28670000  0.63880000  1.0 -0.1656856015
C  C3353  1  0.53670000  0.35820000  0.38880000  1.0 -0.1656856015
C  C3354  1  0.38880000  0.60820000  0.21330000  1.0 -0.1656856015
C  C3355  1  0.89180000  0.63880000  0.46330000  1.0 -0.1656856015
C  C3356  1  0.85820000  0.63880000  0.78670000  1.0 -0.1656856015
C  C3357  1  0.88880000  0.64180000  0.03670000  1.0 -0.1656856015
C  C3358  1  0.39180000  0.61120000  0.78670000  1.0 -0.1656856015
C  C3359  1  0.36120000  0.60820000  0.03670000  1.0 -0.1656856015
C  C3360  1  0.86120000  0.64180000  0.21330000  1.0 -0.1656856015
C  C3361  1  0.21330000  0.11120000  0.10820000  1.0 -0.1656856015
C  C3362  1  0.88880000  0.46330000  0.85820000  1.0 -0.1656856015
C  C3363  1  0.21330000  0.13880000  0.64180000  1.0 -0.1656856015
C  C3364  1  0.89180000  0.21330000  0.88880000  1.0 -0.1656856015
C  C3365  1  0.53670000  0.13880000  0.60820000  1.0 -0.1656856015
C  C3366  1  0.86120000  0.46330000  0.39180000  1.0 -0.1656856015
C  C3367  1  0.78670000  0.14180000  0.63880000  1.0 -0.1656856015
C  C3368  1  0.86120000  0.78670000  0.35820000  1.0 -0.1656856015
C  C3369  1  0.53670000  0.11120000  0.14180000  1.0 -0.1656856015
C  C3370  1  0.85820000  0.03670000  0.38880000  1.0 -0.1656856015
C  C3371  1  0.88880000  0.78670000  0.89180000  1.0 -0.1656856015
C  C3372  1  0.96330000  0.10820000  0.13880000  1.0 -0.1656856015
C  C3373  1  0.89180000  0.03670000  0.86120000  1.0 -0.1656856015
C  C3374  1  0.78670000  0.10820000  0.11120000  1.0 -0.1656856015
C  C3375  1  0.85820000  0.21330000  0.36120000  1.0 -0.1656856015
C  C3376  1  0.96330000  0.14180000  0.61120000  1.0 -0.1656856015
C  C3377  1  0.11120000  0.89180000  0.78670000  1.0 -0.1656856015
C  C3378  1  0.64180000  0.88880000  0.03670000  1.0 -0.1656856015
C  C3379  1  0.60820000  0.86120000  0.53670000  1.0 -0.1656856015
C  C3380  1  0.64180000  0.86120000  0.21330000  1.0 -0.1656856015
C  C3381  1  0.61120000  0.85820000  0.96330000  1.0 -0.1656856015
C  C3382  1  0.10820000  0.88880000  0.21330000  1.0 -0.1656856015
C  C3383  1  0.13880000  0.89180000  0.96330000  1.0 -0.1656856015
C  C3384  1  0.63880000  0.85820000  0.78670000  1.0 -0.1656856015
C  C3385  1  0.14180000  0.88880000  0.53670000  1.0 -0.1656856015
C  C3386  1  0.21330000  0.61120000  0.60820000  1.0 -0.1656856015
C  C3387  1  0.88880000  0.96330000  0.35820000  1.0 -0.1656856015
C  C3388  1  0.21330000  0.63880000  0.14180000  1.0 -0.1656856015
C  C3389  1  0.89180000  0.71330000  0.38880000  1.0 -0.1656856015
C  C3390  1  0.53670000  0.63880000  0.10820000  1.0 -0.1656856015
C  C3391  1  0.86120000  0.96330000  0.89180000  1.0 -0.1656856015
C  C3392  1  0.78670000  0.64180000  0.13880000  1.0 -0.1656856015
C  C3393  1  0.86120000  0.28670000  0.85820000  1.0 -0.1656856015
C  C3394  1  0.53670000  0.61120000  0.64180000  1.0 -0.1656856015
C  C3395  1  0.85820000  0.53670000  0.88880000  1.0 -0.1656856015
C  C3396  1  0.88880000  0.28670000  0.39180000  1.0 -0.1656856015
C  C3397  1  0.96330000  0.60820000  0.63880000  1.0 -0.1656856015
C  C3398  1  0.89180000  0.53670000  0.36120000  1.0 -0.1656856015
C  C3399  1  0.78670000  0.60820000  0.61120000  1.0 -0.1656856015
C  C3400  1  0.85820000  0.71330000  0.86120000  1.0 -0.1656856015
C  C3401  1  0.96330000  0.64180000  0.11120000  1.0 -0.1656856015
C  C3402  1  0.11120000  0.39180000  0.28670000  1.0 -0.1656856015
C  C3403  1  0.64180000  0.38880000  0.53670000  1.0 -0.1656856015
C  C3404  1  0.60820000  0.36120000  0.03670000  1.0 -0.1656856015
C  C3405  1  0.64180000  0.36120000  0.71330000  1.0 -0.1656856015
C  C3406  1  0.61120000  0.35820000  0.46330000  1.0 -0.1656856015
C  C3407  1  0.10820000  0.38880000  0.71330000  1.0 -0.1656856015
C  C3408  1  0.13880000  0.39180000  0.46330000  1.0 -0.1656856015
C  C3409  1  0.63880000  0.35820000  0.28670000  1.0 -0.1656856015
C  C3410  1  0.14180000  0.38880000  0.03670000  1.0 -0.1656856015
C  C3411  1  0.71330000  0.11120000  0.60820000  1.0 -0.1656856015
C  C3412  1  0.38880000  0.46330000  0.35820000  1.0 -0.1656856015
C  C3413  1  0.71330000  0.13880000  0.14180000  1.0 -0.1656856015
C  C3414  1  0.39180000  0.21330000  0.38880000  1.0 -0.1656856015
C  C3415  1  0.03670000  0.13880000  0.10820000  1.0 -0.1656856015
C  C3416  1  0.36120000  0.46330000  0.89180000  1.0 -0.1656856015
C  C3417  1  0.28670000  0.14180000  0.13880000  1.0 -0.1656856015
C  C3418  1  0.36120000  0.78670000  0.85820000  1.0 -0.1656856015
C  C3419  1  0.03670000  0.11120000  0.64180000  1.0 -0.1656856015
C  C3420  1  0.35820000  0.03670000  0.88880000  1.0 -0.1656856015
C  C3421  1  0.38880000  0.78670000  0.39180000  1.0 -0.1656856015
C  C3422  1  0.46330000  0.10820000  0.63880000  1.0 -0.1656856015
C  C3423  1  0.39180000  0.03670000  0.36120000  1.0 -0.1656856015
C  C3424  1  0.28670000  0.10820000  0.61120000  1.0 -0.1656856015
C  C3425  1  0.35820000  0.21330000  0.86120000  1.0 -0.1656856015
C  C3426  1  0.46330000  0.14180000  0.11120000  1.0 -0.1656856015
C  C3427  1  0.61120000  0.89180000  0.28670000  1.0 -0.1656856015
C  C3428  1  0.10820000  0.86120000  0.03670000  1.0 -0.1656856015
C  C3429  1  0.14180000  0.86120000  0.71330000  1.0 -0.1656856015
C  C3430  1  0.11120000  0.85820000  0.46330000  1.0 -0.1656856015
C  C3431  1  0.60820000  0.88880000  0.71330000  1.0 -0.1656856015
C  C3432  1  0.63880000  0.89180000  0.46330000  1.0 -0.1656856015
C  C3433  1  0.13880000  0.85820000  0.28670000  1.0 -0.1656856015
C  C3434  1  0.71330000  0.61120000  0.10820000  1.0 -0.1656856015
C  C3435  1  0.38880000  0.96330000  0.85820000  1.0 -0.1656856015
C  C3436  1  0.71330000  0.63880000  0.64180000  1.0 -0.1656856015
C  C3437  1  0.39180000  0.71330000  0.88880000  1.0 -0.1656856015
C  C3438  1  0.03670000  0.63880000  0.60820000  1.0 -0.1656856015
C  C3439  1  0.36120000  0.96330000  0.39180000  1.0 -0.1656856015
C  C3440  1  0.28670000  0.64180000  0.63880000  1.0 -0.1656856015
C  C3441  1  0.36120000  0.28670000  0.35820000  1.0 -0.1656856015
C  C3442  1  0.03670000  0.61120000  0.14180000  1.0 -0.1656856015
C  C3443  1  0.35820000  0.53670000  0.38880000  1.0 -0.1656856015
C  C3444  1  0.38880000  0.28670000  0.89180000  1.0 -0.1656856015
C  C3445  1  0.46330000  0.60820000  0.13880000  1.0 -0.1656856015
C  C3446  1  0.39180000  0.53670000  0.86120000  1.0 -0.1656856015
C  C3447  1  0.28670000  0.60820000  0.11120000  1.0 -0.1656856015
C  C3448  1  0.35820000  0.71330000  0.36120000  1.0 -0.1656856015
C  C3449  1  0.46330000  0.64180000  0.61120000  1.0 -0.1656856015
C  C3450  1  0.61120000  0.39180000  0.78670000  1.0 -0.1656856015
C  C3451  1  0.10820000  0.36120000  0.53670000  1.0 -0.1656856015
C  C3452  1  0.14180000  0.36120000  0.21330000  1.0 -0.1656856015
C  C3453  1  0.11120000  0.35820000  0.96330000  1.0 -0.1656856015
C  C3454  1  0.60820000  0.38880000  0.21330000  1.0 -0.1656856015
C  C3455  1  0.63880000  0.39180000  0.96330000  1.0 -0.1656856015
C  C3456  1  0.13880000  0.35820000  0.78670000  1.0 -0.1656856015
C  C3457  1  0.83710000  0.87330000  0.89640000  1.0 0.6261865156
C  C3458  1  0.12670000  0.58710000  0.14640000  1.0 0.6261865156
C  C3459  1  0.83710000  0.87670000  0.35360000  1.0 0.6261865156
C  C3460  1  0.10360000  0.83710000  0.12670000  1.0 0.6261865156
C  C3461  1  0.41290000  0.87670000  0.39640000  1.0 0.6261865156
C  C3462  1  0.12330000  0.58710000  0.60360000  1.0 0.6261865156
C  C3463  1  0.16290000  0.85360000  0.37670000  1.0 0.6261865156
C  C3464  1  0.12330000  0.16290000  0.64640000  1.0 0.6261865156
C  C3465  1  0.41290000  0.87330000  0.85360000  1.0 0.6261865156
C  C3466  1  0.14640000  0.91290000  0.62670000  1.0 0.6261865156
C  C3467  1  0.12670000  0.16290000  0.10360000  1.0 0.6261865156
C  C3468  1  0.08710000  0.89640000  0.87670000  1.0 0.6261865156
C  C3469  1  0.10360000  0.91290000  0.12330000  1.0 0.6261865156
C  C3470  1  0.16290000  0.89640000  0.87330000  1.0 0.6261865156
C  C3471  1  0.14640000  0.83710000  0.62330000  1.0 0.6261865156
C  C3472  1  0.08710000  0.85360000  0.37330000  1.0 0.6261865156
C  C3473  1  0.87330000  0.10360000  0.16290000  1.0 0.6261865156
C  C3474  1  0.35360000  0.12670000  0.91290000  1.0 0.6261865156
C  C3475  1  0.39640000  0.12330000  0.41290000  1.0 0.6261865156
C  C3476  1  0.35360000  0.12330000  0.83710000  1.0 0.6261865156
C  C3477  1  0.37330000  0.14640000  0.08710000  1.0 0.6261865156
C  C3478  1  0.89640000  0.12670000  0.83710000  1.0 0.6261865156
C  C3479  1  0.87670000  0.10360000  0.08710000  1.0 0.6261865156
C  C3480  1  0.37670000  0.14640000  0.16290000  1.0 0.6261865156
C  C3481  1  0.85360000  0.12670000  0.41290000  1.0 0.6261865156
C  C3482  1  0.83710000  0.37330000  0.39640000  1.0 0.6261865156
C  C3483  1  0.12670000  0.08710000  0.64640000  1.0 0.6261865156
C  C3484  1  0.83710000  0.37670000  0.85360000  1.0 0.6261865156
C  C3485  1  0.10360000  0.33710000  0.62670000  1.0 0.6261865156
C  C3486  1  0.41290000  0.37670000  0.89640000  1.0 0.6261865156
C  C3487  1  0.12330000  0.08710000  0.10360000  1.0 0.6261865156
C  C3488  1  0.16290000  0.35360000  0.87670000  1.0 0.6261865156
C  C3489  1  0.12330000  0.66290000  0.14640000  1.0 0.6261865156
C  C3490  1  0.41290000  0.37330000  0.35360000  1.0 0.6261865156
C  C3491  1  0.14640000  0.41290000  0.12670000  1.0 0.6261865156
C  C3492  1  0.12670000  0.66290000  0.60360000  1.0 0.6261865156
C  C3493  1  0.08710000  0.39640000  0.37670000  1.0 0.6261865156
C  C3494  1  0.10360000  0.41290000  0.62330000  1.0 0.6261865156
C  C3495  1  0.16290000  0.39640000  0.37330000  1.0 0.6261865156
C  C3496  1  0.14640000  0.33710000  0.12330000  1.0 0.6261865156
C  C3497  1  0.08710000  0.35360000  0.87330000  1.0 0.6261865156
C  C3498  1  0.87330000  0.60360000  0.66290000  1.0 0.6261865156
C  C3499  1  0.35360000  0.62670000  0.41290000  1.0 0.6261865156
C  C3500  1  0.39640000  0.62330000  0.91290000  1.0 0.6261865156
C  C3501  1  0.35360000  0.62330000  0.33710000  1.0 0.6261865156
C  C3502  1  0.37330000  0.64640000  0.58710000  1.0 0.6261865156
C  C3503  1  0.89640000  0.62670000  0.33710000  1.0 0.6261865156
C  C3504  1  0.87670000  0.60360000  0.58710000  1.0 0.6261865156
C  C3505  1  0.37670000  0.64640000  0.66290000  1.0 0.6261865156
C  C3506  1  0.85360000  0.62670000  0.91290000  1.0 0.6261865156
C  C3507  1  0.33710000  0.87330000  0.39640000  1.0 0.6261865156
C  C3508  1  0.62670000  0.58710000  0.64640000  1.0 0.6261865156
C  C3509  1  0.33710000  0.87670000  0.85360000  1.0 0.6261865156
C  C3510  1  0.60360000  0.83710000  0.62670000  1.0 0.6261865156
C  C3511  1  0.91290000  0.87670000  0.89640000  1.0 0.6261865156
C  C3512  1  0.62330000  0.58710000  0.10360000  1.0 0.6261865156
C  C3513  1  0.66290000  0.85360000  0.87670000  1.0 0.6261865156
C  C3514  1  0.62330000  0.16290000  0.14640000  1.0 0.6261865156
C  C3515  1  0.91290000  0.87330000  0.35360000  1.0 0.6261865156
C  C3516  1  0.64640000  0.91290000  0.12670000  1.0 0.6261865156
C  C3517  1  0.62670000  0.16290000  0.60360000  1.0 0.6261865156
C  C3518  1  0.58710000  0.89640000  0.37670000  1.0 0.6261865156
C  C3519  1  0.60360000  0.91290000  0.62330000  1.0 0.6261865156
C  C3520  1  0.66290000  0.89640000  0.37330000  1.0 0.6261865156
C  C3521  1  0.64640000  0.83710000  0.12330000  1.0 0.6261865156
C  C3522  1  0.58710000  0.85360000  0.87330000  1.0 0.6261865156
C  C3523  1  0.37330000  0.10360000  0.66290000  1.0 0.6261865156
C  C3524  1  0.89640000  0.12330000  0.91290000  1.0 0.6261865156
C  C3525  1  0.85360000  0.12330000  0.33710000  1.0 0.6261865156
C  C3526  1  0.87330000  0.14640000  0.58710000  1.0 0.6261865156
C  C3527  1  0.39640000  0.12670000  0.33710000  1.0 0.6261865156
C  C3528  1  0.37670000  0.10360000  0.58710000  1.0 0.6261865156
C  C3529  1  0.87670000  0.14640000  0.66290000  1.0 0.6261865156
C  C3530  1  0.33710000  0.37330000  0.89640000  1.0 0.6261865156
C  C3531  1  0.62670000  0.08710000  0.14640000  1.0 0.6261865156
C  C3532  1  0.33710000  0.37670000  0.35360000  1.0 0.6261865156
C  C3533  1  0.60360000  0.33710000  0.12670000  1.0 0.6261865156
C  C3534  1  0.91290000  0.37670000  0.39640000  1.0 0.6261865156
C  C3535  1  0.62330000  0.08710000  0.60360000  1.0 0.6261865156
C  C3536  1  0.66290000  0.35360000  0.37670000  1.0 0.6261865156
C  C3537  1  0.62330000  0.66290000  0.64640000  1.0 0.6261865156
C  C3538  1  0.91290000  0.37330000  0.85360000  1.0 0.6261865156
C  C3539  1  0.64640000  0.41290000  0.62670000  1.0 0.6261865156
C  C3540  1  0.62670000  0.66290000  0.10360000  1.0 0.6261865156
C  C3541  1  0.58710000  0.39640000  0.87670000  1.0 0.6261865156
C  C3542  1  0.60360000  0.41290000  0.12330000  1.0 0.6261865156
C  C3543  1  0.66290000  0.39640000  0.87330000  1.0 0.6261865156
C  C3544  1  0.64640000  0.33710000  0.62330000  1.0 0.6261865156
C  C3545  1  0.58710000  0.35360000  0.37330000  1.0 0.6261865156
C  C3546  1  0.37330000  0.60360000  0.16290000  1.0 0.6261865156
C  C3547  1  0.89640000  0.62330000  0.41290000  1.0 0.6261865156
C  C3548  1  0.85360000  0.62330000  0.83710000  1.0 0.6261865156
C  C3549  1  0.87330000  0.64640000  0.08710000  1.0 0.6261865156
C  C3550  1  0.39640000  0.62670000  0.83710000  1.0 0.6261865156
C  C3551  1  0.37670000  0.60360000  0.08710000  1.0 0.6261865156
C  C3552  1  0.87670000  0.64640000  0.16290000  1.0 0.6261865156
C  C3553  1  0.16290000  0.12670000  0.10360000  1.0 0.6261865156
C  C3554  1  0.87330000  0.41290000  0.85360000  1.0 0.6261865156
C  C3555  1  0.16290000  0.12330000  0.64640000  1.0 0.6261865156
C  C3556  1  0.89640000  0.16290000  0.87330000  1.0 0.6261865156
C  C3557  1  0.58710000  0.12330000  0.60360000  1.0 0.6261865156
C  C3558  1  0.87670000  0.41290000  0.39640000  1.0 0.6261865156
C  C3559  1  0.83710000  0.14640000  0.62330000  1.0 0.6261865156
C  C3560  1  0.87670000  0.83710000  0.35360000  1.0 0.6261865156
C  C3561  1  0.58710000  0.12670000  0.14640000  1.0 0.6261865156
C  C3562  1  0.85360000  0.08710000  0.37330000  1.0 0.6261865156
C  C3563  1  0.87330000  0.83710000  0.89640000  1.0 0.6261865156
C  C3564  1  0.91290000  0.10360000  0.12330000  1.0 0.6261865156
C  C3565  1  0.89640000  0.08710000  0.87670000  1.0 0.6261865156
C  C3566  1  0.83710000  0.10360000  0.12670000  1.0 0.6261865156
C  C3567  1  0.85360000  0.16290000  0.37670000  1.0 0.6261865156
C  C3568  1  0.91290000  0.14640000  0.62670000  1.0 0.6261865156
C  C3569  1  0.12670000  0.89640000  0.83710000  1.0 0.6261865156
C  C3570  1  0.64640000  0.87330000  0.08710000  1.0 0.6261865156
C  C3571  1  0.60360000  0.87670000  0.58710000  1.0 0.6261865156
C  C3572  1  0.64640000  0.87670000  0.16290000  1.0 0.6261865156
C  C3573  1  0.62670000  0.85360000  0.91290000  1.0 0.6261865156
C  C3574  1  0.10360000  0.87330000  0.16290000  1.0 0.6261865156
C  C3575  1  0.12330000  0.89640000  0.91290000  1.0 0.6261865156
C  C3576  1  0.62330000  0.85360000  0.83710000  1.0 0.6261865156
C  C3577  1  0.14640000  0.87330000  0.58710000  1.0 0.6261865156
C  C3578  1  0.16290000  0.62670000  0.60360000  1.0 0.6261865156
C  C3579  1  0.87330000  0.91290000  0.35360000  1.0 0.6261865156
C  C3580  1  0.16290000  0.62330000  0.14640000  1.0 0.6261865156
C  C3581  1  0.89640000  0.66290000  0.37330000  1.0 0.6261865156
C  C3582  1  0.58710000  0.62330000  0.10360000  1.0 0.6261865156
C  C3583  1  0.87670000  0.91290000  0.89640000  1.0 0.6261865156
C  C3584  1  0.83710000  0.64640000  0.12330000  1.0 0.6261865156
C  C3585  1  0.87670000  0.33710000  0.85360000  1.0 0.6261865156
C  C3586  1  0.58710000  0.62670000  0.64640000  1.0 0.6261865156
C  C3587  1  0.85360000  0.58710000  0.87330000  1.0 0.6261865156
C  C3588  1  0.87330000  0.33710000  0.39640000  1.0 0.6261865156
C  C3589  1  0.91290000  0.60360000  0.62330000  1.0 0.6261865156
C  C3590  1  0.89640000  0.58710000  0.37670000  1.0 0.6261865156
C  C3591  1  0.83710000  0.60360000  0.62670000  1.0 0.6261865156
C  C3592  1  0.85360000  0.66290000  0.87670000  1.0 0.6261865156
C  C3593  1  0.91290000  0.64640000  0.12670000  1.0 0.6261865156
C  C3594  1  0.12670000  0.39640000  0.33710000  1.0 0.6261865156
C  C3595  1  0.64640000  0.37330000  0.58710000  1.0 0.6261865156
C  C3596  1  0.60360000  0.37670000  0.08710000  1.0 0.6261865156
C  C3597  1  0.64640000  0.37670000  0.66290000  1.0 0.6261865156
C  C3598  1  0.62670000  0.35360000  0.41290000  1.0 0.6261865156
C  C3599  1  0.10360000  0.37330000  0.66290000  1.0 0.6261865156
C  C3600  1  0.12330000  0.39640000  0.41290000  1.0 0.6261865156
C  C3601  1  0.62330000  0.35360000  0.33710000  1.0 0.6261865156
C  C3602  1  0.14640000  0.37330000  0.08710000  1.0 0.6261865156
C  C3603  1  0.66290000  0.12670000  0.60360000  1.0 0.6261865156
C  C3604  1  0.37330000  0.41290000  0.35360000  1.0 0.6261865156
C  C3605  1  0.66290000  0.12330000  0.14640000  1.0 0.6261865156
C  C3606  1  0.39640000  0.16290000  0.37330000  1.0 0.6261865156
C  C3607  1  0.08710000  0.12330000  0.10360000  1.0 0.6261865156
C  C3608  1  0.37670000  0.41290000  0.89640000  1.0 0.6261865156
C  C3609  1  0.33710000  0.14640000  0.12330000  1.0 0.6261865156
C  C3610  1  0.37670000  0.83710000  0.85360000  1.0 0.6261865156
C  C3611  1  0.08710000  0.12670000  0.64640000  1.0 0.6261865156
C  C3612  1  0.35360000  0.08710000  0.87330000  1.0 0.6261865156
C  C3613  1  0.37330000  0.83710000  0.39640000  1.0 0.6261865156
C  C3614  1  0.41290000  0.10360000  0.62330000  1.0 0.6261865156
C  C3615  1  0.39640000  0.08710000  0.37670000  1.0 0.6261865156
C  C3616  1  0.33710000  0.10360000  0.62670000  1.0 0.6261865156
C  C3617  1  0.35360000  0.16290000  0.87670000  1.0 0.6261865156
C  C3618  1  0.41290000  0.14640000  0.12670000  1.0 0.6261865156
C  C3619  1  0.62670000  0.89640000  0.33710000  1.0 0.6261865156
C  C3620  1  0.10360000  0.87670000  0.08710000  1.0 0.6261865156
C  C3621  1  0.14640000  0.87670000  0.66290000  1.0 0.6261865156
C  C3622  1  0.12670000  0.85360000  0.41290000  1.0 0.6261865156
C  C3623  1  0.60360000  0.87330000  0.66290000  1.0 0.6261865156
C  C3624  1  0.62330000  0.89640000  0.41290000  1.0 0.6261865156
C  C3625  1  0.12330000  0.85360000  0.33710000  1.0 0.6261865156
C  C3626  1  0.66290000  0.62670000  0.10360000  1.0 0.6261865156
C  C3627  1  0.37330000  0.91290000  0.85360000  1.0 0.6261865156
C  C3628  1  0.66290000  0.62330000  0.64640000  1.0 0.6261865156
C  C3629  1  0.39640000  0.66290000  0.87330000  1.0 0.6261865156
C  C3630  1  0.08710000  0.62330000  0.60360000  1.0 0.6261865156
C  C3631  1  0.37670000  0.91290000  0.39640000  1.0 0.6261865156
C  C3632  1  0.33710000  0.64640000  0.62330000  1.0 0.6261865156
C  C3633  1  0.37670000  0.33710000  0.35360000  1.0 0.6261865156
C  C3634  1  0.08710000  0.62670000  0.14640000  1.0 0.6261865156
C  C3635  1  0.35360000  0.58710000  0.37330000  1.0 0.6261865156
C  C3636  1  0.37330000  0.33710000  0.89640000  1.0 0.6261865156
C  C3637  1  0.41290000  0.60360000  0.12330000  1.0 0.6261865156
C  C3638  1  0.39640000  0.58710000  0.87670000  1.0 0.6261865156
C  C3639  1  0.33710000  0.60360000  0.12670000  1.0 0.6261865156
C  C3640  1  0.35360000  0.66290000  0.37670000  1.0 0.6261865156
C  C3641  1  0.41290000  0.64640000  0.62670000  1.0 0.6261865156
C  C3642  1  0.62670000  0.39640000  0.83710000  1.0 0.6261865156
C  C3643  1  0.10360000  0.37670000  0.58710000  1.0 0.6261865156
C  C3644  1  0.14640000  0.37670000  0.16290000  1.0 0.6261865156
C  C3645  1  0.12670000  0.35360000  0.91290000  1.0 0.6261865156
C  C3646  1  0.60360000  0.37330000  0.16290000  1.0 0.6261865156
C  C3647  1  0.62330000  0.39640000  0.91290000  1.0 0.6261865156
C  C3648  1  0.12330000  0.35360000  0.83710000  1.0 0.6261865156
C  C3649  1  0.77170000  0.88920000  0.87700000  1.0 0.6261865156
C  C3650  1  0.11080000  0.52170000  0.12700000  1.0 0.6261865156
C  C3651  1  0.77170000  0.86080000  0.37300000  1.0 0.6261865156
C  C3652  1  0.12300000  0.77170000  0.11080000  1.0 0.6261865156
C  C3653  1  0.47830000  0.86080000  0.37700000  1.0 0.6261865156
C  C3654  1  0.13920000  0.52170000  0.62300000  1.0 0.6261865156
C  C3655  1  0.22830000  0.87300000  0.36080000  1.0 0.6261865156
C  C3656  1  0.13920000  0.22830000  0.62700000  1.0 0.6261865156
C  C3657  1  0.47830000  0.88920000  0.87300000  1.0 0.6261865156
C  C3658  1  0.12700000  0.97830000  0.61080000  1.0 0.6261865156
C  C3659  1  0.11080000  0.22830000  0.12300000  1.0 0.6261865156
C  C3660  1  0.02170000  0.87700000  0.86080000  1.0 0.6261865156
C  C3661  1  0.12300000  0.97830000  0.13920000  1.0 0.6261865156
C  C3662  1  0.22830000  0.87700000  0.88920000  1.0 0.6261865156
C  C3663  1  0.12700000  0.77170000  0.63920000  1.0 0.6261865156
C  C3664  1  0.02170000  0.87300000  0.38920000  1.0 0.6261865156
C  C3665  1  0.88920000  0.12300000  0.22830000  1.0 0.6261865156
C  C3666  1  0.37300000  0.11080000  0.97830000  1.0 0.6261865156
C  C3667  1  0.37700000  0.13920000  0.47830000  1.0 0.6261865156
C  C3668  1  0.37300000  0.13920000  0.77170000  1.0 0.6261865156
C  C3669  1  0.38920000  0.12700000  0.02170000  1.0 0.6261865156
C  C3670  1  0.87700000  0.11080000  0.77170000  1.0 0.6261865156
C  C3671  1  0.86080000  0.12300000  0.02170000  1.0 0.6261865156
C  C3672  1  0.36080000  0.12700000  0.22830000  1.0 0.6261865156
C  C3673  1  0.87300000  0.11080000  0.47830000  1.0 0.6261865156
C  C3674  1  0.77170000  0.38920000  0.37700000  1.0 0.6261865156
C  C3675  1  0.11080000  0.02170000  0.62700000  1.0 0.6261865156
C  C3676  1  0.77170000  0.36080000  0.87300000  1.0 0.6261865156
C  C3677  1  0.12300000  0.27170000  0.61080000  1.0 0.6261865156
C  C3678  1  0.47830000  0.36080000  0.87700000  1.0 0.6261865156
C  C3679  1  0.13920000  0.02170000  0.12300000  1.0 0.6261865156
C  C3680  1  0.22830000  0.37300000  0.86080000  1.0 0.6261865156
C  C3681  1  0.13920000  0.72830000  0.12700000  1.0 0.6261865156
C  C3682  1  0.47830000  0.38920000  0.37300000  1.0 0.6261865156
C  C3683  1  0.12700000  0.47830000  0.11080000  1.0 0.6261865156
C  C3684  1  0.11080000  0.72830000  0.62300000  1.0 0.6261865156
C  C3685  1  0.02170000  0.37700000  0.36080000  1.0 0.6261865156
C  C3686  1  0.12300000  0.47830000  0.63920000  1.0 0.6261865156
C  C3687  1  0.22830000  0.37700000  0.38920000  1.0 0.6261865156
C  C3688  1  0.12700000  0.27170000  0.13920000  1.0 0.6261865156
C  C3689  1  0.02170000  0.37300000  0.88920000  1.0 0.6261865156
C  C3690  1  0.88920000  0.62300000  0.72830000  1.0 0.6261865156
C  C3691  1  0.37300000  0.61080000  0.47830000  1.0 0.6261865156
C  C3692  1  0.37700000  0.63920000  0.97830000  1.0 0.6261865156
C  C3693  1  0.37300000  0.63920000  0.27170000  1.0 0.6261865156
C  C3694  1  0.38920000  0.62700000  0.52170000  1.0 0.6261865156
C  C3695  1  0.87700000  0.61080000  0.27170000  1.0 0.6261865156
C  C3696  1  0.86080000  0.62300000  0.52170000  1.0 0.6261865156
C  C3697  1  0.36080000  0.62700000  0.72830000  1.0 0.6261865156
C  C3698  1  0.87300000  0.61080000  0.97830000  1.0 0.6261865156
C  C3699  1  0.27170000  0.88920000  0.37700000  1.0 0.6261865156
C  C3700  1  0.61080000  0.52170000  0.62700000  1.0 0.6261865156
C  C3701  1  0.27170000  0.86080000  0.87300000  1.0 0.6261865156
C  C3702  1  0.62300000  0.77170000  0.61080000  1.0 0.6261865156
C  C3703  1  0.97830000  0.86080000  0.87700000  1.0 0.6261865156
C  C3704  1  0.63920000  0.52170000  0.12300000  1.0 0.6261865156
C  C3705  1  0.72830000  0.87300000  0.86080000  1.0 0.6261865156
C  C3706  1  0.63920000  0.22830000  0.12700000  1.0 0.6261865156
C  C3707  1  0.97830000  0.88920000  0.37300000  1.0 0.6261865156
C  C3708  1  0.62700000  0.97830000  0.11080000  1.0 0.6261865156
C  C3709  1  0.61080000  0.22830000  0.62300000  1.0 0.6261865156
C  C3710  1  0.52170000  0.87700000  0.36080000  1.0 0.6261865156
C  C3711  1  0.62300000  0.97830000  0.63920000  1.0 0.6261865156
C  C3712  1  0.72830000  0.87700000  0.38920000  1.0 0.6261865156
C  C3713  1  0.62700000  0.77170000  0.13920000  1.0 0.6261865156
C  C3714  1  0.52170000  0.87300000  0.88920000  1.0 0.6261865156
C  C3715  1  0.38920000  0.12300000  0.72830000  1.0 0.6261865156
C  C3716  1  0.87700000  0.13920000  0.97830000  1.0 0.6261865156
C  C3717  1  0.87300000  0.13920000  0.27170000  1.0 0.6261865156
C  C3718  1  0.88920000  0.12700000  0.52170000  1.0 0.6261865156
C  C3719  1  0.37700000  0.11080000  0.27170000  1.0 0.6261865156
C  C3720  1  0.36080000  0.12300000  0.52170000  1.0 0.6261865156
C  C3721  1  0.86080000  0.12700000  0.72830000  1.0 0.6261865156
C  C3722  1  0.27170000  0.38920000  0.87700000  1.0 0.6261865156
C  C3723  1  0.61080000  0.02170000  0.12700000  1.0 0.6261865156
C  C3724  1  0.27170000  0.36080000  0.37300000  1.0 0.6261865156
C  C3725  1  0.62300000  0.27170000  0.11080000  1.0 0.6261865156
C  C3726  1  0.97830000  0.36080000  0.37700000  1.0 0.6261865156
C  C3727  1  0.63920000  0.02170000  0.62300000  1.0 0.6261865156
C  C3728  1  0.72830000  0.37300000  0.36080000  1.0 0.6261865156
C  C3729  1  0.63920000  0.72830000  0.62700000  1.0 0.6261865156
C  C3730  1  0.97830000  0.38920000  0.87300000  1.0 0.6261865156
C  C3731  1  0.62700000  0.47830000  0.61080000  1.0 0.6261865156
C  C3732  1  0.61080000  0.72830000  0.12300000  1.0 0.6261865156
C  C3733  1  0.52170000  0.37700000  0.86080000  1.0 0.6261865156
C  C3734  1  0.62300000  0.47830000  0.13920000  1.0 0.6261865156
C  C3735  1  0.72830000  0.37700000  0.88920000  1.0 0.6261865156
C  C3736  1  0.62700000  0.27170000  0.63920000  1.0 0.6261865156
C  C3737  1  0.52170000  0.37300000  0.38920000  1.0 0.6261865156
C  C3738  1  0.38920000  0.62300000  0.22830000  1.0 0.6261865156
C  C3739  1  0.87700000  0.63920000  0.47830000  1.0 0.6261865156
C  C3740  1  0.87300000  0.63920000  0.77170000  1.0 0.6261865156
C  C3741  1  0.88920000  0.62700000  0.02170000  1.0 0.6261865156
C  C3742  1  0.37700000  0.61080000  0.77170000  1.0 0.6261865156
C  C3743  1  0.36080000  0.62300000  0.02170000  1.0 0.6261865156
C  C3744  1  0.86080000  0.62700000  0.22830000  1.0 0.6261865156
C  C3745  1  0.22830000  0.11080000  0.12300000  1.0 0.6261865156
C  C3746  1  0.88920000  0.47830000  0.87300000  1.0 0.6261865156
C  C3747  1  0.22830000  0.13920000  0.62700000  1.0 0.6261865156
C  C3748  1  0.87700000  0.22830000  0.88920000  1.0 0.6261865156
C  C3749  1  0.52170000  0.13920000  0.62300000  1.0 0.6261865156
C  C3750  1  0.86080000  0.47830000  0.37700000  1.0 0.6261865156
C  C3751  1  0.77170000  0.12700000  0.63920000  1.0 0.6261865156
C  C3752  1  0.86080000  0.77170000  0.37300000  1.0 0.6261865156
C  C3753  1  0.52170000  0.11080000  0.12700000  1.0 0.6261865156
C  C3754  1  0.87300000  0.02170000  0.38920000  1.0 0.6261865156
C  C3755  1  0.88920000  0.77170000  0.87700000  1.0 0.6261865156
C  C3756  1  0.97830000  0.12300000  0.13920000  1.0 0.6261865156
C  C3757  1  0.87700000  0.02170000  0.86080000  1.0 0.6261865156
C  C3758  1  0.77170000  0.12300000  0.11080000  1.0 0.6261865156
C  C3759  1  0.87300000  0.22830000  0.36080000  1.0 0.6261865156
C  C3760  1  0.97830000  0.12700000  0.61080000  1.0 0.6261865156
C  C3761  1  0.11080000  0.87700000  0.77170000  1.0 0.6261865156
C  C3762  1  0.62700000  0.88920000  0.02170000  1.0 0.6261865156
C  C3763  1  0.62300000  0.86080000  0.52170000  1.0 0.6261865156
C  C3764  1  0.62700000  0.86080000  0.22830000  1.0 0.6261865156
C  C3765  1  0.61080000  0.87300000  0.97830000  1.0 0.6261865156
C  C3766  1  0.12300000  0.88920000  0.22830000  1.0 0.6261865156
C  C3767  1  0.13920000  0.87700000  0.97830000  1.0 0.6261865156
C  C3768  1  0.63920000  0.87300000  0.77170000  1.0 0.6261865156
C  C3769  1  0.12700000  0.88920000  0.52170000  1.0 0.6261865156
C  C3770  1  0.22830000  0.61080000  0.62300000  1.0 0.6261865156
C  C3771  1  0.88920000  0.97830000  0.37300000  1.0 0.6261865156
C  C3772  1  0.22830000  0.63920000  0.12700000  1.0 0.6261865156
C  C3773  1  0.87700000  0.72830000  0.38920000  1.0 0.6261865156
C  C3774  1  0.52170000  0.63920000  0.12300000  1.0 0.6261865156
C  C3775  1  0.86080000  0.97830000  0.87700000  1.0 0.6261865156
C  C3776  1  0.77170000  0.62700000  0.13920000  1.0 0.6261865156
C  C3777  1  0.86080000  0.27170000  0.87300000  1.0 0.6261865156
C  C3778  1  0.52170000  0.61080000  0.62700000  1.0 0.6261865156
C  C3779  1  0.87300000  0.52170000  0.88920000  1.0 0.6261865156
C  C3780  1  0.88920000  0.27170000  0.37700000  1.0 0.6261865156
C  C3781  1  0.97830000  0.62300000  0.63920000  1.0 0.6261865156
C  C3782  1  0.87700000  0.52170000  0.36080000  1.0 0.6261865156
C  C3783  1  0.77170000  0.62300000  0.61080000  1.0 0.6261865156
C  C3784  1  0.87300000  0.72830000  0.86080000  1.0 0.6261865156
C  C3785  1  0.97830000  0.62700000  0.11080000  1.0 0.6261865156
C  C3786  1  0.11080000  0.37700000  0.27170000  1.0 0.6261865156
C  C3787  1  0.62700000  0.38920000  0.52170000  1.0 0.6261865156
C  C3788  1  0.62300000  0.36080000  0.02170000  1.0 0.6261865156
C  C3789  1  0.62700000  0.36080000  0.72830000  1.0 0.6261865156
C  C3790  1  0.61080000  0.37300000  0.47830000  1.0 0.6261865156
C  C3791  1  0.12300000  0.38920000  0.72830000  1.0 0.6261865156
C  C3792  1  0.13920000  0.37700000  0.47830000  1.0 0.6261865156
C  C3793  1  0.63920000  0.37300000  0.27170000  1.0 0.6261865156
C  C3794  1  0.12700000  0.38920000  0.02170000  1.0 0.6261865156
C  C3795  1  0.72830000  0.11080000  0.62300000  1.0 0.6261865156
C  C3796  1  0.38920000  0.47830000  0.37300000  1.0 0.6261865156
C  C3797  1  0.72830000  0.13920000  0.12700000  1.0 0.6261865156
C  C3798  1  0.37700000  0.22830000  0.38920000  1.0 0.6261865156
C  C3799  1  0.02170000  0.13920000  0.12300000  1.0 0.6261865156
C  C3800  1  0.36080000  0.47830000  0.87700000  1.0 0.6261865156
C  C3801  1  0.27170000  0.12700000  0.13920000  1.0 0.6261865156
C  C3802  1  0.36080000  0.77170000  0.87300000  1.0 0.6261865156
C  C3803  1  0.02170000  0.11080000  0.62700000  1.0 0.6261865156
C  C3804  1  0.37300000  0.02170000  0.88920000  1.0 0.6261865156
C  C3805  1  0.38920000  0.77170000  0.37700000  1.0 0.6261865156
C  C3806  1  0.47830000  0.12300000  0.63920000  1.0 0.6261865156
C  C3807  1  0.37700000  0.02170000  0.36080000  1.0 0.6261865156
C  C3808  1  0.27170000  0.12300000  0.61080000  1.0 0.6261865156
C  C3809  1  0.37300000  0.22830000  0.86080000  1.0 0.6261865156
C  C3810  1  0.47830000  0.12700000  0.11080000  1.0 0.6261865156
C  C3811  1  0.61080000  0.87700000  0.27170000  1.0 0.6261865156
C  C3812  1  0.12300000  0.86080000  0.02170000  1.0 0.6261865156
C  C3813  1  0.12700000  0.86080000  0.72830000  1.0 0.6261865156
C  C3814  1  0.11080000  0.87300000  0.47830000  1.0 0.6261865156
C  C3815  1  0.62300000  0.88920000  0.72830000  1.0 0.6261865156
C  C3816  1  0.63920000  0.87700000  0.47830000  1.0 0.6261865156
C  C3817  1  0.13920000  0.87300000  0.27170000  1.0 0.6261865156
C  C3818  1  0.72830000  0.61080000  0.12300000  1.0 0.6261865156
C  C3819  1  0.38920000  0.97830000  0.87300000  1.0 0.6261865156
C  C3820  1  0.72830000  0.63920000  0.62700000  1.0 0.6261865156
C  C3821  1  0.37700000  0.72830000  0.88920000  1.0 0.6261865156
C  C3822  1  0.02170000  0.63920000  0.62300000  1.0 0.6261865156
C  C3823  1  0.36080000  0.97830000  0.37700000  1.0 0.6261865156
C  C3824  1  0.27170000  0.62700000  0.63920000  1.0 0.6261865156
C  C3825  1  0.36080000  0.27170000  0.37300000  1.0 0.6261865156
C  C3826  1  0.02170000  0.61080000  0.12700000  1.0 0.6261865156
C  C3827  1  0.37300000  0.52170000  0.38920000  1.0 0.6261865156
C  C3828  1  0.38920000  0.27170000  0.87700000  1.0 0.6261865156
C  C3829  1  0.47830000  0.62300000  0.13920000  1.0 0.6261865156
C  C3830  1  0.37700000  0.52170000  0.86080000  1.0 0.6261865156
C  C3831  1  0.27170000  0.62300000  0.11080000  1.0 0.6261865156
C  C3832  1  0.37300000  0.72830000  0.36080000  1.0 0.6261865156
C  C3833  1  0.47830000  0.62700000  0.61080000  1.0 0.6261865156
C  C3834  1  0.61080000  0.37700000  0.77170000  1.0 0.6261865156
C  C3835  1  0.12300000  0.36080000  0.52170000  1.0 0.6261865156
C  C3836  1  0.12700000  0.36080000  0.22830000  1.0 0.6261865156
C  C3837  1  0.11080000  0.37300000  0.97830000  1.0 0.6261865156
C  C3838  1  0.62300000  0.38920000  0.22830000  1.0 0.6261865156
C  C3839  1  0.63920000  0.37700000  0.97830000  1.0 0.6261865156
C  C3840  1  0.13920000  0.37300000  0.77170000  1.0 0.6261865156
C  C3841  1  0.80050000  0.91190000  0.93780000  1.0 0.6171373981
C  C3842  1  0.08810000  0.55050000  0.18780000  1.0 0.6171373981
C  C3843  1  0.80050000  0.83810000  0.31220000  1.0 0.6171373981
C  C3844  1  0.06220000  0.80050000  0.08810000  1.0 0.6171373981
C  C3845  1  0.44950000  0.83810000  0.43780000  1.0 0.6171373981
C  C3846  1  0.16190000  0.55050000  0.56220000  1.0 0.6171373981
C  C3847  1  0.19950000  0.81220000  0.33810000  1.0 0.6171373981
C  C3848  1  0.16190000  0.19950000  0.68780000  1.0 0.6171373981
C  C3849  1  0.44950000  0.91190000  0.81220000  1.0 0.6171373981
C  C3850  1  0.18780000  0.94950000  0.58810000  1.0 0.6171373981
C  C3851  1  0.08810000  0.19950000  0.06220000  1.0 0.6171373981
C  C3852  1  0.05050000  0.93780000  0.83810000  1.0 0.6171373981
C  C3853  1  0.06220000  0.94950000  0.16190000  1.0 0.6171373981
C  C3854  1  0.19950000  0.93780000  0.91190000  1.0 0.6171373981
C  C3855  1  0.18780000  0.80050000  0.66190000  1.0 0.6171373981
C  C3856  1  0.05050000  0.81220000  0.41190000  1.0 0.6171373981
C  C3857  1  0.91190000  0.06220000  0.19950000  1.0 0.6171373981
C  C3858  1  0.31220000  0.08810000  0.94950000  1.0 0.6171373981
C  C3859  1  0.43780000  0.16190000  0.44950000  1.0 0.6171373981
C  C3860  1  0.31220000  0.16190000  0.80050000  1.0 0.6171373981
C  C3861  1  0.41190000  0.18780000  0.05050000  1.0 0.6171373981
C  C3862  1  0.93780000  0.08810000  0.80050000  1.0 0.6171373981
C  C3863  1  0.83810000  0.06220000  0.05050000  1.0 0.6171373981
C  C3864  1  0.33810000  0.18780000  0.19950000  1.0 0.6171373981
C  C3865  1  0.81220000  0.08810000  0.44950000  1.0 0.6171373981
C  C3866  1  0.80050000  0.41190000  0.43780000  1.0 0.6171373981
C  C3867  1  0.08810000  0.05050000  0.68780000  1.0 0.6171373981
C  C3868  1  0.80050000  0.33810000  0.81220000  1.0 0.6171373981
C  C3869  1  0.06220000  0.30050000  0.58810000  1.0 0.6171373981
C  C3870  1  0.44950000  0.33810000  0.93780000  1.0 0.6171373981
C  C3871  1  0.16190000  0.05050000  0.06220000  1.0 0.6171373981
C  C3872  1  0.19950000  0.31220000  0.83810000  1.0 0.6171373981
C  C3873  1  0.16190000  0.69950000  0.18780000  1.0 0.6171373981
C  C3874  1  0.44950000  0.41190000  0.31220000  1.0 0.6171373981
C  C3875  1  0.18780000  0.44950000  0.08810000  1.0 0.6171373981
C  C3876  1  0.08810000  0.69950000  0.56220000  1.0 0.6171373981
C  C3877  1  0.05050000  0.43780000  0.33810000  1.0 0.6171373981
C  C3878  1  0.06220000  0.44950000  0.66190000  1.0 0.6171373981
C  C3879  1  0.19950000  0.43780000  0.41190000  1.0 0.6171373981
C  C3880  1  0.18780000  0.30050000  0.16190000  1.0 0.6171373981
C  C3881  1  0.05050000  0.31220000  0.91190000  1.0 0.6171373981
C  C3882  1  0.91190000  0.56220000  0.69950000  1.0 0.6171373981
C  C3883  1  0.31220000  0.58810000  0.44950000  1.0 0.6171373981
C  C3884  1  0.43780000  0.66190000  0.94950000  1.0 0.6171373981
C  C3885  1  0.31220000  0.66190000  0.30050000  1.0 0.6171373981
C  C3886  1  0.41190000  0.68780000  0.55050000  1.0 0.6171373981
C  C3887  1  0.93780000  0.58810000  0.30050000  1.0 0.6171373981
C  C3888  1  0.83810000  0.56220000  0.55050000  1.0 0.6171373981
C  C3889  1  0.33810000  0.68780000  0.69950000  1.0 0.6171373981
C  C3890  1  0.81220000  0.58810000  0.94950000  1.0 0.6171373981
C  C3891  1  0.30050000  0.91190000  0.43780000  1.0 0.6171373981
C  C3892  1  0.58810000  0.55050000  0.68780000  1.0 0.6171373981
C  C3893  1  0.30050000  0.83810000  0.81220000  1.0 0.6171373981
C  C3894  1  0.56220000  0.80050000  0.58810000  1.0 0.6171373981
C  C3895  1  0.94950000  0.83810000  0.93780000  1.0 0.6171373981
C  C3896  1  0.66190000  0.55050000  0.06220000  1.0 0.6171373981
C  C3897  1  0.69950000  0.81220000  0.83810000  1.0 0.6171373981
C  C3898  1  0.66190000  0.19950000  0.18780000  1.0 0.6171373981
C  C3899  1  0.94950000  0.91190000  0.31220000  1.0 0.6171373981
C  C3900  1  0.68780000  0.94950000  0.08810000  1.0 0.6171373981
C  C3901  1  0.58810000  0.19950000  0.56220000  1.0 0.6171373981
C  C3902  1  0.55050000  0.93780000  0.33810000  1.0 0.6171373981
C  C3903  1  0.56220000  0.94950000  0.66190000  1.0 0.6171373981
C  C3904  1  0.69950000  0.93780000  0.41190000  1.0 0.6171373981
C  C3905  1  0.68780000  0.80050000  0.16190000  1.0 0.6171373981
C  C3906  1  0.55050000  0.81220000  0.91190000  1.0 0.6171373981
C  C3907  1  0.41190000  0.06220000  0.69950000  1.0 0.6171373981
C  C3908  1  0.93780000  0.16190000  0.94950000  1.0 0.6171373981
C  C3909  1  0.81220000  0.16190000  0.30050000  1.0 0.6171373981
C  C3910  1  0.91190000  0.18780000  0.55050000  1.0 0.6171373981
C  C3911  1  0.43780000  0.08810000  0.30050000  1.0 0.6171373981
C  C3912  1  0.33810000  0.06220000  0.55050000  1.0 0.6171373981
C  C3913  1  0.83810000  0.18780000  0.69950000  1.0 0.6171373981
C  C3914  1  0.30050000  0.41190000  0.93780000  1.0 0.6171373981
C  C3915  1  0.58810000  0.05050000  0.18780000  1.0 0.6171373981
C  C3916  1  0.30050000  0.33810000  0.31220000  1.0 0.6171373981
C  C3917  1  0.56220000  0.30050000  0.08810000  1.0 0.6171373981
C  C3918  1  0.94950000  0.33810000  0.43780000  1.0 0.6171373981
C  C3919  1  0.66190000  0.05050000  0.56220000  1.0 0.6171373981
C  C3920  1  0.69950000  0.31220000  0.33810000  1.0 0.6171373981
C  C3921  1  0.66190000  0.69950000  0.68780000  1.0 0.6171373981
C  C3922  1  0.94950000  0.41190000  0.81220000  1.0 0.6171373981
C  C3923  1  0.68780000  0.44950000  0.58810000  1.0 0.6171373981
C  C3924  1  0.58810000  0.69950000  0.06220000  1.0 0.6171373981
C  C3925  1  0.55050000  0.43780000  0.83810000  1.0 0.6171373981
C  C3926  1  0.56220000  0.44950000  0.16190000  1.0 0.6171373981
C  C3927  1  0.69950000  0.43780000  0.91190000  1.0 0.6171373981
C  C3928  1  0.68780000  0.30050000  0.66190000  1.0 0.6171373981
C  C3929  1  0.55050000  0.31220000  0.41190000  1.0 0.6171373981
C  C3930  1  0.41190000  0.56220000  0.19950000  1.0 0.6171373981
C  C3931  1  0.93780000  0.66190000  0.44950000  1.0 0.6171373981
C  C3932  1  0.81220000  0.66190000  0.80050000  1.0 0.6171373981
C  C3933  1  0.91190000  0.68780000  0.05050000  1.0 0.6171373981
C  C3934  1  0.43780000  0.58810000  0.80050000  1.0 0.6171373981
C  C3935  1  0.33810000  0.56220000  0.05050000  1.0 0.6171373981
C  C3936  1  0.83810000  0.68780000  0.19950000  1.0 0.6171373981
C  C3937  1  0.19950000  0.08810000  0.06220000  1.0 0.6171373981
C  C3938  1  0.91190000  0.44950000  0.81220000  1.0 0.6171373981
C  C3939  1  0.19950000  0.16190000  0.68780000  1.0 0.6171373981
C  C3940  1  0.93780000  0.19950000  0.91190000  1.0 0.6171373981
C  C3941  1  0.55050000  0.16190000  0.56220000  1.0 0.6171373981
C  C3942  1  0.83810000  0.44950000  0.43780000  1.0 0.6171373981
C  C3943  1  0.80050000  0.18780000  0.66190000  1.0 0.6171373981
C  C3944  1  0.83810000  0.80050000  0.31220000  1.0 0.6171373981
C  C3945  1  0.55050000  0.08810000  0.18780000  1.0 0.6171373981
C  C3946  1  0.81220000  0.05050000  0.41190000  1.0 0.6171373981
C  C3947  1  0.91190000  0.80050000  0.93780000  1.0 0.6171373981
C  C3948  1  0.94950000  0.06220000  0.16190000  1.0 0.6171373981
C  C3949  1  0.93780000  0.05050000  0.83810000  1.0 0.6171373981
C  C3950  1  0.80050000  0.06220000  0.08810000  1.0 0.6171373981
C  C3951  1  0.81220000  0.19950000  0.33810000  1.0 0.6171373981
C  C3952  1  0.94950000  0.18780000  0.58810000  1.0 0.6171373981
C  C3953  1  0.08810000  0.93780000  0.80050000  1.0 0.6171373981
C  C3954  1  0.68780000  0.91190000  0.05050000  1.0 0.6171373981
C  C3955  1  0.56220000  0.83810000  0.55050000  1.0 0.6171373981
C  C3956  1  0.68780000  0.83810000  0.19950000  1.0 0.6171373981
C  C3957  1  0.58810000  0.81220000  0.94950000  1.0 0.6171373981
C  C3958  1  0.06220000  0.91190000  0.19950000  1.0 0.6171373981
C  C3959  1  0.16190000  0.93780000  0.94950000  1.0 0.6171373981
C  C3960  1  0.66190000  0.81220000  0.80050000  1.0 0.6171373981
C  C3961  1  0.18780000  0.91190000  0.55050000  1.0 0.6171373981
C  C3962  1  0.19950000  0.58810000  0.56220000  1.0 0.6171373981
C  C3963  1  0.91190000  0.94950000  0.31220000  1.0 0.6171373981
C  C3964  1  0.19950000  0.66190000  0.18780000  1.0 0.6171373981
C  C3965  1  0.93780000  0.69950000  0.41190000  1.0 0.6171373981
C  C3966  1  0.55050000  0.66190000  0.06220000  1.0 0.6171373981
C  C3967  1  0.83810000  0.94950000  0.93780000  1.0 0.6171373981
C  C3968  1  0.80050000  0.68780000  0.16190000  1.0 0.6171373981
C  C3969  1  0.83810000  0.30050000  0.81220000  1.0 0.6171373981
C  C3970  1  0.55050000  0.58810000  0.68780000  1.0 0.6171373981
C  C3971  1  0.81220000  0.55050000  0.91190000  1.0 0.6171373981
C  C3972  1  0.91190000  0.30050000  0.43780000  1.0 0.6171373981
C  C3973  1  0.94950000  0.56220000  0.66190000  1.0 0.6171373981
C  C3974  1  0.93780000  0.55050000  0.33810000  1.0 0.6171373981
C  C3975  1  0.80050000  0.56220000  0.58810000  1.0 0.6171373981
C  C3976  1  0.81220000  0.69950000  0.83810000  1.0 0.6171373981
C  C3977  1  0.94950000  0.68780000  0.08810000  1.0 0.6171373981
C  C3978  1  0.08810000  0.43780000  0.30050000  1.0 0.6171373981
C  C3979  1  0.68780000  0.41190000  0.55050000  1.0 0.6171373981
C  C3980  1  0.56220000  0.33810000  0.05050000  1.0 0.6171373981
C  C3981  1  0.68780000  0.33810000  0.69950000  1.0 0.6171373981
C  C3982  1  0.58810000  0.31220000  0.44950000  1.0 0.6171373981
C  C3983  1  0.06220000  0.41190000  0.69950000  1.0 0.6171373981
C  C3984  1  0.16190000  0.43780000  0.44950000  1.0 0.6171373981
C  C3985  1  0.66190000  0.31220000  0.30050000  1.0 0.6171373981
C  C3986  1  0.18780000  0.41190000  0.05050000  1.0 0.6171373981
C  C3987  1  0.69950000  0.08810000  0.56220000  1.0 0.6171373981
C  C3988  1  0.41190000  0.44950000  0.31220000  1.0 0.6171373981
C  C3989  1  0.69950000  0.16190000  0.18780000  1.0 0.6171373981
C  C3990  1  0.43780000  0.19950000  0.41190000  1.0 0.6171373981
C  C3991  1  0.05050000  0.16190000  0.06220000  1.0 0.6171373981
C  C3992  1  0.33810000  0.44950000  0.93780000  1.0 0.6171373981
C  C3993  1  0.30050000  0.18780000  0.16190000  1.0 0.6171373981
C  C3994  1  0.33810000  0.80050000  0.81220000  1.0 0.6171373981
C  C3995  1  0.05050000  0.08810000  0.68780000  1.0 0.6171373981
C  C3996  1  0.31220000  0.05050000  0.91190000  1.0 0.6171373981
C  C3997  1  0.41190000  0.80050000  0.43780000  1.0 0.6171373981
C  C3998  1  0.44950000  0.06220000  0.66190000  1.0 0.6171373981
C  C3999  1  0.43780000  0.05050000  0.33810000  1.0 0.6171373981
C  C4000  1  0.30050000  0.06220000  0.58810000  1.0 0.6171373981
C  C4001  1  0.31220000  0.19950000  0.83810000  1.0 0.6171373981
C  C4002  1  0.44950000  0.18780000  0.08810000  1.0 0.6171373981
C  C4003  1  0.58810000  0.93780000  0.30050000  1.0 0.6171373981
C  C4004  1  0.06220000  0.83810000  0.05050000  1.0 0.6171373981
C  C4005  1  0.18780000  0.83810000  0.69950000  1.0 0.6171373981
C  C4006  1  0.08810000  0.81220000  0.44950000  1.0 0.6171373981
C  C4007  1  0.56220000  0.91190000  0.69950000  1.0 0.6171373981
C  C4008  1  0.66190000  0.93780000  0.44950000  1.0 0.6171373981
C  C4009  1  0.16190000  0.81220000  0.30050000  1.0 0.6171373981
C  C4010  1  0.69950000  0.58810000  0.06220000  1.0 0.6171373981
C  C4011  1  0.41190000  0.94950000  0.81220000  1.0 0.6171373981
C  C4012  1  0.69950000  0.66190000  0.68780000  1.0 0.6171373981
C  C4013  1  0.43780000  0.69950000  0.91190000  1.0 0.6171373981
C  C4014  1  0.05050000  0.66190000  0.56220000  1.0 0.6171373981
C  C4015  1  0.33810000  0.94950000  0.43780000  1.0 0.6171373981
C  C4016  1  0.30050000  0.68780000  0.66190000  1.0 0.6171373981
C  C4017  1  0.33810000  0.30050000  0.31220000  1.0 0.6171373981
C  C4018  1  0.05050000  0.58810000  0.18780000  1.0 0.6171373981
C  C4019  1  0.31220000  0.55050000  0.41190000  1.0 0.6171373981
C  C4020  1  0.41190000  0.30050000  0.93780000  1.0 0.6171373981
C  C4021  1  0.44950000  0.56220000  0.16190000  1.0 0.6171373981
C  C4022  1  0.43780000  0.55050000  0.83810000  1.0 0.6171373981
C  C4023  1  0.30050000  0.56220000  0.08810000  1.0 0.6171373981
C  C4024  1  0.31220000  0.69950000  0.33810000  1.0 0.6171373981
C  C4025  1  0.44950000  0.68780000  0.58810000  1.0 0.6171373981
C  C4026  1  0.58810000  0.43780000  0.80050000  1.0 0.6171373981
C  C4027  1  0.06220000  0.33810000  0.55050000  1.0 0.6171373981
C  C4028  1  0.18780000  0.33810000  0.19950000  1.0 0.6171373981
C  C4029  1  0.08810000  0.31220000  0.94950000  1.0 0.6171373981
C  C4030  1  0.56220000  0.41190000  0.19950000  1.0 0.6171373981
C  C4031  1  0.66190000  0.43780000  0.94950000  1.0 0.6171373981
C  C4032  1  0.16190000  0.31220000  0.80050000  1.0 0.6171373981
C  C4033  1  0.77530000  0.97470000  0.85820000  1.0 0.0981836333
C  C4034  1  0.02530000  0.52530000  0.10820000  1.0 0.0981836333
C  C4035  1  0.77530000  0.77530000  0.39180000  1.0 0.0981836333
C  C4036  1  0.14180000  0.77530000  0.02530000  1.0 0.0981836333
C  C4037  1  0.47470000  0.77530000  0.35820000  1.0 0.0981836333
C  C4038  1  0.22470000  0.52530000  0.64180000  1.0 0.0981836333
C  C4039  1  0.22470000  0.89180000  0.27530000  1.0 0.0981836333
C  C4040  1  0.22470000  0.22470000  0.60820000  1.0 0.0981836333
C  C4041  1  0.47470000  0.97470000  0.89180000  1.0 0.0981836333
C  C4042  1  0.10820000  0.97470000  0.52530000  1.0 0.0981836333
C  C4043  1  0.02530000  0.22470000  0.14180000  1.0 0.0981836333
C  C4044  1  0.02530000  0.85820000  0.77530000  1.0 0.0981836333
C  C4045  1  0.14180000  0.97470000  0.22470000  1.0 0.0981836333
C  C4046  1  0.22470000  0.85820000  0.97470000  1.0 0.0981836333
C  C4047  1  0.10820000  0.77530000  0.72470000  1.0 0.0981836333
C  C4048  1  0.02530000  0.89180000  0.47470000  1.0 0.0981836333
C  C4049  1  0.97470000  0.14180000  0.22470000  1.0 0.0981836333
C  C4050  1  0.39180000  0.02530000  0.97470000  1.0 0.0981836333
C  C4051  1  0.35820000  0.22470000  0.47470000  1.0 0.0981836333
C  C4052  1  0.39180000  0.22470000  0.77530000  1.0 0.0981836333
C  C4053  1  0.47470000  0.10820000  0.02530000  1.0 0.0981836333
C  C4054  1  0.85820000  0.02530000  0.77530000  1.0 0.0981836333
C  C4055  1  0.77530000  0.14180000  0.02530000  1.0 0.0981836333
C  C4056  1  0.27530000  0.10820000  0.22470000  1.0 0.0981836333
C  C4057  1  0.89180000  0.02530000  0.47470000  1.0 0.0981836333
C  C4058  1  0.77530000  0.47470000  0.35820000  1.0 0.0981836333
C  C4059  1  0.02530000  0.02530000  0.60820000  1.0 0.0981836333
C  C4060  1  0.77530000  0.27530000  0.89180000  1.0 0.0981836333
C  C4061  1  0.14180000  0.27530000  0.52530000  1.0 0.0981836333
C  C4062  1  0.47470000  0.27530000  0.85820000  1.0 0.0981836333
C  C4063  1  0.22470000  0.02530000  0.14180000  1.0 0.0981836333
C  C4064  1  0.22470000  0.39180000  0.77530000  1.0 0.0981836333
C  C4065  1  0.22470000  0.72470000  0.10820000  1.0 0.0981836333
C  C4066  1  0.47470000  0.47470000  0.39180000  1.0 0.0981836333
C  C4067  1  0.10820000  0.47470000  0.02530000  1.0 0.0981836333
C  C4068  1  0.02530000  0.72470000  0.64180000  1.0 0.0981836333
C  C4069  1  0.02530000  0.35820000  0.27530000  1.0 0.0981836333
C  C4070  1  0.14180000  0.47470000  0.72470000  1.0 0.0981836333
C  C4071  1  0.22470000  0.35820000  0.47470000  1.0 0.0981836333
C  C4072  1  0.10820000  0.27530000  0.22470000  1.0 0.0981836333
C  C4073  1  0.02530000  0.39180000  0.97470000  1.0 0.0981836333
C  C4074  1  0.97470000  0.64180000  0.72470000  1.0 0.0981836333
C  C4075  1  0.39180000  0.52530000  0.47470000  1.0 0.0981836333
C  C4076  1  0.35820000  0.72470000  0.97470000  1.0 0.0981836333
C  C4077  1  0.39180000  0.72470000  0.27530000  1.0 0.0981836333
C  C4078  1  0.47470000  0.60820000  0.52530000  1.0 0.0981836333
C  C4079  1  0.85820000  0.52530000  0.27530000  1.0 0.0981836333
C  C4080  1  0.77530000  0.64180000  0.52530000  1.0 0.0981836333
C  C4081  1  0.27530000  0.60820000  0.72470000  1.0 0.0981836333
C  C4082  1  0.89180000  0.52530000  0.97470000  1.0 0.0981836333
C  C4083  1  0.27530000  0.97470000  0.35820000  1.0 0.0981836333
C  C4084  1  0.52530000  0.52530000  0.60820000  1.0 0.0981836333
C  C4085  1  0.27530000  0.77530000  0.89180000  1.0 0.0981836333
C  C4086  1  0.64180000  0.77530000  0.52530000  1.0 0.0981836333
C  C4087  1  0.97470000  0.77530000  0.85820000  1.0 0.0981836333
C  C4088  1  0.72470000  0.52530000  0.14180000  1.0 0.0981836333
C  C4089  1  0.72470000  0.89180000  0.77530000  1.0 0.0981836333
C  C4090  1  0.72470000  0.22470000  0.10820000  1.0 0.0981836333
C  C4091  1  0.97470000  0.97470000  0.39180000  1.0 0.0981836333
C  C4092  1  0.60820000  0.97470000  0.02530000  1.0 0.0981836333
C  C4093  1  0.52530000  0.22470000  0.64180000  1.0 0.0981836333
C  C4094  1  0.52530000  0.85820000  0.27530000  1.0 0.0981836333
C  C4095  1  0.64180000  0.97470000  0.72470000  1.0 0.0981836333
C  C4096  1  0.72470000  0.85820000  0.47470000  1.0 0.0981836333
C  C4097  1  0.60820000  0.77530000  0.22470000  1.0 0.0981836333
C  C4098  1  0.52530000  0.89180000  0.97470000  1.0 0.0981836333
C  C4099  1  0.47470000  0.14180000  0.72470000  1.0 0.0981836333
C  C4100  1  0.85820000  0.22470000  0.97470000  1.0 0.0981836333
C  C4101  1  0.89180000  0.22470000  0.27530000  1.0 0.0981836333
C  C4102  1  0.97470000  0.10820000  0.52530000  1.0 0.0981836333
C  C4103  1  0.35820000  0.02530000  0.27530000  1.0 0.0981836333
C  C4104  1  0.27530000  0.14180000  0.52530000  1.0 0.0981836333
C  C4105  1  0.77530000  0.10820000  0.72470000  1.0 0.0981836333
C  C4106  1  0.27530000  0.47470000  0.85820000  1.0 0.0981836333
C  C4107  1  0.52530000  0.02530000  0.10820000  1.0 0.0981836333
C  C4108  1  0.27530000  0.27530000  0.39180000  1.0 0.0981836333
C  C4109  1  0.64180000  0.27530000  0.02530000  1.0 0.0981836333
C  C4110  1  0.97470000  0.27530000  0.35820000  1.0 0.0981836333
C  C4111  1  0.72470000  0.02530000  0.64180000  1.0 0.0981836333
C  C4112  1  0.72470000  0.39180000  0.27530000  1.0 0.0981836333
C  C4113  1  0.72470000  0.72470000  0.60820000  1.0 0.0981836333
C  C4114  1  0.97470000  0.47470000  0.89180000  1.0 0.0981836333
C  C4115  1  0.60820000  0.47470000  0.52530000  1.0 0.0981836333
C  C4116  1  0.52530000  0.72470000  0.14180000  1.0 0.0981836333
C  C4117  1  0.52530000  0.35820000  0.77530000  1.0 0.0981836333
C  C4118  1  0.64180000  0.47470000  0.22470000  1.0 0.0981836333
C  C4119  1  0.72470000  0.35820000  0.97470000  1.0 0.0981836333
C  C4120  1  0.60820000  0.27530000  0.72470000  1.0 0.0981836333
C  C4121  1  0.52530000  0.39180000  0.47470000  1.0 0.0981836333
C  C4122  1  0.47470000  0.64180000  0.22470000  1.0 0.0981836333
C  C4123  1  0.85820000  0.72470000  0.47470000  1.0 0.0981836333
C  C4124  1  0.89180000  0.72470000  0.77530000  1.0 0.0981836333
C  C4125  1  0.97470000  0.60820000  0.02530000  1.0 0.0981836333
C  C4126  1  0.35820000  0.52530000  0.77530000  1.0 0.0981836333
C  C4127  1  0.27530000  0.64180000  0.02530000  1.0 0.0981836333
C  C4128  1  0.77530000  0.60820000  0.22470000  1.0 0.0981836333
C  C4129  1  0.78880000  0.98640000  0.89010000  1.0 0.1081238779
C  C4130  1  0.01360000  0.53880000  0.14010000  1.0 0.1081238779
C  C4131  1  0.78880000  0.76360000  0.35990000  1.0 0.1081238779
C  C4132  1  0.10990000  0.78880000  0.01360000  1.0 0.1081238779
C  C4133  1  0.46120000  0.76360000  0.39010000  1.0 0.1081238779
C  C4134  1  0.23640000  0.53880000  0.60990000  1.0 0.1081238779
C  C4135  1  0.21120000  0.85990000  0.26360000  1.0 0.1081238779
C  C4136  1  0.23640000  0.21120000  0.64010000  1.0 0.1081238779
C  C4137  1  0.46120000  0.98640000  0.85990000  1.0 0.1081238779
C  C4138  1  0.14010000  0.96120000  0.51360000  1.0 0.1081238779
C  C4139  1  0.01360000  0.21120000  0.10990000  1.0 0.1081238779
C  C4140  1  0.03880000  0.89010000  0.76360000  1.0 0.1081238779
C  C4141  1  0.10990000  0.96120000  0.23640000  1.0 0.1081238779
C  C4142  1  0.21120000  0.89010000  0.98640000  1.0 0.1081238779
C  C4143  1  0.14010000  0.78880000  0.73640000  1.0 0.1081238779
C  C4144  1  0.03880000  0.85990000  0.48640000  1.0 0.1081238779
C  C4145  1  0.98640000  0.10990000  0.21120000  1.0 0.1081238779
C  C4146  1  0.35990000  0.01360000  0.96120000  1.0 0.1081238779
C  C4147  1  0.39010000  0.23640000  0.46120000  1.0 0.1081238779
C  C4148  1  0.35990000  0.23640000  0.78880000  1.0 0.1081238779
C  C4149  1  0.48640000  0.14010000  0.03880000  1.0 0.1081238779
C  C4150  1  0.89010000  0.01360000  0.78880000  1.0 0.1081238779
C  C4151  1  0.76360000  0.10990000  0.03880000  1.0 0.1081238779
C  C4152  1  0.26360000  0.14010000  0.21120000  1.0 0.1081238779
C  C4153  1  0.85990000  0.01360000  0.46120000  1.0 0.1081238779
C  C4154  1  0.78880000  0.48640000  0.39010000  1.0 0.1081238779
C  C4155  1  0.01360000  0.03880000  0.64010000  1.0 0.1081238779
C  C4156  1  0.78880000  0.26360000  0.85990000  1.0 0.1081238779
C  C4157  1  0.10990000  0.28880000  0.51360000  1.0 0.1081238779
C  C4158  1  0.46120000  0.26360000  0.89010000  1.0 0.1081238779
C  C4159  1  0.23640000  0.03880000  0.10990000  1.0 0.1081238779
C  C4160  1  0.21120000  0.35990000  0.76360000  1.0 0.1081238779
C  C4161  1  0.23640000  0.71120000  0.14010000  1.0 0.1081238779
C  C4162  1  0.46120000  0.48640000  0.35990000  1.0 0.1081238779
C  C4163  1  0.14010000  0.46120000  0.01360000  1.0 0.1081238779
C  C4164  1  0.01360000  0.71120000  0.60990000  1.0 0.1081238779
C  C4165  1  0.03880000  0.39010000  0.26360000  1.0 0.1081238779
C  C4166  1  0.10990000  0.46120000  0.73640000  1.0 0.1081238779
C  C4167  1  0.21120000  0.39010000  0.48640000  1.0 0.1081238779
C  C4168  1  0.14010000  0.28880000  0.23640000  1.0 0.1081238779
C  C4169  1  0.03880000  0.35990000  0.98640000  1.0 0.1081238779
C  C4170  1  0.98640000  0.60990000  0.71120000  1.0 0.1081238779
C  C4171  1  0.35990000  0.51360000  0.46120000  1.0 0.1081238779
C  C4172  1  0.39010000  0.73640000  0.96120000  1.0 0.1081238779
C  C4173  1  0.35990000  0.73640000  0.28880000  1.0 0.1081238779
C  C4174  1  0.48640000  0.64010000  0.53880000  1.0 0.1081238779
C  C4175  1  0.89010000  0.51360000  0.28880000  1.0 0.1081238779
C  C4176  1  0.76360000  0.60990000  0.53880000  1.0 0.1081238779
C  C4177  1  0.26360000  0.64010000  0.71120000  1.0 0.1081238779
C  C4178  1  0.85990000  0.51360000  0.96120000  1.0 0.1081238779
C  C4179  1  0.28880000  0.98640000  0.39010000  1.0 0.1081238779
C  C4180  1  0.51360000  0.53880000  0.64010000  1.0 0.1081238779
C  C4181  1  0.28880000  0.76360000  0.85990000  1.0 0.1081238779
C  C4182  1  0.60990000  0.78880000  0.51360000  1.0 0.1081238779
C  C4183  1  0.96120000  0.76360000  0.89010000  1.0 0.1081238779
C  C4184  1  0.73640000  0.53880000  0.10990000  1.0 0.1081238779
C  C4185  1  0.71120000  0.85990000  0.76360000  1.0 0.1081238779
C  C4186  1  0.73640000  0.21120000  0.14010000  1.0 0.1081238779
C  C4187  1  0.96120000  0.98640000  0.35990000  1.0 0.1081238779
C  C4188  1  0.64010000  0.96120000  0.01360000  1.0 0.1081238779
C  C4189  1  0.51360000  0.21120000  0.60990000  1.0 0.1081238779
C  C4190  1  0.53880000  0.89010000  0.26360000  1.0 0.1081238779
C  C4191  1  0.60990000  0.96120000  0.73640000  1.0 0.1081238779
C  C4192  1  0.71120000  0.89010000  0.48640000  1.0 0.1081238779
C  C4193  1  0.64010000  0.78880000  0.23640000  1.0 0.1081238779
C  C4194  1  0.53880000  0.85990000  0.98640000  1.0 0.1081238779
C  C4195  1  0.48640000  0.10990000  0.71120000  1.0 0.1081238779
C  C4196  1  0.89010000  0.23640000  0.96120000  1.0 0.1081238779
C  C4197  1  0.85990000  0.23640000  0.28880000  1.0 0.1081238779
C  C4198  1  0.98640000  0.14010000  0.53880000  1.0 0.1081238779
C  C4199  1  0.39010000  0.01360000  0.28880000  1.0 0.1081238779
C  C4200  1  0.26360000  0.10990000  0.53880000  1.0 0.1081238779
C  C4201  1  0.76360000  0.14010000  0.71120000  1.0 0.1081238779
C  C4202  1  0.28880000  0.48640000  0.89010000  1.0 0.1081238779
C  C4203  1  0.51360000  0.03880000  0.14010000  1.0 0.1081238779
C  C4204  1  0.28880000  0.26360000  0.35990000  1.0 0.1081238779
C  C4205  1  0.60990000  0.28880000  0.01360000  1.0 0.1081238779
C  C4206  1  0.96120000  0.26360000  0.39010000  1.0 0.1081238779
C  C4207  1  0.73640000  0.03880000  0.60990000  1.0 0.1081238779
C  C4208  1  0.71120000  0.35990000  0.26360000  1.0 0.1081238779
C  C4209  1  0.73640000  0.71120000  0.64010000  1.0 0.1081238779
C  C4210  1  0.96120000  0.48640000  0.85990000  1.0 0.1081238779
C  C4211  1  0.64010000  0.46120000  0.51360000  1.0 0.1081238779
C  C4212  1  0.51360000  0.71120000  0.10990000  1.0 0.1081238779
C  C4213  1  0.53880000  0.39010000  0.76360000  1.0 0.1081238779
C  C4214  1  0.60990000  0.46120000  0.23640000  1.0 0.1081238779
C  C4215  1  0.71120000  0.39010000  0.98640000  1.0 0.1081238779
C  C4216  1  0.64010000  0.28880000  0.73640000  1.0 0.1081238779
C  C4217  1  0.53880000  0.35990000  0.48640000  1.0 0.1081238779
C  C4218  1  0.48640000  0.60990000  0.21120000  1.0 0.1081238779
C  C4219  1  0.89010000  0.73640000  0.46120000  1.0 0.1081238779
C  C4220  1  0.85990000  0.73640000  0.78880000  1.0 0.1081238779
C  C4221  1  0.98640000  0.64010000  0.03880000  1.0 0.1081238779
C  C4222  1  0.39010000  0.51360000  0.78880000  1.0 0.1081238779
C  C4223  1  0.26360000  0.60990000  0.03880000  1.0 0.1081238779
C  C4224  1  0.76360000  0.64010000  0.21120000  1.0 0.1081238779
C  C4225  1  0.21120000  0.01360000  0.10990000  1.0 0.1081238779
C  C4226  1  0.98640000  0.46120000  0.85990000  1.0 0.1081238779
C  C4227  1  0.21120000  0.23640000  0.64010000  1.0 0.1081238779
C  C4228  1  0.89010000  0.21120000  0.98640000  1.0 0.1081238779
C  C4229  1  0.53880000  0.23640000  0.60990000  1.0 0.1081238779
C  C4230  1  0.76360000  0.46120000  0.39010000  1.0 0.1081238779
C  C4231  1  0.78880000  0.14010000  0.73640000  1.0 0.1081238779
C  C4232  1  0.76360000  0.78880000  0.35990000  1.0 0.1081238779
C  C4233  1  0.53880000  0.01360000  0.14010000  1.0 0.1081238779
C  C4234  1  0.85990000  0.03880000  0.48640000  1.0 0.1081238779
C  C4235  1  0.98640000  0.78880000  0.89010000  1.0 0.1081238779
C  C4236  1  0.96120000  0.10990000  0.23640000  1.0 0.1081238779
C  C4237  1  0.89010000  0.03880000  0.76360000  1.0 0.1081238779
C  C4238  1  0.78880000  0.10990000  0.01360000  1.0 0.1081238779
C  C4239  1  0.85990000  0.21120000  0.26360000  1.0 0.1081238779
C  C4240  1  0.96120000  0.14010000  0.51360000  1.0 0.1081238779
C  C4241  1  0.01360000  0.89010000  0.78880000  1.0 0.1081238779
C  C4242  1  0.64010000  0.98640000  0.03880000  1.0 0.1081238779
C  C4243  1  0.60990000  0.76360000  0.53880000  1.0 0.1081238779
C  C4244  1  0.64010000  0.76360000  0.21120000  1.0 0.1081238779
C  C4245  1  0.51360000  0.85990000  0.96120000  1.0 0.1081238779
C  C4246  1  0.10990000  0.98640000  0.21120000  1.0 0.1081238779
C  C4247  1  0.23640000  0.89010000  0.96120000  1.0 0.1081238779
C  C4248  1  0.73640000  0.85990000  0.78880000  1.0 0.1081238779
C  C4249  1  0.14010000  0.98640000  0.53880000  1.0 0.1081238779
C  C4250  1  0.21120000  0.51360000  0.60990000  1.0 0.1081238779
C  C4251  1  0.98640000  0.96120000  0.35990000  1.0 0.1081238779
C  C4252  1  0.21120000  0.73640000  0.14010000  1.0 0.1081238779
C  C4253  1  0.89010000  0.71120000  0.48640000  1.0 0.1081238779
C  C4254  1  0.53880000  0.73640000  0.10990000  1.0 0.1081238779
C  C4255  1  0.76360000  0.96120000  0.89010000  1.0 0.1081238779
C  C4256  1  0.78880000  0.64010000  0.23640000  1.0 0.1081238779
C  C4257  1  0.76360000  0.28880000  0.85990000  1.0 0.1081238779
C  C4258  1  0.53880000  0.51360000  0.64010000  1.0 0.1081238779
C  C4259  1  0.85990000  0.53880000  0.98640000  1.0 0.1081238779
C  C4260  1  0.98640000  0.28880000  0.39010000  1.0 0.1081238779
C  C4261  1  0.96120000  0.60990000  0.73640000  1.0 0.1081238779
C  C4262  1  0.89010000  0.53880000  0.26360000  1.0 0.1081238779
C  C4263  1  0.78880000  0.60990000  0.51360000  1.0 0.1081238779
C  C4264  1  0.85990000  0.71120000  0.76360000  1.0 0.1081238779
C  C4265  1  0.96120000  0.64010000  0.01360000  1.0 0.1081238779
C  C4266  1  0.01360000  0.39010000  0.28880000  1.0 0.1081238779
C  C4267  1  0.64010000  0.48640000  0.53880000  1.0 0.1081238779
C  C4268  1  0.60990000  0.26360000  0.03880000  1.0 0.1081238779
C  C4269  1  0.64010000  0.26360000  0.71120000  1.0 0.1081238779
C  C4270  1  0.51360000  0.35990000  0.46120000  1.0 0.1081238779
C  C4271  1  0.10990000  0.48640000  0.71120000  1.0 0.1081238779
C  C4272  1  0.23640000  0.39010000  0.46120000  1.0 0.1081238779
C  C4273  1  0.73640000  0.35990000  0.28880000  1.0 0.1081238779
C  C4274  1  0.14010000  0.48640000  0.03880000  1.0 0.1081238779
C  C4275  1  0.71120000  0.01360000  0.60990000  1.0 0.1081238779
C  C4276  1  0.48640000  0.46120000  0.35990000  1.0 0.1081238779
C  C4277  1  0.71120000  0.23640000  0.14010000  1.0 0.1081238779
C  C4278  1  0.39010000  0.21120000  0.48640000  1.0 0.1081238779
C  C4279  1  0.03880000  0.23640000  0.10990000  1.0 0.1081238779
C  C4280  1  0.26360000  0.46120000  0.89010000  1.0 0.1081238779
C  C4281  1  0.28880000  0.14010000  0.23640000  1.0 0.1081238779
C  C4282  1  0.26360000  0.78880000  0.85990000  1.0 0.1081238779
C  C4283  1  0.03880000  0.01360000  0.64010000  1.0 0.1081238779
C  C4284  1  0.35990000  0.03880000  0.98640000  1.0 0.1081238779
C  C4285  1  0.48640000  0.78880000  0.39010000  1.0 0.1081238779
C  C4286  1  0.46120000  0.10990000  0.73640000  1.0 0.1081238779
C  C4287  1  0.39010000  0.03880000  0.26360000  1.0 0.1081238779
C  C4288  1  0.28880000  0.10990000  0.51360000  1.0 0.1081238779
C  C4289  1  0.35990000  0.21120000  0.76360000  1.0 0.1081238779
C  C4290  1  0.46120000  0.14010000  0.01360000  1.0 0.1081238779
C  C4291  1  0.51360000  0.89010000  0.28880000  1.0 0.1081238779
C  C4292  1  0.10990000  0.76360000  0.03880000  1.0 0.1081238779
C  C4293  1  0.14010000  0.76360000  0.71120000  1.0 0.1081238779
C  C4294  1  0.01360000  0.85990000  0.46120000  1.0 0.1081238779
C  C4295  1  0.60990000  0.98640000  0.71120000  1.0 0.1081238779
C  C4296  1  0.73640000  0.89010000  0.46120000  1.0 0.1081238779
C  C4297  1  0.23640000  0.85990000  0.28880000  1.0 0.1081238779
C  C4298  1  0.71120000  0.51360000  0.10990000  1.0 0.1081238779
C  C4299  1  0.48640000  0.96120000  0.85990000  1.0 0.1081238779
C  C4300  1  0.71120000  0.73640000  0.64010000  1.0 0.1081238779
C  C4301  1  0.39010000  0.71120000  0.98640000  1.0 0.1081238779
C  C4302  1  0.03880000  0.73640000  0.60990000  1.0 0.1081238779
C  C4303  1  0.26360000  0.96120000  0.39010000  1.0 0.1081238779
C  C4304  1  0.28880000  0.64010000  0.73640000  1.0 0.1081238779
C  C4305  1  0.26360000  0.28880000  0.35990000  1.0 0.1081238779
C  C4306  1  0.03880000  0.51360000  0.14010000  1.0 0.1081238779
C  C4307  1  0.35990000  0.53880000  0.48640000  1.0 0.1081238779
C  C4308  1  0.48640000  0.28880000  0.89010000  1.0 0.1081238779
C  C4309  1  0.46120000  0.60990000  0.23640000  1.0 0.1081238779
C  C4310  1  0.39010000  0.53880000  0.76360000  1.0 0.1081238779
C  C4311  1  0.28880000  0.60990000  0.01360000  1.0 0.1081238779
C  C4312  1  0.35990000  0.71120000  0.26360000  1.0 0.1081238779
C  C4313  1  0.46120000  0.64010000  0.51360000  1.0 0.1081238779
C  C4314  1  0.51360000  0.39010000  0.78880000  1.0 0.1081238779
C  C4315  1  0.10990000  0.26360000  0.53880000  1.0 0.1081238779
C  C4316  1  0.14010000  0.26360000  0.21120000  1.0 0.1081238779
C  C4317  1  0.01360000  0.35990000  0.96120000  1.0 0.1081238779
C  C4318  1  0.60990000  0.48640000  0.21120000  1.0 0.1081238779
C  C4319  1  0.73640000  0.39010000  0.96120000  1.0 0.1081238779
C  C4320  1  0.23640000  0.35990000  0.78880000  1.0 0.1081238779
C  C4321  1  0.78920000  0.98570000  0.86940000  1.0 -0.1656856015
C  C4322  1  0.01430000  0.53920000  0.11940000  1.0 -0.1656856015
C  C4323  1  0.78920000  0.76430000  0.38060000  1.0 -0.1656856015
C  C4324  1  0.13060000  0.78920000  0.01430000  1.0 -0.1656856015
C  C4325  1  0.46080000  0.76430000  0.36940000  1.0 -0.1656856015
C  C4326  1  0.23570000  0.53920000  0.63060000  1.0 -0.1656856015
C  C4327  1  0.21080000  0.88060000  0.26430000  1.0 -0.1656856015
C  C4328  1  0.23570000  0.21080000  0.61940000  1.0 -0.1656856015
C  C4329  1  0.46080000  0.98570000  0.88060000  1.0 -0.1656856015
C  C4330  1  0.11940000  0.96080000  0.51430000  1.0 -0.1656856015
C  C4331  1  0.01430000  0.21080000  0.13060000  1.0 -0.1656856015
C  C4332  1  0.03920000  0.86940000  0.76430000  1.0 -0.1656856015
C  C4333  1  0.13060000  0.96080000  0.23570000  1.0 -0.1647510124
C  C4334  1  0.21080000  0.86940000  0.98570000  1.0 -0.1656856015
C  C4335  1  0.11940000  0.78920000  0.73570000  1.0 -0.1656856015
C  C4336  1  0.03920000  0.88060000  0.48570000  1.0 -0.1656856015
C  C4337  1  0.98570000  0.13060000  0.21080000  1.0 -0.1647510124
C  C4338  1  0.38060000  0.01430000  0.96080000  1.0 -0.1656856015
C  C4339  1  0.36940000  0.23570000  0.46080000  1.0 -0.1656856015
C  C4340  1  0.38060000  0.23570000  0.78920000  1.0 -0.1656856015
C  C4341  1  0.48570000  0.11940000  0.03920000  1.0 -0.1656856015
C  C4342  1  0.86940000  0.01430000  0.78920000  1.0 -0.1656856015
C  C4343  1  0.76430000  0.13060000  0.03920000  1.0 -0.1656856015
C  C4344  1  0.26430000  0.11940000  0.21080000  1.0 -0.1656856015
C  C4345  1  0.88060000  0.01430000  0.46080000  1.0 -0.1656856015
C  C4346  1  0.78920000  0.48570000  0.36940000  1.0 -0.1656856015
C  C4347  1  0.01430000  0.03920000  0.61940000  1.0 -0.1656856015
C  C4348  1  0.78920000  0.26430000  0.88060000  1.0 -0.1656856015
C  C4349  1  0.13060000  0.28920000  0.51430000  1.0 -0.1656856015
C  C4350  1  0.46080000  0.26430000  0.86940000  1.0 -0.1656856015
C  C4351  1  0.23570000  0.03920000  0.13060000  1.0 -0.1647510124
C  C4352  1  0.21080000  0.38060000  0.76430000  1.0 -0.1656856015
C  C4353  1  0.23570000  0.71080000  0.11940000  1.0 -0.1647510124
C  C4354  1  0.46080000  0.48570000  0.38060000  1.0 -0.1656856015
C  C4355  1  0.11940000  0.46080000  0.01430000  1.0 -0.1656856015
C  C4356  1  0.01430000  0.71080000  0.63060000  1.0 -0.1656856015
C  C4357  1  0.03920000  0.36940000  0.26430000  1.0 -0.1656856015
C  C4358  1  0.13060000  0.46080000  0.73570000  1.0 -0.1656856015
C  C4359  1  0.21080000  0.36940000  0.48570000  1.0 -0.1656856015
C  C4360  1  0.11940000  0.28920000  0.23570000  1.0 -0.1647510124
C  C4361  1  0.03920000  0.38060000  0.98570000  1.0 -0.1656856015
C  C4362  1  0.98570000  0.63060000  0.71080000  1.0 -0.1656856015
C  C4363  1  0.38060000  0.51430000  0.46080000  1.0 -0.1656856015
C  C4364  1  0.36940000  0.73570000  0.96080000  1.0 -0.1656856015
C  C4365  1  0.38060000  0.73570000  0.28920000  1.0 -0.1656856015
C  C4366  1  0.48570000  0.61940000  0.53920000  1.0 -0.1656856015
C  C4367  1  0.86940000  0.51430000  0.28920000  1.0 -0.1656856015
C  C4368  1  0.76430000  0.63060000  0.53920000  1.0 -0.1656856015
C  C4369  1  0.26430000  0.61940000  0.71080000  1.0 -0.1656856015
C  C4370  1  0.88060000  0.51430000  0.96080000  1.0 -0.1656856015
C  C4371  1  0.28920000  0.98570000  0.36940000  1.0 -0.1656856015
C  C4372  1  0.51430000  0.53920000  0.61940000  1.0 -0.1656856015
C  C4373  1  0.28920000  0.76430000  0.88060000  1.0 -0.1656856015
C  C4374  1  0.63060000  0.78920000  0.51430000  1.0 -0.1656856015
C  C4375  1  0.96080000  0.76430000  0.86940000  1.0 -0.1656856015
C  C4376  1  0.73570000  0.53920000  0.13060000  1.0 -0.1656856015
C  C4377  1  0.71080000  0.88060000  0.76430000  1.0 -0.1656856015
C  C4378  1  0.73570000  0.21080000  0.11940000  1.0 -0.1656856015
C  C4379  1  0.96080000  0.98570000  0.38060000  1.0 -0.1656856015
C  C4380  1  0.61940000  0.96080000  0.01430000  1.0 -0.1656856015
C  C4381  1  0.51430000  0.21080000  0.63060000  1.0 -0.1656856015
C  C4382  1  0.53920000  0.86940000  0.26430000  1.0 -0.1656856015
C  C4383  1  0.63060000  0.96080000  0.73570000  1.0 -0.1656856015
C  C4384  1  0.71080000  0.86940000  0.48570000  1.0 -0.1656856015
C  C4385  1  0.61940000  0.78920000  0.23570000  1.0 -0.1656856015
C  C4386  1  0.53920000  0.88060000  0.98570000  1.0 -0.1656856015
C  C4387  1  0.48570000  0.13060000  0.71080000  1.0 -0.1656856015
C  C4388  1  0.86940000  0.23570000  0.96080000  1.0 -0.1656856015
C  C4389  1  0.88060000  0.23570000  0.28920000  1.0 -0.1656856015
C  C4390  1  0.98570000  0.11940000  0.53920000  1.0 -0.1656856015
C  C4391  1  0.36940000  0.01430000  0.28920000  1.0 -0.1656856015
C  C4392  1  0.26430000  0.13060000  0.53920000  1.0 -0.1656856015
C  C4393  1  0.76430000  0.11940000  0.71080000  1.0 -0.1656856015
C  C4394  1  0.28920000  0.48570000  0.86940000  1.0 -0.1656856015
C  C4395  1  0.51430000  0.03920000  0.11940000  1.0 -0.1656856015
C  C4396  1  0.28920000  0.26430000  0.38060000  1.0 -0.1656856015
C  C4397  1  0.63060000  0.28920000  0.01430000  1.0 -0.1656856015
C  C4398  1  0.96080000  0.26430000  0.36940000  1.0 -0.1656856015
C  C4399  1  0.73570000  0.03920000  0.63060000  1.0 -0.1656856015
C  C4400  1  0.71080000  0.38060000  0.26430000  1.0 -0.1656856015
C  C4401  1  0.73570000  0.71080000  0.61940000  1.0 -0.1656856015
C  C4402  1  0.96080000  0.48570000  0.88060000  1.0 -0.1656856015
C  C4403  1  0.61940000  0.46080000  0.51430000  1.0 -0.1656856015
C  C4404  1  0.51430000  0.71080000  0.13060000  1.0 -0.1656856015
C  C4405  1  0.53920000  0.36940000  0.76430000  1.0 -0.1656856015
C  C4406  1  0.63060000  0.46080000  0.23570000  1.0 -0.1656856015
C  C4407  1  0.71080000  0.36940000  0.98570000  1.0 -0.1656856015
C  C4408  1  0.61940000  0.28920000  0.73570000  1.0 -0.1656856015
C  C4409  1  0.53920000  0.38060000  0.48570000  1.0 -0.1656856015
C  C4410  1  0.48570000  0.63060000  0.21080000  1.0 -0.1656856015
C  C4411  1  0.86940000  0.73570000  0.46080000  1.0 -0.1656856015
C  C4412  1  0.88060000  0.73570000  0.78920000  1.0 -0.1656856015
C  C4413  1  0.98570000  0.61940000  0.03920000  1.0 -0.1647510124
C  C4414  1  0.36940000  0.51430000  0.78920000  1.0 -0.1656856015
C  C4415  1  0.26430000  0.63060000  0.03920000  1.0 -0.1647510124
C  C4416  1  0.76430000  0.61940000  0.21080000  1.0 -0.1656856015
C  C4417  1  0.21080000  0.01430000  0.13060000  1.0 -0.1656856015
C  C4418  1  0.98570000  0.46080000  0.88060000  1.0 -0.1656856015
C  C4419  1  0.21080000  0.23570000  0.61940000  1.0 -0.1656856015
C  C4420  1  0.86940000  0.21080000  0.98570000  1.0 -0.1656856015
C  C4421  1  0.53920000  0.23570000  0.63060000  1.0 -0.1656856015
C  C4422  1  0.76430000  0.46080000  0.36940000  1.0 -0.1656856015
C  C4423  1  0.78920000  0.11940000  0.73570000  1.0 -0.1656856015
C  C4424  1  0.76430000  0.78920000  0.38060000  1.0 -0.1656856015
C  C4425  1  0.53920000  0.01430000  0.11940000  1.0 -0.1656856015
C  C4426  1  0.88060000  0.03920000  0.48570000  1.0 -0.1656856015
C  C4427  1  0.98570000  0.78920000  0.86940000  1.0 -0.1656856015
C  C4428  1  0.96080000  0.13060000  0.23570000  1.0 -0.1656856015
C  C4429  1  0.86940000  0.03920000  0.76430000  1.0 -0.1656856015
C  C4430  1  0.78920000  0.13060000  0.01430000  1.0 -0.1656856015
C  C4431  1  0.88060000  0.21080000  0.26430000  1.0 -0.1656856015
C  C4432  1  0.96080000  0.11940000  0.51430000  1.0 -0.1656856015
C  C4433  1  0.01430000  0.86940000  0.78920000  1.0 -0.1656856015
C  C4434  1  0.61940000  0.98570000  0.03920000  1.0 -0.1656856015
C  C4435  1  0.63060000  0.76430000  0.53920000  1.0 -0.1656856015
C  C4436  1  0.61940000  0.76430000  0.21080000  1.0 -0.1656856015
C  C4437  1  0.51430000  0.88060000  0.96080000  1.0 -0.1656856015
C  C4438  1  0.13060000  0.98570000  0.21080000  1.0 -0.1656856015
C  C4439  1  0.23570000  0.86940000  0.96080000  1.0 -0.1656856015
C  C4440  1  0.73570000  0.88060000  0.78920000  1.0 -0.1656856015
C  C4441  1  0.11940000  0.98570000  0.53920000  1.0 -0.1656856015
C  C4442  1  0.21080000  0.51430000  0.63060000  1.0 -0.1656856015
C  C4443  1  0.98570000  0.96080000  0.38060000  1.0 -0.1647510124
C  C4444  1  0.21080000  0.73570000  0.11940000  1.0 -0.1647510124
C  C4445  1  0.86940000  0.71080000  0.48570000  1.0 -0.1656856015
C  C4446  1  0.53920000  0.73570000  0.13060000  1.0 -0.1656856015
C  C4447  1  0.76430000  0.96080000  0.86940000  1.0 -0.1656856015
C  C4448  1  0.78920000  0.61940000  0.23570000  1.0 -0.1656856015
C  C4449  1  0.76430000  0.28920000  0.88060000  1.0 -0.1656856015
C  C4450  1  0.53920000  0.51430000  0.61940000  1.0 -0.1656856015
C  C4451  1  0.88060000  0.53920000  0.98570000  1.0 -0.1656856015
C  C4452  1  0.98570000  0.28920000  0.36940000  1.0 -0.1647510124
C  C4453  1  0.96080000  0.63060000  0.73570000  1.0 -0.1656856015
C  C4454  1  0.86940000  0.53920000  0.26430000  1.0 -0.1656856015
C  C4455  1  0.78920000  0.63060000  0.51430000  1.0 -0.1656856015
C  C4456  1  0.88060000  0.71080000  0.76430000  1.0 -0.1656856015
C  C4457  1  0.96080000  0.61940000  0.01430000  1.0 -0.1656856015
C  C4458  1  0.01430000  0.36940000  0.28920000  1.0 -0.1656856015
C  C4459  1  0.61940000  0.48570000  0.53920000  1.0 -0.1656856015
C  C4460  1  0.63060000  0.26430000  0.03920000  1.0 -0.1656856015
C  C4461  1  0.61940000  0.26430000  0.71080000  1.0 -0.1656856015
C  C4462  1  0.51430000  0.38060000  0.46080000  1.0 -0.1656856015
C  C4463  1  0.13060000  0.48570000  0.71080000  1.0 -0.1656856015
C  C4464  1  0.23570000  0.36940000  0.46080000  1.0 -0.1656856015
C  C4465  1  0.73570000  0.38060000  0.28920000  1.0 -0.1656856015
C  C4466  1  0.11940000  0.48570000  0.03920000  1.0 -0.1647510124
C  C4467  1  0.71080000  0.01430000  0.63060000  1.0 -0.1656856015
C  C4468  1  0.48570000  0.46080000  0.38060000  1.0 -0.1656856015
C  C4469  1  0.71080000  0.23570000  0.11940000  1.0 -0.1656856015
C  C4470  1  0.36940000  0.21080000  0.48570000  1.0 -0.1656856015
C  C4471  1  0.03920000  0.23570000  0.13060000  1.0 -0.1656856015
C  C4472  1  0.26430000  0.46080000  0.86940000  1.0 -0.1656856015
C  C4473  1  0.28920000  0.11940000  0.23570000  1.0 -0.1656856015
C  C4474  1  0.26430000  0.78920000  0.88060000  1.0 -0.1656856015
C  C4475  1  0.03920000  0.01430000  0.61940000  1.0 -0.1656856015
C  C4476  1  0.38060000  0.03920000  0.98570000  1.0 -0.1656856015
C  C4477  1  0.48570000  0.78920000  0.36940000  1.0 -0.1656856015
C  C4478  1  0.46080000  0.13060000  0.73570000  1.0 -0.1656856015
C  C4479  1  0.36940000  0.03920000  0.26430000  1.0 -0.1656856015
C  C4480  1  0.28920000  0.13060000  0.51430000  1.0 -0.1656856015
C  C4481  1  0.38060000  0.21080000  0.76430000  1.0 -0.1656856015
C  C4482  1  0.46080000  0.11940000  0.01430000  1.0 -0.1656856015
C  C4483  1  0.51430000  0.86940000  0.28920000  1.0 -0.1656856015
C  C4484  1  0.13060000  0.76430000  0.03920000  1.0 -0.1647510124
C  C4485  1  0.11940000  0.76430000  0.71080000  1.0 -0.1656856015
C  C4486  1  0.01430000  0.88060000  0.46080000  1.0 -0.1656856015
C  C4487  1  0.63060000  0.98570000  0.71080000  1.0 -0.1656856015
C  C4488  1  0.73570000  0.86940000  0.46080000  1.0 -0.1656856015
C  C4489  1  0.23570000  0.88060000  0.28920000  1.0 -0.1656856015
C  C4490  1  0.71080000  0.51430000  0.13060000  1.0 -0.1656856015
C  C4491  1  0.48570000  0.96080000  0.88060000  1.0 -0.1656856015
C  C4492  1  0.71080000  0.73570000  0.61940000  1.0 -0.1656856015
C  C4493  1  0.36940000  0.71080000  0.98570000  1.0 -0.1656856015
C  C4494  1  0.03920000  0.73570000  0.63060000  1.0 -0.1656856015
C  C4495  1  0.26430000  0.96080000  0.36940000  1.0 -0.1656856015
C  C4496  1  0.28920000  0.61940000  0.73570000  1.0 -0.1656856015
C  C4497  1  0.26430000  0.28920000  0.38060000  1.0 -0.1656856015
C  C4498  1  0.03920000  0.51430000  0.11940000  1.0 -0.1656856015
C  C4499  1  0.38060000  0.53920000  0.48570000  1.0 -0.1656856015
C  C4500  1  0.48570000  0.28920000  0.86940000  1.0 -0.1656856015
C  C4501  1  0.46080000  0.63060000  0.23570000  1.0 -0.1656856015
C  C4502  1  0.36940000  0.53920000  0.76430000  1.0 -0.1656856015
C  C4503  1  0.28920000  0.63060000  0.01430000  1.0 -0.1656856015
C  C4504  1  0.38060000  0.71080000  0.26430000  1.0 -0.1656856015
C  C4505  1  0.46080000  0.61940000  0.51430000  1.0 -0.1656856015
C  C4506  1  0.51430000  0.36940000  0.78920000  1.0 -0.1656856015
C  C4507  1  0.13060000  0.26430000  0.53920000  1.0 -0.1656856015
C  C4508  1  0.11940000  0.26430000  0.21080000  1.0 -0.1656856015
C  C4509  1  0.01430000  0.38060000  0.96080000  1.0 -0.1656856015
C  C4510  1  0.63060000  0.48570000  0.21080000  1.0 -0.1656856015
C  C4511  1  0.73570000  0.36940000  0.96080000  1.0 -0.1656856015
C  C4512  1  0.23570000  0.38060000  0.78920000  1.0 -0.1656856015
C  C4513  1  0.78010000  0.96990000  0.89870000  1.0 -0.1812128888
C  C4514  1  0.03010000  0.53010000  0.14870000  1.0 -0.1812128888
C  C4515  1  0.78010000  0.78010000  0.35130000  1.0 -0.1812128888
C  C4516  1  0.10130000  0.78010000  0.03010000  1.0 -0.1812128888
C  C4517  1  0.46990000  0.78010000  0.39870000  1.0 -0.1812128888
C  C4518  1  0.21990000  0.53010000  0.60130000  1.0 -0.1812128888
C  C4519  1  0.21990000  0.85130000  0.28010000  1.0 -0.1812128888
C  C4520  1  0.21990000  0.21990000  0.64870000  1.0 -0.1812128888
C  C4521  1  0.46990000  0.96990000  0.85130000  1.0 -0.1812128888
C  C4522  1  0.14870000  0.96990000  0.53010000  1.0 -0.1812128888
C  C4523  1  0.03010000  0.21990000  0.10130000  1.0 -0.1812128888
C  C4524  1  0.03010000  0.89870000  0.78010000  1.0 -0.1812128888
C  C4525  1  0.10130000  0.96990000  0.21990000  1.0 -0.1812128888
C  C4526  1  0.21990000  0.89870000  0.96990000  1.0 -0.1812128888
C  C4527  1  0.14870000  0.78010000  0.71990000  1.0 -0.1812128888
C  C4528  1  0.03010000  0.85130000  0.46990000  1.0 -0.1812128888
C  C4529  1  0.96990000  0.10130000  0.21990000  1.0 -0.1812128888
C  C4530  1  0.35130000  0.03010000  0.96990000  1.0 -0.1812128888
C  C4531  1  0.39870000  0.21990000  0.46990000  1.0 -0.1812128888
C  C4532  1  0.35130000  0.21990000  0.78010000  1.0 -0.1812128888
C  C4533  1  0.46990000  0.14870000  0.03010000  1.0 -0.1812128888
C  C4534  1  0.89870000  0.03010000  0.78010000  1.0 -0.1812128888
C  C4535  1  0.78010000  0.10130000  0.03010000  1.0 -0.1812128888
C  C4536  1  0.28010000  0.14870000  0.21990000  1.0 -0.1812128888
C  C4537  1  0.85130000  0.03010000  0.46990000  1.0 -0.1812128888
C  C4538  1  0.78010000  0.46990000  0.39870000  1.0 -0.1812128888
C  C4539  1  0.03010000  0.03010000  0.64870000  1.0 -0.1812128888
C  C4540  1  0.78010000  0.28010000  0.85130000  1.0 -0.1812128888
C  C4541  1  0.10130000  0.28010000  0.53010000  1.0 -0.1812128888
C  C4542  1  0.46990000  0.28010000  0.89870000  1.0 -0.1812128888
C  C4543  1  0.21990000  0.03010000  0.10130000  1.0 -0.1812128888
C  C4544  1  0.21990000  0.35130000  0.78010000  1.0 -0.1812128888
C  C4545  1  0.21990000  0.71990000  0.14870000  1.0 -0.1812128888
C  C4546  1  0.46990000  0.46990000  0.35130000  1.0 -0.1812128888
C  C4547  1  0.14870000  0.46990000  0.03010000  1.0 -0.1812128888
C  C4548  1  0.03010000  0.71990000  0.60130000  1.0 -0.1812128888
C  C4549  1  0.03010000  0.39870000  0.28010000  1.0 -0.1812128888
C  C4550  1  0.10130000  0.46990000  0.71990000  1.0 -0.1812128888
C  C4551  1  0.21990000  0.39870000  0.46990000  1.0 -0.1812128888
C  C4552  1  0.14870000  0.28010000  0.21990000  1.0 -0.1812128888
C  C4553  1  0.03010000  0.35130000  0.96990000  1.0 -0.1812128888
C  C4554  1  0.96990000  0.60130000  0.71990000  1.0 -0.1812128888
C  C4555  1  0.35130000  0.53010000  0.46990000  1.0 -0.1812128888
C  C4556  1  0.39870000  0.71990000  0.96990000  1.0 -0.1812128888
C  C4557  1  0.35130000  0.71990000  0.28010000  1.0 -0.1812128888
C  C4558  1  0.46990000  0.64870000  0.53010000  1.0 -0.1812128888
C  C4559  1  0.89870000  0.53010000  0.28010000  1.0 -0.1812128888
C  C4560  1  0.78010000  0.60130000  0.53010000  1.0 -0.1812128888
C  C4561  1  0.28010000  0.64870000  0.71990000  1.0 -0.1812128888
C  C4562  1  0.85130000  0.53010000  0.96990000  1.0 -0.1812128888
C  C4563  1  0.28010000  0.96990000  0.39870000  1.0 -0.1812128888
C  C4564  1  0.53010000  0.53010000  0.64870000  1.0 -0.1812128888
C  C4565  1  0.28010000  0.78010000  0.85130000  1.0 -0.1812128888
C  C4566  1  0.60130000  0.78010000  0.53010000  1.0 -0.1812128888
C  C4567  1  0.96990000  0.78010000  0.89870000  1.0 -0.1812128888
C  C4568  1  0.71990000  0.53010000  0.10130000  1.0 -0.1812128888
C  C4569  1  0.71990000  0.85130000  0.78010000  1.0 -0.1812128888
C  C4570  1  0.71990000  0.21990000  0.14870000  1.0 -0.1812128888
C  C4571  1  0.96990000  0.96990000  0.35130000  1.0 -0.1812128888
C  C4572  1  0.64870000  0.96990000  0.03010000  1.0 -0.1812128888
C  C4573  1  0.53010000  0.21990000  0.60130000  1.0 -0.1812128888
C  C4574  1  0.53010000  0.89870000  0.28010000  1.0 -0.1812128888
C  C4575  1  0.60130000  0.96990000  0.71990000  1.0 -0.1812128888
C  C4576  1  0.71990000  0.89870000  0.46990000  1.0 -0.1812128888
C  C4577  1  0.64870000  0.78010000  0.21990000  1.0 -0.1812128888
C  C4578  1  0.53010000  0.85130000  0.96990000  1.0 -0.1812128888
C  C4579  1  0.46990000  0.10130000  0.71990000  1.0 -0.1812128888
C  C4580  1  0.89870000  0.21990000  0.96990000  1.0 -0.1812128888
C  C4581  1  0.85130000  0.21990000  0.28010000  1.0 -0.1812128888
C  C4582  1  0.96990000  0.14870000  0.53010000  1.0 -0.1812128888
C  C4583  1  0.39870000  0.03010000  0.28010000  1.0 -0.1812128888
C  C4584  1  0.28010000  0.10130000  0.53010000  1.0 -0.1812128888
C  C4585  1  0.78010000  0.14870000  0.71990000  1.0 -0.1812128888
C  C4586  1  0.28010000  0.46990000  0.89870000  1.0 -0.1812128888
C  C4587  1  0.53010000  0.03010000  0.14870000  1.0 -0.1812128888
C  C4588  1  0.28010000  0.28010000  0.35130000  1.0 -0.1812128888
C  C4589  1  0.60130000  0.28010000  0.03010000  1.0 -0.1812128888
C  C4590  1  0.96990000  0.28010000  0.39870000  1.0 -0.1812128888
C  C4591  1  0.71990000  0.03010000  0.60130000  1.0 -0.1812128888
C  C4592  1  0.71990000  0.35130000  0.28010000  1.0 -0.1812128888
C  C4593  1  0.71990000  0.71990000  0.64870000  1.0 -0.1812128888
C  C4594  1  0.96990000  0.46990000  0.85130000  1.0 -0.1812128888
C  C4595  1  0.64870000  0.46990000  0.53010000  1.0 -0.1812128888
C  C4596  1  0.53010000  0.71990000  0.10130000  1.0 -0.1812128888
C  C4597  1  0.53010000  0.39870000  0.78010000  1.0 -0.1812128888
C  C4598  1  0.60130000  0.46990000  0.21990000  1.0 -0.1812128888
C  C4599  1  0.71990000  0.39870000  0.96990000  1.0 -0.1812128888
C  C4600  1  0.64870000  0.28010000  0.71990000  1.0 -0.1812128888
C  C4601  1  0.53010000  0.35130000  0.46990000  1.0 -0.1812128888
C  C4602  1  0.46990000  0.60130000  0.21990000  1.0 -0.1812128888
C  C4603  1  0.89870000  0.71990000  0.46990000  1.0 -0.1812128888
C  C4604  1  0.85130000  0.71990000  0.78010000  1.0 -0.1812128888
C  C4605  1  0.96990000  0.64870000  0.03010000  1.0 -0.1812128888
C  C4606  1  0.39870000  0.53010000  0.78010000  1.0 -0.1812128888
C  C4607  1  0.28010000  0.60130000  0.03010000  1.0 -0.1812128888
C  C4608  1  0.78010000  0.64870000  0.21990000  1.0 -0.1812128888
C  C4609  1  0.78310000  0.96690000  0.91950000  1.0 0.6171373981
C  C4610  1  0.03310000  0.53310000  0.16950000  1.0 0.6171373981
C  C4611  1  0.78310000  0.78310000  0.33050000  1.0 0.6171373981
C  C4612  1  0.08050000  0.78310000  0.03310000  1.0 0.6171373981
C  C4613  1  0.46690000  0.78310000  0.41950000  1.0 0.6171373981
C  C4614  1  0.21690000  0.53310000  0.58050000  1.0 0.6171373981
C  C4615  1  0.21690000  0.83050000  0.28310000  1.0 0.6171373981
C  C4616  1  0.21690000  0.21690000  0.66950000  1.0 0.6171373981
C  C4617  1  0.46690000  0.96690000  0.83050000  1.0 0.6171373981
C  C4618  1  0.16950000  0.96690000  0.53310000  1.0 0.6171373981
C  C4619  1  0.03310000  0.21690000  0.08050000  1.0 0.6171373981
C  C4620  1  0.03310000  0.91950000  0.78310000  1.0 0.6171373981
C  C4621  1  0.08050000  0.96690000  0.21690000  1.0 0.6171373981
C  C4622  1  0.21690000  0.91950000  0.96690000  1.0 0.6171373981
C  C4623  1  0.16950000  0.78310000  0.71690000  1.0 0.6171373981
C  C4624  1  0.03310000  0.83050000  0.46690000  1.0 0.6171373981
C  C4625  1  0.96690000  0.08050000  0.21690000  1.0 0.6171373981
C  C4626  1  0.33050000  0.03310000  0.96690000  1.0 0.6171373981
C  C4627  1  0.41950000  0.21690000  0.46690000  1.0 0.6171373981
C  C4628  1  0.33050000  0.21690000  0.78310000  1.0 0.6171373981
C  C4629  1  0.46690000  0.16950000  0.03310000  1.0 0.6171373981
C  C4630  1  0.91950000  0.03310000  0.78310000  1.0 0.6171373981
C  C4631  1  0.78310000  0.08050000  0.03310000  1.0 0.6171373981
C  C4632  1  0.28310000  0.16950000  0.21690000  1.0 0.6171373981
C  C4633  1  0.83050000  0.03310000  0.46690000  1.0 0.6171373981
C  C4634  1  0.78310000  0.46690000  0.41950000  1.0 0.6171373981
C  C4635  1  0.03310000  0.03310000  0.66950000  1.0 0.6171373981
C  C4636  1  0.78310000  0.28310000  0.83050000  1.0 0.6171373981
C  C4637  1  0.08050000  0.28310000  0.53310000  1.0 0.6171373981
C  C4638  1  0.46690000  0.28310000  0.91950000  1.0 0.6171373981
C  C4639  1  0.21690000  0.03310000  0.08050000  1.0 0.6171373981
C  C4640  1  0.21690000  0.33050000  0.78310000  1.0 0.6171373981
C  C4641  1  0.21690000  0.71690000  0.16950000  1.0 0.6171373981
C  C4642  1  0.46690000  0.46690000  0.33050000  1.0 0.6171373981
C  C4643  1  0.16950000  0.46690000  0.03310000  1.0 0.6171373981
C  C4644  1  0.03310000  0.71690000  0.58050000  1.0 0.6171373981
C  C4645  1  0.03310000  0.41950000  0.28310000  1.0 0.6171373981
C  C4646  1  0.08050000  0.46690000  0.71690000  1.0 0.6171373981
C  C4647  1  0.21690000  0.41950000  0.46690000  1.0 0.6171373981
C  C4648  1  0.16950000  0.28310000  0.21690000  1.0 0.6171373981
C  C4649  1  0.03310000  0.33050000  0.96690000  1.0 0.6171373981
C  C4650  1  0.96690000  0.58050000  0.71690000  1.0 0.6171373981
C  C4651  1  0.33050000  0.53310000  0.46690000  1.0 0.6171373981
C  C4652  1  0.41950000  0.71690000  0.96690000  1.0 0.6171373981
C  C4653  1  0.33050000  0.71690000  0.28310000  1.0 0.6171373981
C  C4654  1  0.46690000  0.66950000  0.53310000  1.0 0.6171373981
C  C4655  1  0.91950000  0.53310000  0.28310000  1.0 0.6171373981
C  C4656  1  0.78310000  0.58050000  0.53310000  1.0 0.6171373981
C  C4657  1  0.28310000  0.66950000  0.71690000  1.0 0.6171373981
C  C4658  1  0.83050000  0.53310000  0.96690000  1.0 0.6171373981
C  C4659  1  0.28310000  0.96690000  0.41950000  1.0 0.6171373981
C  C4660  1  0.53310000  0.53310000  0.66950000  1.0 0.6171373981
C  C4661  1  0.28310000  0.78310000  0.83050000  1.0 0.6171373981
C  C4662  1  0.58050000  0.78310000  0.53310000  1.0 0.6171373981
C  C4663  1  0.96690000  0.78310000  0.91950000  1.0 0.6171373981
C  C4664  1  0.71690000  0.53310000  0.08050000  1.0 0.6171373981
C  C4665  1  0.71690000  0.83050000  0.78310000  1.0 0.6171373981
C  C4666  1  0.71690000  0.21690000  0.16950000  1.0 0.6171373981
C  C4667  1  0.96690000  0.96690000  0.33050000  1.0 0.6171373981
C  C4668  1  0.66950000  0.96690000  0.03310000  1.0 0.6171373981
C  C4669  1  0.53310000  0.21690000  0.58050000  1.0 0.6171373981
C  C4670  1  0.53310000  0.91950000  0.28310000  1.0 0.6171373981
C  C4671  1  0.58050000  0.96690000  0.71690000  1.0 0.6171373981
C  C4672  1  0.71690000  0.91950000  0.46690000  1.0 0.6171373981
C  C4673  1  0.66950000  0.78310000  0.21690000  1.0 0.6171373981
C  C4674  1  0.53310000  0.83050000  0.96690000  1.0 0.6171373981
C  C4675  1  0.46690000  0.08050000  0.71690000  1.0 0.6171373981
C  C4676  1  0.91950000  0.21690000  0.96690000  1.0 0.6171373981
C  C4677  1  0.83050000  0.21690000  0.28310000  1.0 0.6171373981
C  C4678  1  0.96690000  0.16950000  0.53310000  1.0 0.6171373981
C  C4679  1  0.41950000  0.03310000  0.28310000  1.0 0.6171373981
C  C4680  1  0.28310000  0.08050000  0.53310000  1.0 0.6171373981
C  C4681  1  0.78310000  0.16950000  0.71690000  1.0 0.6171373981
C  C4682  1  0.28310000  0.46690000  0.91950000  1.0 0.6171373981
C  C4683  1  0.53310000  0.03310000  0.16950000  1.0 0.6171373981
C  C4684  1  0.28310000  0.28310000  0.33050000  1.0 0.6171373981
C  C4685  1  0.58050000  0.28310000  0.03310000  1.0 0.6171373981
C  C4686  1  0.96690000  0.28310000  0.41950000  1.0 0.6171373981
C  C4687  1  0.71690000  0.03310000  0.58050000  1.0 0.6171373981
C  C4688  1  0.71690000  0.33050000  0.28310000  1.0 0.6171373981
C  C4689  1  0.71690000  0.71690000  0.66950000  1.0 0.6171373981
C  C4690  1  0.96690000  0.46690000  0.83050000  1.0 0.6171373981
C  C4691  1  0.66950000  0.46690000  0.53310000  1.0 0.6171373981
C  C4692  1  0.53310000  0.71690000  0.08050000  1.0 0.6171373981
C  C4693  1  0.53310000  0.41950000  0.78310000  1.0 0.6171373981
C  C4694  1  0.58050000  0.46690000  0.21690000  1.0 0.6171373981
C  C4695  1  0.71690000  0.41950000  0.96690000  1.0 0.6171373981
C  C4696  1  0.66950000  0.28310000  0.71690000  1.0 0.6171373981
C  C4697  1  0.53310000  0.33050000  0.46690000  1.0 0.6171373981
C  C4698  1  0.46690000  0.58050000  0.21690000  1.0 0.6171373981
C  C4699  1  0.91950000  0.71690000  0.46690000  1.0 0.6171373981
C  C4700  1  0.83050000  0.71690000  0.78310000  1.0 0.6171373981
C  C4701  1  0.96690000  0.66950000  0.03310000  1.0 0.6171373981
C  C4702  1  0.41950000  0.53310000  0.78310000  1.0 0.6171373981
C  C4703  1  0.28310000  0.58050000  0.03310000  1.0 0.6171373981
C  C4704  1  0.78310000  0.66950000  0.21690000  1.0 0.6171373981
C  C4705  1  0.94730000  0.75290000  0.85940000  1.0 0.6171373981
C  C4706  1  0.24710000  0.69730000  0.10940000  1.0 0.6171373981
C  C4707  1  0.94730000  0.99710000  0.39060000  1.0 0.6171373981
C  C4708  1  0.14060000  0.94730000  0.24710000  1.0 0.6171373981
C  C4709  1  0.30270000  0.99710000  0.35940000  1.0 0.6171373981
C  C4710  1  0.00290000  0.69730000  0.64060000  1.0 0.6171373981
C  C4711  1  0.05270000  0.89060000  0.49710000  1.0 0.6171373981
C  C4712  1  0.00290000  0.05270000  0.60940000  1.0 0.6171373981
C  C4713  1  0.30270000  0.75290000  0.89060000  1.0 0.6171373981
C  C4714  1  0.10940000  0.80270000  0.74710000  1.0 0.6171373981
C  C4715  1  0.24710000  0.05270000  0.14060000  1.0 0.6171373981
C  C4716  1  0.19730000  0.85940000  0.99710000  1.0 0.6171373981
C  C4717  1  0.14060000  0.80270000  0.00290000  1.0 0.6171373981
C  C4718  1  0.05270000  0.85940000  0.75290000  1.0 0.6171373981
C  C4719  1  0.10940000  0.94730000  0.50290000  1.0 0.6171373981
C  C4720  1  0.19730000  0.89060000  0.25290000  1.0 0.6171373981
C  C4721  1  0.75290000  0.14060000  0.05270000  1.0 0.6171373981
C  C4722  1  0.39060000  0.24710000  0.80270000  1.0 0.6171373981
C  C4723  1  0.35940000  0.00290000  0.30270000  1.0 0.6171373981
C  C4724  1  0.39060000  0.00290000  0.94730000  1.0 0.6171373981
C  C4725  1  0.25290000  0.10940000  0.19730000  1.0 0.6171373981
C  C4726  1  0.85940000  0.24710000  0.94730000  1.0 0.6171373981
C  C4727  1  0.99710000  0.14060000  0.19730000  1.0 0.6171373981
C  C4728  1  0.49710000  0.10940000  0.05270000  1.0 0.6171373981
C  C4729  1  0.89060000  0.24710000  0.30270000  1.0 0.6171373981
C  C4730  1  0.94730000  0.25290000  0.35940000  1.0 0.6171373981
C  C4731  1  0.24710000  0.19730000  0.60940000  1.0 0.6171373981
C  C4732  1  0.94730000  0.49710000  0.89060000  1.0 0.6171373981
C  C4733  1  0.14060000  0.44730000  0.74710000  1.0 0.6171373981
C  C4734  1  0.30270000  0.49710000  0.85940000  1.0 0.6171373981
C  C4735  1  0.00290000  0.19730000  0.14060000  1.0 0.6171373981
C  C4736  1  0.05270000  0.39060000  0.99710000  1.0 0.6171373981
C  C4737  1  0.00290000  0.55270000  0.10940000  1.0 0.6171373981
C  C4738  1  0.30270000  0.25290000  0.39060000  1.0 0.6171373981
C  C4739  1  0.10940000  0.30270000  0.24710000  1.0 0.6171373981
C  C4740  1  0.24710000  0.55270000  0.64060000  1.0 0.6171373981
C  C4741  1  0.19730000  0.35940000  0.49710000  1.0 0.6171373981
C  C4742  1  0.14060000  0.30270000  0.50290000  1.0 0.6171373981
C  C4743  1  0.05270000  0.35940000  0.25290000  1.0 0.6171373981
C  C4744  1  0.10940000  0.44730000  0.00290000  1.0 0.6171373981
C  C4745  1  0.19730000  0.39060000  0.75290000  1.0 0.6171373981
C  C4746  1  0.75290000  0.64060000  0.55270000  1.0 0.6171373981
C  C4747  1  0.39060000  0.74710000  0.30270000  1.0 0.6171373981
C  C4748  1  0.35940000  0.50290000  0.80270000  1.0 0.6171373981
C  C4749  1  0.39060000  0.50290000  0.44730000  1.0 0.6171373981
C  C4750  1  0.25290000  0.60940000  0.69730000  1.0 0.6171373981
C  C4751  1  0.85940000  0.74710000  0.44730000  1.0 0.6171373981
C  C4752  1  0.99710000  0.64060000  0.69730000  1.0 0.6171373981
C  C4753  1  0.49710000  0.60940000  0.55270000  1.0 0.6171373981
C  C4754  1  0.89060000  0.74710000  0.80270000  1.0 0.6171373981
C  C4755  1  0.44730000  0.75290000  0.35940000  1.0 0.6171373981
C  C4756  1  0.74710000  0.69730000  0.60940000  1.0 0.6171373981
C  C4757  1  0.44730000  0.99710000  0.89060000  1.0 0.6171373981
C  C4758  1  0.64060000  0.94730000  0.74710000  1.0 0.6171373981
C  C4759  1  0.80270000  0.99710000  0.85940000  1.0 0.6171373981
C  C4760  1  0.50290000  0.69730000  0.14060000  1.0 0.6171373981
C  C4761  1  0.55270000  0.89060000  0.99710000  1.0 0.6171373981
C  C4762  1  0.50290000  0.05270000  0.10940000  1.0 0.6171373981
C  C4763  1  0.80270000  0.75290000  0.39060000  1.0 0.6171373981
C  C4764  1  0.60940000  0.80270000  0.24710000  1.0 0.6171373981
C  C4765  1  0.74710000  0.05270000  0.64060000  1.0 0.6171373981
C  C4766  1  0.69730000  0.85940000  0.49710000  1.0 0.6171373981
C  C4767  1  0.64060000  0.80270000  0.50290000  1.0 0.6171373981
C  C4768  1  0.55270000  0.85940000  0.25290000  1.0 0.6171373981
C  C4769  1  0.60940000  0.94730000  0.00290000  1.0 0.6171373981
C  C4770  1  0.69730000  0.89060000  0.75290000  1.0 0.6171373981
C  C4771  1  0.25290000  0.14060000  0.55270000  1.0 0.6171373981
C  C4772  1  0.85940000  0.00290000  0.80270000  1.0 0.6171373981
C  C4773  1  0.89060000  0.00290000  0.44730000  1.0 0.6171373981
C  C4774  1  0.75290000  0.10940000  0.69730000  1.0 0.6171373981
C  C4775  1  0.35940000  0.24710000  0.44730000  1.0 0.6171373981
C  C4776  1  0.49710000  0.14060000  0.69730000  1.0 0.6171373981
C  C4777  1  0.99710000  0.10940000  0.55270000  1.0 0.6171373981
C  C4778  1  0.44730000  0.25290000  0.85940000  1.0 0.6171373981
C  C4779  1  0.74710000  0.19730000  0.10940000  1.0 0.6171373981
C  C4780  1  0.44730000  0.49710000  0.39060000  1.0 0.6171373981
C  C4781  1  0.64060000  0.44730000  0.24710000  1.0 0.6171373981
C  C4782  1  0.80270000  0.49710000  0.35940000  1.0 0.6171373981
C  C4783  1  0.50290000  0.19730000  0.64060000  1.0 0.6171373981
C  C4784  1  0.55270000  0.39060000  0.49710000  1.0 0.6171373981
C  C4785  1  0.50290000  0.55270000  0.60940000  1.0 0.6171373981
C  C4786  1  0.80270000  0.25290000  0.89060000  1.0 0.6171373981
C  C4787  1  0.60940000  0.30270000  0.74710000  1.0 0.6171373981
C  C4788  1  0.74710000  0.55270000  0.14060000  1.0 0.6171373981
C  C4789  1  0.69730000  0.35940000  0.99710000  1.0 0.6171373981
C  C4790  1  0.64060000  0.30270000  0.00290000  1.0 0.6171373981
C  C4791  1  0.55270000  0.35940000  0.75290000  1.0 0.6171373981
C  C4792  1  0.60940000  0.44730000  0.50290000  1.0 0.6171373981
C  C4793  1  0.69730000  0.39060000  0.25290000  1.0 0.6171373981
C  C4794  1  0.25290000  0.64060000  0.05270000  1.0 0.6171373981
C  C4795  1  0.85940000  0.50290000  0.30270000  1.0 0.6171373981
C  C4796  1  0.89060000  0.50290000  0.94730000  1.0 0.6171373981
C  C4797  1  0.75290000  0.60940000  0.19730000  1.0 0.6171373981
C  C4798  1  0.35940000  0.74710000  0.94730000  1.0 0.6171373981
C  C4799  1  0.49710000  0.64060000  0.19730000  1.0 0.6171373981
C  C4800  1  0.99710000  0.60940000  0.05270000  1.0 0.6171373981
C  C4801  1  0.05270000  0.24710000  0.14060000  1.0 0.6171373981
C  C4802  1  0.75290000  0.30270000  0.89060000  1.0 0.6171373981
C  C4803  1  0.05270000  0.00290000  0.60940000  1.0 0.6171373981
C  C4804  1  0.85940000  0.05270000  0.75290000  1.0 0.6171373981
C  C4805  1  0.69730000  0.00290000  0.64060000  1.0 0.6171373981
C  C4806  1  0.99710000  0.30270000  0.35940000  1.0 0.6171373981
C  C4807  1  0.94730000  0.10940000  0.50290000  1.0 0.6171373981
C  C4808  1  0.99710000  0.94730000  0.39060000  1.0 0.6171373981
C  C4809  1  0.69730000  0.24710000  0.10940000  1.0 0.6171373981
C  C4810  1  0.89060000  0.19730000  0.25290000  1.0 0.6171373981
C  C4811  1  0.75290000  0.94730000  0.85940000  1.0 0.6171373981
C  C4812  1  0.80270000  0.14060000  0.00290000  1.0 0.6171373981
C  C4813  1  0.85940000  0.19730000  0.99710000  1.0 0.6171373981
C  C4814  1  0.94730000  0.14060000  0.24710000  1.0 0.6171373981
C  C4815  1  0.89060000  0.05270000  0.49710000  1.0 0.6171373981
C  C4816  1  0.80270000  0.10940000  0.74710000  1.0 0.6171373981
C  C4817  1  0.24710000  0.85940000  0.94730000  1.0 0.6171373981
C  C4818  1  0.60940000  0.75290000  0.19730000  1.0 0.6171373981
C  C4819  1  0.64060000  0.99710000  0.69730000  1.0 0.6171373981
C  C4820  1  0.60940000  0.99710000  0.05270000  1.0 0.6171373981
C  C4821  1  0.74710000  0.89060000  0.80270000  1.0 0.6171373981
C  C4822  1  0.14060000  0.75290000  0.05270000  1.0 0.6171373981
C  C4823  1  0.00290000  0.85940000  0.80270000  1.0 0.6171373981
C  C4824  1  0.50290000  0.89060000  0.94730000  1.0 0.6171373981
C  C4825  1  0.10940000  0.75290000  0.69730000  1.0 0.6171373981
C  C4826  1  0.05270000  0.74710000  0.64060000  1.0 0.6171373981
C  C4827  1  0.75290000  0.80270000  0.39060000  1.0 0.6171373981
C  C4828  1  0.05270000  0.50290000  0.10940000  1.0 0.6171373981
C  C4829  1  0.85940000  0.55270000  0.25290000  1.0 0.6171373981
C  C4830  1  0.69730000  0.50290000  0.14060000  1.0 0.6171373981
C  C4831  1  0.99710000  0.80270000  0.85940000  1.0 0.6171373981
C  C4832  1  0.94730000  0.60940000  0.00290000  1.0 0.6171373981
C  C4833  1  0.99710000  0.44730000  0.89060000  1.0 0.6171373981
C  C4834  1  0.69730000  0.74710000  0.60940000  1.0 0.6171373981
C  C4835  1  0.89060000  0.69730000  0.75290000  1.0 0.6171373981
C  C4836  1  0.75290000  0.44730000  0.35940000  1.0 0.6171373981
C  C4837  1  0.80270000  0.64060000  0.50290000  1.0 0.6171373981
C  C4838  1  0.85940000  0.69730000  0.49710000  1.0 0.6171373981
C  C4839  1  0.94730000  0.64060000  0.74710000  1.0 0.6171373981
C  C4840  1  0.89060000  0.55270000  0.99710000  1.0 0.6171373981
C  C4841  1  0.80270000  0.60940000  0.24710000  1.0 0.6171373981
C  C4842  1  0.24710000  0.35940000  0.44730000  1.0 0.6171373981
C  C4843  1  0.60940000  0.25290000  0.69730000  1.0 0.6171373981
C  C4844  1  0.64060000  0.49710000  0.19730000  1.0 0.6171373981
C  C4845  1  0.60940000  0.49710000  0.55270000  1.0 0.6171373981
C  C4846  1  0.74710000  0.39060000  0.30270000  1.0 0.6171373981
C  C4847  1  0.14060000  0.25290000  0.55270000  1.0 0.6171373981
C  C4848  1  0.00290000  0.35940000  0.30270000  1.0 0.6171373981
C  C4849  1  0.50290000  0.39060000  0.44730000  1.0 0.6171373981
C  C4850  1  0.10940000  0.25290000  0.19730000  1.0 0.6171373981
C  C4851  1  0.55270000  0.24710000  0.64060000  1.0 0.6171373981
C  C4852  1  0.25290000  0.30270000  0.39060000  1.0 0.6171373981
C  C4853  1  0.55270000  0.00290000  0.10940000  1.0 0.6171373981
C  C4854  1  0.35940000  0.05270000  0.25290000  1.0 0.6171373981
C  C4855  1  0.19730000  0.00290000  0.14060000  1.0 0.6171373981
C  C4856  1  0.49710000  0.30270000  0.85940000  1.0 0.6171373981
C  C4857  1  0.44730000  0.10940000  0.00290000  1.0 0.6171373981
C  C4858  1  0.49710000  0.94730000  0.89060000  1.0 0.6171373981
C  C4859  1  0.19730000  0.24710000  0.60940000  1.0 0.6171373981
C  C4860  1  0.39060000  0.19730000  0.75290000  1.0 0.6171373981
C  C4861  1  0.25290000  0.94730000  0.35940000  1.0 0.6171373981
C  C4862  1  0.30270000  0.14060000  0.50290000  1.0 0.6171373981
C  C4863  1  0.35940000  0.19730000  0.49710000  1.0 0.6171373981
C  C4864  1  0.44730000  0.14060000  0.74710000  1.0 0.6171373981
C  C4865  1  0.39060000  0.05270000  0.99710000  1.0 0.6171373981
C  C4866  1  0.30270000  0.10940000  0.24710000  1.0 0.6171373981
C  C4867  1  0.74710000  0.85940000  0.44730000  1.0 0.6171373981
C  C4868  1  0.14060000  0.99710000  0.19730000  1.0 0.6171373981
C  C4869  1  0.10940000  0.99710000  0.55270000  1.0 0.6171373981
C  C4870  1  0.24710000  0.89060000  0.30270000  1.0 0.6171373981
C  C4871  1  0.64060000  0.75290000  0.55270000  1.0 0.6171373981
C  C4872  1  0.50290000  0.85940000  0.30270000  1.0 0.6171373981
C  C4873  1  0.00290000  0.89060000  0.44730000  1.0 0.6171373981
C  C4874  1  0.55270000  0.74710000  0.14060000  1.0 0.6171373981
C  C4875  1  0.25290000  0.80270000  0.89060000  1.0 0.6171373981
C  C4876  1  0.55270000  0.50290000  0.60940000  1.0 0.6171373981
C  C4877  1  0.35940000  0.55270000  0.75290000  1.0 0.6171373981
C  C4878  1  0.19730000  0.50290000  0.64060000  1.0 0.6171373981
C  C4879  1  0.49710000  0.80270000  0.35940000  1.0 0.6171373981
C  C4880  1  0.44730000  0.60940000  0.50290000  1.0 0.6171373981
C  C4881  1  0.49710000  0.44730000  0.39060000  1.0 0.6171373981
C  C4882  1  0.19730000  0.74710000  0.10940000  1.0 0.6171373981
C  C4883  1  0.39060000  0.69730000  0.25290000  1.0 0.6171373981
C  C4884  1  0.25290000  0.44730000  0.85940000  1.0 0.6171373981
C  C4885  1  0.30270000  0.64060000  0.00290000  1.0 0.6171373981
C  C4886  1  0.35940000  0.69730000  0.99710000  1.0 0.6171373981
C  C4887  1  0.44730000  0.64060000  0.24710000  1.0 0.6171373981
C  C4888  1  0.39060000  0.55270000  0.49710000  1.0 0.6171373981
C  C4889  1  0.30270000  0.60940000  0.74710000  1.0 0.6171373981
C  C4890  1  0.74710000  0.35940000  0.94730000  1.0 0.6171373981
C  C4891  1  0.14060000  0.49710000  0.69730000  1.0 0.6171373981
C  C4892  1  0.10940000  0.49710000  0.05270000  1.0 0.6171373981
C  C4893  1  0.24710000  0.39060000  0.80270000  1.0 0.6171373981
C  C4894  1  0.64060000  0.25290000  0.05270000  1.0 0.6171373981
C  C4895  1  0.50290000  0.35940000  0.80270000  1.0 0.6171373981
C  C4896  1  0.00290000  0.39060000  0.94730000  1.0 0.6171373981
O  O1  1  0.83000000  0.92000000  0.08000000  1.0 -0.8665208114
O  O2  1  0.08000000  0.58000000  0.33000000  1.0 -0.8590174012
O  O3  1  0.83000000  0.83000000  0.17000000  1.0 -0.8665208114
O  O4  1  0.92000000  0.83000000  0.08000000  1.0 -0.8665208114
O  O5  1  0.42000000  0.83000000  0.58000000  1.0 -0.8590174012
O  O6  1  0.17000000  0.58000000  0.42000000  1.0 -0.8590174012
O  O7  1  0.17000000  0.67000000  0.33000000  1.0 -0.8590174012
O  O8  1  0.17000000  0.17000000  0.83000000  1.0 -0.8590174012
O  O9  1  0.42000000  0.92000000  0.67000000  1.0 -0.8590174012
O  O10  1  0.33000000  0.92000000  0.58000000  1.0 -0.8590174012
O  O11  1  0.08000000  0.17000000  0.92000000  1.0 -0.8590174012
O  O12  1  0.08000000  0.08000000  0.83000000  1.0 -0.8590174012
O  O13  1  0.92000000  0.92000000  0.17000000  1.0 -0.8665208114
O  O14  1  0.17000000  0.08000000  0.92000000  1.0 -0.8590174012
O  O15  1  0.33000000  0.83000000  0.67000000  1.0 -0.8590174012
O  O16  1  0.08000000  0.67000000  0.42000000  1.0 -0.8590174012
O  O17  1  0.58000000  0.17000000  0.42000000  1.0 -0.8590174012
O  O18  1  0.42000000  0.33000000  0.08000000  1.0 -0.8590174012
O  O19  1  0.33000000  0.33000000  0.17000000  1.0 -0.8590174012
O  O20  1  0.67000000  0.08000000  0.42000000  1.0 -0.8590174012
O  O21  1  0.83000000  0.42000000  0.58000000  1.0 -0.8590174012
O  O22  1  0.83000000  0.33000000  0.67000000  1.0 -0.8590174012
O  O23  1  0.92000000  0.33000000  0.58000000  1.0 -0.8590174012
O  O24  1  0.42000000  0.42000000  0.17000000  1.0 -0.8590174012
O  O25  1  0.33000000  0.42000000  0.08000000  1.0 -0.8590174012
O  O26  1  0.92000000  0.42000000  0.67000000  1.0 -0.8590174012
O  O27  1  0.58000000  0.67000000  0.92000000  1.0 -0.8590174012
O  O28  1  0.67000000  0.58000000  0.92000000  1.0 -0.8590174012
O  O29  1  0.58000000  0.58000000  0.83000000  1.0 -0.8590174012
O  O30  1  0.67000000  0.67000000  0.83000000  1.0 -0.8590174012
O  O31  1  0.67000000  0.17000000  0.33000000  1.0 -0.8590174012
O  O32  1  0.58000000  0.08000000  0.33000000  1.0 -0.8590174012
O  O33  1  0.87500000  0.87500000  0.87840000  1.0 -0.8590174012
O  O34  1  0.12500000  0.62500000  0.12840000  1.0 -0.8590174012
O  O35  1  0.87500000  0.87500000  0.37160000  1.0 -0.8590174012
O  O36  1  0.12160000  0.87500000  0.12500000  1.0 -0.8590174012
O  O37  1  0.37500000  0.87500000  0.37840000  1.0 -0.8590174012
O  O38  1  0.12500000  0.62500000  0.62160000  1.0 -0.8590174012
O  O39  1  0.12500000  0.87160000  0.37500000  1.0 -0.8590174012
O  O40  1  0.12500000  0.12500000  0.62840000  1.0 -0.8590174012
O  O41  1  0.37500000  0.87500000  0.87160000  1.0 -0.8590174012
O  O42  1  0.12840000  0.87500000  0.62500000  1.0 -0.8590174012
O  O43  1  0.12500000  0.12500000  0.12160000  1.0 -0.8590174012
O  O44  1  0.12500000  0.87840000  0.87500000  1.0 -0.8590174012
O  O45  1  0.87500000  0.12160000  0.12500000  1.0 -0.8590174012
O  O46  1  0.37160000  0.12500000  0.87500000  1.0 -0.8590174012
O  O47  1  0.37840000  0.12500000  0.37500000  1.0 -0.8590174012
O  O48  1  0.37500000  0.12840000  0.12500000  1.0 -0.8590174012
O  O49  1  0.87840000  0.12500000  0.87500000  1.0 -0.8590174012
O  O50  1  0.87160000  0.12500000  0.37500000  1.0 -0.8590174012
O  O51  1  0.87500000  0.37500000  0.37840000  1.0 -0.8590174012
O  O52  1  0.87500000  0.37500000  0.87160000  1.0 -0.8590174012
O  O53  1  0.12160000  0.37500000  0.62500000  1.0 -0.8590174012
O  O54  1  0.37500000  0.37500000  0.87840000  1.0 -0.8590174012
O  O55  1  0.12500000  0.37160000  0.87500000  1.0 -0.8590174012
O  O56  1  0.37500000  0.37500000  0.37160000  1.0 -0.8590174012
O  O57  1  0.12840000  0.37500000  0.12500000  1.0 -0.8590174012
O  O58  1  0.12500000  0.37840000  0.37500000  1.0 -0.8590174012
O  O59  1  0.87500000  0.62160000  0.62500000  1.0 -0.8590174012
O  O60  1  0.37160000  0.62500000  0.37500000  1.0 -0.8590174012
O  O61  1  0.37840000  0.62500000  0.87500000  1.0 -0.8590174012
O  O62  1  0.37500000  0.62840000  0.62500000  1.0 -0.8590174012
O  O63  1  0.87840000  0.62500000  0.37500000  1.0 -0.8590174012
O  O64  1  0.87160000  0.62500000  0.87500000  1.0 -0.8590174012
O  O65  1  0.62500000  0.62500000  0.62840000  1.0 -0.8590174012
O  O66  1  0.62160000  0.87500000  0.62500000  1.0 -0.8590174012
O  O67  1  0.62500000  0.62500000  0.12160000  1.0 -0.8590174012
O  O68  1  0.62500000  0.87160000  0.87500000  1.0 -0.8590174012
O  O69  1  0.62500000  0.12500000  0.12840000  1.0 -0.8590174012
O  O70  1  0.62840000  0.87500000  0.12500000  1.0 -0.8590174012
O  O71  1  0.62500000  0.12500000  0.62160000  1.0 -0.8590174012
O  O72  1  0.62500000  0.87840000  0.37500000  1.0 -0.8590174012
O  O73  1  0.37500000  0.12160000  0.62500000  1.0 -0.8590174012
O  O74  1  0.87500000  0.12840000  0.62500000  1.0 -0.8590174012
O  O75  1  0.62160000  0.37500000  0.12500000  1.0 -0.8590174012
O  O76  1  0.62500000  0.37160000  0.37500000  1.0 -0.8590174012
O  O77  1  0.62840000  0.37500000  0.62500000  1.0 -0.8590174012
O  O78  1  0.62500000  0.37840000  0.87500000  1.0 -0.8590174012
O  O79  1  0.37500000  0.62160000  0.12500000  1.0 -0.8590174012
O  O80  1  0.87500000  0.62840000  0.12500000  1.0 -0.8590174012
O  O81  1  0.80040000  0.94960000  0.95640000  1.0 -0.8590174012
O  O82  1  0.05040000  0.55040000  0.20640000  1.0 -0.8590174012
O  O83  1  0.80040000  0.80040000  0.29360000  1.0 -0.8590174012
O  O84  1  0.04360000  0.80040000  0.05040000  1.0 -0.8590174012
O  O85  1  0.44960000  0.80040000  0.45640000  1.0 -0.8590174012
O  O86  1  0.19960000  0.55040000  0.54360000  1.0 -0.8590174012
O  O87  1  0.19960000  0.79360000  0.30040000  1.0 -0.8590174012
O  O88  1  0.19960000  0.19960000  0.70640000  1.0 -0.8544362736
O  O89  1  0.44960000  0.94960000  0.79360000  1.0 -0.8590174012
O  O90  1  0.20640000  0.94960000  0.55040000  1.0 -0.8590174012
O  O91  1  0.05040000  0.19960000  0.04360000  1.0 -0.8590174012
O  O92  1  0.05040000  0.95640000  0.80040000  1.0 -0.8544362736
O  O93  1  0.04360000  0.94960000  0.19960000  1.0 -0.8590174012
O  O94  1  0.19960000  0.95640000  0.94960000  1.0 -0.8590174012
O  O95  1  0.20640000  0.80040000  0.69960000  1.0 -0.8590174012
O  O96  1  0.05040000  0.79360000  0.44960000  1.0 -0.8590174012
O  O97  1  0.94960000  0.04360000  0.19960000  1.0 -0.8590174012
O  O98  1  0.29360000  0.05040000  0.94960000  1.0 -0.8544362736
O  O99  1  0.45640000  0.19960000  0.44960000  1.0 -0.8590174012
O  O100  1  0.29360000  0.19960000  0.80040000  1.0 -0.8544362736
O  O101  1  0.44960000  0.20640000  0.05040000  1.0 -0.8590174012
O  O102  1  0.95640000  0.05040000  0.80040000  1.0 -0.8590174012
O  O103  1  0.80040000  0.04360000  0.05040000  1.0 -0.8590174012
O  O104  1  0.30040000  0.20640000  0.19960000  1.0 -0.8590174012
O  O105  1  0.79360000  0.05040000  0.44960000  1.0 -0.8590174012
O  O106  1  0.80040000  0.44960000  0.45640000  1.0 -0.8590174012
O  O107  1  0.05040000  0.05040000  0.70640000  1.0 -0.8544362736
O  O108  1  0.80040000  0.30040000  0.79360000  1.0 -0.8590174012
O  O109  1  0.04360000  0.30040000  0.55040000  1.0 -0.8544362736
O  O110  1  0.44960000  0.30040000  0.95640000  1.0 -0.8590174012
O  O111  1  0.19960000  0.05040000  0.04360000  1.0 -0.8590174012
O  O112  1  0.19960000  0.29360000  0.80040000  1.0 -0.8544362736
O  O113  1  0.19960000  0.69960000  0.20640000  1.0 -0.8590174012
O  O114  1  0.44960000  0.44960000  0.29360000  1.0 -0.8590174012
O  O115  1  0.20640000  0.44960000  0.05040000  1.0 -0.8590174012
O  O116  1  0.05040000  0.69960000  0.54360000  1.0 -0.8590174012
O  O117  1  0.05040000  0.45640000  0.30040000  1.0 -0.8590174012
O  O118  1  0.04360000  0.44960000  0.69960000  1.0 -0.8544362736
O  O119  1  0.19960000  0.45640000  0.44960000  1.0 -0.8590174012
O  O120  1  0.20640000  0.30040000  0.19960000  1.0 -0.8590174012
O  O121  1  0.05040000  0.29360000  0.94960000  1.0 -0.8544362736
O  O122  1  0.94960000  0.54360000  0.69960000  1.0 -0.8590174012
O  O123  1  0.29360000  0.55040000  0.44960000  1.0 -0.8590174012
O  O124  1  0.45640000  0.69960000  0.94960000  1.0 -0.8590174012
O  O125  1  0.29360000  0.69960000  0.30040000  1.0 -0.8590174012
O  O126  1  0.44960000  0.70640000  0.55040000  1.0 -0.8590174012
O  O127  1  0.95640000  0.55040000  0.30040000  1.0 -0.8590174012
O  O128  1  0.80040000  0.54360000  0.55040000  1.0 -0.8590174012
O  O129  1  0.30040000  0.70640000  0.69960000  1.0 -0.8590174012
O  O130  1  0.79360000  0.55040000  0.94960000  1.0 -0.8590174012
O  O131  1  0.30040000  0.94960000  0.45640000  1.0 -0.8590174012
O  O132  1  0.55040000  0.55040000  0.70640000  1.0 -0.8590174012
O  O133  1  0.30040000  0.80040000  0.79360000  1.0 -0.8590174012
O  O134  1  0.54360000  0.80040000  0.55040000  1.0 -0.8590174012
O  O135  1  0.94960000  0.80040000  0.95640000  1.0 -0.8590174012
O  O136  1  0.69960000  0.55040000  0.04360000  1.0 -0.8590174012
O  O137  1  0.69960000  0.79360000  0.80040000  1.0 -0.8590174012
O  O138  1  0.69960000  0.19960000  0.20640000  1.0 -0.8590174012
O  O139  1  0.94960000  0.94960000  0.29360000  1.0 -0.8590174012
O  O140  1  0.70640000  0.94960000  0.05040000  1.0 -0.8590174012
O  O141  1  0.55040000  0.19960000  0.54360000  1.0 -0.8590174012
O  O142  1  0.55040000  0.95640000  0.30040000  1.0 -0.8590174012
O  O143  1  0.54360000  0.94960000  0.69960000  1.0 -0.8590174012
O  O144  1  0.69960000  0.95640000  0.44960000  1.0 -0.8590174012
O  O145  1  0.70640000  0.80040000  0.19960000  1.0 -0.8590174012
O  O146  1  0.55040000  0.79360000  0.94960000  1.0 -0.8590174012
O  O147  1  0.44960000  0.04360000  0.69960000  1.0 -0.8590174012
O  O148  1  0.95640000  0.19960000  0.94960000  1.0 -0.8590174012
O  O149  1  0.79360000  0.19960000  0.30040000  1.0 -0.8590174012
O  O150  1  0.94960000  0.20640000  0.55040000  1.0 -0.8590174012
O  O151  1  0.45640000  0.05040000  0.30040000  1.0 -0.8590174012
O  O152  1  0.30040000  0.04360000  0.55040000  1.0 -0.8590174012
O  O153  1  0.80040000  0.20640000  0.69960000  1.0 -0.8590174012
O  O154  1  0.30040000  0.44960000  0.95640000  1.0 -0.8544362736
O  O155  1  0.55040000  0.05040000  0.20640000  1.0 -0.8590174012
O  O156  1  0.30040000  0.30040000  0.29360000  1.0 -0.8590174012
O  O157  1  0.54360000  0.30040000  0.05040000  1.0 -0.8590174012
O  O158  1  0.94960000  0.30040000  0.45640000  1.0 -0.8590174012
O  O159  1  0.69960000  0.05040000  0.54360000  1.0 -0.8590174012
O  O160  1  0.69960000  0.29360000  0.30040000  1.0 -0.8590174012
O  O161  1  0.69960000  0.69960000  0.70640000  1.0 -0.8590174012
O  O162  1  0.94960000  0.44960000  0.79360000  1.0 -0.8590174012
O  O163  1  0.70640000  0.44960000  0.55040000  1.0 -0.8590174012
O  O164  1  0.55040000  0.69960000  0.04360000  1.0 -0.8590174012
O  O165  1  0.55040000  0.45640000  0.80040000  1.0 -0.8590174012
O  O166  1  0.54360000  0.44960000  0.19960000  1.0 -0.8590174012
O  O167  1  0.69960000  0.45640000  0.94960000  1.0 -0.8590174012
O  O168  1  0.70640000  0.30040000  0.69960000  1.0 -0.8590174012
O  O169  1  0.55040000  0.29360000  0.44960000  1.0 -0.8590174012
O  O170  1  0.44960000  0.54360000  0.19960000  1.0 -0.8590174012
O  O171  1  0.95640000  0.69960000  0.44960000  1.0 -0.8590174012
O  O172  1  0.79360000  0.69960000  0.80040000  1.0 -0.8590174012
O  O173  1  0.94960000  0.70640000  0.05040000  1.0 -0.8590174012
O  O174  1  0.45640000  0.55040000  0.80040000  1.0 -0.8590174012
O  O175  1  0.30040000  0.54360000  0.05040000  1.0 -0.8590174012
O  O176  1  0.80040000  0.70640000  0.19960000  1.0 -0.8590174012
O  O177  1  0.90550000  0.75000000  0.84450000  1.0 -0.8906488567
O  O178  1  0.25000000  0.65550000  0.09450000  1.0 -0.8906488567
O  O179  1  0.90550000  0.00000000  0.40550000  1.0 -0.8906488567
O  O180  1  0.15550000  0.90550000  0.25000000  1.0 -0.8906488567
O  O181  1  0.34450000  0.00000000  0.34450000  1.0 -0.8906488567
O  O182  1  0.00000000  0.65550000  0.65550000  1.0 -0.8906488567
O  O183  1  0.09450000  0.90550000  0.50000000  1.0 -0.8906488567
O  O184  1  0.00000000  0.09450000  0.59450000  1.0 -0.8906488567
O  O185  1  0.34450000  0.75000000  0.90550000  1.0 -0.8906488567
O  O186  1  0.09450000  0.84450000  0.75000000  1.0 -0.8906488567
O  O187  1  0.25000000  0.09450000  0.15550000  1.0 -0.8906488567
O  O188  1  0.15550000  0.84450000  0.00000000  1.0 -0.8906488567
O  O189  1  0.75000000  0.15550000  0.09450000  1.0 -0.8906488567
O  O190  1  0.40550000  0.25000000  0.84450000  1.0 -0.8906488567
O  O191  1  0.40550000  0.00000000  0.90550000  1.0 -0.8906488567
O  O192  1  0.84450000  0.25000000  0.90550000  1.0 -0.8906488567
O  O193  1  0.00000000  0.15550000  0.15550000  1.0 -0.8906488567
O  O194  1  0.50000000  0.09450000  0.09450000  1.0 -0.8906488567
O  O195  1  0.90550000  0.25000000  0.34450000  1.0 -0.8906488567
O  O196  1  0.25000000  0.15550000  0.59450000  1.0 -0.8906488567
O  O197  1  0.90550000  0.50000000  0.90550000  1.0 -0.8906488567
O  O198  1  0.15550000  0.40550000  0.75000000  1.0 -0.8906488567
O  O199  1  0.34450000  0.50000000  0.84450000  1.0 -0.8906488567
O  O200  1  0.09450000  0.40550000  0.00000000  1.0 -0.8906488567
O  O201  1  0.00000000  0.59450000  0.09450000  1.0 -0.8906488567
O  O202  1  0.34450000  0.25000000  0.40550000  1.0 -0.8906488567
O  O203  1  0.09450000  0.34450000  0.25000000  1.0 -0.8906488567
O  O204  1  0.25000000  0.59450000  0.65550000  1.0 -0.8906488567
O  O205  1  0.15550000  0.34450000  0.50000000  1.0 -0.8906488567
O  O206  1  0.75000000  0.65550000  0.59450000  1.0 -0.8906488567
O  O207  1  0.40550000  0.75000000  0.34450000  1.0 -0.8906488567
O  O208  1  0.40550000  0.50000000  0.40550000  1.0 -0.8906488567
O  O209  1  0.84450000  0.75000000  0.40550000  1.0 -0.8906488567
O  O210  1  0.50000000  0.59450000  0.59450000  1.0 -0.8906488567
O  O211  1  0.65550000  0.90550000  0.75000000  1.0 -0.8906488567
O  O212  1  0.84450000  0.00000000  0.84450000  1.0 -0.8906488567
O  O213  1  0.50000000  0.65550000  0.15550000  1.0 -0.8906488567
O  O214  1  0.59450000  0.90550000  0.00000000  1.0 -0.8906488567
O  O215  1  0.59450000  0.84450000  0.25000000  1.0 -0.8906488567
O  O216  1  0.75000000  0.09450000  0.65550000  1.0 -0.8906488567
O  O217  1  0.65550000  0.84450000  0.50000000  1.0 -0.8906488567
O  O218  1  0.50000000  0.15550000  0.65550000  1.0 -0.8906488567
O  O219  1  0.65550000  0.40550000  0.25000000  1.0 -0.8906488567
O  O220  1  0.84450000  0.50000000  0.34450000  1.0 -0.8906488567
O  O221  1  0.59450000  0.40550000  0.50000000  1.0 -0.8906488567
O  O222  1  0.59450000  0.34450000  0.75000000  1.0 -0.8906488567
O  O223  1  0.75000000  0.59450000  0.15550000  1.0 -0.8906488567
O  O224  1  0.65550000  0.34450000  0.00000000  1.0 -0.8906488567
O  O225  1  0.09450000  0.25000000  0.15550000  1.0 -0.8906488567
O  O226  1  0.75000000  0.34450000  0.90550000  1.0 -0.8906488567
O  O227  1  0.09450000  0.00000000  0.59450000  1.0 -0.8906488567
O  O228  1  0.84450000  0.09450000  0.75000000  1.0 -0.8906488567
O  O229  1  0.65550000  0.00000000  0.65550000  1.0 -0.8906488567
O  O230  1  0.00000000  0.34450000  0.34450000  1.0 -0.8906488567
O  O231  1  0.90550000  0.09450000  0.50000000  1.0 -0.8906488567
O  O232  1  0.00000000  0.90550000  0.40550000  1.0 -0.8906488567
O  O233  1  0.65550000  0.25000000  0.09450000  1.0 -0.8906488567
O  O234  1  0.90550000  0.15550000  0.25000000  1.0 -0.8906488567
O  O235  1  0.75000000  0.90550000  0.84450000  1.0 -0.8906488567
O  O236  1  0.84450000  0.15550000  0.00000000  1.0 -0.8906488567
O  O237  1  0.25000000  0.84450000  0.90550000  1.0 -0.8906488567
O  O238  1  0.59450000  0.75000000  0.15550000  1.0 -0.8906488567
O  O239  1  0.59450000  0.00000000  0.09450000  1.0 -0.8906488567
O  O240  1  0.15550000  0.75000000  0.09450000  1.0 -0.8906488567
O  O241  1  0.00000000  0.84450000  0.84450000  1.0 -0.8906488567
O  O242  1  0.50000000  0.90550000  0.90550000  1.0 -0.8906488567
O  O243  1  0.09450000  0.75000000  0.65550000  1.0 -0.8906488567
O  O244  1  0.75000000  0.84450000  0.40550000  1.0 -0.8906488567
O  O245  1  0.09450000  0.50000000  0.09450000  1.0 -0.8906488567
O  O246  1  0.84450000  0.59450000  0.25000000  1.0 -0.8906488567
O  O247  1  0.65550000  0.50000000  0.15550000  1.0 -0.8906488567
O  O248  1  0.90550000  0.59450000  0.00000000  1.0 -0.8906488567
O  O249  1  0.00000000  0.40550000  0.90550000  1.0 -0.8906488567
O  O250  1  0.65550000  0.75000000  0.59450000  1.0 -0.8906488567
O  O251  1  0.90550000  0.65550000  0.75000000  1.0 -0.8906488567
O  O252  1  0.75000000  0.40550000  0.34450000  1.0 -0.8906488567
O  O253  1  0.84450000  0.65550000  0.50000000  1.0 -0.8906488567
O  O254  1  0.25000000  0.34450000  0.40550000  1.0 -0.8906488567
O  O255  1  0.59450000  0.25000000  0.65550000  1.0 -0.8906488567
O  O256  1  0.59450000  0.50000000  0.59450000  1.0 -0.8906488567
O  O257  1  0.15550000  0.25000000  0.59450000  1.0 -0.8906488567
O  O258  1  0.50000000  0.40550000  0.40550000  1.0 -0.8906488567
O  O259  1  0.34450000  0.09450000  0.25000000  1.0 -0.8906488567
O  O260  1  0.15550000  0.00000000  0.15550000  1.0 -0.8906488567
O  O261  1  0.50000000  0.34450000  0.84450000  1.0 -0.8906488567
O  O262  1  0.40550000  0.09450000  0.00000000  1.0 -0.8906488567
O  O263  1  0.40550000  0.15550000  0.75000000  1.0 -0.8906488567
O  O264  1  0.25000000  0.90550000  0.34450000  1.0 -0.8906488567
O  O265  1  0.34450000  0.15550000  0.50000000  1.0 -0.8906488567
O  O266  1  0.50000000  0.84450000  0.34450000  1.0 -0.8906488567
O  O267  1  0.34450000  0.59450000  0.75000000  1.0 -0.8906488567
O  O268  1  0.15550000  0.50000000  0.65550000  1.0 -0.8906488567
O  O269  1  0.40550000  0.59450000  0.50000000  1.0 -0.8906488567
O  O270  1  0.40550000  0.65550000  0.25000000  1.0 -0.8906488567
O  O271  1  0.25000000  0.40550000  0.84450000  1.0 -0.8906488567
O  O272  1  0.34450000  0.65550000  0.00000000  1.0 -0.8906488567
O  O273  1  0.81710000  0.90740000  0.04600000  1.0 -0.4506754119
O  O274  1  0.09260000  0.56710000  0.29600000  1.0 -0.4506754119
O  O275  1  0.81710000  0.84260000  0.20400000  1.0 -0.4506754119
O  O276  1  0.95400000  0.81710000  0.09260000  1.0 -0.4506754119
O  O277  1  0.43290000  0.84260000  0.54600000  1.0 -0.4506754119
O  O278  1  0.15740000  0.56710000  0.45400000  1.0 -0.4506754119
O  O279  1  0.18290000  0.70400000  0.34260000  1.0 -0.4506754119
O  O280  1  0.15740000  0.18290000  0.79600000  1.0 -0.4506754119
O  O281  1  0.43290000  0.90740000  0.70400000  1.0 -0.4506754119
O  O282  1  0.29600000  0.93290000  0.59260000  1.0 -0.4506754119
O  O283  1  0.09260000  0.18290000  0.95400000  1.0 -0.4506754119
O  O284  1  0.06710000  0.04600000  0.84260000  1.0 -0.4506754119
O  O285  1  0.95400000  0.93290000  0.15740000  1.0 -0.4506754119
O  O286  1  0.18290000  0.04600000  0.90740000  1.0 -0.4506754119
O  O287  1  0.29600000  0.81710000  0.65740000  1.0 -0.4506754119
O  O288  1  0.06710000  0.70400000  0.40740000  1.0 -0.4506754119
O  O289  1  0.90740000  0.95400000  0.18290000  1.0 -0.4506754119
O  O290  1  0.20400000  0.09260000  0.93290000  1.0 -0.4506754119
O  O291  1  0.54600000  0.15740000  0.43290000  1.0 -0.4506754119
O  O292  1  0.20400000  0.15740000  0.81710000  1.0 -0.4506754119
O  O293  1  0.40740000  0.29600000  0.06710000  1.0 -0.4506754119
O  O294  1  0.04600000  0.09260000  0.81710000  1.0 -0.4506754119
O  O295  1  0.84260000  0.95400000  0.06710000  1.0 -0.4506754119
O  O296  1  0.34260000  0.29600000  0.18290000  1.0 -0.4506754119
O  O297  1  0.70400000  0.09260000  0.43290000  1.0 -0.4627481514
O  O298  1  0.81710000  0.40740000  0.54600000  1.0 -0.4627481514
O  O299  1  0.09260000  0.06710000  0.79600000  1.0 -0.4506754119
O  O300  1  0.81710000  0.34260000  0.70400000  1.0 -0.4627481514
O  O301  1  0.95400000  0.31710000  0.59260000  1.0 -0.4627481514
O  O302  1  0.43290000  0.34260000  0.04600000  1.0 -0.4506754119
O  O303  1  0.15740000  0.06710000  0.95400000  1.0 -0.4506754119
O  O304  1  0.18290000  0.20400000  0.84260000  1.0 -0.4506754119
O  O305  1  0.15740000  0.68290000  0.29600000  1.0 -0.4506754119
O  O306  1  0.43290000  0.40740000  0.20400000  1.0 -0.4506754119
O  O307  1  0.29600000  0.43290000  0.09260000  1.0 -0.4506754119
O  O308  1  0.09260000  0.68290000  0.45400000  1.0 -0.4506754119
O  O309  1  0.06710000  0.54600000  0.34260000  1.0 -0.4506754119
O  O310  1  0.95400000  0.43290000  0.65740000  1.0 -0.4627481514
O  O311  1  0.18290000  0.54600000  0.40740000  1.0 -0.4506754119
O  O312  1  0.29600000  0.31710000  0.15740000  1.0 -0.4506754119
O  O313  1  0.06710000  0.20400000  0.90740000  1.0 -0.4506754119
O  O314  1  0.90740000  0.45400000  0.68290000  1.0 -0.4627481514
O  O315  1  0.20400000  0.59260000  0.43290000  1.0 -0.4506754119
O  O316  1  0.54600000  0.65740000  0.93290000  1.0 -0.4506754119
O  O317  1  0.20400000  0.65740000  0.31710000  1.0 -0.4506754119
O  O318  1  0.40740000  0.79600000  0.56710000  1.0 -0.4506754119
O  O319  1  0.04600000  0.59260000  0.31710000  1.0 -0.4506754119
O  O320  1  0.84260000  0.45400000  0.56710000  1.0 -0.4627481514
O  O321  1  0.34260000  0.79600000  0.68290000  1.0 -0.4506754119
O  O322  1  0.70400000  0.59260000  0.93290000  1.0 -0.4506754119
O  O323  1  0.31710000  0.90740000  0.54600000  1.0 -0.4506754119
O  O324  1  0.59260000  0.56710000  0.79600000  1.0 -0.4506754119
O  O325  1  0.31710000  0.84260000  0.70400000  1.0 -0.4506754119
O  O326  1  0.45400000  0.81710000  0.59260000  1.0 -0.4506754119
O  O327  1  0.93290000  0.84260000  0.04600000  1.0 -0.4506754119
O  O328  1  0.65740000  0.56710000  0.95400000  1.0 -0.4506754119
O  O329  1  0.68290000  0.70400000  0.84260000  1.0 -0.4506754119
O  O330  1  0.65740000  0.18290000  0.29600000  1.0 -0.4627481514
O  O331  1  0.93290000  0.90740000  0.20400000  1.0 -0.4506754119
O  O332  1  0.79600000  0.93290000  0.09260000  1.0 -0.4506754119
O  O333  1  0.59260000  0.18290000  0.45400000  1.0 -0.4627481514
O  O334  1  0.56710000  0.04600000  0.34260000  1.0 -0.4627481514
O  O335  1  0.45400000  0.93290000  0.65740000  1.0 -0.4506754119
O  O336  1  0.68290000  0.04600000  0.40740000  1.0 -0.4627481514
O  O337  1  0.79600000  0.81710000  0.15740000  1.0 -0.4506754119
O  O338  1  0.56710000  0.70400000  0.90740000  1.0 -0.4506754119
O  O339  1  0.40740000  0.95400000  0.68290000  1.0 -0.4506754119
O  O340  1  0.04600000  0.15740000  0.93290000  1.0 -0.4506754119
O  O341  1  0.70400000  0.15740000  0.31710000  1.0 -0.4627481514
O  O342  1  0.90740000  0.29600000  0.56710000  1.0 -0.4627481514
O  O343  1  0.54600000  0.09260000  0.31710000  1.0 -0.4627481514
O  O344  1  0.34260000  0.95400000  0.56710000  1.0 -0.4506754119
O  O345  1  0.84260000  0.29600000  0.68290000  1.0 -0.4627481514
O  O346  1  0.31710000  0.40740000  0.04600000  1.0 -0.4506754119
O  O347  1  0.59260000  0.06710000  0.29600000  1.0 -0.4627481514
O  O348  1  0.31710000  0.34260000  0.20400000  1.0 -0.4506754119
O  O349  1  0.45400000  0.31710000  0.09260000  1.0 -0.4506754119
O  O350  1  0.93290000  0.34260000  0.54600000  1.0 -0.4627481514
O  O351  1  0.65740000  0.06710000  0.45400000  1.0 -0.4627481514
O  O352  1  0.68290000  0.20400000  0.34260000  1.0 -0.4627481514
O  O353  1  0.65740000  0.68290000  0.79600000  1.0 -0.4506754119
O  O354  1  0.93290000  0.40740000  0.70400000  1.0 -0.4627481514
O  O355  1  0.79600000  0.43290000  0.59260000  1.0 -0.4627481514
O  O356  1  0.59260000  0.68290000  0.95400000  1.0 -0.4506754119
O  O357  1  0.56710000  0.54600000  0.84260000  1.0 -0.4506754119
O  O358  1  0.45400000  0.43290000  0.15740000  1.0 -0.4506754119
O  O359  1  0.68290000  0.54600000  0.90740000  1.0 -0.4506754119
O  O360  1  0.79600000  0.31710000  0.65740000  1.0 -0.4627481514
O  O361  1  0.56710000  0.20400000  0.40740000  1.0 -0.4506754119
O  O362  1  0.40740000  0.45400000  0.18290000  1.0 -0.4506754119
O  O363  1  0.04600000  0.65740000  0.43290000  1.0 -0.4506754119
O  O364  1  0.70400000  0.65740000  0.81710000  1.0 -0.4506754119
O  O365  1  0.90740000  0.79600000  0.06710000  1.0 -0.4506754119
O  O366  1  0.54600000  0.59260000  0.81710000  1.0 -0.4506754119
O  O367  1  0.34260000  0.45400000  0.06710000  1.0 -0.4506754119
O  O368  1  0.84260000  0.79600000  0.18290000  1.0 -0.4506754119
O  O369  1  0.18290000  0.09260000  0.95400000  1.0 -0.4506754119
O  O370  1  0.90740000  0.43290000  0.70400000  1.0 -0.4506754119
O  O371  1  0.18290000  0.15740000  0.79600000  1.0 -0.4506754119
O  O372  1  0.04600000  0.18290000  0.90740000  1.0 -0.4506754119
O  O373  1  0.56710000  0.15740000  0.45400000  1.0 -0.4506754119
O  O374  1  0.84260000  0.43290000  0.54600000  1.0 -0.4506754119
O  O375  1  0.81710000  0.29600000  0.65740000  1.0 -0.4506754119
O  O376  1  0.84260000  0.81710000  0.20400000  1.0 -0.4506754119
O  O377  1  0.56710000  0.09260000  0.29600000  1.0 -0.4506754119
O  O378  1  0.70400000  0.06710000  0.40740000  1.0 -0.4506754119
O  O379  1  0.90740000  0.81710000  0.04600000  1.0 -0.4506754119
O  O380  1  0.93290000  0.95400000  0.15740000  1.0 -0.4506754119
O  O381  1  0.04600000  0.06710000  0.84260000  1.0 -0.4506754119
O  O382  1  0.81710000  0.95400000  0.09260000  1.0 -0.4506754119
O  O383  1  0.70400000  0.18290000  0.34260000  1.0 -0.4506754119
O  O384  1  0.93290000  0.29600000  0.59260000  1.0 -0.4506754119
O  O385  1  0.09260000  0.04600000  0.81710000  1.0 -0.4506754119
O  O386  1  0.79600000  0.90740000  0.06710000  1.0 -0.4506754119
O  O387  1  0.45400000  0.84260000  0.56710000  1.0 -0.4506754119
O  O388  1  0.79600000  0.84260000  0.18290000  1.0 -0.4506754119
O  O389  1  0.59260000  0.70400000  0.93290000  1.0 -0.4506754119
O  O390  1  0.95400000  0.90740000  0.18290000  1.0 -0.4506754119
O  O391  1  0.15740000  0.04600000  0.93290000  1.0 -0.4506754119
O  O392  1  0.65740000  0.70400000  0.81710000  1.0 -0.4506754119
O  O393  1  0.29600000  0.90740000  0.56710000  1.0 -0.4506754119
O  O394  1  0.18290000  0.59260000  0.45400000  1.0 -0.4506754119
O  O395  1  0.90740000  0.93290000  0.20400000  1.0 -0.4506754119
O  O396  1  0.18290000  0.65740000  0.29600000  1.0 -0.4506754119
O  O397  1  0.04600000  0.68290000  0.40740000  1.0 -0.4506754119
O  O398  1  0.56710000  0.65740000  0.95400000  1.0 -0.4506754119
O  O399  1  0.84260000  0.93290000  0.04600000  1.0 -0.4506754119
O  O400  1  0.81710000  0.79600000  0.15740000  1.0 -0.4506754119
O  O401  1  0.84260000  0.31710000  0.70400000  1.0 -0.4506754119
O  O402  1  0.56710000  0.59260000  0.79600000  1.0 -0.4506754119
O  O403  1  0.70400000  0.56710000  0.90740000  1.0 -0.4506754119
O  O404  1  0.90740000  0.31710000  0.54600000  1.0 -0.4506754119
O  O405  1  0.93290000  0.45400000  0.65740000  1.0 -0.4506754119
O  O406  1  0.04600000  0.56710000  0.34260000  1.0 -0.4506754119
O  O407  1  0.81710000  0.45400000  0.59260000  1.0 -0.4506754119
O  O408  1  0.70400000  0.68290000  0.84260000  1.0 -0.4506754119
O  O409  1  0.93290000  0.79600000  0.09260000  1.0 -0.4506754119
O  O410  1  0.09260000  0.54600000  0.31710000  1.0 -0.4506754119
O  O411  1  0.79600000  0.40740000  0.56710000  1.0 -0.4506754119
O  O412  1  0.45400000  0.34260000  0.06710000  1.0 -0.4506754119
O  O413  1  0.79600000  0.34260000  0.68290000  1.0 -0.4506754119
O  O414  1  0.59260000  0.20400000  0.43290000  1.0 -0.4506754119
O  O415  1  0.95400000  0.40740000  0.68290000  1.0 -0.4506754119
O  O416  1  0.15740000  0.54600000  0.43290000  1.0 -0.4506754119
O  O417  1  0.65740000  0.20400000  0.31710000  1.0 -0.4506754119
O  O418  1  0.29600000  0.40740000  0.06710000  1.0 -0.4506754119
O  O419  1  0.68290000  0.09260000  0.45400000  1.0 -0.4506754119
O  O420  1  0.40740000  0.43290000  0.20400000  1.0 -0.4506754119
O  O421  1  0.68290000  0.15740000  0.29600000  1.0 -0.4506754119
O  O422  1  0.54600000  0.18290000  0.40740000  1.0 -0.4506754119
O  O423  1  0.06710000  0.15740000  0.95400000  1.0 -0.4506754119
O  O424  1  0.34260000  0.43290000  0.04600000  1.0 -0.4506754119
O  O425  1  0.31710000  0.29600000  0.15740000  1.0 -0.4506754119
O  O426  1  0.34260000  0.81710000  0.70400000  1.0 -0.4506754119
O  O427  1  0.06710000  0.09260000  0.79600000  1.0 -0.4506754119
O  O428  1  0.20400000  0.06710000  0.90740000  1.0 -0.4506754119
O  O429  1  0.40740000  0.81710000  0.54600000  1.0 -0.4506754119
O  O430  1  0.43290000  0.95400000  0.65740000  1.0 -0.4506754119
O  O431  1  0.54600000  0.06710000  0.34260000  1.0 -0.4506754119
O  O432  1  0.31710000  0.95400000  0.59260000  1.0 -0.4506754119
O  O433  1  0.20400000  0.18290000  0.84260000  1.0 -0.4506754119
O  O434  1  0.43290000  0.29600000  0.09260000  1.0 -0.4506754119
O  O435  1  0.59260000  0.04600000  0.31710000  1.0 -0.4506754119
O  O436  1  0.95400000  0.84260000  0.06710000  1.0 -0.4506754119
O  O437  1  0.29600000  0.84260000  0.68290000  1.0 -0.4506754119
O  O438  1  0.09260000  0.70400000  0.43290000  1.0 -0.4506754119
O  O439  1  0.45400000  0.90740000  0.68290000  1.0 -0.4506754119
O  O440  1  0.65740000  0.04600000  0.43290000  1.0 -0.4506754119
O  O441  1  0.15740000  0.70400000  0.31710000  1.0 -0.4506754119
O  O442  1  0.68290000  0.59260000  0.95400000  1.0 -0.4506754119
O  O443  1  0.40740000  0.93290000  0.70400000  1.0 -0.4506754119
O  O444  1  0.68290000  0.65740000  0.79600000  1.0 -0.4506754119
O  O445  1  0.54600000  0.68290000  0.90740000  1.0 -0.4506754119
O  O446  1  0.06710000  0.65740000  0.45400000  1.0 -0.4506754119
O  O447  1  0.34260000  0.93290000  0.54600000  1.0 -0.4506754119
O  O448  1  0.31710000  0.79600000  0.65740000  1.0 -0.4506754119
O  O449  1  0.34260000  0.31710000  0.20400000  1.0 -0.4506754119
O  O450  1  0.06710000  0.59260000  0.29600000  1.0 -0.4506754119
O  O451  1  0.20400000  0.56710000  0.40740000  1.0 -0.4506754119
O  O452  1  0.40740000  0.31710000  0.04600000  1.0 -0.4506754119
O  O453  1  0.43290000  0.45400000  0.15740000  1.0 -0.4506754119
O  O454  1  0.54600000  0.56710000  0.84260000  1.0 -0.4506754119
O  O455  1  0.31710000  0.45400000  0.09260000  1.0 -0.4506754119
O  O456  1  0.20400000  0.68290000  0.34260000  1.0 -0.4506754119
O  O457  1  0.43290000  0.79600000  0.59260000  1.0 -0.4506754119
O  O458  1  0.59260000  0.54600000  0.81710000  1.0 -0.4506754119
O  O459  1  0.95400000  0.34260000  0.56710000  1.0 -0.4506754119
O  O460  1  0.29600000  0.34260000  0.18290000  1.0 -0.4506754119
O  O461  1  0.09260000  0.20400000  0.93290000  1.0 -0.4506754119
O  O462  1  0.45400000  0.40740000  0.18290000  1.0 -0.4506754119
O  O463  1  0.65740000  0.54600000  0.93290000  1.0 -0.4506754119
O  O464  1  0.15740000  0.20400000  0.81710000  1.0 -0.4506754119
O  O465  1  0.83700000  0.88450000  0.06600000  1.0 -0.4990693902
O  O466  1  0.11550000  0.58700000  0.31600000  1.0 -0.4990693902
O  O467  1  0.83700000  0.86550000  0.18400000  1.0 -0.4990693902
O  O468  1  0.93400000  0.83700000  0.11550000  1.0 -0.4990693902
O  O469  1  0.41300000  0.86550000  0.56600000  1.0 -0.4990693902
O  O470  1  0.13450000  0.58700000  0.43400000  1.0 -0.4990693902
O  O471  1  0.16300000  0.68400000  0.36550000  1.0 -0.4990693902
O  O472  1  0.13450000  0.16300000  0.81600000  1.0 -0.4990693902
O  O473  1  0.41300000  0.88450000  0.68400000  1.0 -0.4990693902
O  O474  1  0.31600000  0.91300000  0.61550000  1.0 -0.4990693902
O  O475  1  0.11550000  0.16300000  0.93400000  1.0 -0.4990693902
O  O476  1  0.08700000  0.06600000  0.86550000  1.0 -0.4990693902
O  O477  1  0.93400000  0.91300000  0.13450000  1.0 -0.4990693902
O  O478  1  0.16300000  0.06600000  0.88450000  1.0 -0.4990693902
O  O479  1  0.31600000  0.83700000  0.63450000  1.0 -0.4990693902
O  O480  1  0.08700000  0.68400000  0.38450000  1.0 -0.4990693902
O  O481  1  0.88450000  0.93400000  0.16300000  1.0 -0.4990693902
O  O482  1  0.18400000  0.11550000  0.91300000  1.0 -0.4990693902
O  O483  1  0.56600000  0.13450000  0.41300000  1.0 -0.4990693902
O  O484  1  0.18400000  0.13450000  0.83700000  1.0 -0.4990693902
O  O485  1  0.38450000  0.31600000  0.08700000  1.0 -0.4990693902
O  O486  1  0.06600000  0.11550000  0.83700000  1.0 -0.4990693902
O  O487  1  0.86550000  0.93400000  0.08700000  1.0 -0.4990693902
O  O488  1  0.36550000  0.31600000  0.16300000  1.0 -0.4990693902
O  O489  1  0.68400000  0.11550000  0.41300000  1.0 -0.4990693902
O  O490  1  0.83700000  0.38450000  0.56600000  1.0 -0.4990693902
O  O491  1  0.11550000  0.08700000  0.81600000  1.0 -0.4990693902
O  O492  1  0.83700000  0.36550000  0.68400000  1.0 -0.4990693902
O  O493  1  0.93400000  0.33700000  0.61550000  1.0 -0.4990693902
O  O494  1  0.41300000  0.36550000  0.06600000  1.0 -0.4990693902
O  O495  1  0.13450000  0.08700000  0.93400000  1.0 -0.4990693902
O  O496  1  0.16300000  0.18400000  0.86550000  1.0 -0.4990693902
O  O497  1  0.13450000  0.66300000  0.31600000  1.0 -0.4990693902
O  O498  1  0.41300000  0.38450000  0.18400000  1.0 -0.4990693902
O  O499  1  0.31600000  0.41300000  0.11550000  1.0 -0.4990693902
O  O500  1  0.11550000  0.66300000  0.43400000  1.0 -0.4990693902
O  O501  1  0.08700000  0.56600000  0.36550000  1.0 -0.4990693902
O  O502  1  0.93400000  0.41300000  0.63450000  1.0 -0.4990693902
O  O503  1  0.16300000  0.56600000  0.38450000  1.0 -0.4990693902
O  O504  1  0.31600000  0.33700000  0.13450000  1.0 -0.4990693902
O  O505  1  0.08700000  0.18400000  0.88450000  1.0 -0.4990693902
O  O506  1  0.88450000  0.43400000  0.66300000  1.0 -0.4990693902
O  O507  1  0.18400000  0.61550000  0.41300000  1.0 -0.4990693902
O  O508  1  0.56600000  0.63450000  0.91300000  1.0 -0.4990693902
O  O509  1  0.18400000  0.63450000  0.33700000  1.0 -0.4990693902
O  O510  1  0.38450000  0.81600000  0.58700000  1.0 -0.4990693902
O  O511  1  0.06600000  0.61550000  0.33700000  1.0 -0.4990693902
O  O512  1  0.86550000  0.43400000  0.58700000  1.0 -0.4990693902
O  O513  1  0.36550000  0.81600000  0.66300000  1.0 -0.4990693902
O  O514  1  0.68400000  0.61550000  0.91300000  1.0 -0.4990693902
O  O515  1  0.33700000  0.88450000  0.56600000  1.0 -0.4990693902
O  O516  1  0.61550000  0.58700000  0.81600000  1.0 -0.4990693902
O  O517  1  0.33700000  0.86550000  0.68400000  1.0 -0.4990693902
O  O518  1  0.43400000  0.83700000  0.61550000  1.0 -0.4990693902
O  O519  1  0.91300000  0.86550000  0.06600000  1.0 -0.4990693902
O  O520  1  0.63450000  0.58700000  0.93400000  1.0 -0.4990693902
O  O521  1  0.66300000  0.68400000  0.86550000  1.0 -0.4990693902
O  O522  1  0.63450000  0.16300000  0.31600000  1.0 -0.4990693902
O  O523  1  0.91300000  0.88450000  0.18400000  1.0 -0.4990693902
O  O524  1  0.81600000  0.91300000  0.11550000  1.0 -0.4990693902
O  O525  1  0.61550000  0.16300000  0.43400000  1.0 -0.4990693902
O  O526  1  0.58700000  0.06600000  0.36550000  1.0 -0.4990693902
O  O527  1  0.43400000  0.91300000  0.63450000  1.0 -0.4990693902
O  O528  1  0.66300000  0.06600000  0.38450000  1.0 -0.4990693902
O  O529  1  0.81600000  0.83700000  0.13450000  1.0 -0.4990693902
O  O530  1  0.58700000  0.68400000  0.88450000  1.0 -0.4990693902
O  O531  1  0.38450000  0.93400000  0.66300000  1.0 -0.4990693902
O  O532  1  0.06600000  0.13450000  0.91300000  1.0 -0.4990693902
O  O533  1  0.68400000  0.13450000  0.33700000  1.0 -0.4990693902
O  O534  1  0.88450000  0.31600000  0.58700000  1.0 -0.4990693902
O  O535  1  0.56600000  0.11550000  0.33700000  1.0 -0.4990693902
O  O536  1  0.36550000  0.93400000  0.58700000  1.0 -0.4990693902
O  O537  1  0.86550000  0.31600000  0.66300000  1.0 -0.4990693902
O  O538  1  0.33700000  0.38450000  0.06600000  1.0 -0.4990693902
O  O539  1  0.61550000  0.08700000  0.31600000  1.0 -0.4990693902
O  O540  1  0.33700000  0.36550000  0.18400000  1.0 -0.4990693902
O  O541  1  0.43400000  0.33700000  0.11550000  1.0 -0.4990693902
O  O542  1  0.91300000  0.36550000  0.56600000  1.0 -0.4990693902
O  O543  1  0.63450000  0.08700000  0.43400000  1.0 -0.4990693902
O  O544  1  0.66300000  0.18400000  0.36550000  1.0 -0.4990693902
O  O545  1  0.63450000  0.66300000  0.81600000  1.0 -0.4990693902
O  O546  1  0.91300000  0.38450000  0.68400000  1.0 -0.4990693902
O  O547  1  0.81600000  0.41300000  0.61550000  1.0 -0.4990693902
O  O548  1  0.61550000  0.66300000  0.93400000  1.0 -0.4990693902
O  O549  1  0.58700000  0.56600000  0.86550000  1.0 -0.4990693902
O  O550  1  0.43400000  0.41300000  0.13450000  1.0 -0.4990693902
O  O551  1  0.66300000  0.56600000  0.88450000  1.0 -0.4990693902
O  O552  1  0.81600000  0.33700000  0.63450000  1.0 -0.4990693902
O  O553  1  0.58700000  0.18400000  0.38450000  1.0 -0.4990693902
O  O554  1  0.38450000  0.43400000  0.16300000  1.0 -0.4990693902
O  O555  1  0.06600000  0.63450000  0.41300000  1.0 -0.4990693902
O  O556  1  0.68400000  0.63450000  0.83700000  1.0 -0.4990693902
O  O557  1  0.88450000  0.81600000  0.08700000  1.0 -0.4990693902
O  O558  1  0.56600000  0.61550000  0.83700000  1.0 -0.4990693902
O  O559  1  0.36550000  0.43400000  0.08700000  1.0 -0.4990693902
O  O560  1  0.86550000  0.81600000  0.16300000  1.0 -0.4990693902
O  O561  1  0.16300000  0.11550000  0.93400000  1.0 -0.4990693902
O  O562  1  0.88450000  0.41300000  0.68400000  1.0 -0.4990693902
O  O563  1  0.16300000  0.13450000  0.81600000  1.0 -0.4990693902
O  O564  1  0.06600000  0.16300000  0.88450000  1.0 -0.4990693902
O  O565  1  0.58700000  0.13450000  0.43400000  1.0 -0.4990693902
O  O566  1  0.86550000  0.41300000  0.56600000  1.0 -0.4990693902
O  O567  1  0.83700000  0.31600000  0.63450000  1.0 -0.4990693902
O  O568  1  0.86550000  0.83700000  0.18400000  1.0 -0.4990693902
O  O569  1  0.58700000  0.11550000  0.31600000  1.0 -0.4990693902
O  O570  1  0.68400000  0.08700000  0.38450000  1.0 -0.4990693902
O  O571  1  0.88450000  0.83700000  0.06600000  1.0 -0.4990693902
O  O572  1  0.91300000  0.93400000  0.13450000  1.0 -0.4990693902
O  O573  1  0.06600000  0.08700000  0.86550000  1.0 -0.4990693902
O  O574  1  0.83700000  0.93400000  0.11550000  1.0 -0.4990693902
O  O575  1  0.68400000  0.16300000  0.36550000  1.0 -0.4990693902
O  O576  1  0.91300000  0.31600000  0.61550000  1.0 -0.4990693902
O  O577  1  0.11550000  0.06600000  0.83700000  1.0 -0.4990693902
O  O578  1  0.81600000  0.88450000  0.08700000  1.0 -0.4990693902
O  O579  1  0.43400000  0.86550000  0.58700000  1.0 -0.4990693902
O  O580  1  0.81600000  0.86550000  0.16300000  1.0 -0.4990693902
O  O581  1  0.61550000  0.68400000  0.91300000  1.0 -0.4990693902
O  O582  1  0.93400000  0.88450000  0.16300000  1.0 -0.4990693902
O  O583  1  0.13450000  0.06600000  0.91300000  1.0 -0.4990693902
O  O584  1  0.63450000  0.68400000  0.83700000  1.0 -0.4990693902
O  O585  1  0.31600000  0.88450000  0.58700000  1.0 -0.4990693902
O  O586  1  0.16300000  0.61550000  0.43400000  1.0 -0.4990693902
O  O587  1  0.88450000  0.91300000  0.18400000  1.0 -0.4990693902
O  O588  1  0.16300000  0.63450000  0.31600000  1.0 -0.4990693902
O  O589  1  0.06600000  0.66300000  0.38450000  1.0 -0.4990693902
O  O590  1  0.58700000  0.63450000  0.93400000  1.0 -0.4990693902
O  O591  1  0.86550000  0.91300000  0.06600000  1.0 -0.4990693902
O  O592  1  0.83700000  0.81600000  0.13450000  1.0 -0.4990693902
O  O593  1  0.86550000  0.33700000  0.68400000  1.0 -0.4990693902
O  O594  1  0.58700000  0.61550000  0.81600000  1.0 -0.4990693902
O  O595  1  0.68400000  0.58700000  0.88450000  1.0 -0.4990693902
O  O596  1  0.88450000  0.33700000  0.56600000  1.0 -0.4990693902
O  O597  1  0.91300000  0.43400000  0.63450000  1.0 -0.4990693902
O  O598  1  0.06600000  0.58700000  0.36550000  1.0 -0.4990693902
O  O599  1  0.83700000  0.43400000  0.61550000  1.0 -0.4990693902
O  O600  1  0.68400000  0.66300000  0.86550000  1.0 -0.4990693902
O  O601  1  0.91300000  0.81600000  0.11550000  1.0 -0.4990693902
O  O602  1  0.11550000  0.56600000  0.33700000  1.0 -0.4990693902
O  O603  1  0.81600000  0.38450000  0.58700000  1.0 -0.4990693902
O  O604  1  0.43400000  0.36550000  0.08700000  1.0 -0.4990693902
O  O605  1  0.81600000  0.36550000  0.66300000  1.0 -0.4990693902
O  O606  1  0.61550000  0.18400000  0.41300000  1.0 -0.4990693902
O  O607  1  0.93400000  0.38450000  0.66300000  1.0 -0.4990693902
O  O608  1  0.13450000  0.56600000  0.41300000  1.0 -0.4990693902
O  O609  1  0.63450000  0.18400000  0.33700000  1.0 -0.4990693902
O  O610  1  0.31600000  0.38450000  0.08700000  1.0 -0.4990693902
O  O611  1  0.66300000  0.11550000  0.43400000  1.0 -0.4990693902
O  O612  1  0.38450000  0.41300000  0.18400000  1.0 -0.4990693902
O  O613  1  0.66300000  0.13450000  0.31600000  1.0 -0.4990693902
O  O614  1  0.56600000  0.16300000  0.38450000  1.0 -0.4990693902
O  O615  1  0.08700000  0.13450000  0.93400000  1.0 -0.4990693902
O  O616  1  0.36550000  0.41300000  0.06600000  1.0 -0.4990693902
O  O617  1  0.33700000  0.31600000  0.13450000  1.0 -0.4990693902
O  O618  1  0.36550000  0.83700000  0.68400000  1.0 -0.4990693902
O  O619  1  0.08700000  0.11550000  0.81600000  1.0 -0.4990693902
O  O620  1  0.18400000  0.08700000  0.88450000  1.0 -0.4990693902
O  O621  1  0.38450000  0.83700000  0.56600000  1.0 -0.4990693902
O  O622  1  0.41300000  0.93400000  0.63450000  1.0 -0.4990693902
O  O623  1  0.56600000  0.08700000  0.36550000  1.0 -0.4990693902
O  O624  1  0.33700000  0.93400000  0.61550000  1.0 -0.4990693902
O  O625  1  0.18400000  0.16300000  0.86550000  1.0 -0.4990693902
O  O626  1  0.41300000  0.31600000  0.11550000  1.0 -0.4990693902
O  O627  1  0.61550000  0.06600000  0.33700000  1.0 -0.4990693902
O  O628  1  0.93400000  0.86550000  0.08700000  1.0 -0.4990693902
O  O629  1  0.31600000  0.86550000  0.66300000  1.0 -0.4990693902
O  O630  1  0.11550000  0.68400000  0.41300000  1.0 -0.4990693902
O  O631  1  0.43400000  0.88450000  0.66300000  1.0 -0.4990693902
O  O632  1  0.63450000  0.06600000  0.41300000  1.0 -0.4990693902
O  O633  1  0.13450000  0.68400000  0.33700000  1.0 -0.4990693902
O  O634  1  0.66300000  0.61550000  0.93400000  1.0 -0.4990693902
O  O635  1  0.38450000  0.91300000  0.68400000  1.0 -0.4990693902
O  O636  1  0.66300000  0.63450000  0.81600000  1.0 -0.4990693902
O  O637  1  0.56600000  0.66300000  0.88450000  1.0 -0.4990693902
O  O638  1  0.08700000  0.63450000  0.43400000  1.0 -0.4990693902
O  O639  1  0.36550000  0.91300000  0.56600000  1.0 -0.4990693902
O  O640  1  0.33700000  0.81600000  0.63450000  1.0 -0.4990693902
O  O641  1  0.36550000  0.33700000  0.18400000  1.0 -0.4990693902
O  O642  1  0.08700000  0.61550000  0.31600000  1.0 -0.4990693902
O  O643  1  0.18400000  0.58700000  0.38450000  1.0 -0.4990693902
O  O644  1  0.38450000  0.33700000  0.06600000  1.0 -0.4990693902
O  O645  1  0.41300000  0.43400000  0.13450000  1.0 -0.4990693902
O  O646  1  0.56600000  0.58700000  0.86550000  1.0 -0.4990693902
O  O647  1  0.33700000  0.43400000  0.11550000  1.0 -0.4990693902
O  O648  1  0.18400000  0.66300000  0.36550000  1.0 -0.4990693902
O  O649  1  0.41300000  0.81600000  0.61550000  1.0 -0.4990693902
O  O650  1  0.61550000  0.56600000  0.83700000  1.0 -0.4990693902
O  O651  1  0.93400000  0.36550000  0.58700000  1.0 -0.4990693902
O  O652  1  0.31600000  0.36550000  0.16300000  1.0 -0.4990693902
O  O653  1  0.11550000  0.18400000  0.91300000  1.0 -0.4990693902
O  O654  1  0.43400000  0.38450000  0.16300000  1.0 -0.4990693902
O  O655  1  0.63450000  0.56600000  0.91300000  1.0 -0.4990693902
O  O656  1  0.13450000  0.18400000  0.83700000  1.0 -0.4990693902
O  O657  1  0.84950000  0.87180000  0.90950000  1.0 -0.4990693902
O  O658  1  0.12820000  0.59950000  0.15950000  1.0 -0.4990693902
O  O659  1  0.84950000  0.87820000  0.34050000  1.0 -0.4990693902
O  O660  1  0.09050000  0.84950000  0.12820000  1.0 -0.4990693902
O  O661  1  0.40050000  0.87820000  0.40950000  1.0 -0.4990693902
O  O662  1  0.12180000  0.59950000  0.59050000  1.0 -0.4990693902
O  O663  1  0.15050000  0.84050000  0.37820000  1.0 -0.4990693902
O  O664  1  0.12180000  0.15050000  0.65950000  1.0 -0.4990693902
O  O665  1  0.40050000  0.87180000  0.84050000  1.0 -0.4990693902
O  O666  1  0.15950000  0.90050000  0.62820000  1.0 -0.4990693902
O  O667  1  0.12820000  0.15050000  0.09050000  1.0 -0.4990693902
O  O668  1  0.09950000  0.90950000  0.87820000  1.0 -0.4990693902
O  O669  1  0.09050000  0.90050000  0.12180000  1.0 -0.4990693902
O  O670  1  0.15050000  0.90950000  0.87180000  1.0 -0.4990693902
O  O671  1  0.15950000  0.84950000  0.62180000  1.0 -0.4990693902
O  O672  1  0.09950000  0.84050000  0.37180000  1.0 -0.4990693902
O  O673  1  0.87180000  0.09050000  0.15050000  1.0 -0.4990693902
O  O674  1  0.34050000  0.12820000  0.90050000  1.0 -0.4990693902
O  O675  1  0.40950000  0.12180000  0.40050000  1.0 -0.4990693902
O  O676  1  0.34050000  0.12180000  0.84950000  1.0 -0.4990693902
O  O677  1  0.37180000  0.15950000  0.09950000  1.0 -0.4990693902
O  O678  1  0.90950000  0.12820000  0.84950000  1.0 -0.4990693902
O  O679  1  0.87820000  0.09050000  0.09950000  1.0 -0.4990693902
O  O680  1  0.37820000  0.15950000  0.15050000  1.0 -0.4990693902
O  O681  1  0.84050000  0.12820000  0.40050000  1.0 -0.4990693902
O  O682  1  0.84950000  0.37180000  0.40950000  1.0 -0.4990693902
O  O683  1  0.12820000  0.09950000  0.65950000  1.0 -0.4990693902
O  O684  1  0.84950000  0.37820000  0.84050000  1.0 -0.4990693902
O  O685  1  0.09050000  0.34950000  0.62820000  1.0 -0.4990693902
O  O686  1  0.40050000  0.37820000  0.90950000  1.0 -0.4990693902
O  O687  1  0.12180000  0.09950000  0.09050000  1.0 -0.4990693902
O  O688  1  0.15050000  0.34050000  0.87820000  1.0 -0.4990693902
O  O689  1  0.12180000  0.65050000  0.15950000  1.0 -0.4990693902
O  O690  1  0.40050000  0.37180000  0.34050000  1.0 -0.4990693902
O  O691  1  0.15950000  0.40050000  0.12820000  1.0 -0.4990693902
O  O692  1  0.12820000  0.65050000  0.59050000  1.0 -0.4990693902
O  O693  1  0.09950000  0.40950000  0.37820000  1.0 -0.4990693902
O  O694  1  0.09050000  0.40050000  0.62180000  1.0 -0.4990693902
O  O695  1  0.15050000  0.40950000  0.37180000  1.0 -0.4990693902
O  O696  1  0.15950000  0.34950000  0.12180000  1.0 -0.4990693902
O  O697  1  0.09950000  0.34050000  0.87180000  1.0 -0.4990693902
O  O698  1  0.87180000  0.59050000  0.65050000  1.0 -0.4990693902
O  O699  1  0.34050000  0.62820000  0.40050000  1.0 -0.4990693902
O  O700  1  0.40950000  0.62180000  0.90050000  1.0 -0.4990693902
O  O701  1  0.34050000  0.62180000  0.34950000  1.0 -0.4990693902
O  O702  1  0.37180000  0.65950000  0.59950000  1.0 -0.4990693902
O  O703  1  0.90950000  0.62820000  0.34950000  1.0 -0.4990693902
O  O704  1  0.87820000  0.59050000  0.59950000  1.0 -0.4990693902
O  O705  1  0.37820000  0.65950000  0.65050000  1.0 -0.4990693902
O  O706  1  0.84050000  0.62820000  0.90050000  1.0 -0.4990693902
O  O707  1  0.34950000  0.87180000  0.40950000  1.0 -0.4990693902
O  O708  1  0.62820000  0.59950000  0.65950000  1.0 -0.4990693902
O  O709  1  0.34950000  0.87820000  0.84050000  1.0 -0.4990693902
O  O710  1  0.59050000  0.84950000  0.62820000  1.0 -0.4990693902
O  O711  1  0.90050000  0.87820000  0.90950000  1.0 -0.4990693902
O  O712  1  0.62180000  0.59950000  0.09050000  1.0 -0.4990693902
O  O713  1  0.65050000  0.84050000  0.87820000  1.0 -0.4990693902
O  O714  1  0.62180000  0.15050000  0.15950000  1.0 -0.4990693902
O  O715  1  0.90050000  0.87180000  0.34050000  1.0 -0.4990693902
O  O716  1  0.65950000  0.90050000  0.12820000  1.0 -0.4990693902
O  O717  1  0.62820000  0.15050000  0.59050000  1.0 -0.4990693902
O  O718  1  0.59950000  0.90950000  0.37820000  1.0 -0.4990693902
O  O719  1  0.59050000  0.90050000  0.62180000  1.0 -0.4990693902
O  O720  1  0.65050000  0.90950000  0.37180000  1.0 -0.4990693902
O  O721  1  0.65950000  0.84950000  0.12180000  1.0 -0.4990693902
O  O722  1  0.59950000  0.84050000  0.87180000  1.0 -0.4990693902
O  O723  1  0.37180000  0.09050000  0.65050000  1.0 -0.4990693902
O  O724  1  0.90950000  0.12180000  0.90050000  1.0 -0.4990693902
O  O725  1  0.84050000  0.12180000  0.34950000  1.0 -0.4990693902
O  O726  1  0.87180000  0.15950000  0.59950000  1.0 -0.4990693902
O  O727  1  0.40950000  0.12820000  0.34950000  1.0 -0.4990693902
O  O728  1  0.37820000  0.09050000  0.59950000  1.0 -0.4990693902
O  O729  1  0.87820000  0.15950000  0.65050000  1.0 -0.4990693902
O  O730  1  0.34950000  0.37180000  0.90950000  1.0 -0.4990693902
O  O731  1  0.62820000  0.09950000  0.15950000  1.0 -0.4990693902
O  O732  1  0.34950000  0.37820000  0.34050000  1.0 -0.4990693902
O  O733  1  0.59050000  0.34950000  0.12820000  1.0 -0.4990693902
O  O734  1  0.90050000  0.37820000  0.40950000  1.0 -0.4990693902
O  O735  1  0.62180000  0.09950000  0.59050000  1.0 -0.4990693902
O  O736  1  0.65050000  0.34050000  0.37820000  1.0 -0.4990693902
O  O737  1  0.62180000  0.65050000  0.65950000  1.0 -0.4990693902
O  O738  1  0.90050000  0.37180000  0.84050000  1.0 -0.4990693902
O  O739  1  0.65950000  0.40050000  0.62820000  1.0 -0.4990693902
O  O740  1  0.62820000  0.65050000  0.09050000  1.0 -0.4990693902
O  O741  1  0.59950000  0.40950000  0.87820000  1.0 -0.4990693902
O  O742  1  0.59050000  0.40050000  0.12180000  1.0 -0.4990693902
O  O743  1  0.65050000  0.40950000  0.87180000  1.0 -0.4990693902
O  O744  1  0.65950000  0.34950000  0.62180000  1.0 -0.4990693902
O  O745  1  0.59950000  0.34050000  0.37180000  1.0 -0.4990693902
O  O746  1  0.37180000  0.59050000  0.15050000  1.0 -0.4990693902
O  O747  1  0.90950000  0.62180000  0.40050000  1.0 -0.4990693902
O  O748  1  0.84050000  0.62180000  0.84950000  1.0 -0.4990693902
O  O749  1  0.87180000  0.65950000  0.09950000  1.0 -0.4990693902
O  O750  1  0.40950000  0.62820000  0.84950000  1.0 -0.4990693902
O  O751  1  0.37820000  0.59050000  0.09950000  1.0 -0.4990693902
O  O752  1  0.87820000  0.65950000  0.15050000  1.0 -0.4990693902
O  O753  1  0.15050000  0.12820000  0.09050000  1.0 -0.4990693902
O  O754  1  0.87180000  0.40050000  0.84050000  1.0 -0.4990693902
O  O755  1  0.15050000  0.12180000  0.65950000  1.0 -0.4990693902
O  O756  1  0.90950000  0.15050000  0.87180000  1.0 -0.4990693902
O  O757  1  0.59950000  0.12180000  0.59050000  1.0 -0.4990693902
O  O758  1  0.87820000  0.40050000  0.40950000  1.0 -0.4990693902
O  O759  1  0.84950000  0.15950000  0.62180000  1.0 -0.4990693902
O  O760  1  0.87820000  0.84950000  0.34050000  1.0 -0.4990693902
O  O761  1  0.59950000  0.12820000  0.15950000  1.0 -0.4990693902
O  O762  1  0.84050000  0.09950000  0.37180000  1.0 -0.4990693902
O  O763  1  0.87180000  0.84950000  0.90950000  1.0 -0.4990693902
O  O764  1  0.90050000  0.09050000  0.12180000  1.0 -0.4990693902
O  O765  1  0.90950000  0.09950000  0.87820000  1.0 -0.4990693902
O  O766  1  0.84950000  0.09050000  0.12820000  1.0 -0.4990693902
O  O767  1  0.84050000  0.15050000  0.37820000  1.0 -0.4990693902
O  O768  1  0.90050000  0.15950000  0.62820000  1.0 -0.4990693902
O  O769  1  0.12820000  0.90950000  0.84950000  1.0 -0.4990693902
O  O770  1  0.65950000  0.87180000  0.09950000  1.0 -0.4990693902
O  O771  1  0.59050000  0.87820000  0.59950000  1.0 -0.4990693902
O  O772  1  0.65950000  0.87820000  0.15050000  1.0 -0.4990693902
O  O773  1  0.62820000  0.84050000  0.90050000  1.0 -0.4990693902
O  O774  1  0.09050000  0.87180000  0.15050000  1.0 -0.4990693902
O  O775  1  0.12180000  0.90950000  0.90050000  1.0 -0.4990693902
O  O776  1  0.62180000  0.84050000  0.84950000  1.0 -0.4990693902
O  O777  1  0.15950000  0.87180000  0.59950000  1.0 -0.4990693902
O  O778  1  0.15050000  0.62820000  0.59050000  1.0 -0.4990693902
O  O779  1  0.87180000  0.90050000  0.34050000  1.0 -0.4990693902
O  O780  1  0.15050000  0.62180000  0.15950000  1.0 -0.4990693902
O  O781  1  0.90950000  0.65050000  0.37180000  1.0 -0.4990693902
O  O782  1  0.59950000  0.62180000  0.09050000  1.0 -0.4990693902
O  O783  1  0.87820000  0.90050000  0.90950000  1.0 -0.4990693902
O  O784  1  0.84950000  0.65950000  0.12180000  1.0 -0.4990693902
O  O785  1  0.87820000  0.34950000  0.84050000  1.0 -0.4990693902
O  O786  1  0.59950000  0.62820000  0.65950000  1.0 -0.4990693902
O  O787  1  0.84050000  0.59950000  0.87180000  1.0 -0.4990693902
O  O788  1  0.87180000  0.34950000  0.40950000  1.0 -0.4990693902
O  O789  1  0.90050000  0.59050000  0.62180000  1.0 -0.4990693902
O  O790  1  0.90950000  0.59950000  0.37820000  1.0 -0.4990693902
O  O791  1  0.84950000  0.59050000  0.62820000  1.0 -0.4990693902
O  O792  1  0.84050000  0.65050000  0.87820000  1.0 -0.4990693902
O  O793  1  0.90050000  0.65950000  0.12820000  1.0 -0.4990693902
O  O794  1  0.12820000  0.40950000  0.34950000  1.0 -0.4990693902
O  O795  1  0.65950000  0.37180000  0.59950000  1.0 -0.4990693902
O  O796  1  0.59050000  0.37820000  0.09950000  1.0 -0.4990693902
O  O797  1  0.65950000  0.37820000  0.65050000  1.0 -0.4990693902
O  O798  1  0.62820000  0.34050000  0.40050000  1.0 -0.4990693902
O  O799  1  0.09050000  0.37180000  0.65050000  1.0 -0.4990693902
O  O800  1  0.12180000  0.40950000  0.40050000  1.0 -0.4990693902
O  O801  1  0.62180000  0.34050000  0.34950000  1.0 -0.4990693902
O  O802  1  0.15950000  0.37180000  0.09950000  1.0 -0.4990693902
O  O803  1  0.65050000  0.12820000  0.59050000  1.0 -0.4990693902
O  O804  1  0.37180000  0.40050000  0.34050000  1.0 -0.4990693902
O  O805  1  0.65050000  0.12180000  0.15950000  1.0 -0.4990693902
O  O806  1  0.40950000  0.15050000  0.37180000  1.0 -0.4990693902
O  O807  1  0.09950000  0.12180000  0.09050000  1.0 -0.4990693902
O  O808  1  0.37820000  0.40050000  0.90950000  1.0 -0.4990693902
O  O809  1  0.34950000  0.15950000  0.12180000  1.0 -0.4990693902
O  O810  1  0.37820000  0.84950000  0.84050000  1.0 -0.4990693902
O  O811  1  0.09950000  0.12820000  0.65950000  1.0 -0.4990693902
O  O812  1  0.34050000  0.09950000  0.87180000  1.0 -0.4990693902
O  O813  1  0.37180000  0.84950000  0.40950000  1.0 -0.4990693902
O  O814  1  0.40050000  0.09050000  0.62180000  1.0 -0.4990693902
O  O815  1  0.40950000  0.09950000  0.37820000  1.0 -0.4990693902
O  O816  1  0.34950000  0.09050000  0.62820000  1.0 -0.4990693902
O  O817  1  0.34050000  0.15050000  0.87820000  1.0 -0.4990693902
O  O818  1  0.40050000  0.15950000  0.12820000  1.0 -0.4990693902
O  O819  1  0.62820000  0.90950000  0.34950000  1.0 -0.4990693902
O  O820  1  0.09050000  0.87820000  0.09950000  1.0 -0.4990693902
O  O821  1  0.15950000  0.87820000  0.65050000  1.0 -0.4990693902
O  O822  1  0.12820000  0.84050000  0.40050000  1.0 -0.4990693902
O  O823  1  0.59050000  0.87180000  0.65050000  1.0 -0.4990693902
O  O824  1  0.62180000  0.90950000  0.40050000  1.0 -0.4990693902
O  O825  1  0.12180000  0.84050000  0.34950000  1.0 -0.4990693902
O  O826  1  0.65050000  0.62820000  0.09050000  1.0 -0.4990693902
O  O827  1  0.37180000  0.90050000  0.84050000  1.0 -0.4990693902
O  O828  1  0.65050000  0.62180000  0.65950000  1.0 -0.4990693902
O  O829  1  0.40950000  0.65050000  0.87180000  1.0 -0.4990693902
O  O830  1  0.09950000  0.62180000  0.59050000  1.0 -0.4990693902
O  O831  1  0.37820000  0.90050000  0.40950000  1.0 -0.4990693902
O  O832  1  0.34950000  0.65950000  0.62180000  1.0 -0.4990693902
O  O833  1  0.37820000  0.34950000  0.34050000  1.0 -0.4990693902
O  O834  1  0.09950000  0.62820000  0.15950000  1.0 -0.4990693902
O  O835  1  0.34050000  0.59950000  0.37180000  1.0 -0.4990693902
O  O836  1  0.37180000  0.34950000  0.90950000  1.0 -0.4990693902
O  O837  1  0.40050000  0.59050000  0.12180000  1.0 -0.4990693902
O  O838  1  0.40950000  0.59950000  0.87820000  1.0 -0.4990693902
O  O839  1  0.34950000  0.59050000  0.12820000  1.0 -0.4990693902
O  O840  1  0.34050000  0.65050000  0.37820000  1.0 -0.4990693902
O  O841  1  0.40050000  0.65950000  0.62820000  1.0 -0.4990693902
O  O842  1  0.62820000  0.40950000  0.84950000  1.0 -0.4990693902
O  O843  1  0.09050000  0.37820000  0.59950000  1.0 -0.4990693902
O  O844  1  0.15950000  0.37820000  0.15050000  1.0 -0.4990693902
O  O845  1  0.12820000  0.34050000  0.90050000  1.0 -0.4990693902
O  O846  1  0.59050000  0.37180000  0.15050000  1.0 -0.4990693902
O  O847  1  0.62180000  0.40950000  0.90050000  1.0 -0.4990693902
O  O848  1  0.12180000  0.34050000  0.84950000  1.0 -0.4990693902
O  O849  1  0.87820000  0.85060000  0.84970000  1.0 -0.4506754119
O  O850  1  0.14940000  0.62820000  0.09970000  1.0 -0.4506754119
O  O851  1  0.87820000  0.89940000  0.40030000  1.0 -0.4506754119
O  O852  1  0.15030000  0.87820000  0.14940000  1.0 -0.4506754119
O  O853  1  0.37180000  0.89940000  0.34970000  1.0 -0.4506754119
O  O854  1  0.10060000  0.62820000  0.65030000  1.0 -0.4506754119
O  O855  1  0.12180000  0.90030000  0.39940000  1.0 -0.4506754119
O  O856  1  0.10060000  0.12180000  0.59970000  1.0 -0.4506754119
O  O857  1  0.37180000  0.85060000  0.90030000  1.0 -0.4506754119
O  O858  1  0.09970000  0.87180000  0.64940000  1.0 -0.4506754119
O  O859  1  0.14940000  0.12180000  0.15030000  1.0 -0.4506754119
O  O860  1  0.12820000  0.84970000  0.89940000  1.0 -0.4506754119
O  O861  1  0.15030000  0.87180000  0.10060000  1.0 -0.4506754119
O  O862  1  0.12180000  0.84970000  0.85060000  1.0 -0.4506754119
O  O863  1  0.09970000  0.87820000  0.60060000  1.0 -0.4506754119
O  O864  1  0.12820000  0.90030000  0.35060000  1.0 -0.4506754119
O  O865  1  0.85060000  0.15030000  0.12180000  1.0 -0.4506754119
O  O866  1  0.40030000  0.14940000  0.87180000  1.0 -0.4506754119
O  O867  1  0.34970000  0.10060000  0.37180000  1.0 -0.4506754119
O  O868  1  0.40030000  0.10060000  0.87820000  1.0 -0.4506754119
O  O869  1  0.35060000  0.09970000  0.12820000  1.0 -0.4506754119
O  O870  1  0.84970000  0.14940000  0.87820000  1.0 -0.4506754119
O  O871  1  0.89940000  0.15030000  0.12820000  1.0 -0.4506754119
O  O872  1  0.39940000  0.09970000  0.12180000  1.0 -0.4506754119
O  O873  1  0.90030000  0.14940000  0.37180000  1.0 -0.4506754119
O  O874  1  0.87820000  0.35060000  0.34970000  1.0 -0.4506754119
O  O875  1  0.14940000  0.12820000  0.59970000  1.0 -0.4506754119
O  O876  1  0.87820000  0.39940000  0.90030000  1.0 -0.4506754119
O  O877  1  0.15030000  0.37820000  0.64940000  1.0 -0.4506754119
O  O878  1  0.37180000  0.39940000  0.84970000  1.0 -0.4506754119
O  O879  1  0.10060000  0.12820000  0.15030000  1.0 -0.4506754119
O  O880  1  0.12180000  0.40030000  0.89940000  1.0 -0.4506754119
O  O881  1  0.10060000  0.62180000  0.09970000  1.0 -0.4506754119
O  O882  1  0.37180000  0.35060000  0.40030000  1.0 -0.4506754119
O  O883  1  0.09970000  0.37180000  0.14940000  1.0 -0.4506754119
O  O884  1  0.14940000  0.62180000  0.65030000  1.0 -0.4506754119
O  O885  1  0.12820000  0.34970000  0.39940000  1.0 -0.4506754119
O  O886  1  0.15030000  0.37180000  0.60060000  1.0 -0.4506754119
O  O887  1  0.12180000  0.34970000  0.35060000  1.0 -0.4506754119
O  O888  1  0.09970000  0.37820000  0.10060000  1.0 -0.4506754119
O  O889  1  0.12820000  0.40030000  0.85060000  1.0 -0.4506754119
O  O890  1  0.85060000  0.65030000  0.62180000  1.0 -0.4506754119
O  O891  1  0.40030000  0.64940000  0.37180000  1.0 -0.4506754119
O  O892  1  0.34970000  0.60060000  0.87180000  1.0 -0.4506754119
O  O893  1  0.40030000  0.60060000  0.37820000  1.0 -0.4506754119
O  O894  1  0.35060000  0.59970000  0.62820000  1.0 -0.4506754119
O  O895  1  0.84970000  0.64940000  0.37820000  1.0 -0.4506754119
O  O896  1  0.89940000  0.65030000  0.62820000  1.0 -0.4506754119
O  O897  1  0.39940000  0.59970000  0.62180000  1.0 -0.4506754119
O  O898  1  0.90030000  0.64940000  0.87180000  1.0 -0.4506754119
O  O899  1  0.37820000  0.85060000  0.34970000  1.0 -0.4506754119
O  O900  1  0.64940000  0.62820000  0.59970000  1.0 -0.4506754119
O  O901  1  0.37820000  0.89940000  0.90030000  1.0 -0.4506754119
O  O902  1  0.65030000  0.87820000  0.64940000  1.0 -0.4506754119
O  O903  1  0.87180000  0.89940000  0.84970000  1.0 -0.4506754119
O  O904  1  0.60060000  0.62820000  0.15030000  1.0 -0.4506754119
O  O905  1  0.62180000  0.90030000  0.89940000  1.0 -0.4506754119
O  O906  1  0.60060000  0.12180000  0.09970000  1.0 -0.4506754119
O  O907  1  0.87180000  0.85060000  0.40030000  1.0 -0.4506754119
O  O908  1  0.59970000  0.87180000  0.14940000  1.0 -0.4506754119
O  O909  1  0.64940000  0.12180000  0.65030000  1.0 -0.4506754119
O  O910  1  0.62820000  0.84970000  0.39940000  1.0 -0.4506754119
O  O911  1  0.65030000  0.87180000  0.60060000  1.0 -0.4506754119
O  O912  1  0.62180000  0.84970000  0.35060000  1.0 -0.4506754119
O  O913  1  0.59970000  0.87820000  0.10060000  1.0 -0.4506754119
O  O914  1  0.62820000  0.90030000  0.85060000  1.0 -0.4506754119
O  O915  1  0.35060000  0.15030000  0.62180000  1.0 -0.4506754119
O  O916  1  0.84970000  0.10060000  0.87180000  1.0 -0.4506754119
O  O917  1  0.90030000  0.10060000  0.37820000  1.0 -0.4506754119
O  O918  1  0.85060000  0.09970000  0.62820000  1.0 -0.4506754119
O  O919  1  0.34970000  0.14940000  0.37820000  1.0 -0.4506754119
O  O920  1  0.39940000  0.15030000  0.62820000  1.0 -0.4506754119
O  O921  1  0.89940000  0.09970000  0.62180000  1.0 -0.4506754119
O  O922  1  0.37820000  0.35060000  0.84970000  1.0 -0.4506754119
O  O923  1  0.64940000  0.12820000  0.09970000  1.0 -0.4506754119
O  O924  1  0.37820000  0.39940000  0.40030000  1.0 -0.4506754119
O  O925  1  0.65030000  0.37820000  0.14940000  1.0 -0.4506754119
O  O926  1  0.87180000  0.39940000  0.34970000  1.0 -0.4506754119
O  O927  1  0.60060000  0.12820000  0.65030000  1.0 -0.4506754119
O  O928  1  0.62180000  0.40030000  0.39940000  1.0 -0.4506754119
O  O929  1  0.60060000  0.62180000  0.59970000  1.0 -0.4506754119
O  O930  1  0.87180000  0.35060000  0.90030000  1.0 -0.4506754119
O  O931  1  0.59970000  0.37180000  0.64940000  1.0 -0.4506754119
O  O932  1  0.64940000  0.62180000  0.15030000  1.0 -0.4506754119
O  O933  1  0.62820000  0.34970000  0.89940000  1.0 -0.4506754119
O  O934  1  0.65030000  0.37180000  0.10060000  1.0 -0.4506754119
O  O935  1  0.62180000  0.34970000  0.85060000  1.0 -0.4506754119
O  O936  1  0.59970000  0.37820000  0.60060000  1.0 -0.4506754119
O  O937  1  0.62820000  0.40030000  0.35060000  1.0 -0.4506754119
O  O938  1  0.35060000  0.65030000  0.12180000  1.0 -0.4506754119
O  O939  1  0.84970000  0.60060000  0.37180000  1.0 -0.4506754119
O  O940  1  0.90030000  0.60060000  0.87820000  1.0 -0.4506754119
O  O941  1  0.85060000  0.59970000  0.12820000  1.0 -0.4506754119
O  O942  1  0.34970000  0.64940000  0.87820000  1.0 -0.4506754119
O  O943  1  0.39940000  0.65030000  0.12820000  1.0 -0.4506754119
O  O944  1  0.89940000  0.59970000  0.12180000  1.0 -0.4506754119
O  O945  1  0.12180000  0.14940000  0.15030000  1.0 -0.4506754119
O  O946  1  0.85060000  0.37180000  0.90030000  1.0 -0.4506754119
O  O947  1  0.12180000  0.10060000  0.59970000  1.0 -0.4506754119
O  O948  1  0.84970000  0.12180000  0.85060000  1.0 -0.4506754119
O  O949  1  0.62820000  0.10060000  0.65030000  1.0 -0.4506754119
O  O950  1  0.89940000  0.37180000  0.34970000  1.0 -0.4506754119
O  O951  1  0.87820000  0.09970000  0.60060000  1.0 -0.4506754119
O  O952  1  0.89940000  0.87820000  0.40030000  1.0 -0.4506754119
O  O953  1  0.62820000  0.14940000  0.09970000  1.0 -0.4506754119
O  O954  1  0.90030000  0.12820000  0.35060000  1.0 -0.4506754119
O  O955  1  0.85060000  0.87820000  0.84970000  1.0 -0.4506754119
O  O956  1  0.87180000  0.15030000  0.10060000  1.0 -0.4506754119
O  O957  1  0.84970000  0.12820000  0.89940000  1.0 -0.4506754119
O  O958  1  0.87820000  0.15030000  0.14940000  1.0 -0.4506754119
O  O959  1  0.90030000  0.12180000  0.39940000  1.0 -0.4506754119
O  O960  1  0.87180000  0.09970000  0.64940000  1.0 -0.4506754119
O  O961  1  0.14940000  0.84970000  0.87820000  1.0 -0.4506754119
O  O962  1  0.59970000  0.85060000  0.12820000  1.0 -0.4506754119
O  O963  1  0.65030000  0.89940000  0.62820000  1.0 -0.4506754119
O  O964  1  0.59970000  0.89940000  0.12180000  1.0 -0.4506754119
O  O965  1  0.64940000  0.90030000  0.87180000  1.0 -0.4506754119
O  O966  1  0.15030000  0.85060000  0.12180000  1.0 -0.4506754119
O  O967  1  0.10060000  0.84970000  0.87180000  1.0 -0.4506754119
O  O968  1  0.60060000  0.90030000  0.87820000  1.0 -0.4506754119
O  O969  1  0.09970000  0.85060000  0.62820000  1.0 -0.4506754119
O  O970  1  0.12180000  0.64940000  0.65030000  1.0 -0.4506754119
O  O971  1  0.85060000  0.87180000  0.40030000  1.0 -0.4506754119
O  O972  1  0.12180000  0.60060000  0.09970000  1.0 -0.4506754119
O  O973  1  0.84970000  0.62180000  0.35060000  1.0 -0.4506754119
O  O974  1  0.62820000  0.60060000  0.15030000  1.0 -0.4506754119
O  O975  1  0.89940000  0.87180000  0.84970000  1.0 -0.4506754119
O  O976  1  0.87820000  0.59970000  0.10060000  1.0 -0.4506754119
O  O977  1  0.89940000  0.37820000  0.90030000  1.0 -0.4506754119
O  O978  1  0.62820000  0.64940000  0.59970000  1.0 -0.4506754119
O  O979  1  0.90030000  0.62820000  0.85060000  1.0 -0.4506754119
O  O980  1  0.85060000  0.37820000  0.34970000  1.0 -0.4506754119
O  O981  1  0.87180000  0.65030000  0.60060000  1.0 -0.4506754119
O  O982  1  0.84970000  0.62820000  0.39940000  1.0 -0.4506754119
O  O983  1  0.87820000  0.65030000  0.64940000  1.0 -0.4506754119
O  O984  1  0.90030000  0.62180000  0.89940000  1.0 -0.4506754119
O  O985  1  0.87180000  0.59970000  0.14940000  1.0 -0.4506754119
O  O986  1  0.14940000  0.34970000  0.37820000  1.0 -0.4506754119
O  O987  1  0.59970000  0.35060000  0.62820000  1.0 -0.4506754119
O  O988  1  0.65030000  0.39940000  0.12820000  1.0 -0.4506754119
O  O989  1  0.59970000  0.39940000  0.62180000  1.0 -0.4506754119
O  O990  1  0.64940000  0.40030000  0.37180000  1.0 -0.4506754119
O  O991  1  0.15030000  0.35060000  0.62180000  1.0 -0.4506754119
O  O992  1  0.10060000  0.34970000  0.37180000  1.0 -0.4506754119
O  O993  1  0.60060000  0.40030000  0.37820000  1.0 -0.4506754119
O  O994  1  0.09970000  0.35060000  0.12820000  1.0 -0.4506754119
O  O995  1  0.62180000  0.14940000  0.65030000  1.0 -0.4506754119
O  O996  1  0.35060000  0.37180000  0.40030000  1.0 -0.4506754119
O  O997  1  0.62180000  0.10060000  0.09970000  1.0 -0.4506754119
O  O998  1  0.34970000  0.12180000  0.35060000  1.0 -0.4506754119
O  O999  1  0.12820000  0.10060000  0.15030000  1.0 -0.4506754119
O  O1000  1  0.39940000  0.37180000  0.84970000  1.0 -0.4506754119
O  O1001  1  0.37820000  0.09970000  0.10060000  1.0 -0.4506754119
O  O1002  1  0.39940000  0.87820000  0.90030000  1.0 -0.4506754119
O  O1003  1  0.12820000  0.14940000  0.59970000  1.0 -0.4506754119
O  O1004  1  0.40030000  0.12820000  0.85060000  1.0 -0.4506754119
O  O1005  1  0.35060000  0.87820000  0.34970000  1.0 -0.4506754119
O  O1006  1  0.37180000  0.15030000  0.60060000  1.0 -0.4506754119
O  O1007  1  0.34970000  0.12820000  0.39940000  1.0 -0.4506754119
O  O1008  1  0.37820000  0.15030000  0.64940000  1.0 -0.4506754119
O  O1009  1  0.40030000  0.12180000  0.89940000  1.0 -0.4506754119
O  O1010  1  0.37180000  0.09970000  0.14940000  1.0 -0.4506754119
O  O1011  1  0.64940000  0.84970000  0.37820000  1.0 -0.4506754119
O  O1012  1  0.15030000  0.89940000  0.12820000  1.0 -0.4506754119
O  O1013  1  0.09970000  0.89940000  0.62180000  1.0 -0.4506754119
O  O1014  1  0.14940000  0.90030000  0.37180000  1.0 -0.4506754119
O  O1015  1  0.65030000  0.85060000  0.62180000  1.0 -0.4506754119
O  O1016  1  0.60060000  0.84970000  0.37180000  1.0 -0.4506754119
O  O1017  1  0.10060000  0.90030000  0.37820000  1.0 -0.4506754119
O  O1018  1  0.62180000  0.64940000  0.15030000  1.0 -0.4506754119
O  O1019  1  0.35060000  0.87180000  0.90030000  1.0 -0.4506754119
O  O1020  1  0.62180000  0.60060000  0.59970000  1.0 -0.4506754119
O  O1021  1  0.34970000  0.62180000  0.85060000  1.0 -0.4506754119
O  O1022  1  0.12820000  0.60060000  0.65030000  1.0 -0.4506754119
O  O1023  1  0.39940000  0.87180000  0.34970000  1.0 -0.4506754119
O  O1024  1  0.37820000  0.59970000  0.60060000  1.0 -0.4506754119
O  O1025  1  0.39940000  0.37820000  0.40030000  1.0 -0.4506754119
O  O1026  1  0.12820000  0.64940000  0.09970000  1.0 -0.4506754119
O  O1027  1  0.40030000  0.62820000  0.35060000  1.0 -0.4506754119
O  O1028  1  0.35060000  0.37820000  0.84970000  1.0 -0.4506754119
O  O1029  1  0.37180000  0.65030000  0.10060000  1.0 -0.4506754119
O  O1030  1  0.34970000  0.62820000  0.89940000  1.0 -0.4506754119
O  O1031  1  0.37820000  0.65030000  0.14940000  1.0 -0.4506754119
O  O1032  1  0.40030000  0.62180000  0.39940000  1.0 -0.4506754119
O  O1033  1  0.37180000  0.59970000  0.64940000  1.0 -0.4506754119
O  O1034  1  0.64940000  0.34970000  0.87820000  1.0 -0.4506754119
O  O1035  1  0.15030000  0.39940000  0.62820000  1.0 -0.4506754119
O  O1036  1  0.09970000  0.39940000  0.12180000  1.0 -0.4506754119
O  O1037  1  0.14940000  0.40030000  0.87180000  1.0 -0.4506754119
O  O1038  1  0.65030000  0.35060000  0.12180000  1.0 -0.4506754119
O  O1039  1  0.60060000  0.34970000  0.87180000  1.0 -0.4506754119
O  O1040  1  0.10060000  0.40030000  0.87820000  1.0 -0.4506754119
O  O1041  1  0.83960000  0.86680000  0.87950000  1.0 -0.4990693902
O  O1042  1  0.13320000  0.58960000  0.12950000  1.0 -0.4990693902
O  O1043  1  0.83960000  0.88320000  0.37050000  1.0 -0.4990693902
O  O1044  1  0.12050000  0.83960000  0.13320000  1.0 -0.4990693902
O  O1045  1  0.41040000  0.88320000  0.37950000  1.0 -0.4990693902
O  O1046  1  0.11680000  0.58960000  0.62050000  1.0 -0.4990693902
O  O1047  1  0.16040000  0.87050000  0.38320000  1.0 -0.4990693902
O  O1048  1  0.11680000  0.16040000  0.62950000  1.0 -0.4990693902
O  O1049  1  0.41040000  0.86680000  0.87050000  1.0 -0.4990693902
O  O1050  1  0.12950000  0.91040000  0.63320000  1.0 -0.4990693902
O  O1051  1  0.13320000  0.16040000  0.12050000  1.0 -0.4990693902
O  O1052  1  0.08960000  0.87950000  0.88320000  1.0 -0.4990693902
O  O1053  1  0.12050000  0.91040000  0.11680000  1.0 -0.4990693902
O  O1054  1  0.16040000  0.87950000  0.86680000  1.0 -0.4990693902
O  O1055  1  0.12950000  0.83960000  0.61680000  1.0 -0.4990693902
O  O1056  1  0.08960000  0.87050000  0.36680000  1.0 -0.4990693902
O  O1057  1  0.86680000  0.12050000  0.16040000  1.0 -0.4990693902
O  O1058  1  0.37050000  0.13320000  0.91040000  1.0 -0.4990693902
O  O1059  1  0.37950000  0.11680000  0.41040000  1.0 -0.4990693902
O  O1060  1  0.37050000  0.11680000  0.83960000  1.0 -0.4990693902
O  O1061  1  0.36680000  0.12950000  0.08960000  1.0 -0.4990693902
O  O1062  1  0.87950000  0.13320000  0.83960000  1.0 -0.4990693902
O  O1063  1  0.88320000  0.12050000  0.08960000  1.0 -0.4990693902
O  O1064  1  0.38320000  0.12950000  0.16040000  1.0 -0.4990693902
O  O1065  1  0.87050000  0.13320000  0.41040000  1.0 -0.4990693902
O  O1066  1  0.83960000  0.36680000  0.37950000  1.0 -0.4990693902
O  O1067  1  0.13320000  0.08960000  0.62950000  1.0 -0.4990693902
O  O1068  1  0.83960000  0.38320000  0.87050000  1.0 -0.4990693902
O  O1069  1  0.12050000  0.33960000  0.63320000  1.0 -0.4990693902
O  O1070  1  0.41040000  0.38320000  0.87950000  1.0 -0.4990693902
O  O1071  1  0.11680000  0.08960000  0.12050000  1.0 -0.4990693902
O  O1072  1  0.16040000  0.37050000  0.88320000  1.0 -0.4990693902
O  O1073  1  0.11680000  0.66040000  0.12950000  1.0 -0.4990693902
O  O1074  1  0.41040000  0.36680000  0.37050000  1.0 -0.4990693902
O  O1075  1  0.12950000  0.41040000  0.13320000  1.0 -0.4990693902
O  O1076  1  0.13320000  0.66040000  0.62050000  1.0 -0.4990693902
O  O1077  1  0.08960000  0.37950000  0.38320000  1.0 -0.4990693902
O  O1078  1  0.12050000  0.41040000  0.61680000  1.0 -0.4990693902
O  O1079  1  0.16040000  0.37950000  0.36680000  1.0 -0.4990693902
O  O1080  1  0.12950000  0.33960000  0.11680000  1.0 -0.4990693902
O  O1081  1  0.08960000  0.37050000  0.86680000  1.0 -0.4990693902
O  O1082  1  0.86680000  0.62050000  0.66040000  1.0 -0.4990693902
O  O1083  1  0.37050000  0.63320000  0.41040000  1.0 -0.4990693902
O  O1084  1  0.37950000  0.61680000  0.91040000  1.0 -0.4990693902
O  O1085  1  0.37050000  0.61680000  0.33960000  1.0 -0.4990693902
O  O1086  1  0.36680000  0.62950000  0.58960000  1.0 -0.4990693902
O  O1087  1  0.87950000  0.63320000  0.33960000  1.0 -0.4990693902
O  O1088  1  0.88320000  0.62050000  0.58960000  1.0 -0.4990693902
O  O1089  1  0.38320000  0.62950000  0.66040000  1.0 -0.4990693902
O  O1090  1  0.87050000  0.63320000  0.91040000  1.0 -0.4990693902
O  O1091  1  0.33960000  0.86680000  0.37950000  1.0 -0.4990693902
O  O1092  1  0.63320000  0.58960000  0.62950000  1.0 -0.4990693902
O  O1093  1  0.33960000  0.88320000  0.87050000  1.0 -0.4990693902
O  O1094  1  0.62050000  0.83960000  0.63320000  1.0 -0.4990693902
O  O1095  1  0.91040000  0.88320000  0.87950000  1.0 -0.4990693902
O  O1096  1  0.61680000  0.58960000  0.12050000  1.0 -0.4990693902
O  O1097  1  0.66040000  0.87050000  0.88320000  1.0 -0.4990693902
O  O1098  1  0.61680000  0.16040000  0.12950000  1.0 -0.4990693902
O  O1099  1  0.91040000  0.86680000  0.37050000  1.0 -0.4990693902
O  O1100  1  0.62950000  0.91040000  0.13320000  1.0 -0.4990693902
O  O1101  1  0.63320000  0.16040000  0.62050000  1.0 -0.4990693902
O  O1102  1  0.58960000  0.87950000  0.38320000  1.0 -0.4990693902
O  O1103  1  0.62050000  0.91040000  0.61680000  1.0 -0.4990693902
O  O1104  1  0.66040000  0.87950000  0.36680000  1.0 -0.4990693902
O  O1105  1  0.62950000  0.83960000  0.11680000  1.0 -0.4990693902
O  O1106  1  0.58960000  0.87050000  0.86680000  1.0 -0.4990693902
O  O1107  1  0.36680000  0.12050000  0.66040000  1.0 -0.4990693902
O  O1108  1  0.87950000  0.11680000  0.91040000  1.0 -0.4990693902
O  O1109  1  0.87050000  0.11680000  0.33960000  1.0 -0.4990693902
O  O1110  1  0.86680000  0.12950000  0.58960000  1.0 -0.4990693902
O  O1111  1  0.37950000  0.13320000  0.33960000  1.0 -0.4990693902
O  O1112  1  0.38320000  0.12050000  0.58960000  1.0 -0.4990693902
O  O1113  1  0.88320000  0.12950000  0.66040000  1.0 -0.4990693902
O  O1114  1  0.33960000  0.36680000  0.87950000  1.0 -0.4990693902
O  O1115  1  0.63320000  0.08960000  0.12950000  1.0 -0.4990693902
O  O1116  1  0.33960000  0.38320000  0.37050000  1.0 -0.4990693902
O  O1117  1  0.62050000  0.33960000  0.13320000  1.0 -0.4990693902
O  O1118  1  0.91040000  0.38320000  0.37950000  1.0 -0.4990693902
O  O1119  1  0.61680000  0.08960000  0.62050000  1.0 -0.4990693902
O  O1120  1  0.66040000  0.37050000  0.38320000  1.0 -0.4990693902
O  O1121  1  0.61680000  0.66040000  0.62950000  1.0 -0.4990693902
O  O1122  1  0.91040000  0.36680000  0.87050000  1.0 -0.4990693902
O  O1123  1  0.62950000  0.41040000  0.63320000  1.0 -0.4990693902
O  O1124  1  0.63320000  0.66040000  0.12050000  1.0 -0.4990693902
O  O1125  1  0.58960000  0.37950000  0.88320000  1.0 -0.4990693902
O  O1126  1  0.62050000  0.41040000  0.11680000  1.0 -0.4990693902
O  O1127  1  0.66040000  0.37950000  0.86680000  1.0 -0.4990693902
O  O1128  1  0.62950000  0.33960000  0.61680000  1.0 -0.4990693902
O  O1129  1  0.58960000  0.37050000  0.36680000  1.0 -0.4990693902
O  O1130  1  0.36680000  0.62050000  0.16040000  1.0 -0.4990693902
O  O1131  1  0.87950000  0.61680000  0.41040000  1.0 -0.4990693902
O  O1132  1  0.87050000  0.61680000  0.83960000  1.0 -0.4990693902
O  O1133  1  0.86680000  0.62950000  0.08960000  1.0 -0.4990693902
O  O1134  1  0.37950000  0.63320000  0.83960000  1.0 -0.4990693902
O  O1135  1  0.38320000  0.62050000  0.08960000  1.0 -0.4990693902
O  O1136  1  0.88320000  0.62950000  0.16040000  1.0 -0.4990693902
O  O1137  1  0.16040000  0.13320000  0.12050000  1.0 -0.4990693902
O  O1138  1  0.86680000  0.41040000  0.87050000  1.0 -0.4990693902
O  O1139  1  0.16040000  0.11680000  0.62950000  1.0 -0.4990693902
O  O1140  1  0.87950000  0.16040000  0.86680000  1.0 -0.4990693902
O  O1141  1  0.58960000  0.11680000  0.62050000  1.0 -0.4990693902
O  O1142  1  0.88320000  0.41040000  0.37950000  1.0 -0.4990693902
O  O1143  1  0.83960000  0.12950000  0.61680000  1.0 -0.4990693902
O  O1144  1  0.88320000  0.83960000  0.37050000  1.0 -0.4990693902
O  O1145  1  0.58960000  0.13320000  0.12950000  1.0 -0.4990693902
O  O1146  1  0.87050000  0.08960000  0.36680000  1.0 -0.4990693902
O  O1147  1  0.86680000  0.83960000  0.87950000  1.0 -0.4990693902
O  O1148  1  0.91040000  0.12050000  0.11680000  1.0 -0.4990693902
O  O1149  1  0.87950000  0.08960000  0.88320000  1.0 -0.4990693902
O  O1150  1  0.83960000  0.12050000  0.13320000  1.0 -0.4990693902
O  O1151  1  0.87050000  0.16040000  0.38320000  1.0 -0.4990693902
O  O1152  1  0.91040000  0.12950000  0.63320000  1.0 -0.4990693902
O  O1153  1  0.13320000  0.87950000  0.83960000  1.0 -0.4990693902
O  O1154  1  0.62950000  0.86680000  0.08960000  1.0 -0.4990693902
O  O1155  1  0.62050000  0.88320000  0.58960000  1.0 -0.4990693902
O  O1156  1  0.62950000  0.88320000  0.16040000  1.0 -0.4990693902
O  O1157  1  0.63320000  0.87050000  0.91040000  1.0 -0.4990693902
O  O1158  1  0.12050000  0.86680000  0.16040000  1.0 -0.4990693902
O  O1159  1  0.11680000  0.87950000  0.91040000  1.0 -0.4990693902
O  O1160  1  0.61680000  0.87050000  0.83960000  1.0 -0.4990693902
O  O1161  1  0.12950000  0.86680000  0.58960000  1.0 -0.4990693902
O  O1162  1  0.16040000  0.63320000  0.62050000  1.0 -0.4990693902
O  O1163  1  0.86680000  0.91040000  0.37050000  1.0 -0.4990693902
O  O1164  1  0.16040000  0.61680000  0.12950000  1.0 -0.4990693902
O  O1165  1  0.87950000  0.66040000  0.36680000  1.0 -0.4990693902
O  O1166  1  0.58960000  0.61680000  0.12050000  1.0 -0.4990693902
O  O1167  1  0.88320000  0.91040000  0.87950000  1.0 -0.4990693902
O  O1168  1  0.83960000  0.62950000  0.11680000  1.0 -0.4990693902
O  O1169  1  0.88320000  0.33960000  0.87050000  1.0 -0.4990693902
O  O1170  1  0.58960000  0.63320000  0.62950000  1.0 -0.4990693902
O  O1171  1  0.87050000  0.58960000  0.86680000  1.0 -0.4990693902
O  O1172  1  0.86680000  0.33960000  0.37950000  1.0 -0.4990693902
O  O1173  1  0.91040000  0.62050000  0.61680000  1.0 -0.4990693902
O  O1174  1  0.87950000  0.58960000  0.38320000  1.0 -0.4990693902
O  O1175  1  0.83960000  0.62050000  0.63320000  1.0 -0.4990693902
O  O1176  1  0.87050000  0.66040000  0.88320000  1.0 -0.4990693902
O  O1177  1  0.91040000  0.62950000  0.13320000  1.0 -0.4990693902
O  O1178  1  0.13320000  0.37950000  0.33960000  1.0 -0.4990693902
O  O1179  1  0.62950000  0.36680000  0.58960000  1.0 -0.4990693902
O  O1180  1  0.62050000  0.38320000  0.08960000  1.0 -0.4990693902
O  O1181  1  0.62950000  0.38320000  0.66040000  1.0 -0.4990693902
O  O1182  1  0.63320000  0.37050000  0.41040000  1.0 -0.4990693902
O  O1183  1  0.12050000  0.36680000  0.66040000  1.0 -0.4990693902
O  O1184  1  0.11680000  0.37950000  0.41040000  1.0 -0.4990693902
O  O1185  1  0.61680000  0.37050000  0.33960000  1.0 -0.4990693902
O  O1186  1  0.12950000  0.36680000  0.08960000  1.0 -0.4990693902
O  O1187  1  0.66040000  0.13320000  0.62050000  1.0 -0.4990693902
O  O1188  1  0.36680000  0.41040000  0.37050000  1.0 -0.4990693902
O  O1189  1  0.66040000  0.11680000  0.12950000  1.0 -0.4990693902
O  O1190  1  0.37950000  0.16040000  0.36680000  1.0 -0.4990693902
O  O1191  1  0.08960000  0.11680000  0.12050000  1.0 -0.4990693902
O  O1192  1  0.38320000  0.41040000  0.87950000  1.0 -0.4990693902
O  O1193  1  0.33960000  0.12950000  0.11680000  1.0 -0.4990693902
O  O1194  1  0.38320000  0.83960000  0.87050000  1.0 -0.4990693902
O  O1195  1  0.08960000  0.13320000  0.62950000  1.0 -0.4990693902
O  O1196  1  0.37050000  0.08960000  0.86680000  1.0 -0.4990693902
O  O1197  1  0.36680000  0.83960000  0.37950000  1.0 -0.4990693902
O  O1198  1  0.41040000  0.12050000  0.61680000  1.0 -0.4990693902
O  O1199  1  0.37950000  0.08960000  0.38320000  1.0 -0.4990693902
O  O1200  1  0.33960000  0.12050000  0.63320000  1.0 -0.4990693902
O  O1201  1  0.37050000  0.16040000  0.88320000  1.0 -0.4990693902
O  O1202  1  0.41040000  0.12950000  0.13320000  1.0 -0.4990693902
O  O1203  1  0.63320000  0.87950000  0.33960000  1.0 -0.4990693902
O  O1204  1  0.12050000  0.88320000  0.08960000  1.0 -0.4990693902
O  O1205  1  0.12950000  0.88320000  0.66040000  1.0 -0.4990693902
O  O1206  1  0.13320000  0.87050000  0.41040000  1.0 -0.4990693902
O  O1207  1  0.62050000  0.86680000  0.66040000  1.0 -0.4990693902
O  O1208  1  0.61680000  0.87950000  0.41040000  1.0 -0.4990693902
O  O1209  1  0.11680000  0.87050000  0.33960000  1.0 -0.4990693902
O  O1210  1  0.66040000  0.63320000  0.12050000  1.0 -0.4990693902
O  O1211  1  0.36680000  0.91040000  0.87050000  1.0 -0.4990693902
O  O1212  1  0.66040000  0.61680000  0.62950000  1.0 -0.4990693902
O  O1213  1  0.37950000  0.66040000  0.86680000  1.0 -0.4990693902
O  O1214  1  0.08960000  0.61680000  0.62050000  1.0 -0.4990693902
O  O1215  1  0.38320000  0.91040000  0.37950000  1.0 -0.4990693902
O  O1216  1  0.33960000  0.62950000  0.61680000  1.0 -0.4990693902
O  O1217  1  0.38320000  0.33960000  0.37050000  1.0 -0.4990693902
O  O1218  1  0.08960000  0.63320000  0.12950000  1.0 -0.4990693902
O  O1219  1  0.37050000  0.58960000  0.36680000  1.0 -0.4990693902
O  O1220  1  0.36680000  0.33960000  0.87950000  1.0 -0.4990693902
O  O1221  1  0.41040000  0.62050000  0.11680000  1.0 -0.4990693902
O  O1222  1  0.37950000  0.58960000  0.88320000  1.0 -0.4990693902
O  O1223  1  0.33960000  0.62050000  0.13320000  1.0 -0.4990693902
O  O1224  1  0.37050000  0.66040000  0.38320000  1.0 -0.4990693902
O  O1225  1  0.41040000  0.62950000  0.63320000  1.0 -0.4990693902
O  O1226  1  0.63320000  0.37950000  0.83960000  1.0 -0.4990693902
O  O1227  1  0.12050000  0.38320000  0.58960000  1.0 -0.4990693902
O  O1228  1  0.12950000  0.38320000  0.16040000  1.0 -0.4990693902
O  O1229  1  0.13320000  0.37050000  0.91040000  1.0 -0.4990693902
O  O1230  1  0.62050000  0.36680000  0.16040000  1.0 -0.4990693902
O  O1231  1  0.61680000  0.37950000  0.91040000  1.0 -0.4990693902
O  O1232  1  0.11680000  0.37050000  0.83960000  1.0 -0.4990693902
O  O1233  1  0.80640000  0.92070000  0.98360000  1.0 -0.4869571303
O  O1234  1  0.07930000  0.55640000  0.23360000  1.0 -0.4869571303
O  O1235  1  0.80640000  0.82930000  0.26640000  1.0 -0.4869571303
O  O1236  1  0.01640000  0.80640000  0.07930000  1.0 -0.4869571303
O  O1237  1  0.44360000  0.82930000  0.48360000  1.0 -0.4869571303
O  O1238  1  0.17070000  0.55640000  0.51640000  1.0 -0.4869571303
O  O1239  1  0.19360000  0.76640000  0.32930000  1.0 -0.4869571303
O  O1240  1  0.17070000  0.19360000  0.73360000  1.0 -0.4869571303
O  O1241  1  0.44360000  0.92070000  0.76640000  1.0 -0.4869571303
O  O1242  1  0.23360000  0.94360000  0.57930000  1.0 -0.4869571303
O  O1243  1  0.07930000  0.19360000  0.01640000  1.0 -0.4869571303
O  O1244  1  0.05640000  0.98360000  0.82930000  1.0 -0.4869571303
O  O1245  1  0.01640000  0.94360000  0.17070000  1.0 -0.4869571303
O  O1246  1  0.19360000  0.98360000  0.92070000  1.0 -0.4869571303
O  O1247  1  0.23360000  0.80640000  0.67070000  1.0 -0.4869571303
O  O1248  1  0.05640000  0.76640000  0.42070000  1.0 -0.4869571303
O  O1249  1  0.92070000  0.01640000  0.19360000  1.0 -0.4869571303
O  O1250  1  0.26640000  0.07930000  0.94360000  1.0 -0.4869571303
O  O1251  1  0.48360000  0.17070000  0.44360000  1.0 -0.4869571303
O  O1252  1  0.26640000  0.17070000  0.80640000  1.0 -0.4869571303
O  O1253  1  0.42070000  0.23360000  0.05640000  1.0 -0.4869571303
O  O1254  1  0.98360000  0.07930000  0.80640000  1.0 -0.4869571303
O  O1255  1  0.82930000  0.01640000  0.05640000  1.0 -0.4869571303
O  O1256  1  0.32930000  0.23360000  0.19360000  1.0 -0.4869571303
O  O1257  1  0.76640000  0.07930000  0.44360000  1.0 -0.4869571303
O  O1258  1  0.80640000  0.42070000  0.48360000  1.0 -0.4869571303
O  O1259  1  0.07930000  0.05640000  0.73360000  1.0 -0.4869571303
O  O1260  1  0.80640000  0.32930000  0.76640000  1.0 -0.4869571303
O  O1261  1  0.01640000  0.30640000  0.57930000  1.0 -0.4869571303
O  O1262  1  0.44360000  0.32930000  0.98360000  1.0 -0.4869571303
O  O1263  1  0.17070000  0.05640000  0.01640000  1.0 -0.4869571303
O  O1264  1  0.19360000  0.26640000  0.82930000  1.0 -0.4869571303
O  O1265  1  0.17070000  0.69360000  0.23360000  1.0 -0.4869571303
O  O1266  1  0.44360000  0.42070000  0.26640000  1.0 -0.4869571303
O  O1267  1  0.23360000  0.44360000  0.07930000  1.0 -0.4869571303
O  O1268  1  0.07930000  0.69360000  0.51640000  1.0 -0.4869571303
O  O1269  1  0.05640000  0.48360000  0.32930000  1.0 -0.4869571303
O  O1270  1  0.01640000  0.44360000  0.67070000  1.0 -0.4869571303
O  O1271  1  0.19360000  0.48360000  0.42070000  1.0 -0.4869571303
O  O1272  1  0.23360000  0.30640000  0.17070000  1.0 -0.4869571303
O  O1273  1  0.05640000  0.26640000  0.92070000  1.0 -0.4869571303
O  O1274  1  0.92070000  0.51640000  0.69360000  1.0 -0.4869571303
O  O1275  1  0.26640000  0.57930000  0.44360000  1.0 -0.4869571303
O  O1276  1  0.48360000  0.67070000  0.94360000  1.0 -0.4869571303
O  O1277  1  0.26640000  0.67070000  0.30640000  1.0 -0.4869571303
O  O1278  1  0.42070000  0.73360000  0.55640000  1.0 -0.4869571303
O  O1279  1  0.98360000  0.57930000  0.30640000  1.0 -0.4869571303
O  O1280  1  0.82930000  0.51640000  0.55640000  1.0 -0.4869571303
O  O1281  1  0.32930000  0.73360000  0.69360000  1.0 -0.4869571303
O  O1282  1  0.76640000  0.57930000  0.94360000  1.0 -0.4869571303
O  O1283  1  0.30640000  0.92070000  0.48360000  1.0 -0.4869571303
O  O1284  1  0.57930000  0.55640000  0.73360000  1.0 -0.4869571303
O  O1285  1  0.30640000  0.82930000  0.76640000  1.0 -0.4869571303
O  O1286  1  0.51640000  0.80640000  0.57930000  1.0 -0.4869571303
O  O1287  1  0.94360000  0.82930000  0.98360000  1.0 -0.4869571303
O  O1288  1  0.67070000  0.55640000  0.01640000  1.0 -0.4869571303
O  O1289  1  0.69360000  0.76640000  0.82930000  1.0 -0.4869571303
O  O1290  1  0.67070000  0.19360000  0.23360000  1.0 -0.4869571303
O  O1291  1  0.94360000  0.92070000  0.26640000  1.0 -0.4869571303
O  O1292  1  0.73360000  0.94360000  0.07930000  1.0 -0.4869571303
O  O1293  1  0.57930000  0.19360000  0.51640000  1.0 -0.4869571303
O  O1294  1  0.55640000  0.98360000  0.32930000  1.0 -0.4869571303
O  O1295  1  0.51640000  0.94360000  0.67070000  1.0 -0.4869571303
O  O1296  1  0.69360000  0.98360000  0.42070000  1.0 -0.4869571303
O  O1297  1  0.73360000  0.80640000  0.17070000  1.0 -0.4869571303
O  O1298  1  0.55640000  0.76640000  0.92070000  1.0 -0.4869571303
O  O1299  1  0.42070000  0.01640000  0.69360000  1.0 -0.4869571303
O  O1300  1  0.98360000  0.17070000  0.94360000  1.0 -0.4869571303
O  O1301  1  0.76640000  0.17070000  0.30640000  1.0 -0.4869571303
O  O1302  1  0.92070000  0.23360000  0.55640000  1.0 -0.4869571303
O  O1303  1  0.48360000  0.07930000  0.30640000  1.0 -0.4869571303
O  O1304  1  0.32930000  0.01640000  0.55640000  1.0 -0.4869571303
O  O1305  1  0.82930000  0.23360000  0.69360000  1.0 -0.4869571303
O  O1306  1  0.30640000  0.42070000  0.98360000  1.0 -0.4869571303
O  O1307  1  0.57930000  0.05640000  0.23360000  1.0 -0.4869571303
O  O1308  1  0.30640000  0.32930000  0.26640000  1.0 -0.4869571303
O  O1309  1  0.51640000  0.30640000  0.07930000  1.0 -0.4869571303
O  O1310  1  0.94360000  0.32930000  0.48360000  1.0 -0.4869571303
O  O1311  1  0.67070000  0.05640000  0.51640000  1.0 -0.4869571303
O  O1312  1  0.69360000  0.26640000  0.32930000  1.0 -0.4869571303
O  O1313  1  0.67070000  0.69360000  0.73360000  1.0 -0.4869571303
O  O1314  1  0.94360000  0.42070000  0.76640000  1.0 -0.4869571303
O  O1315  1  0.73360000  0.44360000  0.57930000  1.0 -0.4869571303
O  O1316  1  0.57930000  0.69360000  0.01640000  1.0 -0.4869571303
O  O1317  1  0.55640000  0.48360000  0.82930000  1.0 -0.4869571303
O  O1318  1  0.51640000  0.44360000  0.17070000  1.0 -0.4869571303
O  O1319  1  0.69360000  0.48360000  0.92070000  1.0 -0.4869571303
O  O1320  1  0.73360000  0.30640000  0.67070000  1.0 -0.4869571303
O  O1321  1  0.55640000  0.26640000  0.42070000  1.0 -0.4869571303
O  O1322  1  0.42070000  0.51640000  0.19360000  1.0 -0.4869571303
O  O1323  1  0.98360000  0.67070000  0.44360000  1.0 -0.4869571303
O  O1324  1  0.76640000  0.67070000  0.80640000  1.0 -0.4869571303
O  O1325  1  0.92070000  0.73360000  0.05640000  1.0 -0.4869571303
O  O1326  1  0.48360000  0.57930000  0.80640000  1.0 -0.4869571303
O  O1327  1  0.32930000  0.51640000  0.05640000  1.0 -0.4869571303
O  O1328  1  0.82930000  0.73360000  0.19360000  1.0 -0.4869571303
O  O1329  1  0.19360000  0.07930000  0.01640000  1.0 -0.4869571303
O  O1330  1  0.92070000  0.44360000  0.76640000  1.0 -0.4869571303
O  O1331  1  0.19360000  0.17070000  0.73360000  1.0 -0.4869571303
O  O1332  1  0.98360000  0.19360000  0.92070000  1.0 -0.4869571303
O  O1333  1  0.55640000  0.17070000  0.51640000  1.0 -0.4869571303
O  O1334  1  0.82930000  0.44360000  0.48360000  1.0 -0.4869571303
O  O1335  1  0.80640000  0.23360000  0.67070000  1.0 -0.4869571303
O  O1336  1  0.82930000  0.80640000  0.26640000  1.0 -0.4869571303
O  O1337  1  0.55640000  0.07930000  0.23360000  1.0 -0.4869571303
O  O1338  1  0.76640000  0.05640000  0.42070000  1.0 -0.4869571303
O  O1339  1  0.92070000  0.80640000  0.98360000  1.0 -0.4869571303
O  O1340  1  0.94360000  0.01640000  0.17070000  1.0 -0.4869571303
O  O1341  1  0.98360000  0.05640000  0.82930000  1.0 -0.4869571303
O  O1342  1  0.80640000  0.01640000  0.07930000  1.0 -0.4869571303
O  O1343  1  0.76640000  0.19360000  0.32930000  1.0 -0.4869571303
O  O1344  1  0.94360000  0.23360000  0.57930000  1.0 -0.4869571303
O  O1345  1  0.07930000  0.98360000  0.80640000  1.0 -0.4869571303
O  O1346  1  0.73360000  0.92070000  0.05640000  1.0 -0.4869571303
O  O1347  1  0.51640000  0.82930000  0.55640000  1.0 -0.4869571303
O  O1348  1  0.73360000  0.82930000  0.19360000  1.0 -0.4869571303
O  O1349  1  0.57930000  0.76640000  0.94360000  1.0 -0.4869571303
O  O1350  1  0.01640000  0.92070000  0.19360000  1.0 -0.4869571303
O  O1351  1  0.17070000  0.98360000  0.94360000  1.0 -0.4869571303
O  O1352  1  0.67070000  0.76640000  0.80640000  1.0 -0.4869571303
O  O1353  1  0.23360000  0.92070000  0.55640000  1.0 -0.4869571303
O  O1354  1  0.19360000  0.57930000  0.51640000  1.0 -0.4869571303
O  O1355  1  0.92070000  0.94360000  0.26640000  1.0 -0.4869571303
O  O1356  1  0.19360000  0.67070000  0.23360000  1.0 -0.4869571303
O  O1357  1  0.98360000  0.69360000  0.42070000  1.0 -0.4869571303
O  O1358  1  0.55640000  0.67070000  0.01640000  1.0 -0.4869571303
O  O1359  1  0.82930000  0.94360000  0.98360000  1.0 -0.4869571303
O  O1360  1  0.80640000  0.73360000  0.17070000  1.0 -0.4869571303
O  O1361  1  0.82930000  0.30640000  0.76640000  1.0 -0.4869571303
O  O1362  1  0.55640000  0.57930000  0.73360000  1.0 -0.4869571303
O  O1363  1  0.76640000  0.55640000  0.92070000  1.0 -0.4869571303
O  O1364  1  0.92070000  0.30640000  0.48360000  1.0 -0.4869571303
O  O1365  1  0.94360000  0.51640000  0.67070000  1.0 -0.4869571303
O  O1366  1  0.98360000  0.55640000  0.32930000  1.0 -0.4869571303
O  O1367  1  0.80640000  0.51640000  0.57930000  1.0 -0.4869571303
O  O1368  1  0.76640000  0.69360000  0.82930000  1.0 -0.4869571303
O  O1369  1  0.94360000  0.73360000  0.07930000  1.0 -0.4869571303
O  O1370  1  0.07930000  0.48360000  0.30640000  1.0 -0.4869571303
O  O1371  1  0.73360000  0.42070000  0.55640000  1.0 -0.4869571303
O  O1372  1  0.51640000  0.32930000  0.05640000  1.0 -0.4869571303
O  O1373  1  0.73360000  0.32930000  0.69360000  1.0 -0.4869571303
O  O1374  1  0.57930000  0.26640000  0.44360000  1.0 -0.4869571303
O  O1375  1  0.01640000  0.42070000  0.69360000  1.0 -0.4869571303
O  O1376  1  0.17070000  0.48360000  0.44360000  1.0 -0.4869571303
O  O1377  1  0.67070000  0.26640000  0.30640000  1.0 -0.4869571303
O  O1378  1  0.23360000  0.42070000  0.05640000  1.0 -0.4869571303
O  O1379  1  0.69360000  0.07930000  0.51640000  1.0 -0.4869571303
O  O1380  1  0.42070000  0.44360000  0.26640000  1.0 -0.4869571303
O  O1381  1  0.69360000  0.17070000  0.23360000  1.0 -0.4869571303
O  O1382  1  0.48360000  0.19360000  0.42070000  1.0 -0.4869571303
O  O1383  1  0.05640000  0.17070000  0.01640000  1.0 -0.4869571303
O  O1384  1  0.32930000  0.44360000  0.98360000  1.0 -0.4869571303
O  O1385  1  0.30640000  0.23360000  0.17070000  1.0 -0.4869571303
O  O1386  1  0.32930000  0.80640000  0.76640000  1.0 -0.4869571303
O  O1387  1  0.05640000  0.07930000  0.73360000  1.0 -0.4869571303
O  O1388  1  0.26640000  0.05640000  0.92070000  1.0 -0.4869571303
O  O1389  1  0.42070000  0.80640000  0.48360000  1.0 -0.4869571303
O  O1390  1  0.44360000  0.01640000  0.67070000  1.0 -0.4869571303
O  O1391  1  0.48360000  0.05640000  0.32930000  1.0 -0.4869571303
O  O1392  1  0.30640000  0.01640000  0.57930000  1.0 -0.4869571303
O  O1393  1  0.26640000  0.19360000  0.82930000  1.0 -0.4869571303
O  O1394  1  0.44360000  0.23360000  0.07930000  1.0 -0.4869571303
O  O1395  1  0.57930000  0.98360000  0.30640000  1.0 -0.4869571303
O  O1396  1  0.01640000  0.82930000  0.05640000  1.0 -0.4869571303
O  O1397  1  0.23360000  0.82930000  0.69360000  1.0 -0.4869571303
O  O1398  1  0.07930000  0.76640000  0.44360000  1.0 -0.4869571303
O  O1399  1  0.51640000  0.92070000  0.69360000  1.0 -0.4869571303
O  O1400  1  0.67070000  0.98360000  0.44360000  1.0 -0.4869571303
O  O1401  1  0.17070000  0.76640000  0.30640000  1.0 -0.4869571303
O  O1402  1  0.69360000  0.57930000  0.01640000  1.0 -0.4869571303
O  O1403  1  0.42070000  0.94360000  0.76640000  1.0 -0.4869571303
O  O1404  1  0.69360000  0.67070000  0.73360000  1.0 -0.4869571303
O  O1405  1  0.48360000  0.69360000  0.92070000  1.0 -0.4869571303
O  O1406  1  0.05640000  0.67070000  0.51640000  1.0 -0.4869571303
O  O1407  1  0.32930000  0.94360000  0.48360000  1.0 -0.4869571303
O  O1408  1  0.30640000  0.73360000  0.67070000  1.0 -0.4869571303
O  O1409  1  0.32930000  0.30640000  0.26640000  1.0 -0.4869571303
O  O1410  1  0.05640000  0.57930000  0.23360000  1.0 -0.4869571303
O  O1411  1  0.26640000  0.55640000  0.42070000  1.0 -0.4869571303
O  O1412  1  0.42070000  0.30640000  0.98360000  1.0 -0.4869571303
O  O1413  1  0.44360000  0.51640000  0.17070000  1.0 -0.4869571303
O  O1414  1  0.48360000  0.55640000  0.82930000  1.0 -0.4869571303
O  O1415  1  0.30640000  0.51640000  0.07930000  1.0 -0.4869571303
O  O1416  1  0.26640000  0.69360000  0.32930000  1.0 -0.4869571303
O  O1417  1  0.44360000  0.73360000  0.57930000  1.0 -0.4869571303
O  O1418  1  0.57930000  0.48360000  0.80640000  1.0 -0.4869571303
O  O1419  1  0.01640000  0.32930000  0.55640000  1.0 -0.4869571303
O  O1420  1  0.23360000  0.32930000  0.19360000  1.0 -0.4869571303
O  O1421  1  0.07930000  0.26640000  0.94360000  1.0 -0.4869571303
O  O1422  1  0.51640000  0.42070000  0.19360000  1.0 -0.4869571303
O  O1423  1  0.67070000  0.48360000  0.94360000  1.0 -0.4869571303
O  O1424  1  0.17070000  0.26640000  0.80640000  1.0 -0.4869571303
O  O1425  1  0.81370000  0.91130000  0.94820000  1.0 -0.4990693902
O  O1426  1  0.08870000  0.56370000  0.19820000  1.0 -0.4990693902
O  O1427  1  0.81370000  0.83870000  0.30180000  1.0 -0.4990693902
O  O1428  1  0.05180000  0.81370000  0.08870000  1.0 -0.4990693902
O  O1429  1  0.43630000  0.83870000  0.44820000  1.0 -0.4990693902
O  O1430  1  0.16130000  0.56370000  0.55180000  1.0 -0.4990693902
O  O1431  1  0.18630000  0.80180000  0.33870000  1.0 -0.4990693902
O  O1432  1  0.16130000  0.18630000  0.69820000  1.0 -0.4990693902
O  O1433  1  0.43630000  0.91130000  0.80180000  1.0 -0.4990693902
O  O1434  1  0.19820000  0.93630000  0.58870000  1.0 -0.4990693902
O  O1435  1  0.08870000  0.18630000  0.05180000  1.0 -0.4990693902
O  O1436  1  0.06370000  0.94820000  0.83870000  1.0 -0.4990693902
O  O1437  1  0.05180000  0.93630000  0.16130000  1.0 -0.4990693902
O  O1438  1  0.18630000  0.94820000  0.91130000  1.0 -0.4990693902
O  O1439  1  0.19820000  0.81370000  0.66130000  1.0 -0.4990693902
O  O1440  1  0.06370000  0.80180000  0.41130000  1.0 -0.4990693902
O  O1441  1  0.91130000  0.05180000  0.18630000  1.0 -0.4990693902
O  O1442  1  0.30180000  0.08870000  0.93630000  1.0 -0.4990693902
O  O1443  1  0.44820000  0.16130000  0.43630000  1.0 -0.4990693902
O  O1444  1  0.30180000  0.16130000  0.81370000  1.0 -0.4990693902
O  O1445  1  0.41130000  0.19820000  0.06370000  1.0 -0.4990693902
O  O1446  1  0.94820000  0.08870000  0.81370000  1.0 -0.4990693902
O  O1447  1  0.83870000  0.05180000  0.06370000  1.0 -0.4990693902
O  O1448  1  0.33870000  0.19820000  0.18630000  1.0 -0.4990693902
O  O1449  1  0.80180000  0.08870000  0.43630000  1.0 -0.4990693902
O  O1450  1  0.81370000  0.41130000  0.44820000  1.0 -0.4990693902
O  O1451  1  0.08870000  0.06370000  0.69820000  1.0 -0.4990693902
O  O1452  1  0.81370000  0.33870000  0.80180000  1.0 -0.4990693902
O  O1453  1  0.05180000  0.31370000  0.58870000  1.0 -0.4990693902
O  O1454  1  0.43630000  0.33870000  0.94820000  1.0 -0.4990693902
O  O1455  1  0.16130000  0.06370000  0.05180000  1.0 -0.4990693902
O  O1456  1  0.18630000  0.30180000  0.83870000  1.0 -0.4990693902
O  O1457  1  0.16130000  0.68630000  0.19820000  1.0 -0.4990693902
O  O1458  1  0.43630000  0.41130000  0.30180000  1.0 -0.4990693902
O  O1459  1  0.19820000  0.43630000  0.08870000  1.0 -0.4990693902
O  O1460  1  0.08870000  0.68630000  0.55180000  1.0 -0.4990693902
O  O1461  1  0.06370000  0.44820000  0.33870000  1.0 -0.4990693902
O  O1462  1  0.05180000  0.43630000  0.66130000  1.0 -0.4990693902
O  O1463  1  0.18630000  0.44820000  0.41130000  1.0 -0.4990693902
O  O1464  1  0.19820000  0.31370000  0.16130000  1.0 -0.4990693902
O  O1465  1  0.06370000  0.30180000  0.91130000  1.0 -0.4990693902
O  O1466  1  0.91130000  0.55180000  0.68630000  1.0 -0.4990693902
O  O1467  1  0.30180000  0.58870000  0.43630000  1.0 -0.4990693902
O  O1468  1  0.44820000  0.66130000  0.93630000  1.0 -0.4990693902
O  O1469  1  0.30180000  0.66130000  0.31370000  1.0 -0.4990693902
O  O1470  1  0.41130000  0.69820000  0.56370000  1.0 -0.4990693902
O  O1471  1  0.94820000  0.58870000  0.31370000  1.0 -0.4990693902
O  O1472  1  0.83870000  0.55180000  0.56370000  1.0 -0.4990693902
O  O1473  1  0.33870000  0.69820000  0.68630000  1.0 -0.4990693902
O  O1474  1  0.80180000  0.58870000  0.93630000  1.0 -0.4990693902
O  O1475  1  0.31370000  0.91130000  0.44820000  1.0 -0.4990693902
O  O1476  1  0.58870000  0.56370000  0.69820000  1.0 -0.4990693902
O  O1477  1  0.31370000  0.83870000  0.80180000  1.0 -0.4990693902
O  O1478  1  0.55180000  0.81370000  0.58870000  1.0 -0.4990693902
O  O1479  1  0.93630000  0.83870000  0.94820000  1.0 -0.4990693902
O  O1480  1  0.66130000  0.56370000  0.05180000  1.0 -0.4990693902
O  O1481  1  0.68630000  0.80180000  0.83870000  1.0 -0.4990693902
O  O1482  1  0.66130000  0.18630000  0.19820000  1.0 -0.4990693902
O  O1483  1  0.93630000  0.91130000  0.30180000  1.0 -0.4990693902
O  O1484  1  0.69820000  0.93630000  0.08870000  1.0 -0.4990693902
O  O1485  1  0.58870000  0.18630000  0.55180000  1.0 -0.4990693902
O  O1486  1  0.56370000  0.94820000  0.33870000  1.0 -0.4990693902
O  O1487  1  0.55180000  0.93630000  0.66130000  1.0 -0.4990693902
O  O1488  1  0.68630000  0.94820000  0.41130000  1.0 -0.4990693902
O  O1489  1  0.69820000  0.81370000  0.16130000  1.0 -0.4990693902
O  O1490  1  0.56370000  0.80180000  0.91130000  1.0 -0.4990693902
O  O1491  1  0.41130000  0.05180000  0.68630000  1.0 -0.4990693902
O  O1492  1  0.94820000  0.16130000  0.93630000  1.0 -0.4990693902
O  O1493  1  0.80180000  0.16130000  0.31370000  1.0 -0.4990693902
O  O1494  1  0.91130000  0.19820000  0.56370000  1.0 -0.4990693902
O  O1495  1  0.44820000  0.08870000  0.31370000  1.0 -0.4990693902
O  O1496  1  0.33870000  0.05180000  0.56370000  1.0 -0.4990693902
O  O1497  1  0.83870000  0.19820000  0.68630000  1.0 -0.4990693902
O  O1498  1  0.31370000  0.41130000  0.94820000  1.0 -0.4990693902
O  O1499  1  0.58870000  0.06370000  0.19820000  1.0 -0.4990693902
O  O1500  1  0.31370000  0.33870000  0.30180000  1.0 -0.4990693902
O  O1501  1  0.55180000  0.31370000  0.08870000  1.0 -0.4990693902
O  O1502  1  0.93630000  0.33870000  0.44820000  1.0 -0.4990693902
O  O1503  1  0.66130000  0.06370000  0.55180000  1.0 -0.4990693902
O  O1504  1  0.68630000  0.30180000  0.33870000  1.0 -0.4990693902
O  O1505  1  0.66130000  0.68630000  0.69820000  1.0 -0.4990693902
O  O1506  1  0.93630000  0.41130000  0.80180000  1.0 -0.4990693902
O  O1507  1  0.69820000  0.43630000  0.58870000  1.0 -0.4990693902
O  O1508  1  0.58870000  0.68630000  0.05180000  1.0 -0.4990693902
O  O1509  1  0.56370000  0.44820000  0.83870000  1.0 -0.4990693902
O  O1510  1  0.55180000  0.43630000  0.16130000  1.0 -0.4990693902
O  O1511  1  0.68630000  0.44820000  0.91130000  1.0 -0.4990693902
O  O1512  1  0.69820000  0.31370000  0.66130000  1.0 -0.4990693902
O  O1513  1  0.56370000  0.30180000  0.41130000  1.0 -0.4990693902
O  O1514  1  0.41130000  0.55180000  0.18630000  1.0 -0.4990693902
O  O1515  1  0.94820000  0.66130000  0.43630000  1.0 -0.4990693902
O  O1516  1  0.80180000  0.66130000  0.81370000  1.0 -0.4990693902
O  O1517  1  0.91130000  0.69820000  0.06370000  1.0 -0.4990693902
O  O1518  1  0.44820000  0.58870000  0.81370000  1.0 -0.4990693902
O  O1519  1  0.33870000  0.55180000  0.06370000  1.0 -0.4990693902
O  O1520  1  0.83870000  0.69820000  0.18630000  1.0 -0.4990693902
O  O1521  1  0.18630000  0.08870000  0.05180000  1.0 -0.4990693902
O  O1522  1  0.91130000  0.43630000  0.80180000  1.0 -0.4990693902
O  O1523  1  0.18630000  0.16130000  0.69820000  1.0 -0.4990693902
O  O1524  1  0.94820000  0.18630000  0.91130000  1.0 -0.4990693902
O  O1525  1  0.56370000  0.16130000  0.55180000  1.0 -0.4990693902
O  O1526  1  0.83870000  0.43630000  0.44820000  1.0 -0.4990693902
O  O1527  1  0.81370000  0.19820000  0.66130000  1.0 -0.4990693902
O  O1528  1  0.83870000  0.81370000  0.30180000  1.0 -0.4990693902
O  O1529  1  0.56370000  0.08870000  0.19820000  1.0 -0.4990693902
O  O1530  1  0.80180000  0.06370000  0.41130000  1.0 -0.4990693902
O  O1531  1  0.91130000  0.81370000  0.94820000  1.0 -0.4990693902
O  O1532  1  0.93630000  0.05180000  0.16130000  1.0 -0.4990693902
O  O1533  1  0.94820000  0.06370000  0.83870000  1.0 -0.4990693902
O  O1534  1  0.81370000  0.05180000  0.08870000  1.0 -0.4990693902
O  O1535  1  0.80180000  0.18630000  0.33870000  1.0 -0.4990693902
O  O1536  1  0.93630000  0.19820000  0.58870000  1.0 -0.4990693902
O  O1537  1  0.08870000  0.94820000  0.81370000  1.0 -0.4990693902
O  O1538  1  0.69820000  0.91130000  0.06370000  1.0 -0.4990693902
O  O1539  1  0.55180000  0.83870000  0.56370000  1.0 -0.4990693902
O  O1540  1  0.69820000  0.83870000  0.18630000  1.0 -0.4990693902
O  O1541  1  0.58870000  0.80180000  0.93630000  1.0 -0.4990693902
O  O1542  1  0.05180000  0.91130000  0.18630000  1.0 -0.4990693902
O  O1543  1  0.16130000  0.94820000  0.93630000  1.0 -0.4990693902
O  O1544  1  0.66130000  0.80180000  0.81370000  1.0 -0.4990693902
O  O1545  1  0.19820000  0.91130000  0.56370000  1.0 -0.4990693902
O  O1546  1  0.18630000  0.58870000  0.55180000  1.0 -0.4990693902
O  O1547  1  0.91130000  0.93630000  0.30180000  1.0 -0.4990693902
O  O1548  1  0.18630000  0.66130000  0.19820000  1.0 -0.4990693902
O  O1549  1  0.94820000  0.68630000  0.41130000  1.0 -0.4990693902
O  O1550  1  0.56370000  0.66130000  0.05180000  1.0 -0.4990693902
O  O1551  1  0.83870000  0.93630000  0.94820000  1.0 -0.4990693902
O  O1552  1  0.81370000  0.69820000  0.16130000  1.0 -0.4990693902
O  O1553  1  0.83870000  0.31370000  0.80180000  1.0 -0.4990693902
O  O1554  1  0.56370000  0.58870000  0.69820000  1.0 -0.4990693902
O  O1555  1  0.80180000  0.56370000  0.91130000  1.0 -0.4990693902
O  O1556  1  0.91130000  0.31370000  0.44820000  1.0 -0.4990693902
O  O1557  1  0.93630000  0.55180000  0.66130000  1.0 -0.4990693902
O  O1558  1  0.94820000  0.56370000  0.33870000  1.0 -0.4990693902
O  O1559  1  0.81370000  0.55180000  0.58870000  1.0 -0.4990693902
O  O1560  1  0.80180000  0.68630000  0.83870000  1.0 -0.4990693902
O  O1561  1  0.93630000  0.69820000  0.08870000  1.0 -0.4990693902
O  O1562  1  0.08870000  0.44820000  0.31370000  1.0 -0.4990693902
O  O1563  1  0.69820000  0.41130000  0.56370000  1.0 -0.4990693902
O  O1564  1  0.55180000  0.33870000  0.06370000  1.0 -0.4990693902
O  O1565  1  0.69820000  0.33870000  0.68630000  1.0 -0.4990693902
O  O1566  1  0.58870000  0.30180000  0.43630000  1.0 -0.4990693902
O  O1567  1  0.05180000  0.41130000  0.68630000  1.0 -0.4990693902
O  O1568  1  0.16130000  0.44820000  0.43630000  1.0 -0.4990693902
O  O1569  1  0.66130000  0.30180000  0.31370000  1.0 -0.4990693902
O  O1570  1  0.19820000  0.41130000  0.06370000  1.0 -0.4990693902
O  O1571  1  0.68630000  0.08870000  0.55180000  1.0 -0.4990693902
O  O1572  1  0.41130000  0.43630000  0.30180000  1.0 -0.4990693902
O  O1573  1  0.68630000  0.16130000  0.19820000  1.0 -0.4990693902
O  O1574  1  0.44820000  0.18630000  0.41130000  1.0 -0.4990693902
O  O1575  1  0.06370000  0.16130000  0.05180000  1.0 -0.4990693902
O  O1576  1  0.33870000  0.43630000  0.94820000  1.0 -0.4990693902
O  O1577  1  0.31370000  0.19820000  0.16130000  1.0 -0.4990693902
O  O1578  1  0.33870000  0.81370000  0.80180000  1.0 -0.4990693902
O  O1579  1  0.06370000  0.08870000  0.69820000  1.0 -0.4990693902
O  O1580  1  0.30180000  0.06370000  0.91130000  1.0 -0.4990693902
O  O1581  1  0.41130000  0.81370000  0.44820000  1.0 -0.4990693902
O  O1582  1  0.43630000  0.05180000  0.66130000  1.0 -0.4990693902
O  O1583  1  0.44820000  0.06370000  0.33870000  1.0 -0.4990693902
O  O1584  1  0.31370000  0.05180000  0.58870000  1.0 -0.4990693902
O  O1585  1  0.30180000  0.18630000  0.83870000  1.0 -0.4990693902
O  O1586  1  0.43630000  0.19820000  0.08870000  1.0 -0.4990693902
O  O1587  1  0.58870000  0.94820000  0.31370000  1.0 -0.4990693902
O  O1588  1  0.05180000  0.83870000  0.06370000  1.0 -0.4990693902
O  O1589  1  0.19820000  0.83870000  0.68630000  1.0 -0.4990693902
O  O1590  1  0.08870000  0.80180000  0.43630000  1.0 -0.4990693902
O  O1591  1  0.55180000  0.91130000  0.68630000  1.0 -0.4990693902
O  O1592  1  0.66130000  0.94820000  0.43630000  1.0 -0.4990693902
O  O1593  1  0.16130000  0.80180000  0.31370000  1.0 -0.4990693902
O  O1594  1  0.68630000  0.58870000  0.05180000  1.0 -0.4990693902
O  O1595  1  0.41130000  0.93630000  0.80180000  1.0 -0.4990693902
O  O1596  1  0.68630000  0.66130000  0.69820000  1.0 -0.4990693902
O  O1597  1  0.44820000  0.68630000  0.91130000  1.0 -0.4990693902
O  O1598  1  0.06370000  0.66130000  0.55180000  1.0 -0.4990693902
O  O1599  1  0.33870000  0.93630000  0.44820000  1.0 -0.4990693902
O  O1600  1  0.31370000  0.69820000  0.66130000  1.0 -0.4990693902
O  O1601  1  0.33870000  0.31370000  0.30180000  1.0 -0.4990693902
O  O1602  1  0.06370000  0.58870000  0.19820000  1.0 -0.4990693902
O  O1603  1  0.30180000  0.56370000  0.41130000  1.0 -0.4990693902
O  O1604  1  0.41130000  0.31370000  0.94820000  1.0 -0.4990693902
O  O1605  1  0.43630000  0.55180000  0.16130000  1.0 -0.4990693902
O  O1606  1  0.44820000  0.56370000  0.83870000  1.0 -0.4990693902
O  O1607  1  0.31370000  0.55180000  0.08870000  1.0 -0.4990693902
O  O1608  1  0.30180000  0.68630000  0.33870000  1.0 -0.4990693902
O  O1609  1  0.43630000  0.69820000  0.58870000  1.0 -0.4990693902
O  O1610  1  0.58870000  0.44820000  0.81370000  1.0 -0.4990693902
O  O1611  1  0.05180000  0.33870000  0.56370000  1.0 -0.4990693902
O  O1612  1  0.19820000  0.33870000  0.18630000  1.0 -0.4990693902
O  O1613  1  0.08870000  0.30180000  0.93630000  1.0 -0.4990693902
O  O1614  1  0.55180000  0.41130000  0.18630000  1.0 -0.4990693902
O  O1615  1  0.66130000  0.44820000  0.93630000  1.0 -0.4990693902
O  O1616  1  0.16130000  0.30180000  0.81370000  1.0 -0.4990693902
O  O1617  1  0.78010000  0.92710000  0.97200000  1.0 -0.4394637192
O  O1618  1  0.07290000  0.53010000  0.22200000  1.0 -0.4394637192
O  O1619  1  0.78010000  0.82290000  0.27800000  1.0 -0.4394637192
O  O1620  1  0.02800000  0.78010000  0.07290000  1.0 -0.4394637192
O  O1621  1  0.46990000  0.82290000  0.47200000  1.0 -0.4394637192
O  O1622  1  0.17710000  0.53010000  0.52800000  1.0 -0.4394637192
O  O1623  1  0.21990000  0.77800000  0.32290000  1.0 -0.4394637192
O  O1624  1  0.17710000  0.21990000  0.72200000  1.0 -0.4394637192
O  O1625  1  0.46990000  0.92710000  0.77800000  1.0 -0.4394637192
O  O1626  1  0.22200000  0.96990000  0.57290000  1.0 -0.4394637192
O  O1627  1  0.07290000  0.21990000  0.02800000  1.0 -0.4394637192
O  O1628  1  0.03010000  0.97200000  0.82290000  1.0 -0.4394637192
O  O1629  1  0.02800000  0.96990000  0.17710000  1.0 -0.4394637192
O  O1630  1  0.21990000  0.97200000  0.92710000  1.0 -0.4394637192
O  O1631  1  0.22200000  0.78010000  0.67710000  1.0 -0.4394637192
O  O1632  1  0.03010000  0.77800000  0.42710000  1.0 -0.4394637192
O  O1633  1  0.92710000  0.02800000  0.21990000  1.0 -0.4394637192
O  O1634  1  0.27800000  0.07290000  0.96990000  1.0 -0.4394637192
O  O1635  1  0.47200000  0.17710000  0.46990000  1.0 -0.4394637192
O  O1636  1  0.27800000  0.17710000  0.78010000  1.0 -0.4394637192
O  O1637  1  0.42710000  0.22200000  0.03010000  1.0 -0.4394637192
O  O1638  1  0.97200000  0.07290000  0.78010000  1.0 -0.4394637192
O  O1639  1  0.82290000  0.02800000  0.03010000  1.0 -0.4394637192
O  O1640  1  0.32290000  0.22200000  0.21990000  1.0 -0.4394637192
O  O1641  1  0.77800000  0.07290000  0.46990000  1.0 -0.4394637192
O  O1642  1  0.78010000  0.42710000  0.47200000  1.0 -0.4394637192
O  O1643  1  0.07290000  0.03010000  0.72200000  1.0 -0.4394637192
O  O1644  1  0.78010000  0.32290000  0.77800000  1.0 -0.4394637192
O  O1645  1  0.02800000  0.28010000  0.57290000  1.0 -0.4394637192
O  O1646  1  0.46990000  0.32290000  0.97200000  1.0 -0.4394637192
O  O1647  1  0.17710000  0.03010000  0.02800000  1.0 -0.4394637192
O  O1648  1  0.21990000  0.27800000  0.82290000  1.0 -0.4394637192
O  O1649  1  0.17710000  0.71990000  0.22200000  1.0 -0.4394637192
O  O1650  1  0.46990000  0.42710000  0.27800000  1.0 -0.4394637192
O  O1651  1  0.22200000  0.46990000  0.07290000  1.0 -0.4394637192
O  O1652  1  0.07290000  0.71990000  0.52800000  1.0 -0.4394637192
O  O1653  1  0.03010000  0.47200000  0.32290000  1.0 -0.4394637192
O  O1654  1  0.02800000  0.46990000  0.67710000  1.0 -0.4394637192
O  O1655  1  0.21990000  0.47200000  0.42710000  1.0 -0.4394637192
O  O1656  1  0.22200000  0.28010000  0.17710000  1.0 -0.4394637192
O  O1657  1  0.03010000  0.27800000  0.92710000  1.0 -0.4394637192
O  O1658  1  0.92710000  0.52800000  0.71990000  1.0 -0.4394637192
O  O1659  1  0.27800000  0.57290000  0.46990000  1.0 -0.4394637192
O  O1660  1  0.47200000  0.67710000  0.96990000  1.0 -0.4394637192
O  O1661  1  0.27800000  0.67710000  0.28010000  1.0 -0.4394637192
O  O1662  1  0.42710000  0.72200000  0.53010000  1.0 -0.4394637192
O  O1663  1  0.97200000  0.57290000  0.28010000  1.0 -0.4394637192
O  O1664  1  0.82290000  0.52800000  0.53010000  1.0 -0.4394637192
O  O1665  1  0.32290000  0.72200000  0.71990000  1.0 -0.4394637192
O  O1666  1  0.77800000  0.57290000  0.96990000  1.0 -0.4394637192
O  O1667  1  0.28010000  0.92710000  0.47200000  1.0 -0.4394637192
O  O1668  1  0.57290000  0.53010000  0.72200000  1.0 -0.4394637192
O  O1669  1  0.28010000  0.82290000  0.77800000  1.0 -0.4394637192
O  O1670  1  0.52800000  0.78010000  0.57290000  1.0 -0.4394637192
O  O1671  1  0.96990000  0.82290000  0.97200000  1.0 -0.4394637192
O  O1672  1  0.67710000  0.53010000  0.02800000  1.0 -0.4394637192
O  O1673  1  0.71990000  0.77800000  0.82290000  1.0 -0.4394637192
O  O1674  1  0.67710000  0.21990000  0.22200000  1.0 -0.4394637192
O  O1675  1  0.96990000  0.92710000  0.27800000  1.0 -0.4394637192
O  O1676  1  0.72200000  0.96990000  0.07290000  1.0 -0.4394637192
O  O1677  1  0.57290000  0.21990000  0.52800000  1.0 -0.4394637192
O  O1678  1  0.53010000  0.97200000  0.32290000  1.0 -0.4394637192
O  O1679  1  0.52800000  0.96990000  0.67710000  1.0 -0.4394637192
O  O1680  1  0.71990000  0.97200000  0.42710000  1.0 -0.4394637192
O  O1681  1  0.72200000  0.78010000  0.17710000  1.0 -0.4394637192
O  O1682  1  0.53010000  0.77800000  0.92710000  1.0 -0.4394637192
O  O1683  1  0.42710000  0.02800000  0.71990000  1.0 -0.4394637192
O  O1684  1  0.97200000  0.17710000  0.96990000  1.0 -0.4394637192
O  O1685  1  0.77800000  0.17710000  0.28010000  1.0 -0.4394637192
O  O1686  1  0.92710000  0.22200000  0.53010000  1.0 -0.4394637192
O  O1687  1  0.47200000  0.07290000  0.28010000  1.0 -0.4394637192
O  O1688  1  0.32290000  0.02800000  0.53010000  1.0 -0.4394637192
O  O1689  1  0.82290000  0.22200000  0.71990000  1.0 -0.4394637192
O  O1690  1  0.28010000  0.42710000  0.97200000  1.0 -0.4394637192
O  O1691  1  0.57290000  0.03010000  0.22200000  1.0 -0.4394637192
O  O1692  1  0.28010000  0.32290000  0.27800000  1.0 -0.4394637192
O  O1693  1  0.52800000  0.28010000  0.07290000  1.0 -0.4394637192
O  O1694  1  0.96990000  0.32290000  0.47200000  1.0 -0.4394637192
O  O1695  1  0.67710000  0.03010000  0.52800000  1.0 -0.4394637192
O  O1696  1  0.71990000  0.27800000  0.32290000  1.0 -0.4394637192
O  O1697  1  0.67710000  0.71990000  0.72200000  1.0 -0.4394637192
O  O1698  1  0.96990000  0.42710000  0.77800000  1.0 -0.4394637192
O  O1699  1  0.72200000  0.46990000  0.57290000  1.0 -0.4394637192
O  O1700  1  0.57290000  0.71990000  0.02800000  1.0 -0.4394637192
O  O1701  1  0.53010000  0.47200000  0.82290000  1.0 -0.4394637192
O  O1702  1  0.52800000  0.46990000  0.17710000  1.0 -0.4394637192
O  O1703  1  0.71990000  0.47200000  0.92710000  1.0 -0.4394637192
O  O1704  1  0.72200000  0.28010000  0.67710000  1.0 -0.4394637192
O  O1705  1  0.53010000  0.27800000  0.42710000  1.0 -0.4394637192
O  O1706  1  0.42710000  0.52800000  0.21990000  1.0 -0.4394637192
O  O1707  1  0.97200000  0.67710000  0.46990000  1.0 -0.4394637192
O  O1708  1  0.77800000  0.67710000  0.78010000  1.0 -0.4394637192
O  O1709  1  0.92710000  0.72200000  0.03010000  1.0 -0.4394637192
O  O1710  1  0.47200000  0.57290000  0.78010000  1.0 -0.4394637192
O  O1711  1  0.32290000  0.52800000  0.03010000  1.0 -0.4394637192
O  O1712  1  0.82290000  0.72200000  0.21990000  1.0 -0.4394637192
O  O1713  1  0.21990000  0.07290000  0.02800000  1.0 -0.4394637192
O  O1714  1  0.92710000  0.46990000  0.77800000  1.0 -0.4394637192
O  O1715  1  0.21990000  0.17710000  0.72200000  1.0 -0.4394637192
O  O1716  1  0.97200000  0.21990000  0.92710000  1.0 -0.4394637192
O  O1717  1  0.53010000  0.17710000  0.52800000  1.0 -0.4394637192
O  O1718  1  0.82290000  0.46990000  0.47200000  1.0 -0.4394637192
O  O1719  1  0.78010000  0.22200000  0.67710000  1.0 -0.4394637192
O  O1720  1  0.82290000  0.78010000  0.27800000  1.0 -0.4394637192
O  O1721  1  0.53010000  0.07290000  0.22200000  1.0 -0.4394637192
O  O1722  1  0.77800000  0.03010000  0.42710000  1.0 -0.4394637192
O  O1723  1  0.92710000  0.78010000  0.97200000  1.0 -0.4394637192
O  O1724  1  0.96990000  0.02800000  0.17710000  1.0 -0.4394637192
O  O1725  1  0.97200000  0.03010000  0.82290000  1.0 -0.4394637192
O  O1726  1  0.78010000  0.02800000  0.07290000  1.0 -0.4394637192
O  O1727  1  0.77800000  0.21990000  0.32290000  1.0 -0.4394637192
O  O1728  1  0.96990000  0.22200000  0.57290000  1.0 -0.4394637192
O  O1729  1  0.07290000  0.97200000  0.78010000  1.0 -0.4394637192
O  O1730  1  0.72200000  0.92710000  0.03010000  1.0 -0.4394637192
O  O1731  1  0.52800000  0.82290000  0.53010000  1.0 -0.4394637192
O  O1732  1  0.72200000  0.82290000  0.21990000  1.0 -0.4394637192
O  O1733  1  0.57290000  0.77800000  0.96990000  1.0 -0.4394637192
O  O1734  1  0.02800000  0.92710000  0.21990000  1.0 -0.4394637192
O  O1735  1  0.17710000  0.97200000  0.96990000  1.0 -0.4394637192
O  O1736  1  0.67710000  0.77800000  0.78010000  1.0 -0.4394637192
O  O1737  1  0.22200000  0.92710000  0.53010000  1.0 -0.4394637192
O  O1738  1  0.21990000  0.57290000  0.52800000  1.0 -0.4394637192
O  O1739  1  0.92710000  0.96990000  0.27800000  1.0 -0.4394637192
O  O1740  1  0.21990000  0.67710000  0.22200000  1.0 -0.4394637192
O  O1741  1  0.97200000  0.71990000  0.42710000  1.0 -0.4394637192
O  O1742  1  0.53010000  0.67710000  0.02800000  1.0 -0.4394637192
O  O1743  1  0.82290000  0.96990000  0.97200000  1.0 -0.4394637192
O  O1744  1  0.78010000  0.72200000  0.17710000  1.0 -0.4394637192
O  O1745  1  0.82290000  0.28010000  0.77800000  1.0 -0.4394637192
O  O1746  1  0.53010000  0.57290000  0.72200000  1.0 -0.4394637192
O  O1747  1  0.77800000  0.53010000  0.92710000  1.0 -0.4394637192
O  O1748  1  0.92710000  0.28010000  0.47200000  1.0 -0.4394637192
O  O1749  1  0.96990000  0.52800000  0.67710000  1.0 -0.4394637192
O  O1750  1  0.97200000  0.53010000  0.32290000  1.0 -0.4394637192
O  O1751  1  0.78010000  0.52800000  0.57290000  1.0 -0.4394637192
O  O1752  1  0.77800000  0.71990000  0.82290000  1.0 -0.4394637192
O  O1753  1  0.96990000  0.72200000  0.07290000  1.0 -0.4394637192
O  O1754  1  0.07290000  0.47200000  0.28010000  1.0 -0.4394637192
O  O1755  1  0.72200000  0.42710000  0.53010000  1.0 -0.4394637192
O  O1756  1  0.52800000  0.32290000  0.03010000  1.0 -0.4394637192
O  O1757  1  0.72200000  0.32290000  0.71990000  1.0 -0.4394637192
O  O1758  1  0.57290000  0.27800000  0.46990000  1.0 -0.4394637192
O  O1759  1  0.02800000  0.42710000  0.71990000  1.0 -0.4394637192
O  O1760  1  0.17710000  0.47200000  0.46990000  1.0 -0.4394637192
O  O1761  1  0.67710000  0.27800000  0.28010000  1.0 -0.4394637192
O  O1762  1  0.22200000  0.42710000  0.03010000  1.0 -0.4394637192
O  O1763  1  0.71990000  0.07290000  0.52800000  1.0 -0.4394637192
O  O1764  1  0.42710000  0.46990000  0.27800000  1.0 -0.4394637192
O  O1765  1  0.71990000  0.17710000  0.22200000  1.0 -0.4394637192
O  O1766  1  0.47200000  0.21990000  0.42710000  1.0 -0.4394637192
O  O1767  1  0.03010000  0.17710000  0.02800000  1.0 -0.4394637192
O  O1768  1  0.32290000  0.46990000  0.97200000  1.0 -0.4394637192
O  O1769  1  0.28010000  0.22200000  0.17710000  1.0 -0.4394637192
O  O1770  1  0.32290000  0.78010000  0.77800000  1.0 -0.4394637192
O  O1771  1  0.03010000  0.07290000  0.72200000  1.0 -0.4394637192
O  O1772  1  0.27800000  0.03010000  0.92710000  1.0 -0.4394637192
O  O1773  1  0.42710000  0.78010000  0.47200000  1.0 -0.4394637192
O  O1774  1  0.46990000  0.02800000  0.67710000  1.0 -0.4394637192
O  O1775  1  0.47200000  0.03010000  0.32290000  1.0 -0.4394637192
O  O1776  1  0.28010000  0.02800000  0.57290000  1.0 -0.4394637192
O  O1777  1  0.27800000  0.21990000  0.82290000  1.0 -0.4394637192
O  O1778  1  0.46990000  0.22200000  0.07290000  1.0 -0.4394637192
O  O1779  1  0.57290000  0.97200000  0.28010000  1.0 -0.4394637192
O  O1780  1  0.02800000  0.82290000  0.03010000  1.0 -0.4394637192
O  O1781  1  0.22200000  0.82290000  0.71990000  1.0 -0.4394637192
O  O1782  1  0.07290000  0.77800000  0.46990000  1.0 -0.4394637192
O  O1783  1  0.52800000  0.92710000  0.71990000  1.0 -0.4394637192
O  O1784  1  0.67710000  0.97200000  0.46990000  1.0 -0.4394637192
O  O1785  1  0.17710000  0.77800000  0.28010000  1.0 -0.4394637192
O  O1786  1  0.71990000  0.57290000  0.02800000  1.0 -0.4394637192
O  O1787  1  0.42710000  0.96990000  0.77800000  1.0 -0.4394637192
O  O1788  1  0.71990000  0.67710000  0.72200000  1.0 -0.4394637192
O  O1789  1  0.47200000  0.71990000  0.92710000  1.0 -0.4394637192
O  O1790  1  0.03010000  0.67710000  0.52800000  1.0 -0.4394637192
O  O1791  1  0.32290000  0.96990000  0.47200000  1.0 -0.4394637192
O  O1792  1  0.28010000  0.72200000  0.67710000  1.0 -0.4394637192
O  O1793  1  0.32290000  0.28010000  0.27800000  1.0 -0.4394637192
O  O1794  1  0.03010000  0.57290000  0.22200000  1.0 -0.4394637192
O  O1795  1  0.27800000  0.53010000  0.42710000  1.0 -0.4394637192
O  O1796  1  0.42710000  0.28010000  0.97200000  1.0 -0.4394637192
O  O1797  1  0.46990000  0.52800000  0.17710000  1.0 -0.4394637192
O  O1798  1  0.47200000  0.53010000  0.82290000  1.0 -0.4394637192
O  O1799  1  0.28010000  0.52800000  0.07290000  1.0 -0.4394637192
O  O1800  1  0.27800000  0.71990000  0.32290000  1.0 -0.4394637192
O  O1801  1  0.46990000  0.72200000  0.57290000  1.0 -0.4394637192
O  O1802  1  0.57290000  0.47200000  0.78010000  1.0 -0.4394637192
O  O1803  1  0.02800000  0.32290000  0.53010000  1.0 -0.4394637192
O  O1804  1  0.22200000  0.32290000  0.21990000  1.0 -0.4394637192
O  O1805  1  0.07290000  0.27800000  0.96990000  1.0 -0.4394637192
O  O1806  1  0.52800000  0.42710000  0.21990000  1.0 -0.4394637192
O  O1807  1  0.67710000  0.47200000  0.96990000  1.0 -0.4394637192
O  O1808  1  0.17710000  0.27800000  0.78010000  1.0 -0.4394637192
O  O1809  1  0.76300000  0.96470000  0.96410000  1.0 -0.5805071716
O  O1810  1  0.03530000  0.51300000  0.21410000  1.0 -0.5805071716
O  O1811  1  0.76300000  0.78530000  0.28590000  1.0 -0.5805071716
O  O1812  1  0.03590000  0.76300000  0.03530000  1.0 -0.5805071716
O  O1813  1  0.48700000  0.78530000  0.46410000  1.0 -0.5805071716
O  O1814  1  0.21470000  0.51300000  0.53590000  1.0 -0.5805071716
O  O1815  1  0.23700000  0.78590000  0.28530000  1.0 -0.5805071716
O  O1816  1  0.21470000  0.23700000  0.71410000  1.0 -0.5805071716
O  O1817  1  0.48700000  0.96470000  0.78590000  1.0 -0.5805071716
O  O1818  1  0.21410000  0.98700000  0.53530000  1.0 -0.5805071716
O  O1819  1  0.03530000  0.23700000  0.03590000  1.0 -0.5805071716
O  O1820  1  0.01300000  0.96410000  0.78530000  1.0 -0.5805071716
O  O1821  1  0.03590000  0.98700000  0.21470000  1.0 -0.5805071716
O  O1822  1  0.23700000  0.96410000  0.96470000  1.0 -0.5805071716
O  O1823  1  0.21410000  0.76300000  0.71470000  1.0 -0.5805071716
O  O1824  1  0.01300000  0.78590000  0.46470000  1.0 -0.5805071716
O  O1825  1  0.96470000  0.03590000  0.23700000  1.0 -0.5805071716
O  O1826  1  0.28590000  0.03530000  0.98700000  1.0 -0.5805071716
O  O1827  1  0.46410000  0.21470000  0.48700000  1.0 -0.5805071716
O  O1828  1  0.28590000  0.21470000  0.76300000  1.0 -0.5805071716
O  O1829  1  0.46470000  0.21410000  0.01300000  1.0 -0.5805071716
O  O1830  1  0.96410000  0.03530000  0.76300000  1.0 -0.5805071716
O  O1831  1  0.78530000  0.03590000  0.01300000  1.0 -0.5805071716
O  O1832  1  0.28530000  0.21410000  0.23700000  1.0 -0.5805071716
O  O1833  1  0.78590000  0.03530000  0.48700000  1.0 -0.5805071716
O  O1834  1  0.76300000  0.46470000  0.46410000  1.0 -0.5805071716
O  O1835  1  0.03530000  0.01300000  0.71410000  1.0 -0.5805071716
O  O1836  1  0.76300000  0.28530000  0.78590000  1.0 -0.5805071716
O  O1837  1  0.03590000  0.26300000  0.53530000  1.0 -0.5805071716
O  O1838  1  0.48700000  0.28530000  0.96410000  1.0 -0.5805071716
O  O1839  1  0.21470000  0.01300000  0.03590000  1.0 -0.5805071716
O  O1840  1  0.23700000  0.28590000  0.78530000  1.0 -0.5805071716
O  O1841  1  0.21470000  0.73700000  0.21410000  1.0 -0.5805071716
O  O1842  1  0.48700000  0.46470000  0.28590000  1.0 -0.5805071716
O  O1843  1  0.21410000  0.48700000  0.03530000  1.0 -0.5805071716
O  O1844  1  0.03530000  0.73700000  0.53590000  1.0 -0.5805071716
O  O1845  1  0.01300000  0.46410000  0.28530000  1.0 -0.5805071716
O  O1846  1  0.03590000  0.48700000  0.71470000  1.0 -0.5805071716
O  O1847  1  0.23700000  0.46410000  0.46470000  1.0 -0.5805071716
O  O1848  1  0.21410000  0.26300000  0.21470000  1.0 -0.5805071716
O  O1849  1  0.01300000  0.28590000  0.96470000  1.0 -0.5805071716
O  O1850  1  0.96470000  0.53590000  0.73700000  1.0 -0.5805071716
O  O1851  1  0.28590000  0.53530000  0.48700000  1.0 -0.5805071716
O  O1852  1  0.46410000  0.71470000  0.98700000  1.0 -0.5805071716
O  O1853  1  0.28590000  0.71470000  0.26300000  1.0 -0.5805071716
O  O1854  1  0.46470000  0.71410000  0.51300000  1.0 -0.5805071716
O  O1855  1  0.96410000  0.53530000  0.26300000  1.0 -0.5805071716
O  O1856  1  0.78530000  0.53590000  0.51300000  1.0 -0.5805071716
O  O1857  1  0.28530000  0.71410000  0.73700000  1.0 -0.5805071716
O  O1858  1  0.78590000  0.53530000  0.98700000  1.0 -0.5805071716
O  O1859  1  0.26300000  0.96470000  0.46410000  1.0 -0.5805071716
O  O1860  1  0.53530000  0.51300000  0.71410000  1.0 -0.5805071716
O  O1861  1  0.26300000  0.78530000  0.78590000  1.0 -0.5805071716
O  O1862  1  0.53590000  0.76300000  0.53530000  1.0 -0.5805071716
O  O1863  1  0.98700000  0.78530000  0.96410000  1.0 -0.5805071716
O  O1864  1  0.71470000  0.51300000  0.03590000  1.0 -0.5805071716
O  O1865  1  0.73700000  0.78590000  0.78530000  1.0 -0.5805071716
O  O1866  1  0.71470000  0.23700000  0.21410000  1.0 -0.5805071716
O  O1867  1  0.98700000  0.96470000  0.28590000  1.0 -0.5805071716
O  O1868  1  0.71410000  0.98700000  0.03530000  1.0 -0.5805071716
O  O1869  1  0.53530000  0.23700000  0.53590000  1.0 -0.5805071716
O  O1870  1  0.51300000  0.96410000  0.28530000  1.0 -0.5805071716
O  O1871  1  0.53590000  0.98700000  0.71470000  1.0 -0.5805071716
O  O1872  1  0.73700000  0.96410000  0.46470000  1.0 -0.5805071716
O  O1873  1  0.71410000  0.76300000  0.21470000  1.0 -0.5805071716
O  O1874  1  0.51300000  0.78590000  0.96470000  1.0 -0.5805071716
O  O1875  1  0.46470000  0.03590000  0.73700000  1.0 -0.5805071716
O  O1876  1  0.96410000  0.21470000  0.98700000  1.0 -0.5805071716
O  O1877  1  0.78590000  0.21470000  0.26300000  1.0 -0.5805071716
O  O1878  1  0.96470000  0.21410000  0.51300000  1.0 -0.5805071716
O  O1879  1  0.46410000  0.03530000  0.26300000  1.0 -0.5805071716
O  O1880  1  0.28530000  0.03590000  0.51300000  1.0 -0.5805071716
O  O1881  1  0.78530000  0.21410000  0.73700000  1.0 -0.5805071716
O  O1882  1  0.26300000  0.46470000  0.96410000  1.0 -0.5805071716
O  O1883  1  0.53530000  0.01300000  0.21410000  1.0 -0.5805071716
O  O1884  1  0.26300000  0.28530000  0.28590000  1.0 -0.5805071716
O  O1885  1  0.53590000  0.26300000  0.03530000  1.0 -0.5805071716
O  O1886  1  0.98700000  0.28530000  0.46410000  1.0 -0.5805071716
O  O1887  1  0.71470000  0.01300000  0.53590000  1.0 -0.5805071716
O  O1888  1  0.73700000  0.28590000  0.28530000  1.0 -0.5805071716
O  O1889  1  0.71470000  0.73700000  0.71410000  1.0 -0.5805071716
O  O1890  1  0.98700000  0.46470000  0.78590000  1.0 -0.5805071716
O  O1891  1  0.71410000  0.48700000  0.53530000  1.0 -0.5805071716
O  O1892  1  0.53530000  0.73700000  0.03590000  1.0 -0.5805071716
O  O1893  1  0.51300000  0.46410000  0.78530000  1.0 -0.5805071716
O  O1894  1  0.53590000  0.48700000  0.21470000  1.0 -0.5805071716
O  O1895  1  0.73700000  0.46410000  0.96470000  1.0 -0.5805071716
O  O1896  1  0.71410000  0.26300000  0.71470000  1.0 -0.5805071716
O  O1897  1  0.51300000  0.28590000  0.46470000  1.0 -0.5805071716
O  O1898  1  0.46470000  0.53590000  0.23700000  1.0 -0.5805071716
O  O1899  1  0.96410000  0.71470000  0.48700000  1.0 -0.5805071716
O  O1900  1  0.78590000  0.71470000  0.76300000  1.0 -0.5805071716
O  O1901  1  0.96470000  0.71410000  0.01300000  1.0 -0.5805071716
O  O1902  1  0.46410000  0.53530000  0.76300000  1.0 -0.5805071716
O  O1903  1  0.28530000  0.53590000  0.01300000  1.0 -0.5805071716
O  O1904  1  0.78530000  0.71410000  0.23700000  1.0 -0.5805071716
O  O1905  1  0.23700000  0.03530000  0.03590000  1.0 -0.5805071716
O  O1906  1  0.96470000  0.48700000  0.78590000  1.0 -0.5805071716
O  O1907  1  0.23700000  0.21470000  0.71410000  1.0 -0.5805071716
O  O1908  1  0.96410000  0.23700000  0.96470000  1.0 -0.5805071716
O  O1909  1  0.51300000  0.21470000  0.53590000  1.0 -0.5805071716
O  O1910  1  0.78530000  0.48700000  0.46410000  1.0 -0.5805071716
O  O1911  1  0.76300000  0.21410000  0.71470000  1.0 -0.5805071716
O  O1912  1  0.78530000  0.76300000  0.28590000  1.0 -0.5805071716
O  O1913  1  0.51300000  0.03530000  0.21410000  1.0 -0.5805071716
O  O1914  1  0.78590000  0.01300000  0.46470000  1.0 -0.5805071716
O  O1915  1  0.96470000  0.76300000  0.96410000  1.0 -0.5805071716
O  O1916  1  0.98700000  0.03590000  0.21470000  1.0 -0.5805071716
O  O1917  1  0.96410000  0.01300000  0.78530000  1.0 -0.5805071716
O  O1918  1  0.76300000  0.03590000  0.03530000  1.0 -0.5805071716
O  O1919  1  0.78590000  0.23700000  0.28530000  1.0 -0.5805071716
O  O1920  1  0.98700000  0.21410000  0.53530000  1.0 -0.5805071716
O  O1921  1  0.03530000  0.96410000  0.76300000  1.0 -0.5805071716
O  O1922  1  0.71410000  0.96470000  0.01300000  1.0 -0.5805071716
O  O1923  1  0.53590000  0.78530000  0.51300000  1.0 -0.5805071716
O  O1924  1  0.71410000  0.78530000  0.23700000  1.0 -0.5805071716
O  O1925  1  0.53530000  0.78590000  0.98700000  1.0 -0.5805071716
O  O1926  1  0.03590000  0.96470000  0.23700000  1.0 -0.5805071716
O  O1927  1  0.21470000  0.96410000  0.98700000  1.0 -0.5805071716
O  O1928  1  0.71470000  0.78590000  0.76300000  1.0 -0.5805071716
O  O1929  1  0.21410000  0.96470000  0.51300000  1.0 -0.5805071716
O  O1930  1  0.23700000  0.53530000  0.53590000  1.0 -0.5805071716
O  O1931  1  0.96470000  0.98700000  0.28590000  1.0 -0.5805071716
O  O1932  1  0.23700000  0.71470000  0.21410000  1.0 -0.5805071716
O  O1933  1  0.96410000  0.73700000  0.46470000  1.0 -0.5805071716
O  O1934  1  0.51300000  0.71470000  0.03590000  1.0 -0.5805071716
O  O1935  1  0.78530000  0.98700000  0.96410000  1.0 -0.5805071716
O  O1936  1  0.76300000  0.71410000  0.21470000  1.0 -0.5805071716
O  O1937  1  0.78530000  0.26300000  0.78590000  1.0 -0.5805071716
O  O1938  1  0.51300000  0.53530000  0.71410000  1.0 -0.5805071716
O  O1939  1  0.78590000  0.51300000  0.96470000  1.0 -0.5805071716
O  O1940  1  0.96470000  0.26300000  0.46410000  1.0 -0.5805071716
O  O1941  1  0.98700000  0.53590000  0.71470000  1.0 -0.5805071716
O  O1942  1  0.96410000  0.51300000  0.28530000  1.0 -0.5805071716
O  O1943  1  0.76300000  0.53590000  0.53530000  1.0 -0.5805071716
O  O1944  1  0.78590000  0.73700000  0.78530000  1.0 -0.5805071716
O  O1945  1  0.98700000  0.71410000  0.03530000  1.0 -0.5805071716
O  O1946  1  0.03530000  0.46410000  0.26300000  1.0 -0.5805071716
O  O1947  1  0.71410000  0.46470000  0.51300000  1.0 -0.5805071716
O  O1948  1  0.53590000  0.28530000  0.01300000  1.0 -0.5805071716
O  O1949  1  0.71410000  0.28530000  0.73700000  1.0 -0.5805071716
O  O1950  1  0.53530000  0.28590000  0.48700000  1.0 -0.5805071716
O  O1951  1  0.03590000  0.46470000  0.73700000  1.0 -0.5805071716
O  O1952  1  0.21470000  0.46410000  0.48700000  1.0 -0.5805071716
O  O1953  1  0.71470000  0.28590000  0.26300000  1.0 -0.5805071716
O  O1954  1  0.21410000  0.46470000  0.01300000  1.0 -0.5805071716
O  O1955  1  0.73700000  0.03530000  0.53590000  1.0 -0.5805071716
O  O1956  1  0.46470000  0.48700000  0.28590000  1.0 -0.5805071716
O  O1957  1  0.73700000  0.21470000  0.21410000  1.0 -0.5805071716
O  O1958  1  0.46410000  0.23700000  0.46470000  1.0 -0.5805071716
O  O1959  1  0.01300000  0.21470000  0.03590000  1.0 -0.5805071716
O  O1960  1  0.28530000  0.48700000  0.96410000  1.0 -0.5805071716
O  O1961  1  0.26300000  0.21410000  0.21470000  1.0 -0.5805071716
O  O1962  1  0.28530000  0.76300000  0.78590000  1.0 -0.5805071716
O  O1963  1  0.01300000  0.03530000  0.71410000  1.0 -0.5805071716
O  O1964  1  0.28590000  0.01300000  0.96470000  1.0 -0.5805071716
O  O1965  1  0.46470000  0.76300000  0.46410000  1.0 -0.5805071716
O  O1966  1  0.48700000  0.03590000  0.71470000  1.0 -0.5805071716
O  O1967  1  0.46410000  0.01300000  0.28530000  1.0 -0.5805071716
O  O1968  1  0.26300000  0.03590000  0.53530000  1.0 -0.5805071716
O  O1969  1  0.28590000  0.23700000  0.78530000  1.0 -0.5805071716
O  O1970  1  0.48700000  0.21410000  0.03530000  1.0 -0.5805071716
O  O1971  1  0.53530000  0.96410000  0.26300000  1.0 -0.5805071716
O  O1972  1  0.03590000  0.78530000  0.01300000  1.0 -0.5805071716
O  O1973  1  0.21410000  0.78530000  0.73700000  1.0 -0.5805071716
O  O1974  1  0.03530000  0.78590000  0.48700000  1.0 -0.5805071716
O  O1975  1  0.53590000  0.96470000  0.73700000  1.0 -0.5805071716
O  O1976  1  0.71470000  0.96410000  0.48700000  1.0 -0.5805071716
O  O1977  1  0.21470000  0.78590000  0.26300000  1.0 -0.5805071716
O  O1978  1  0.73700000  0.53530000  0.03590000  1.0 -0.5805071716
O  O1979  1  0.46470000  0.98700000  0.78590000  1.0 -0.5805071716
O  O1980  1  0.73700000  0.71470000  0.71410000  1.0 -0.5805071716
O  O1981  1  0.46410000  0.73700000  0.96470000  1.0 -0.5805071716
O  O1982  1  0.01300000  0.71470000  0.53590000  1.0 -0.5805071716
O  O1983  1  0.28530000  0.98700000  0.46410000  1.0 -0.5805071716
O  O1984  1  0.26300000  0.71410000  0.71470000  1.0 -0.5805071716
O  O1985  1  0.28530000  0.26300000  0.28590000  1.0 -0.5805071716
O  O1986  1  0.01300000  0.53530000  0.21410000  1.0 -0.5805071716
O  O1987  1  0.28590000  0.51300000  0.46470000  1.0 -0.5805071716
O  O1988  1  0.46470000  0.26300000  0.96410000  1.0 -0.5805071716
O  O1989  1  0.48700000  0.53590000  0.21470000  1.0 -0.5805071716
O  O1990  1  0.46410000  0.51300000  0.78530000  1.0 -0.5805071716
O  O1991  1  0.26300000  0.53590000  0.03530000  1.0 -0.5805071716
O  O1992  1  0.28590000  0.73700000  0.28530000  1.0 -0.5805071716
O  O1993  1  0.48700000  0.71410000  0.53530000  1.0 -0.5805071716
O  O1994  1  0.53530000  0.46410000  0.76300000  1.0 -0.5805071716
O  O1995  1  0.03590000  0.28530000  0.51300000  1.0 -0.5805071716
O  O1996  1  0.21410000  0.28530000  0.23700000  1.0 -0.5805071716
O  O1997  1  0.03530000  0.28590000  0.98700000  1.0 -0.5805071716
O  O1998  1  0.53590000  0.46470000  0.23700000  1.0 -0.5805071716
O  O1999  1  0.71470000  0.46410000  0.98700000  1.0 -0.5805071716
O  O2000  1  0.21470000  0.28590000  0.76300000  1.0 -0.5805071716
O  O2001  1  0.77320000  0.95580000  0.92850000  1.0 -0.5068336556
O  O2002  1  0.04420000  0.52320000  0.17850000  1.0 -0.4990693902
O  O2003  1  0.77320000  0.79420000  0.32150000  1.0 -0.5068336556
O  O2004  1  0.07150000  0.77320000  0.04420000  1.0 -0.4990693902
O  O2005  1  0.47680000  0.79420000  0.42850000  1.0 -0.5068336556
O  O2006  1  0.20580000  0.52320000  0.57150000  1.0 -0.5068336556
O  O2007  1  0.22680000  0.82150000  0.29420000  1.0 -0.5068336556
O  O2008  1  0.20580000  0.22680000  0.67850000  1.0 -0.5068336556
O  O2009  1  0.47680000  0.95580000  0.82150000  1.0 -0.5068336556
O  O2010  1  0.17850000  0.97680000  0.54420000  1.0 -0.5068336556
O  O2011  1  0.04420000  0.22680000  0.07150000  1.0 -0.4990693902
O  O2012  1  0.02320000  0.92850000  0.79420000  1.0 -0.4990693902
O  O2013  1  0.07150000  0.97680000  0.20580000  1.0 -0.5068336556
O  O2014  1  0.22680000  0.92850000  0.95580000  1.0 -0.5068336556
O  O2015  1  0.17850000  0.77320000  0.70580000  1.0 -0.5068336556
O  O2016  1  0.02320000  0.82150000  0.45580000  1.0 -0.4990693902
O  O2017  1  0.95580000  0.07150000  0.22680000  1.0 -0.5068336556
O  O2018  1  0.32150000  0.04420000  0.97680000  1.0 -0.5068336556
O  O2019  1  0.42850000  0.20580000  0.47680000  1.0 -0.5068336556
O  O2020  1  0.32150000  0.20580000  0.77320000  1.0 -0.5068336556
O  O2021  1  0.45580000  0.17850000  0.02320000  1.0 -0.5068336556
O  O2022  1  0.92850000  0.04420000  0.77320000  1.0 -0.5068336556
O  O2023  1  0.79420000  0.07150000  0.02320000  1.0 -0.5068336556
O  O2024  1  0.29420000  0.17850000  0.22680000  1.0 -0.5068336556
O  O2025  1  0.82150000  0.04420000  0.47680000  1.0 -0.5068336556
O  O2026  1  0.77320000  0.45580000  0.42850000  1.0 -0.5068336556
O  O2027  1  0.04420000  0.02320000  0.67850000  1.0 -0.5068336556
O  O2028  1  0.77320000  0.29420000  0.82150000  1.0 -0.5068336556
O  O2029  1  0.07150000  0.27320000  0.54420000  1.0 -0.5068336556
O  O2030  1  0.47680000  0.29420000  0.92850000  1.0 -0.5068336556
O  O2031  1  0.20580000  0.02320000  0.07150000  1.0 -0.5068336556
O  O2032  1  0.22680000  0.32150000  0.79420000  1.0 -0.5068336556
O  O2033  1  0.20580000  0.72680000  0.17850000  1.0 -0.4990693902
O  O2034  1  0.47680000  0.45580000  0.32150000  1.0 -0.5068336556
O  O2035  1  0.17850000  0.47680000  0.04420000  1.0 -0.4990693902
O  O2036  1  0.04420000  0.72680000  0.57150000  1.0 -0.4990693902
O  O2037  1  0.02320000  0.42850000  0.29420000  1.0 -0.4990693902
O  O2038  1  0.07150000  0.47680000  0.70580000  1.0 -0.5068336556
O  O2039  1  0.22680000  0.42850000  0.45580000  1.0 -0.5068336556
O  O2040  1  0.17850000  0.27320000  0.20580000  1.0 -0.5068336556
O  O2041  1  0.02320000  0.32150000  0.95580000  1.0 -0.5068336556
O  O2042  1  0.95580000  0.57150000  0.72680000  1.0 -0.5068336556
O  O2043  1  0.32150000  0.54420000  0.47680000  1.0 -0.5068336556
O  O2044  1  0.42850000  0.70580000  0.97680000  1.0 -0.5068336556
O  O2045  1  0.32150000  0.70580000  0.27320000  1.0 -0.5068336556
O  O2046  1  0.45580000  0.67850000  0.52320000  1.0 -0.5068336556
O  O2047  1  0.92850000  0.54420000  0.27320000  1.0 -0.5068336556
O  O2048  1  0.79420000  0.57150000  0.52320000  1.0 -0.5068336556
O  O2049  1  0.29420000  0.67850000  0.72680000  1.0 -0.5068336556
O  O2050  1  0.82150000  0.54420000  0.97680000  1.0 -0.5068336556
O  O2051  1  0.27320000  0.95580000  0.42850000  1.0 -0.5068336556
O  O2052  1  0.54420000  0.52320000  0.67850000  1.0 -0.5068336556
O  O2053  1  0.27320000  0.79420000  0.82150000  1.0 -0.5068336556
O  O2054  1  0.57150000  0.77320000  0.54420000  1.0 -0.5068336556
O  O2055  1  0.97680000  0.79420000  0.92850000  1.0 -0.5068336556
O  O2056  1  0.70580000  0.52320000  0.07150000  1.0 -0.5068336556
O  O2057  1  0.72680000  0.82150000  0.79420000  1.0 -0.5068336556
O  O2058  1  0.70580000  0.22680000  0.17850000  1.0 -0.5068336556
O  O2059  1  0.97680000  0.95580000  0.32150000  1.0 -0.5068336556
O  O2060  1  0.67850000  0.97680000  0.04420000  1.0 -0.5068336556
O  O2061  1  0.54420000  0.22680000  0.57150000  1.0 -0.5068336556
O  O2062  1  0.52320000  0.92850000  0.29420000  1.0 -0.5068336556
O  O2063  1  0.57150000  0.97680000  0.70580000  1.0 -0.5068336556
O  O2064  1  0.72680000  0.92850000  0.45580000  1.0 -0.5068336556
O  O2065  1  0.67850000  0.77320000  0.20580000  1.0 -0.5068336556
O  O2066  1  0.52320000  0.82150000  0.95580000  1.0 -0.5068336556
O  O2067  1  0.45580000  0.07150000  0.72680000  1.0 -0.5068336556
O  O2068  1  0.92850000  0.20580000  0.97680000  1.0 -0.5068336556
O  O2069  1  0.82150000  0.20580000  0.27320000  1.0 -0.5068336556
O  O2070  1  0.95580000  0.17850000  0.52320000  1.0 -0.5068336556
O  O2071  1  0.42850000  0.04420000  0.27320000  1.0 -0.5068336556
O  O2072  1  0.29420000  0.07150000  0.52320000  1.0 -0.5068336556
O  O2073  1  0.79420000  0.17850000  0.72680000  1.0 -0.5068336556
O  O2074  1  0.27320000  0.45580000  0.92850000  1.0 -0.5068336556
O  O2075  1  0.54420000  0.02320000  0.17850000  1.0 -0.5068336556
O  O2076  1  0.27320000  0.29420000  0.32150000  1.0 -0.5068336556
O  O2077  1  0.57150000  0.27320000  0.04420000  1.0 -0.5068336556
O  O2078  1  0.97680000  0.29420000  0.42850000  1.0 -0.5068336556
O  O2079  1  0.70580000  0.02320000  0.57150000  1.0 -0.5068336556
O  O2080  1  0.72680000  0.32150000  0.29420000  1.0 -0.5068336556
O  O2081  1  0.70580000  0.72680000  0.67850000  1.0 -0.5068336556
O  O2082  1  0.97680000  0.45580000  0.82150000  1.0 -0.5068336556
O  O2083  1  0.67850000  0.47680000  0.54420000  1.0 -0.5068336556
O  O2084  1  0.54420000  0.72680000  0.07150000  1.0 -0.5068336556
O  O2085  1  0.52320000  0.42850000  0.79420000  1.0 -0.5068336556
O  O2086  1  0.57150000  0.47680000  0.20580000  1.0 -0.5068336556
O  O2087  1  0.72680000  0.42850000  0.95580000  1.0 -0.5068336556
O  O2088  1  0.67850000  0.27320000  0.70580000  1.0 -0.5068336556
O  O2089  1  0.52320000  0.32150000  0.45580000  1.0 -0.5068336556
O  O2090  1  0.45580000  0.57150000  0.22680000  1.0 -0.5068336556
O  O2091  1  0.92850000  0.70580000  0.47680000  1.0 -0.5068336556
O  O2092  1  0.82150000  0.70580000  0.77320000  1.0 -0.5068336556
O  O2093  1  0.95580000  0.67850000  0.02320000  1.0 -0.5068336556
O  O2094  1  0.42850000  0.54420000  0.77320000  1.0 -0.5068336556
O  O2095  1  0.29420000  0.57150000  0.02320000  1.0 -0.5068336556
O  O2096  1  0.79420000  0.67850000  0.22680000  1.0 -0.5068336556
O  O2097  1  0.22680000  0.04420000  0.07150000  1.0 -0.5068336556
O  O2098  1  0.95580000  0.47680000  0.82150000  1.0 -0.5068336556
O  O2099  1  0.22680000  0.20580000  0.67850000  1.0 -0.5068336556
O  O2100  1  0.92850000  0.22680000  0.95580000  1.0 -0.5068336556
O  O2101  1  0.52320000  0.20580000  0.57150000  1.0 -0.5068336556
O  O2102  1  0.79420000  0.47680000  0.42850000  1.0 -0.5068336556
O  O2103  1  0.77320000  0.17850000  0.70580000  1.0 -0.5068336556
O  O2104  1  0.79420000  0.77320000  0.32150000  1.0 -0.5068336556
O  O2105  1  0.52320000  0.04420000  0.17850000  1.0 -0.5068336556
O  O2106  1  0.82150000  0.02320000  0.45580000  1.0 -0.5068336556
O  O2107  1  0.95580000  0.77320000  0.92850000  1.0 -0.5068336556
O  O2108  1  0.97680000  0.07150000  0.20580000  1.0 -0.5068336556
O  O2109  1  0.92850000  0.02320000  0.79420000  1.0 -0.5068336556
O  O2110  1  0.77320000  0.07150000  0.04420000  1.0 -0.5068336556
O  O2111  1  0.82150000  0.22680000  0.29420000  1.0 -0.5068336556
O  O2112  1  0.97680000  0.17850000  0.54420000  1.0 -0.5068336556
O  O2113  1  0.04420000  0.92850000  0.77320000  1.0 -0.4990693902
O  O2114  1  0.67850000  0.95580000  0.02320000  1.0 -0.5068336556
O  O2115  1  0.57150000  0.79420000  0.52320000  1.0 -0.5068336556
O  O2116  1  0.67850000  0.79420000  0.22680000  1.0 -0.5068336556
O  O2117  1  0.54420000  0.82150000  0.97680000  1.0 -0.5068336556
O  O2118  1  0.07150000  0.95580000  0.22680000  1.0 -0.4990693902
O  O2119  1  0.20580000  0.92850000  0.97680000  1.0 -0.4990693902
O  O2120  1  0.70580000  0.82150000  0.77320000  1.0 -0.5068336556
O  O2121  1  0.17850000  0.95580000  0.52320000  1.0 -0.4990693902
O  O2122  1  0.22680000  0.54420000  0.57150000  1.0 -0.5068336556
O  O2123  1  0.95580000  0.97680000  0.32150000  1.0 -0.5068336556
O  O2124  1  0.22680000  0.70580000  0.17850000  1.0 -0.4990693902
O  O2125  1  0.92850000  0.72680000  0.45580000  1.0 -0.5068336556
O  O2126  1  0.52320000  0.70580000  0.07150000  1.0 -0.5068336556
O  O2127  1  0.79420000  0.97680000  0.92850000  1.0 -0.5068336556
O  O2128  1  0.77320000  0.67850000  0.20580000  1.0 -0.5068336556
O  O2129  1  0.79420000  0.27320000  0.82150000  1.0 -0.5068336556
O  O2130  1  0.52320000  0.54420000  0.67850000  1.0 -0.5068336556
O  O2131  1  0.82150000  0.52320000  0.95580000  1.0 -0.5068336556
O  O2132  1  0.95580000  0.27320000  0.42850000  1.0 -0.5068336556
O  O2133  1  0.97680000  0.57150000  0.70580000  1.0 -0.5068336556
O  O2134  1  0.92850000  0.52320000  0.29420000  1.0 -0.5068336556
O  O2135  1  0.77320000  0.57150000  0.54420000  1.0 -0.5068336556
O  O2136  1  0.82150000  0.72680000  0.79420000  1.0 -0.5068336556
O  O2137  1  0.97680000  0.67850000  0.04420000  1.0 -0.5068336556
O  O2138  1  0.04420000  0.42850000  0.27320000  1.0 -0.4990693902
O  O2139  1  0.67850000  0.45580000  0.52320000  1.0 -0.5068336556
O  O2140  1  0.57150000  0.29420000  0.02320000  1.0 -0.5068336556
O  O2141  1  0.67850000  0.29420000  0.72680000  1.0 -0.5068336556
O  O2142  1  0.54420000  0.32150000  0.47680000  1.0 -0.5068336556
O  O2143  1  0.07150000  0.45580000  0.72680000  1.0 -0.5068336556
O  O2144  1  0.20580000  0.42850000  0.47680000  1.0 -0.5068336556
O  O2145  1  0.70580000  0.32150000  0.27320000  1.0 -0.5068336556
O  O2146  1  0.17850000  0.45580000  0.02320000  1.0 -0.5068336556
O  O2147  1  0.72680000  0.04420000  0.57150000  1.0 -0.5068336556
O  O2148  1  0.45580000  0.47680000  0.32150000  1.0 -0.5068336556
O  O2149  1  0.72680000  0.20580000  0.17850000  1.0 -0.5068336556
O  O2150  1  0.42850000  0.22680000  0.45580000  1.0 -0.5068336556
O  O2151  1  0.02320000  0.20580000  0.07150000  1.0 -0.4990693902
O  O2152  1  0.29420000  0.47680000  0.92850000  1.0 -0.5068336556
O  O2153  1  0.27320000  0.17850000  0.20580000  1.0 -0.5068336556
O  O2154  1  0.29420000  0.77320000  0.82150000  1.0 -0.5068336556
O  O2155  1  0.02320000  0.04420000  0.67850000  1.0 -0.5068336556
O  O2156  1  0.32150000  0.02320000  0.95580000  1.0 -0.5068336556
O  O2157  1  0.45580000  0.77320000  0.42850000  1.0 -0.5068336556
O  O2158  1  0.47680000  0.07150000  0.70580000  1.0 -0.5068336556
O  O2159  1  0.42850000  0.02320000  0.29420000  1.0 -0.5068336556
O  O2160  1  0.27320000  0.07150000  0.54420000  1.0 -0.5068336556
O  O2161  1  0.32150000  0.22680000  0.79420000  1.0 -0.5068336556
O  O2162  1  0.47680000  0.17850000  0.04420000  1.0 -0.5068336556
O  O2163  1  0.54420000  0.92850000  0.27320000  1.0 -0.5068336556
O  O2164  1  0.07150000  0.79420000  0.02320000  1.0 -0.4990693902
O  O2165  1  0.17850000  0.79420000  0.72680000  1.0 -0.5068336556
O  O2166  1  0.04420000  0.82150000  0.47680000  1.0 -0.5068336556
O  O2167  1  0.57150000  0.95580000  0.72680000  1.0 -0.5068336556
O  O2168  1  0.70580000  0.92850000  0.47680000  1.0 -0.5068336556
O  O2169  1  0.20580000  0.82150000  0.27320000  1.0 -0.4990693902
O  O2170  1  0.72680000  0.54420000  0.07150000  1.0 -0.5068336556
O  O2171  1  0.45580000  0.97680000  0.82150000  1.0 -0.5068336556
O  O2172  1  0.72680000  0.70580000  0.67850000  1.0 -0.5068336556
O  O2173  1  0.42850000  0.72680000  0.95580000  1.0 -0.5068336556
O  O2174  1  0.02320000  0.70580000  0.57150000  1.0 -0.5068336556
O  O2175  1  0.29420000  0.97680000  0.42850000  1.0 -0.5068336556
O  O2176  1  0.27320000  0.67850000  0.70580000  1.0 -0.5068336556
O  O2177  1  0.29420000  0.27320000  0.32150000  1.0 -0.5068336556
O  O2178  1  0.02320000  0.54420000  0.17850000  1.0 -0.4990693902
O  O2179  1  0.32150000  0.52320000  0.45580000  1.0 -0.5068336556
O  O2180  1  0.45580000  0.27320000  0.92850000  1.0 -0.5068336556
O  O2181  1  0.47680000  0.57150000  0.20580000  1.0 -0.5068336556
O  O2182  1  0.42850000  0.52320000  0.79420000  1.0 -0.5068336556
O  O2183  1  0.27320000  0.57150000  0.04420000  1.0 -0.4990693902
O  O2184  1  0.32150000  0.72680000  0.29420000  1.0 -0.5068336556
O  O2185  1  0.47680000  0.67850000  0.54420000  1.0 -0.5068336556
O  O2186  1  0.54420000  0.42850000  0.77320000  1.0 -0.5068336556
O  O2187  1  0.07150000  0.29420000  0.52320000  1.0 -0.5068336556
O  O2188  1  0.17850000  0.29420000  0.22680000  1.0 -0.5068336556
O  O2189  1  0.04420000  0.32150000  0.97680000  1.0 -0.5068336556
O  O2190  1  0.57150000  0.45580000  0.22680000  1.0 -0.5068336556
O  O2191  1  0.70580000  0.42850000  0.97680000  1.0 -0.5068336556
O  O2192  1  0.20580000  0.32150000  0.77320000  1.0 -0.5068336556
O  O2193  1  0.78600000  0.92090000  0.94240000  1.0 -0.4797993346
O  O2194  1  0.07910000  0.53600000  0.19240000  1.0 -0.4797993346
O  O2195  1  0.78600000  0.82910000  0.30760000  1.0 -0.4797993346
O  O2196  1  0.05760000  0.78600000  0.07910000  1.0 -0.4797993346
O  O2197  1  0.46400000  0.82910000  0.44240000  1.0 -0.4797993346
O  O2198  1  0.17090000  0.53600000  0.55760000  1.0 -0.4797993346
O  O2199  1  0.21400000  0.80760000  0.32910000  1.0 -0.4797993346
O  O2200  1  0.17090000  0.21400000  0.69240000  1.0 -0.4797993346
O  O2201  1  0.46400000  0.92090000  0.80760000  1.0 -0.4797993346
O  O2202  1  0.19240000  0.96400000  0.57910000  1.0 -0.4797993346
O  O2203  1  0.07910000  0.21400000  0.05760000  1.0 -0.4797993346
O  O2204  1  0.03600000  0.94240000  0.82910000  1.0 -0.4797993346
O  O2205  1  0.05760000  0.96400000  0.17090000  1.0 -0.4797993346
O  O2206  1  0.21400000  0.94240000  0.92090000  1.0 -0.4797993346
O  O2207  1  0.19240000  0.78600000  0.67090000  1.0 -0.4797993346
O  O2208  1  0.03600000  0.80760000  0.42090000  1.0 -0.4797993346
O  O2209  1  0.92090000  0.05760000  0.21400000  1.0 -0.4797993346
O  O2210  1  0.30760000  0.07910000  0.96400000  1.0 -0.4797993346
O  O2211  1  0.44240000  0.17090000  0.46400000  1.0 -0.4797993346
O  O2212  1  0.30760000  0.17090000  0.78600000  1.0 -0.4797993346
O  O2213  1  0.42090000  0.19240000  0.03600000  1.0 -0.4797993346
O  O2214  1  0.94240000  0.07910000  0.78600000  1.0 -0.4797993346
O  O2215  1  0.82910000  0.05760000  0.03600000  1.0 -0.4797993346
O  O2216  1  0.32910000  0.19240000  0.21400000  1.0 -0.4797993346
O  O2217  1  0.80760000  0.07910000  0.46400000  1.0 -0.4797993346
O  O2218  1  0.78600000  0.42090000  0.44240000  1.0 -0.4797993346
O  O2219  1  0.07910000  0.03600000  0.69240000  1.0 -0.4797993346
O  O2220  1  0.78600000  0.32910000  0.80760000  1.0 -0.4797993346
O  O2221  1  0.05760000  0.28600000  0.57910000  1.0 -0.4797993346
O  O2222  1  0.46400000  0.32910000  0.94240000  1.0 -0.4797993346
O  O2223  1  0.17090000  0.03600000  0.05760000  1.0 -0.4797993346
O  O2224  1  0.21400000  0.30760000  0.82910000  1.0 -0.4797993346
O  O2225  1  0.17090000  0.71400000  0.19240000  1.0 -0.4797993346
O  O2226  1  0.46400000  0.42090000  0.30760000  1.0 -0.4797993346
O  O2227  1  0.19240000  0.46400000  0.07910000  1.0 -0.4797993346
O  O2228  1  0.07910000  0.71400000  0.55760000  1.0 -0.4797993346
O  O2229  1  0.03600000  0.44240000  0.32910000  1.0 -0.4797993346
O  O2230  1  0.05760000  0.46400000  0.67090000  1.0 -0.4797993346
O  O2231  1  0.21400000  0.44240000  0.42090000  1.0 -0.4797993346
O  O2232  1  0.19240000  0.28600000  0.17090000  1.0 -0.4797993346
O  O2233  1  0.03600000  0.30760000  0.92090000  1.0 -0.4797993346
O  O2234  1  0.92090000  0.55760000  0.71400000  1.0 -0.4797993346
O  O2235  1  0.30760000  0.57910000  0.46400000  1.0 -0.4797993346
O  O2236  1  0.44240000  0.67090000  0.96400000  1.0 -0.4797993346
O  O2237  1  0.30760000  0.67090000  0.28600000  1.0 -0.4797993346
O  O2238  1  0.42090000  0.69240000  0.53600000  1.0 -0.4797993346
O  O2239  1  0.94240000  0.57910000  0.28600000  1.0 -0.4797993346
O  O2240  1  0.82910000  0.55760000  0.53600000  1.0 -0.4797993346
O  O2241  1  0.32910000  0.69240000  0.71400000  1.0 -0.4797993346
O  O2242  1  0.80760000  0.57910000  0.96400000  1.0 -0.4797993346
O  O2243  1  0.28600000  0.92090000  0.44240000  1.0 -0.4797993346
O  O2244  1  0.57910000  0.53600000  0.69240000  1.0 -0.4797993346
O  O2245  1  0.28600000  0.82910000  0.80760000  1.0 -0.4797993346
O  O2246  1  0.55760000  0.78600000  0.57910000  1.0 -0.4797993346
O  O2247  1  0.96400000  0.82910000  0.94240000  1.0 -0.4797993346
O  O2248  1  0.67090000  0.53600000  0.05760000  1.0 -0.4797993346
O  O2249  1  0.71400000  0.80760000  0.82910000  1.0 -0.4797993346
O  O2250  1  0.67090000  0.21400000  0.19240000  1.0 -0.4797993346
O  O2251  1  0.96400000  0.92090000  0.30760000  1.0 -0.4797993346
O  O2252  1  0.69240000  0.96400000  0.07910000  1.0 -0.4797993346
O  O2253  1  0.57910000  0.21400000  0.55760000  1.0 -0.4797993346
O  O2254  1  0.53600000  0.94240000  0.32910000  1.0 -0.4797993346
O  O2255  1  0.55760000  0.96400000  0.67090000  1.0 -0.4797993346
O  O2256  1  0.71400000  0.94240000  0.42090000  1.0 -0.4797993346
O  O2257  1  0.69240000  0.78600000  0.17090000  1.0 -0.4797993346
O  O2258  1  0.53600000  0.80760000  0.92090000  1.0 -0.4797993346
O  O2259  1  0.42090000  0.05760000  0.71400000  1.0 -0.4797993346
O  O2260  1  0.94240000  0.17090000  0.96400000  1.0 -0.4797993346
O  O2261  1  0.80760000  0.17090000  0.28600000  1.0 -0.4797993346
O  O2262  1  0.92090000  0.19240000  0.53600000  1.0 -0.4797993346
O  O2263  1  0.44240000  0.07910000  0.28600000  1.0 -0.4797993346
O  O2264  1  0.32910000  0.05760000  0.53600000  1.0 -0.4797993346
O  O2265  1  0.82910000  0.19240000  0.71400000  1.0 -0.4797993346
O  O2266  1  0.28600000  0.42090000  0.94240000  1.0 -0.4797993346
O  O2267  1  0.57910000  0.03600000  0.19240000  1.0 -0.4797993346
O  O2268  1  0.28600000  0.32910000  0.30760000  1.0 -0.4797993346
O  O2269  1  0.55760000  0.28600000  0.07910000  1.0 -0.4797993346
O  O2270  1  0.96400000  0.32910000  0.44240000  1.0 -0.4797993346
O  O2271  1  0.67090000  0.03600000  0.55760000  1.0 -0.4797993346
O  O2272  1  0.71400000  0.30760000  0.32910000  1.0 -0.4797993346
O  O2273  1  0.67090000  0.71400000  0.69240000  1.0 -0.4797993346
O  O2274  1  0.96400000  0.42090000  0.80760000  1.0 -0.4797993346
O  O2275  1  0.69240000  0.46400000  0.57910000  1.0 -0.4797993346
O  O2276  1  0.57910000  0.71400000  0.05760000  1.0 -0.4797993346
O  O2277  1  0.53600000  0.44240000  0.82910000  1.0 -0.4797993346
O  O2278  1  0.55760000  0.46400000  0.17090000  1.0 -0.4797993346
O  O2279  1  0.71400000  0.44240000  0.92090000  1.0 -0.4797993346
O  O2280  1  0.69240000  0.28600000  0.67090000  1.0 -0.4797993346
O  O2281  1  0.53600000  0.30760000  0.42090000  1.0 -0.4797993346
O  O2282  1  0.42090000  0.55760000  0.21400000  1.0 -0.4797993346
O  O2283  1  0.94240000  0.67090000  0.46400000  1.0 -0.4797993346
O  O2284  1  0.80760000  0.67090000  0.78600000  1.0 -0.4797993346
O  O2285  1  0.92090000  0.69240000  0.03600000  1.0 -0.4797993346
O  O2286  1  0.44240000  0.57910000  0.78600000  1.0 -0.4797993346
O  O2287  1  0.32910000  0.55760000  0.03600000  1.0 -0.4797993346
O  O2288  1  0.82910000  0.69240000  0.21400000  1.0 -0.4797993346
O  O2289  1  0.21400000  0.07910000  0.05760000  1.0 -0.4797993346
O  O2290  1  0.92090000  0.46400000  0.80760000  1.0 -0.4797993346
O  O2291  1  0.21400000  0.17090000  0.69240000  1.0 -0.4797993346
O  O2292  1  0.94240000  0.21400000  0.92090000  1.0 -0.4797993346
O  O2293  1  0.53600000  0.17090000  0.55760000  1.0 -0.4797993346
O  O2294  1  0.82910000  0.46400000  0.44240000  1.0 -0.4797993346
O  O2295  1  0.78600000  0.19240000  0.67090000  1.0 -0.4797993346
O  O2296  1  0.82910000  0.78600000  0.30760000  1.0 -0.4797993346
O  O2297  1  0.53600000  0.07910000  0.19240000  1.0 -0.4797993346
O  O2298  1  0.80760000  0.03600000  0.42090000  1.0 -0.4797993346
O  O2299  1  0.92090000  0.78600000  0.94240000  1.0 -0.4797993346
O  O2300  1  0.96400000  0.05760000  0.17090000  1.0 -0.4797993346
O  O2301  1  0.94240000  0.03600000  0.82910000  1.0 -0.4797993346
O  O2302  1  0.78600000  0.05760000  0.07910000  1.0 -0.4797993346
O  O2303  1  0.80760000  0.21400000  0.32910000  1.0 -0.4797993346
O  O2304  1  0.96400000  0.19240000  0.57910000  1.0 -0.4797993346
O  O2305  1  0.07910000  0.94240000  0.78600000  1.0 -0.4797993346
O  O2306  1  0.69240000  0.92090000  0.03600000  1.0 -0.4797993346
O  O2307  1  0.55760000  0.82910000  0.53600000  1.0 -0.4797993346
O  O2308  1  0.69240000  0.82910000  0.21400000  1.0 -0.4797993346
O  O2309  1  0.57910000  0.80760000  0.96400000  1.0 -0.4797993346
O  O2310  1  0.05760000  0.92090000  0.21400000  1.0 -0.4797993346
O  O2311  1  0.17090000  0.94240000  0.96400000  1.0 -0.4797993346
O  O2312  1  0.67090000  0.80760000  0.78600000  1.0 -0.4797993346
O  O2313  1  0.19240000  0.92090000  0.53600000  1.0 -0.4797993346
O  O2314  1  0.21400000  0.57910000  0.55760000  1.0 -0.4797993346
O  O2315  1  0.92090000  0.96400000  0.30760000  1.0 -0.4797993346
O  O2316  1  0.21400000  0.67090000  0.19240000  1.0 -0.4797993346
O  O2317  1  0.94240000  0.71400000  0.42090000  1.0 -0.4797993346
O  O2318  1  0.53600000  0.67090000  0.05760000  1.0 -0.4797993346
O  O2319  1  0.82910000  0.96400000  0.94240000  1.0 -0.4797993346
O  O2320  1  0.78600000  0.69240000  0.17090000  1.0 -0.4797993346
O  O2321  1  0.82910000  0.28600000  0.80760000  1.0 -0.4797993346
O  O2322  1  0.53600000  0.57910000  0.69240000  1.0 -0.4797993346
O  O2323  1  0.80760000  0.53600000  0.92090000  1.0 -0.4797993346
O  O2324  1  0.92090000  0.28600000  0.44240000  1.0 -0.4797993346
O  O2325  1  0.96400000  0.55760000  0.67090000  1.0 -0.4797993346
O  O2326  1  0.94240000  0.53600000  0.32910000  1.0 -0.4797993346
O  O2327  1  0.78600000  0.55760000  0.57910000  1.0 -0.4797993346
O  O2328  1  0.80760000  0.71400000  0.82910000  1.0 -0.4797993346
O  O2329  1  0.96400000  0.69240000  0.07910000  1.0 -0.4797993346
O  O2330  1  0.07910000  0.44240000  0.28600000  1.0 -0.4797993346
O  O2331  1  0.69240000  0.42090000  0.53600000  1.0 -0.4797993346
O  O2332  1  0.55760000  0.32910000  0.03600000  1.0 -0.4797993346
O  O2333  1  0.69240000  0.32910000  0.71400000  1.0 -0.4797993346
O  O2334  1  0.57910000  0.30760000  0.46400000  1.0 -0.4797993346
O  O2335  1  0.05760000  0.42090000  0.71400000  1.0 -0.4797993346
O  O2336  1  0.17090000  0.44240000  0.46400000  1.0 -0.4797993346
O  O2337  1  0.67090000  0.30760000  0.28600000  1.0 -0.4797993346
O  O2338  1  0.19240000  0.42090000  0.03600000  1.0 -0.4797993346
O  O2339  1  0.71400000  0.07910000  0.55760000  1.0 -0.4797993346
O  O2340  1  0.42090000  0.46400000  0.30760000  1.0 -0.4797993346
O  O2341  1  0.71400000  0.17090000  0.19240000  1.0 -0.4797993346
O  O2342  1  0.44240000  0.21400000  0.42090000  1.0 -0.4797993346
O  O2343  1  0.03600000  0.17090000  0.05760000  1.0 -0.4797993346
O  O2344  1  0.32910000  0.46400000  0.94240000  1.0 -0.4797993346
O  O2345  1  0.28600000  0.19240000  0.17090000  1.0 -0.4797993346
O  O2346  1  0.32910000  0.78600000  0.80760000  1.0 -0.4797993346
O  O2347  1  0.03600000  0.07910000  0.69240000  1.0 -0.4797993346
O  O2348  1  0.30760000  0.03600000  0.92090000  1.0 -0.4797993346
O  O2349  1  0.42090000  0.78600000  0.44240000  1.0 -0.4797993346
O  O2350  1  0.46400000  0.05760000  0.67090000  1.0 -0.4797993346
O  O2351  1  0.44240000  0.03600000  0.32910000  1.0 -0.4797993346
O  O2352  1  0.28600000  0.05760000  0.57910000  1.0 -0.4797993346
O  O2353  1  0.30760000  0.21400000  0.82910000  1.0 -0.4797993346
O  O2354  1  0.46400000  0.19240000  0.07910000  1.0 -0.4797993346
O  O2355  1  0.57910000  0.94240000  0.28600000  1.0 -0.4797993346
O  O2356  1  0.05760000  0.82910000  0.03600000  1.0 -0.4797993346
O  O2357  1  0.19240000  0.82910000  0.71400000  1.0 -0.4797993346
O  O2358  1  0.07910000  0.80760000  0.46400000  1.0 -0.4797993346
O  O2359  1  0.55760000  0.92090000  0.71400000  1.0 -0.4797993346
O  O2360  1  0.67090000  0.94240000  0.46400000  1.0 -0.4797993346
O  O2361  1  0.17090000  0.80760000  0.28600000  1.0 -0.4797993346
O  O2362  1  0.71400000  0.57910000  0.05760000  1.0 -0.4797993346
O  O2363  1  0.42090000  0.96400000  0.80760000  1.0 -0.4797993346
O  O2364  1  0.71400000  0.67090000  0.69240000  1.0 -0.4797993346
O  O2365  1  0.44240000  0.71400000  0.92090000  1.0 -0.4797993346
O  O2366  1  0.03600000  0.67090000  0.55760000  1.0 -0.4797993346
O  O2367  1  0.32910000  0.96400000  0.44240000  1.0 -0.4797993346
O  O2368  1  0.28600000  0.69240000  0.67090000  1.0 -0.4797993346
O  O2369  1  0.32910000  0.28600000  0.30760000  1.0 -0.4797993346
O  O2370  1  0.03600000  0.57910000  0.19240000  1.0 -0.4797993346
O  O2371  1  0.30760000  0.53600000  0.42090000  1.0 -0.4797993346
O  O2372  1  0.42090000  0.28600000  0.94240000  1.0 -0.4797993346
O  O2373  1  0.46400000  0.55760000  0.17090000  1.0 -0.4797993346
O  O2374  1  0.44240000  0.53600000  0.82910000  1.0 -0.4797993346
O  O2375  1  0.28600000  0.55760000  0.07910000  1.0 -0.4797993346
O  O2376  1  0.30760000  0.71400000  0.32910000  1.0 -0.4797993346
O  O2377  1  0.46400000  0.69240000  0.57910000  1.0 -0.4797993346
O  O2378  1  0.57910000  0.44240000  0.78600000  1.0 -0.4797993346
O  O2379  1  0.05760000  0.32910000  0.53600000  1.0 -0.4797993346
O  O2380  1  0.19240000  0.32910000  0.21400000  1.0 -0.4797993346
O  O2381  1  0.07910000  0.30760000  0.96400000  1.0 -0.4797993346
O  O2382  1  0.55760000  0.42090000  0.21400000  1.0 -0.4797993346
O  O2383  1  0.67090000  0.44240000  0.96400000  1.0 -0.4797993346
O  O2384  1  0.17090000  0.30760000  0.78600000  1.0 -0.4797993346
O  O2385  1  0.94370000  0.75640000  0.84250000  1.0 -0.4797993346
O  O2386  1  0.24360000  0.69370000  0.09250000  1.0 -0.4797993346
O  O2387  1  0.94370000  0.99360000  0.40750000  1.0 -0.4797993346
O  O2388  1  0.15750000  0.94370000  0.24360000  1.0 -0.4797993346
O  O2389  1  0.30630000  0.99360000  0.34250000  1.0 -0.4797993346
O  O2390  1  0.00640000  0.69370000  0.65750000  1.0 -0.4797993346
O  O2391  1  0.05630000  0.90750000  0.49360000  1.0 -0.4797993346
O  O2392  1  0.00640000  0.05630000  0.59250000  1.0 -0.4797993346
O  O2393  1  0.30630000  0.75640000  0.90750000  1.0 -0.4797993346
O  O2394  1  0.09250000  0.80630000  0.74360000  1.0 -0.4797993346
O  O2395  1  0.24360000  0.05630000  0.15750000  1.0 -0.4797993346
O  O2396  1  0.19370000  0.84250000  0.99360000  1.0 -0.4797993346
O  O2397  1  0.15750000  0.80630000  0.00640000  1.0 -0.4797993346
O  O2398  1  0.05630000  0.84250000  0.75640000  1.0 -0.4797993346
O  O2399  1  0.09250000  0.94370000  0.50640000  1.0 -0.4797993346
O  O2400  1  0.19370000  0.90750000  0.25640000  1.0 -0.4797993346
O  O2401  1  0.75640000  0.15750000  0.05630000  1.0 -0.4797993346
O  O2402  1  0.40750000  0.24360000  0.80630000  1.0 -0.4797993346
O  O2403  1  0.34250000  0.00640000  0.30630000  1.0 -0.4797993346
O  O2404  1  0.40750000  0.00640000  0.94370000  1.0 -0.4797993346
O  O2405  1  0.25640000  0.09250000  0.19370000  1.0 -0.4797993346
O  O2406  1  0.84250000  0.24360000  0.94370000  1.0 -0.4797993346
O  O2407  1  0.99360000  0.15750000  0.19370000  1.0 -0.4797993346
O  O2408  1  0.49360000  0.09250000  0.05630000  1.0 -0.4797993346
O  O2409  1  0.90750000  0.24360000  0.30630000  1.0 -0.4797993346
O  O2410  1  0.94370000  0.25640000  0.34250000  1.0 -0.4797993346
O  O2411  1  0.24360000  0.19370000  0.59250000  1.0 -0.4797993346
O  O2412  1  0.94370000  0.49360000  0.90750000  1.0 -0.4797993346
O  O2413  1  0.15750000  0.44370000  0.74360000  1.0 -0.4797993346
O  O2414  1  0.30630000  0.49360000  0.84250000  1.0 -0.4797993346
O  O2415  1  0.00640000  0.19370000  0.15750000  1.0 -0.4797993346
O  O2416  1  0.05630000  0.40750000  0.99360000  1.0 -0.4797993346
O  O2417  1  0.00640000  0.55630000  0.09250000  1.0 -0.4797993346
O  O2418  1  0.30630000  0.25640000  0.40750000  1.0 -0.4797993346
O  O2419  1  0.09250000  0.30630000  0.24360000  1.0 -0.4797993346
O  O2420  1  0.24360000  0.55630000  0.65750000  1.0 -0.4797993346
O  O2421  1  0.19370000  0.34250000  0.49360000  1.0 -0.4797993346
O  O2422  1  0.15750000  0.30630000  0.50640000  1.0 -0.4797993346
O  O2423  1  0.05630000  0.34250000  0.25640000  1.0 -0.4797993346
O  O2424  1  0.09250000  0.44370000  0.00640000  1.0 -0.4797993346
O  O2425  1  0.19370000  0.40750000  0.75640000  1.0 -0.4797993346
O  O2426  1  0.75640000  0.65750000  0.55630000  1.0 -0.4797993346
O  O2427  1  0.40750000  0.74360000  0.30630000  1.0 -0.4797993346
O  O2428  1  0.34250000  0.50640000  0.80630000  1.0 -0.4797993346
O  O2429  1  0.40750000  0.50640000  0.44370000  1.0 -0.4797993346
O  O2430  1  0.25640000  0.59250000  0.69370000  1.0 -0.4797993346
O  O2431  1  0.84250000  0.74360000  0.44370000  1.0 -0.4797993346
O  O2432  1  0.99360000  0.65750000  0.69370000  1.0 -0.4797993346
O  O2433  1  0.49360000  0.59250000  0.55630000  1.0 -0.4797993346
O  O2434  1  0.90750000  0.74360000  0.80630000  1.0 -0.4797993346
O  O2435  1  0.44370000  0.75640000  0.34250000  1.0 -0.4797993346
O  O2436  1  0.74360000  0.69370000  0.59250000  1.0 -0.4797993346
O  O2437  1  0.44370000  0.99360000  0.90750000  1.0 -0.4797993346
O  O2438  1  0.65750000  0.94370000  0.74360000  1.0 -0.4797993346
O  O2439  1  0.80630000  0.99360000  0.84250000  1.0 -0.4797993346
O  O2440  1  0.50640000  0.69370000  0.15750000  1.0 -0.4797993346
O  O2441  1  0.55630000  0.90750000  0.99360000  1.0 -0.4797993346
O  O2442  1  0.50640000  0.05630000  0.09250000  1.0 -0.4797993346
O  O2443  1  0.80630000  0.75640000  0.40750000  1.0 -0.4797993346
O  O2444  1  0.59250000  0.80630000  0.24360000  1.0 -0.4797993346
O  O2445  1  0.74360000  0.05630000  0.65750000  1.0 -0.4797993346
O  O2446  1  0.69370000  0.84250000  0.49360000  1.0 -0.4797993346
O  O2447  1  0.65750000  0.80630000  0.50640000  1.0 -0.4797993346
O  O2448  1  0.55630000  0.84250000  0.25640000  1.0 -0.4797993346
O  O2449  1  0.59250000  0.94370000  0.00640000  1.0 -0.4797993346
O  O2450  1  0.69370000  0.90750000  0.75640000  1.0 -0.4797993346
O  O2451  1  0.25640000  0.15750000  0.55630000  1.0 -0.4797993346
O  O2452  1  0.84250000  0.00640000  0.80630000  1.0 -0.4797993346
O  O2453  1  0.90750000  0.00640000  0.44370000  1.0 -0.4797993346
O  O2454  1  0.75640000  0.09250000  0.69370000  1.0 -0.4797993346
O  O2455  1  0.34250000  0.24360000  0.44370000  1.0 -0.4797993346
O  O2456  1  0.49360000  0.15750000  0.69370000  1.0 -0.4797993346
O  O2457  1  0.99360000  0.09250000  0.55630000  1.0 -0.4797993346
O  O2458  1  0.44370000  0.25640000  0.84250000  1.0 -0.4797993346
O  O2459  1  0.74360000  0.19370000  0.09250000  1.0 -0.4797993346
O  O2460  1  0.44370000  0.49360000  0.40750000  1.0 -0.4797993346
O  O2461  1  0.65750000  0.44370000  0.24360000  1.0 -0.4797993346
O  O2462  1  0.80630000  0.49360000  0.34250000  1.0 -0.4797993346
O  O2463  1  0.50640000  0.19370000  0.65750000  1.0 -0.4797993346
O  O2464  1  0.55630000  0.40750000  0.49360000  1.0 -0.4797993346
O  O2465  1  0.50640000  0.55630000  0.59250000  1.0 -0.4797993346
O  O2466  1  0.80630000  0.25640000  0.90750000  1.0 -0.4797993346
O  O2467  1  0.59250000  0.30630000  0.74360000  1.0 -0.4797993346
O  O2468  1  0.74360000  0.55630000  0.15750000  1.0 -0.4797993346
O  O2469  1  0.69370000  0.34250000  0.99360000  1.0 -0.4797993346
O  O2470  1  0.65750000  0.30630000  0.00640000  1.0 -0.4797993346
O  O2471  1  0.55630000  0.34250000  0.75640000  1.0 -0.4797993346
O  O2472  1  0.59250000  0.44370000  0.50640000  1.0 -0.4797993346
O  O2473  1  0.69370000  0.40750000  0.25640000  1.0 -0.4797993346
O  O2474  1  0.25640000  0.65750000  0.05630000  1.0 -0.4797993346
O  O2475  1  0.84250000  0.50640000  0.30630000  1.0 -0.4797993346
O  O2476  1  0.90750000  0.50640000  0.94370000  1.0 -0.4797993346
O  O2477  1  0.75640000  0.59250000  0.19370000  1.0 -0.4797993346
O  O2478  1  0.34250000  0.74360000  0.94370000  1.0 -0.4797993346
O  O2479  1  0.49360000  0.65750000  0.19370000  1.0 -0.4797993346
O  O2480  1  0.99360000  0.59250000  0.05630000  1.0 -0.4797993346
O  O2481  1  0.05630000  0.24360000  0.15750000  1.0 -0.4797993346
O  O2482  1  0.75640000  0.30630000  0.90750000  1.0 -0.4797993346
O  O2483  1  0.05630000  0.00640000  0.59250000  1.0 -0.4797993346
O  O2484  1  0.84250000  0.05630000  0.75640000  1.0 -0.4797993346
O  O2485  1  0.69370000  0.00640000  0.65750000  1.0 -0.4797993346
O  O2486  1  0.99360000  0.30630000  0.34250000  1.0 -0.4797993346
O  O2487  1  0.94370000  0.09250000  0.50640000  1.0 -0.4797993346
O  O2488  1  0.99360000  0.94370000  0.40750000  1.0 -0.4797993346
O  O2489  1  0.69370000  0.24360000  0.09250000  1.0 -0.4797993346
O  O2490  1  0.90750000  0.19370000  0.25640000  1.0 -0.4797993346
O  O2491  1  0.75640000  0.94370000  0.84250000  1.0 -0.4797993346
O  O2492  1  0.80630000  0.15750000  0.00640000  1.0 -0.4797993346
O  O2493  1  0.84250000  0.19370000  0.99360000  1.0 -0.4797993346
O  O2494  1  0.94370000  0.15750000  0.24360000  1.0 -0.4797993346
O  O2495  1  0.90750000  0.05630000  0.49360000  1.0 -0.4797993346
O  O2496  1  0.80630000  0.09250000  0.74360000  1.0 -0.4797993346
O  O2497  1  0.24360000  0.84250000  0.94370000  1.0 -0.4797993346
O  O2498  1  0.59250000  0.75640000  0.19370000  1.0 -0.4797993346
O  O2499  1  0.65750000  0.99360000  0.69370000  1.0 -0.4797993346
O  O2500  1  0.59250000  0.99360000  0.05630000  1.0 -0.4797993346
O  O2501  1  0.74360000  0.90750000  0.80630000  1.0 -0.4797993346
O  O2502  1  0.15750000  0.75640000  0.05630000  1.0 -0.4797993346
O  O2503  1  0.00640000  0.84250000  0.80630000  1.0 -0.4797993346
O  O2504  1  0.50640000  0.90750000  0.94370000  1.0 -0.4797993346
O  O2505  1  0.09250000  0.75640000  0.69370000  1.0 -0.4797993346
O  O2506  1  0.05630000  0.74360000  0.65750000  1.0 -0.4797993346
O  O2507  1  0.75640000  0.80630000  0.40750000  1.0 -0.4797993346
O  O2508  1  0.05630000  0.50640000  0.09250000  1.0 -0.4797993346
O  O2509  1  0.84250000  0.55630000  0.25640000  1.0 -0.4797993346
O  O2510  1  0.69370000  0.50640000  0.15750000  1.0 -0.4797993346
O  O2511  1  0.99360000  0.80630000  0.84250000  1.0 -0.4797993346
O  O2512  1  0.94370000  0.59250000  0.00640000  1.0 -0.4797993346
O  O2513  1  0.99360000  0.44370000  0.90750000  1.0 -0.4797993346
O  O2514  1  0.69370000  0.74360000  0.59250000  1.0 -0.4797993346
O  O2515  1  0.90750000  0.69370000  0.75640000  1.0 -0.4797993346
O  O2516  1  0.75640000  0.44370000  0.34250000  1.0 -0.4797993346
O  O2517  1  0.80630000  0.65750000  0.50640000  1.0 -0.4797993346
O  O2518  1  0.84250000  0.69370000  0.49360000  1.0 -0.4797993346
O  O2519  1  0.94370000  0.65750000  0.74360000  1.0 -0.4797993346
O  O2520  1  0.90750000  0.55630000  0.99360000  1.0 -0.4797993346
O  O2521  1  0.80630000  0.59250000  0.24360000  1.0 -0.4797993346
O  O2522  1  0.24360000  0.34250000  0.44370000  1.0 -0.4797993346
O  O2523  1  0.59250000  0.25640000  0.69370000  1.0 -0.4797993346
O  O2524  1  0.65750000  0.49360000  0.19370000  1.0 -0.4797993346
O  O2525  1  0.59250000  0.49360000  0.55630000  1.0 -0.4797993346
O  O2526  1  0.74360000  0.40750000  0.30630000  1.0 -0.4797993346
O  O2527  1  0.15750000  0.25640000  0.55630000  1.0 -0.4797993346
O  O2528  1  0.00640000  0.34250000  0.30630000  1.0 -0.4797993346
O  O2529  1  0.50640000  0.40750000  0.44370000  1.0 -0.4797993346
O  O2530  1  0.09250000  0.25640000  0.19370000  1.0 -0.4797993346
O  O2531  1  0.55630000  0.24360000  0.65750000  1.0 -0.4797993346
O  O2532  1  0.25640000  0.30630000  0.40750000  1.0 -0.4797993346
O  O2533  1  0.55630000  0.00640000  0.09250000  1.0 -0.4797993346
O  O2534  1  0.34250000  0.05630000  0.25640000  1.0 -0.4797993346
O  O2535  1  0.19370000  0.00640000  0.15750000  1.0 -0.4797993346
O  O2536  1  0.49360000  0.30630000  0.84250000  1.0 -0.4797993346
O  O2537  1  0.44370000  0.09250000  0.00640000  1.0 -0.4797993346
O  O2538  1  0.49360000  0.94370000  0.90750000  1.0 -0.4797993346
O  O2539  1  0.19370000  0.24360000  0.59250000  1.0 -0.4797993346
O  O2540  1  0.40750000  0.19370000  0.75640000  1.0 -0.4797993346
O  O2541  1  0.25640000  0.94370000  0.34250000  1.0 -0.4797993346
O  O2542  1  0.30630000  0.15750000  0.50640000  1.0 -0.4797993346
O  O2543  1  0.34250000  0.19370000  0.49360000  1.0 -0.4797993346
O  O2544  1  0.44370000  0.15750000  0.74360000  1.0 -0.4797993346
O  O2545  1  0.40750000  0.05630000  0.99360000  1.0 -0.4797993346
O  O2546  1  0.30630000  0.09250000  0.24360000  1.0 -0.4797993346
O  O2547  1  0.74360000  0.84250000  0.44370000  1.0 -0.4797993346
O  O2548  1  0.15750000  0.99360000  0.19370000  1.0 -0.4797993346
O  O2549  1  0.09250000  0.99360000  0.55630000  1.0 -0.4797993346
O  O2550  1  0.24360000  0.90750000  0.30630000  1.0 -0.4797993346
O  O2551  1  0.65750000  0.75640000  0.55630000  1.0 -0.4797993346
O  O2552  1  0.50640000  0.84250000  0.30630000  1.0 -0.4797993346
O  O2553  1  0.00640000  0.90750000  0.44370000  1.0 -0.4797993346
O  O2554  1  0.55630000  0.74360000  0.15750000  1.0 -0.4797993346
O  O2555  1  0.25640000  0.80630000  0.90750000  1.0 -0.4797993346
O  O2556  1  0.55630000  0.50640000  0.59250000  1.0 -0.4797993346
O  O2557  1  0.34250000  0.55630000  0.75640000  1.0 -0.4797993346
O  O2558  1  0.19370000  0.50640000  0.65750000  1.0 -0.4797993346
O  O2559  1  0.49360000  0.80630000  0.34250000  1.0 -0.4797993346
O  O2560  1  0.44370000  0.59250000  0.50640000  1.0 -0.4797993346
O  O2561  1  0.49360000  0.44370000  0.40750000  1.0 -0.4797993346
O  O2562  1  0.19370000  0.74360000  0.09250000  1.0 -0.4797993346
O  O2563  1  0.40750000  0.69370000  0.25640000  1.0 -0.4797993346
O  O2564  1  0.25640000  0.44370000  0.84250000  1.0 -0.4797993346
O  O2565  1  0.30630000  0.65750000  0.00640000  1.0 -0.4797993346
O  O2566  1  0.34250000  0.69370000  0.99360000  1.0 -0.4797993346
O  O2567  1  0.44370000  0.65750000  0.24360000  1.0 -0.4797993346
O  O2568  1  0.40750000  0.55630000  0.49360000  1.0 -0.4797993346
O  O2569  1  0.30630000  0.59250000  0.74360000  1.0 -0.4797993346
O  O2570  1  0.74360000  0.34250000  0.94370000  1.0 -0.4797993346
O  O2571  1  0.15750000  0.49360000  0.69370000  1.0 -0.4797993346
O  O2572  1  0.09250000  0.49360000  0.05630000  1.0 -0.4797993346
O  O2573  1  0.24360000  0.40750000  0.80630000  1.0 -0.4797993346
O  O2574  1  0.65750000  0.25640000  0.05630000  1.0 -0.4797993346
O  O2575  1  0.50640000  0.34250000  0.80630000  1.0 -0.4797993346
O  O2576  1  0.00640000  0.40750000  0.94370000  1.0 -0.4797993346
O  O2577  1  0.92140000  0.77720000  0.82190000  1.0 -0.4797993346
O  O2578  1  0.22280000  0.67140000  0.07190000  1.0 -0.4797993346
O  O2579  1  0.92140000  0.97280000  0.42810000  1.0 -0.4797993346
O  O2580  1  0.17810000  0.92140000  0.22280000  1.0 -0.4797993346
O  O2581  1  0.32860000  0.97280000  0.32190000  1.0 -0.4797993346
O  O2582  1  0.02720000  0.67140000  0.67810000  1.0 -0.4797993346
O  O2583  1  0.07860000  0.92810000  0.47280000  1.0 -0.4797993346
O  O2584  1  0.02720000  0.07860000  0.57190000  1.0 -0.4797993346
O  O2585  1  0.32860000  0.77720000  0.92810000  1.0 -0.4797993346
O  O2586  1  0.07190000  0.82860000  0.72280000  1.0 -0.4797993346
O  O2587  1  0.22280000  0.07860000  0.17810000  1.0 -0.4797993346
O  O2588  1  0.17140000  0.82190000  0.97280000  1.0 -0.4797993346
O  O2589  1  0.17810000  0.82860000  0.02720000  1.0 -0.4797993346
O  O2590  1  0.07860000  0.82190000  0.77720000  1.0 -0.4797993346
O  O2591  1  0.07190000  0.92140000  0.52720000  1.0 -0.4797993346
O  O2592  1  0.17140000  0.92810000  0.27720000  1.0 -0.4797993346
O  O2593  1  0.77720000  0.17810000  0.07860000  1.0 -0.4797993346
O  O2594  1  0.42810000  0.22280000  0.82860000  1.0 -0.4797993346
O  O2595  1  0.32190000  0.02720000  0.32860000  1.0 -0.4797993346
O  O2596  1  0.42810000  0.02720000  0.92140000  1.0 -0.4797993346
O  O2597  1  0.27720000  0.07190000  0.17140000  1.0 -0.4797993346
O  O2598  1  0.82190000  0.22280000  0.92140000  1.0 -0.4797993346
O  O2599  1  0.97280000  0.17810000  0.17140000  1.0 -0.4797993346
O  O2600  1  0.47280000  0.07190000  0.07860000  1.0 -0.4797993346
O  O2601  1  0.92810000  0.22280000  0.32860000  1.0 -0.4797993346
O  O2602  1  0.92140000  0.27720000  0.32190000  1.0 -0.4797993346
O  O2603  1  0.22280000  0.17140000  0.57190000  1.0 -0.4797993346
O  O2604  1  0.92140000  0.47280000  0.92810000  1.0 -0.4797993346
O  O2605  1  0.17810000  0.42140000  0.72280000  1.0 -0.4797993346
O  O2606  1  0.32860000  0.47280000  0.82190000  1.0 -0.4797993346
O  O2607  1  0.02720000  0.17140000  0.17810000  1.0 -0.4797993346
O  O2608  1  0.07860000  0.42810000  0.97280000  1.0 -0.4797993346
O  O2609  1  0.02720000  0.57860000  0.07190000  1.0 -0.4797993346
O  O2610  1  0.32860000  0.27720000  0.42810000  1.0 -0.4797993346
O  O2611  1  0.07190000  0.32860000  0.22280000  1.0 -0.4797993346
O  O2612  1  0.22280000  0.57860000  0.67810000  1.0 -0.4797993346
O  O2613  1  0.17140000  0.32190000  0.47280000  1.0 -0.4797993346
O  O2614  1  0.17810000  0.32860000  0.52720000  1.0 -0.4797993346
O  O2615  1  0.07860000  0.32190000  0.27720000  1.0 -0.4797993346
O  O2616  1  0.07190000  0.42140000  0.02720000  1.0 -0.4797993346
O  O2617  1  0.17140000  0.42810000  0.77720000  1.0 -0.4797993346
O  O2618  1  0.77720000  0.67810000  0.57860000  1.0 -0.4797993346
O  O2619  1  0.42810000  0.72280000  0.32860000  1.0 -0.4797993346
O  O2620  1  0.32190000  0.52720000  0.82860000  1.0 -0.4797993346
O  O2621  1  0.42810000  0.52720000  0.42140000  1.0 -0.4797993346
O  O2622  1  0.27720000  0.57190000  0.67140000  1.0 -0.4797993346
O  O2623  1  0.82190000  0.72280000  0.42140000  1.0 -0.4797993346
O  O2624  1  0.97280000  0.67810000  0.67140000  1.0 -0.4797993346
O  O2625  1  0.47280000  0.57190000  0.57860000  1.0 -0.4797993346
O  O2626  1  0.92810000  0.72280000  0.82860000  1.0 -0.4797993346
O  O2627  1  0.42140000  0.77720000  0.32190000  1.0 -0.4797993346
O  O2628  1  0.72280000  0.67140000  0.57190000  1.0 -0.4797993346
O  O2629  1  0.42140000  0.97280000  0.92810000  1.0 -0.4797993346
O  O2630  1  0.67810000  0.92140000  0.72280000  1.0 -0.4797993346
O  O2631  1  0.82860000  0.97280000  0.82190000  1.0 -0.4797993346
O  O2632  1  0.52720000  0.67140000  0.17810000  1.0 -0.4797993346
O  O2633  1  0.57860000  0.92810000  0.97280000  1.0 -0.4797993346
O  O2634  1  0.52720000  0.07860000  0.07190000  1.0 -0.4797993346
O  O2635  1  0.82860000  0.77720000  0.42810000  1.0 -0.4797993346
O  O2636  1  0.57190000  0.82860000  0.22280000  1.0 -0.4797993346
O  O2637  1  0.72280000  0.07860000  0.67810000  1.0 -0.4797993346
O  O2638  1  0.67140000  0.82190000  0.47280000  1.0 -0.4797993346
O  O2639  1  0.67810000  0.82860000  0.52720000  1.0 -0.4797993346
O  O2640  1  0.57860000  0.82190000  0.27720000  1.0 -0.4797993346
O  O2641  1  0.57190000  0.92140000  0.02720000  1.0 -0.4797993346
O  O2642  1  0.67140000  0.92810000  0.77720000  1.0 -0.4797993346
O  O2643  1  0.27720000  0.17810000  0.57860000  1.0 -0.4797993346
O  O2644  1  0.82190000  0.02720000  0.82860000  1.0 -0.4797993346
O  O2645  1  0.92810000  0.02720000  0.42140000  1.0 -0.4797993346
O  O2646  1  0.77720000  0.07190000  0.67140000  1.0 -0.4797993346
O  O2647  1  0.32190000  0.22280000  0.42140000  1.0 -0.4797993346
O  O2648  1  0.47280000  0.17810000  0.67140000  1.0 -0.4797993346
O  O2649  1  0.97280000  0.07190000  0.57860000  1.0 -0.4797993346
O  O2650  1  0.42140000  0.27720000  0.82190000  1.0 -0.4797993346
O  O2651  1  0.72280000  0.17140000  0.07190000  1.0 -0.4797993346
O  O2652  1  0.42140000  0.47280000  0.42810000  1.0 -0.4797993346
O  O2653  1  0.67810000  0.42140000  0.22280000  1.0 -0.4797993346
O  O2654  1  0.82860000  0.47280000  0.32190000  1.0 -0.4797993346
O  O2655  1  0.52720000  0.17140000  0.67810000  1.0 -0.4797993346
O  O2656  1  0.57860000  0.42810000  0.47280000  1.0 -0.4797993346
O  O2657  1  0.52720000  0.57860000  0.57190000  1.0 -0.4797993346
O  O2658  1  0.82860000  0.27720000  0.92810000  1.0 -0.4797993346
O  O2659  1  0.57190000  0.32860000  0.72280000  1.0 -0.4797993346
O  O2660  1  0.72280000  0.57860000  0.17810000  1.0 -0.4797993346
O  O2661  1  0.67140000  0.32190000  0.97280000  1.0 -0.4797993346
O  O2662  1  0.67810000  0.32860000  0.02720000  1.0 -0.4797993346
O  O2663  1  0.57860000  0.32190000  0.77720000  1.0 -0.4797993346
O  O2664  1  0.57190000  0.42140000  0.52720000  1.0 -0.4797993346
O  O2665  1  0.67140000  0.42810000  0.27720000  1.0 -0.4797993346
O  O2666  1  0.27720000  0.67810000  0.07860000  1.0 -0.4797993346
O  O2667  1  0.82190000  0.52720000  0.32860000  1.0 -0.4797993346
O  O2668  1  0.92810000  0.52720000  0.92140000  1.0 -0.4797993346
O  O2669  1  0.77720000  0.57190000  0.17140000  1.0 -0.4797993346
O  O2670  1  0.32190000  0.72280000  0.92140000  1.0 -0.4797993346
O  O2671  1  0.47280000  0.67810000  0.17140000  1.0 -0.4797993346
O  O2672  1  0.97280000  0.57190000  0.07860000  1.0 -0.4797993346
O  O2673  1  0.07860000  0.22280000  0.17810000  1.0 -0.4797993346
O  O2674  1  0.77720000  0.32860000  0.92810000  1.0 -0.4797993346
O  O2675  1  0.07860000  0.02720000  0.57190000  1.0 -0.4797993346
O  O2676  1  0.82190000  0.07860000  0.77720000  1.0 -0.4797993346
O  O2677  1  0.67140000  0.02720000  0.67810000  1.0 -0.4797993346
O  O2678  1  0.97280000  0.32860000  0.32190000  1.0 -0.4797993346
O  O2679  1  0.92140000  0.07190000  0.52720000  1.0 -0.4797993346
O  O2680  1  0.97280000  0.92140000  0.42810000  1.0 -0.4797993346
O  O2681  1  0.67140000  0.22280000  0.07190000  1.0 -0.4797993346
O  O2682  1  0.92810000  0.17140000  0.27720000  1.0 -0.4797993346
O  O2683  1  0.77720000  0.92140000  0.82190000  1.0 -0.4797993346
O  O2684  1  0.82860000  0.17810000  0.02720000  1.0 -0.4797993346
O  O2685  1  0.82190000  0.17140000  0.97280000  1.0 -0.4797993346
O  O2686  1  0.92140000  0.17810000  0.22280000  1.0 -0.4797993346
O  O2687  1  0.92810000  0.07860000  0.47280000  1.0 -0.4797993346
O  O2688  1  0.82860000  0.07190000  0.72280000  1.0 -0.4797993346
O  O2689  1  0.22280000  0.82190000  0.92140000  1.0 -0.4797993346
O  O2690  1  0.57190000  0.77720000  0.17140000  1.0 -0.4797993346
O  O2691  1  0.67810000  0.97280000  0.67140000  1.0 -0.4797993346
O  O2692  1  0.57190000  0.97280000  0.07860000  1.0 -0.4797993346
O  O2693  1  0.72280000  0.92810000  0.82860000  1.0 -0.4797993346
O  O2694  1  0.17810000  0.77720000  0.07860000  1.0 -0.4797993346
O  O2695  1  0.02720000  0.82190000  0.82860000  1.0 -0.4797993346
O  O2696  1  0.52720000  0.92810000  0.92140000  1.0 -0.4797993346
O  O2697  1  0.07190000  0.77720000  0.67140000  1.0 -0.4797993346
O  O2698  1  0.07860000  0.72280000  0.67810000  1.0 -0.4797993346
O  O2699  1  0.77720000  0.82860000  0.42810000  1.0 -0.4797993346
O  O2700  1  0.07860000  0.52720000  0.07190000  1.0 -0.4797993346
O  O2701  1  0.82190000  0.57860000  0.27720000  1.0 -0.4797993346
O  O2702  1  0.67140000  0.52720000  0.17810000  1.0 -0.4797993346
O  O2703  1  0.97280000  0.82860000  0.82190000  1.0 -0.4797993346
O  O2704  1  0.92140000  0.57190000  0.02720000  1.0 -0.4797993346
O  O2705  1  0.97280000  0.42140000  0.92810000  1.0 -0.4797993346
O  O2706  1  0.67140000  0.72280000  0.57190000  1.0 -0.4797993346
O  O2707  1  0.92810000  0.67140000  0.77720000  1.0 -0.4797993346
O  O2708  1  0.77720000  0.42140000  0.32190000  1.0 -0.4797993346
O  O2709  1  0.82860000  0.67810000  0.52720000  1.0 -0.4797993346
O  O2710  1  0.82190000  0.67140000  0.47280000  1.0 -0.4797993346
O  O2711  1  0.92140000  0.67810000  0.72280000  1.0 -0.4797993346
O  O2712  1  0.92810000  0.57860000  0.97280000  1.0 -0.4797993346
O  O2713  1  0.82860000  0.57190000  0.22280000  1.0 -0.4797993346
O  O2714  1  0.22280000  0.32190000  0.42140000  1.0 -0.4797993346
O  O2715  1  0.57190000  0.27720000  0.67140000  1.0 -0.4797993346
O  O2716  1  0.67810000  0.47280000  0.17140000  1.0 -0.4797993346
O  O2717  1  0.57190000  0.47280000  0.57860000  1.0 -0.4797993346
O  O2718  1  0.72280000  0.42810000  0.32860000  1.0 -0.4797993346
O  O2719  1  0.17810000  0.27720000  0.57860000  1.0 -0.4797993346
O  O2720  1  0.02720000  0.32190000  0.32860000  1.0 -0.4797993346
O  O2721  1  0.52720000  0.42810000  0.42140000  1.0 -0.4797993346
O  O2722  1  0.07190000  0.27720000  0.17140000  1.0 -0.4797993346
O  O2723  1  0.57860000  0.22280000  0.67810000  1.0 -0.4797993346
O  O2724  1  0.27720000  0.32860000  0.42810000  1.0 -0.4797993346
O  O2725  1  0.57860000  0.02720000  0.07190000  1.0 -0.4797993346
O  O2726  1  0.32190000  0.07860000  0.27720000  1.0 -0.4797993346
O  O2727  1  0.17140000  0.02720000  0.17810000  1.0 -0.4797993346
O  O2728  1  0.47280000  0.32860000  0.82190000  1.0 -0.4797993346
O  O2729  1  0.42140000  0.07190000  0.02720000  1.0 -0.4797993346
O  O2730  1  0.47280000  0.92140000  0.92810000  1.0 -0.4797993346
O  O2731  1  0.17140000  0.22280000  0.57190000  1.0 -0.4797993346
O  O2732  1  0.42810000  0.17140000  0.77720000  1.0 -0.4797993346
O  O2733  1  0.27720000  0.92140000  0.32190000  1.0 -0.4797993346
O  O2734  1  0.32860000  0.17810000  0.52720000  1.0 -0.4797993346
O  O2735  1  0.32190000  0.17140000  0.47280000  1.0 -0.4797993346
O  O2736  1  0.42140000  0.17810000  0.72280000  1.0 -0.4797993346
O  O2737  1  0.42810000  0.07860000  0.97280000  1.0 -0.4797993346
O  O2738  1  0.32860000  0.07190000  0.22280000  1.0 -0.4797993346
O  O2739  1  0.72280000  0.82190000  0.42140000  1.0 -0.4797993346
O  O2740  1  0.17810000  0.97280000  0.17140000  1.0 -0.4797993346
O  O2741  1  0.07190000  0.97280000  0.57860000  1.0 -0.4797993346
O  O2742  1  0.22280000  0.92810000  0.32860000  1.0 -0.4797993346
O  O2743  1  0.67810000  0.77720000  0.57860000  1.0 -0.4797993346
O  O2744  1  0.52720000  0.82190000  0.32860000  1.0 -0.4797993346
O  O2745  1  0.02720000  0.92810000  0.42140000  1.0 -0.4797993346
O  O2746  1  0.57860000  0.72280000  0.17810000  1.0 -0.4797993346
O  O2747  1  0.27720000  0.82860000  0.92810000  1.0 -0.4797993346
O  O2748  1  0.57860000  0.52720000  0.57190000  1.0 -0.4797993346
O  O2749  1  0.32190000  0.57860000  0.77720000  1.0 -0.4797993346
O  O2750  1  0.17140000  0.52720000  0.67810000  1.0 -0.4797993346
O  O2751  1  0.47280000  0.82860000  0.32190000  1.0 -0.4797993346
O  O2752  1  0.42140000  0.57190000  0.52720000  1.0 -0.4797993346
O  O2753  1  0.47280000  0.42140000  0.42810000  1.0 -0.4797993346
O  O2754  1  0.17140000  0.72280000  0.07190000  1.0 -0.4797993346
O  O2755  1  0.42810000  0.67140000  0.27720000  1.0 -0.4797993346
O  O2756  1  0.27720000  0.42140000  0.82190000  1.0 -0.4797993346
O  O2757  1  0.32860000  0.67810000  0.02720000  1.0 -0.4797993346
O  O2758  1  0.32190000  0.67140000  0.97280000  1.0 -0.4797993346
O  O2759  1  0.42140000  0.67810000  0.22280000  1.0 -0.4797993346
O  O2760  1  0.42810000  0.57860000  0.47280000  1.0 -0.4797993346
O  O2761  1  0.32860000  0.57190000  0.72280000  1.0 -0.4797993346
O  O2762  1  0.72280000  0.32190000  0.92140000  1.0 -0.4797993346
O  O2763  1  0.17810000  0.47280000  0.67140000  1.0 -0.4797993346
O  O2764  1  0.07190000  0.47280000  0.07860000  1.0 -0.4797993346
O  O2765  1  0.22280000  0.42810000  0.82860000  1.0 -0.4797993346
O  O2766  1  0.67810000  0.27720000  0.07860000  1.0 -0.4797993346
O  O2767  1  0.52720000  0.32190000  0.82860000  1.0 -0.4797993346
O  O2768  1  0.02720000  0.42810000  0.92140000  1.0 -0.4797993346
O  O2769  1  0.93680000  0.74320000  0.86830000  1.0 -0.4681613628
O  O2770  1  0.25680000  0.68680000  0.11830000  1.0 -0.4681613628
O  O2771  1  0.93680000  0.00680000  0.38170000  1.0 -0.4681613628
O  O2772  1  0.13170000  0.93680000  0.25680000  1.0 -0.4627481514
O  O2773  1  0.31320000  0.00680000  0.36830000  1.0 -0.4681613628
O  O2774  1  0.99320000  0.68680000  0.63170000  1.0 -0.4681613628
O  O2775  1  0.06320000  0.88170000  0.50680000  1.0 -0.4627481514
O  O2776  1  0.99320000  0.06320000  0.61830000  1.0 -0.4681613628
O  O2777  1  0.31320000  0.74320000  0.88170000  1.0 -0.4681613628
O  O2778  1  0.11830000  0.81320000  0.75680000  1.0 -0.4681613628
O  O2779  1  0.25680000  0.06320000  0.13170000  1.0 -0.4681613628
O  O2780  1  0.18680000  0.86830000  0.00680000  1.0 -0.4681613628
O  O2781  1  0.13170000  0.81320000  0.99320000  1.0 -0.4627481514
O  O2782  1  0.06320000  0.86830000  0.74320000  1.0 -0.4627481514
O  O2783  1  0.11830000  0.93680000  0.49320000  1.0 -0.4627481514
O  O2784  1  0.18680000  0.88170000  0.24320000  1.0 -0.4627481514
O  O2785  1  0.74320000  0.13170000  0.06320000  1.0 -0.4681613628
O  O2786  1  0.38170000  0.25680000  0.81320000  1.0 -0.4681613628
O  O2787  1  0.36830000  0.99320000  0.31320000  1.0 -0.4681613628
O  O2788  1  0.38170000  0.99320000  0.93680000  1.0 -0.4681613628
O  O2789  1  0.24320000  0.11830000  0.18680000  1.0 -0.4681613628
O  O2790  1  0.86830000  0.25680000  0.93680000  1.0 -0.4681613628
O  O2791  1  0.00680000  0.13170000  0.18680000  1.0 -0.4681613628
O  O2792  1  0.50680000  0.11830000  0.06320000  1.0 -0.4681613628
O  O2793  1  0.88170000  0.25680000  0.31320000  1.0 -0.4681613628
O  O2794  1  0.93680000  0.24320000  0.36830000  1.0 -0.4681613628
O  O2795  1  0.25680000  0.18680000  0.61830000  1.0 -0.4681613628
O  O2796  1  0.93680000  0.50680000  0.88170000  1.0 -0.4681613628
O  O2797  1  0.13170000  0.43680000  0.75680000  1.0 -0.4681613628
O  O2798  1  0.31320000  0.50680000  0.86830000  1.0 -0.4681613628
O  O2799  1  0.99320000  0.18680000  0.13170000  1.0 -0.4681613628
O  O2800  1  0.06320000  0.38170000  0.00680000  1.0 -0.4681613628
O  O2801  1  0.99320000  0.56320000  0.11830000  1.0 -0.4681613628
O  O2802  1  0.31320000  0.24320000  0.38170000  1.0 -0.4681613628
O  O2803  1  0.11830000  0.31320000  0.25680000  1.0 -0.4681613628
O  O2804  1  0.25680000  0.56320000  0.63170000  1.0 -0.4681613628
O  O2805  1  0.18680000  0.36830000  0.50680000  1.0 -0.4681613628
O  O2806  1  0.13170000  0.31320000  0.49320000  1.0 -0.4681613628
O  O2807  1  0.06320000  0.36830000  0.24320000  1.0 -0.4681613628
O  O2808  1  0.11830000  0.43680000  0.99320000  1.0 -0.4681613628
O  O2809  1  0.18680000  0.38170000  0.74320000  1.0 -0.4681613628
O  O2810  1  0.74320000  0.63170000  0.56320000  1.0 -0.4681613628
O  O2811  1  0.38170000  0.75680000  0.31320000  1.0 -0.4681613628
O  O2812  1  0.36830000  0.49320000  0.81320000  1.0 -0.4681613628
O  O2813  1  0.38170000  0.49320000  0.43680000  1.0 -0.4681613628
O  O2814  1  0.24320000  0.61830000  0.68680000  1.0 -0.4681613628
O  O2815  1  0.86830000  0.75680000  0.43680000  1.0 -0.4681613628
O  O2816  1  0.00680000  0.63170000  0.68680000  1.0 -0.4681613628
O  O2817  1  0.50680000  0.61830000  0.56320000  1.0 -0.4681613628
O  O2818  1  0.88170000  0.75680000  0.81320000  1.0 -0.4681613628
O  O2819  1  0.43680000  0.74320000  0.36830000  1.0 -0.4681613628
O  O2820  1  0.75680000  0.68680000  0.61830000  1.0 -0.4681613628
O  O2821  1  0.43680000  0.00680000  0.88170000  1.0 -0.4681613628
O  O2822  1  0.63170000  0.93680000  0.75680000  1.0 -0.4681613628
O  O2823  1  0.81320000  0.00680000  0.86830000  1.0 -0.4681613628
O  O2824  1  0.49320000  0.68680000  0.13170000  1.0 -0.4681613628
O  O2825  1  0.56320000  0.88170000  0.00680000  1.0 -0.4681613628
O  O2826  1  0.49320000  0.06320000  0.11830000  1.0 -0.4681613628
O  O2827  1  0.81320000  0.74320000  0.38170000  1.0 -0.4681613628
O  O2828  1  0.61830000  0.81320000  0.25680000  1.0 -0.4681613628
O  O2829  1  0.75680000  0.06320000  0.63170000  1.0 -0.4681613628
O  O2830  1  0.68680000  0.86830000  0.50680000  1.0 -0.4681613628
O  O2831  1  0.63170000  0.81320000  0.49320000  1.0 -0.4681613628
O  O2832  1  0.56320000  0.86830000  0.24320000  1.0 -0.4681613628
O  O2833  1  0.61830000  0.93680000  0.99320000  1.0 -0.4681613628
O  O2834  1  0.68680000  0.88170000  0.74320000  1.0 -0.4681613628
O  O2835  1  0.24320000  0.13170000  0.56320000  1.0 -0.4681613628
O  O2836  1  0.86830000  0.99320000  0.81320000  1.0 -0.4681613628
O  O2837  1  0.88170000  0.99320000  0.43680000  1.0 -0.4681613628
O  O2838  1  0.74320000  0.11830000  0.68680000  1.0 -0.4681613628
O  O2839  1  0.36830000  0.25680000  0.43680000  1.0 -0.4681613628
O  O2840  1  0.50680000  0.13170000  0.68680000  1.0 -0.4681613628
O  O2841  1  0.00680000  0.11830000  0.56320000  1.0 -0.4681613628
O  O2842  1  0.43680000  0.24320000  0.86830000  1.0 -0.4681613628
O  O2843  1  0.75680000  0.18680000  0.11830000  1.0 -0.4681613628
O  O2844  1  0.43680000  0.50680000  0.38170000  1.0 -0.4681613628
O  O2845  1  0.63170000  0.43680000  0.25680000  1.0 -0.4681613628
O  O2846  1  0.81320000  0.50680000  0.36830000  1.0 -0.4681613628
O  O2847  1  0.49320000  0.18680000  0.63170000  1.0 -0.4681613628
O  O2848  1  0.56320000  0.38170000  0.50680000  1.0 -0.4681613628
O  O2849  1  0.49320000  0.56320000  0.61830000  1.0 -0.4681613628
O  O2850  1  0.81320000  0.24320000  0.88170000  1.0 -0.4681613628
O  O2851  1  0.61830000  0.31320000  0.75680000  1.0 -0.4681613628
O  O2852  1  0.75680000  0.56320000  0.13170000  1.0 -0.4681613628
O  O2853  1  0.68680000  0.36830000  0.00680000  1.0 -0.4681613628
O  O2854  1  0.63170000  0.31320000  0.99320000  1.0 -0.4681613628
O  O2855  1  0.56320000  0.36830000  0.74320000  1.0 -0.4681613628
O  O2856  1  0.61830000  0.43680000  0.49320000  1.0 -0.4681613628
O  O2857  1  0.68680000  0.38170000  0.24320000  1.0 -0.4681613628
O  O2858  1  0.24320000  0.63170000  0.06320000  1.0 -0.4681613628
O  O2859  1  0.86830000  0.49320000  0.31320000  1.0 -0.4681613628
O  O2860  1  0.88170000  0.49320000  0.93680000  1.0 -0.4681613628
O  O2861  1  0.74320000  0.61830000  0.18680000  1.0 -0.4681613628
O  O2862  1  0.36830000  0.75680000  0.93680000  1.0 -0.4681613628
O  O2863  1  0.50680000  0.63170000  0.18680000  1.0 -0.4681613628
O  O2864  1  0.00680000  0.61830000  0.06320000  1.0 -0.4681613628
O  O2865  1  0.06320000  0.25680000  0.13170000  1.0 -0.4681613628
O  O2866  1  0.74320000  0.31320000  0.88170000  1.0 -0.4681613628
O  O2867  1  0.06320000  0.99320000  0.61830000  1.0 -0.4681613628
O  O2868  1  0.86830000  0.06320000  0.74320000  1.0 -0.4681613628
O  O2869  1  0.68680000  0.99320000  0.63170000  1.0 -0.4681613628
O  O2870  1  0.00680000  0.31320000  0.36830000  1.0 -0.4681613628
O  O2871  1  0.93680000  0.11830000  0.49320000  1.0 -0.4681613628
O  O2872  1  0.00680000  0.93680000  0.38170000  1.0 -0.4681613628
O  O2873  1  0.68680000  0.25680000  0.11830000  1.0 -0.4681613628
O  O2874  1  0.88170000  0.18680000  0.24320000  1.0 -0.4681613628
O  O2875  1  0.74320000  0.93680000  0.86830000  1.0 -0.4681613628
O  O2876  1  0.81320000  0.13170000  0.99320000  1.0 -0.4681613628
O  O2877  1  0.86830000  0.18680000  0.00680000  1.0 -0.4681613628
O  O2878  1  0.93680000  0.13170000  0.25680000  1.0 -0.4681613628
O  O2879  1  0.88170000  0.06320000  0.50680000  1.0 -0.4681613628
O  O2880  1  0.81320000  0.11830000  0.75680000  1.0 -0.4681613628
O  O2881  1  0.25680000  0.86830000  0.93680000  1.0 -0.4681613628
O  O2882  1  0.61830000  0.74320000  0.18680000  1.0 -0.4681613628
O  O2883  1  0.63170000  0.00680000  0.68680000  1.0 -0.4681613628
O  O2884  1  0.61830000  0.00680000  0.06320000  1.0 -0.4681613628
O  O2885  1  0.75680000  0.88170000  0.81320000  1.0 -0.4681613628
O  O2886  1  0.13170000  0.74320000  0.06320000  1.0 -0.4627481514
O  O2887  1  0.99320000  0.86830000  0.81320000  1.0 -0.4681613628
O  O2888  1  0.49320000  0.88170000  0.93680000  1.0 -0.4681613628
O  O2889  1  0.11830000  0.74320000  0.68680000  1.0 -0.4681613628
O  O2890  1  0.06320000  0.75680000  0.63170000  1.0 -0.4681613628
O  O2891  1  0.74320000  0.81320000  0.38170000  1.0 -0.4681613628
O  O2892  1  0.06320000  0.49320000  0.11830000  1.0 -0.4681613628
O  O2893  1  0.86830000  0.56320000  0.24320000  1.0 -0.4681613628
O  O2894  1  0.68680000  0.49320000  0.13170000  1.0 -0.4681613628
O  O2895  1  0.00680000  0.81320000  0.86830000  1.0 -0.4681613628
O  O2896  1  0.93680000  0.61830000  0.99320000  1.0 -0.4681613628
O  O2897  1  0.00680000  0.43680000  0.88170000  1.0 -0.4681613628
O  O2898  1  0.68680000  0.75680000  0.61830000  1.0 -0.4681613628
O  O2899  1  0.88170000  0.68680000  0.74320000  1.0 -0.4681613628
O  O2900  1  0.74320000  0.43680000  0.36830000  1.0 -0.4681613628
O  O2901  1  0.81320000  0.63170000  0.49320000  1.0 -0.4681613628
O  O2902  1  0.86830000  0.68680000  0.50680000  1.0 -0.4681613628
O  O2903  1  0.93680000  0.63170000  0.75680000  1.0 -0.4681613628
O  O2904  1  0.88170000  0.56320000  0.00680000  1.0 -0.4681613628
O  O2905  1  0.81320000  0.61830000  0.25680000  1.0 -0.4681613628
O  O2906  1  0.25680000  0.36830000  0.43680000  1.0 -0.4681613628
O  O2907  1  0.61830000  0.24320000  0.68680000  1.0 -0.4681613628
O  O2908  1  0.63170000  0.50680000  0.18680000  1.0 -0.4681613628
O  O2909  1  0.61830000  0.50680000  0.56320000  1.0 -0.4681613628
O  O2910  1  0.75680000  0.38170000  0.31320000  1.0 -0.4681613628
O  O2911  1  0.13170000  0.24320000  0.56320000  1.0 -0.4681613628
O  O2912  1  0.99320000  0.36830000  0.31320000  1.0 -0.4681613628
O  O2913  1  0.49320000  0.38170000  0.43680000  1.0 -0.4681613628
O  O2914  1  0.11830000  0.24320000  0.18680000  1.0 -0.4681613628
O  O2915  1  0.56320000  0.25680000  0.63170000  1.0 -0.4681613628
O  O2916  1  0.24320000  0.31320000  0.38170000  1.0 -0.4681613628
O  O2917  1  0.56320000  0.99320000  0.11830000  1.0 -0.4681613628
O  O2918  1  0.36830000  0.06320000  0.24320000  1.0 -0.4681613628
O  O2919  1  0.18680000  0.99320000  0.13170000  1.0 -0.4681613628
O  O2920  1  0.50680000  0.31320000  0.86830000  1.0 -0.4681613628
O  O2921  1  0.43680000  0.11830000  0.99320000  1.0 -0.4681613628
O  O2922  1  0.50680000  0.93680000  0.88170000  1.0 -0.4681613628
O  O2923  1  0.18680000  0.25680000  0.61830000  1.0 -0.4681613628
O  O2924  1  0.38170000  0.18680000  0.74320000  1.0 -0.4681613628
O  O2925  1  0.24320000  0.93680000  0.36830000  1.0 -0.4681613628
O  O2926  1  0.31320000  0.13170000  0.49320000  1.0 -0.4681613628
O  O2927  1  0.36830000  0.18680000  0.50680000  1.0 -0.4681613628
O  O2928  1  0.43680000  0.13170000  0.75680000  1.0 -0.4681613628
O  O2929  1  0.38170000  0.06320000  0.00680000  1.0 -0.4681613628
O  O2930  1  0.31320000  0.11830000  0.25680000  1.0 -0.4681613628
O  O2931  1  0.75680000  0.86830000  0.43680000  1.0 -0.4681613628
O  O2932  1  0.13170000  0.00680000  0.18680000  1.0 -0.4681613628
O  O2933  1  0.11830000  0.00680000  0.56320000  1.0 -0.4681613628
O  O2934  1  0.25680000  0.88170000  0.31320000  1.0 -0.4627481514
O  O2935  1  0.63170000  0.74320000  0.56320000  1.0 -0.4681613628
O  O2936  1  0.49320000  0.86830000  0.31320000  1.0 -0.4681613628
O  O2937  1  0.99320000  0.88170000  0.43680000  1.0 -0.4681613628
O  O2938  1  0.56320000  0.75680000  0.13170000  1.0 -0.4681613628
O  O2939  1  0.24320000  0.81320000  0.88170000  1.0 -0.4681613628
O  O2940  1  0.56320000  0.49320000  0.61830000  1.0 -0.4681613628
O  O2941  1  0.36830000  0.56320000  0.74320000  1.0 -0.4681613628
O  O2942  1  0.18680000  0.49320000  0.63170000  1.0 -0.4681613628
O  O2943  1  0.50680000  0.81320000  0.36830000  1.0 -0.4681613628
O  O2944  1  0.43680000  0.61830000  0.49320000  1.0 -0.4681613628
O  O2945  1  0.50680000  0.43680000  0.38170000  1.0 -0.4681613628
O  O2946  1  0.18680000  0.75680000  0.11830000  1.0 -0.4627481514
O  O2947  1  0.38170000  0.68680000  0.24320000  1.0 -0.4681613628
O  O2948  1  0.24320000  0.43680000  0.86830000  1.0 -0.4681613628
O  O2949  1  0.31320000  0.63170000  0.99320000  1.0 -0.4681613628
O  O2950  1  0.36830000  0.68680000  0.00680000  1.0 -0.4681613628
O  O2951  1  0.43680000  0.63170000  0.25680000  1.0 -0.4681613628
O  O2952  1  0.38170000  0.56320000  0.50680000  1.0 -0.4681613628
O  O2953  1  0.31320000  0.61830000  0.75680000  1.0 -0.4681613628
O  O2954  1  0.75680000  0.36830000  0.93680000  1.0 -0.4681613628
O  O2955  1  0.13170000  0.50680000  0.68680000  1.0 -0.4681613628
O  O2956  1  0.11830000  0.50680000  0.06320000  1.0 -0.4681613628
O  O2957  1  0.25680000  0.38170000  0.81320000  1.0 -0.4681613628
O  O2958  1  0.63170000  0.24320000  0.06320000  1.0 -0.4681613628
O  O2959  1  0.49320000  0.36830000  0.81320000  1.0 -0.4681613628
O  O2960  1  0.99320000  0.38170000  0.93680000  1.0 -0.4681613628
O  O2961  1  0.89440000  0.78520000  0.82930000  1.0 -0.4681613628
O  O2962  1  0.21480000  0.64440000  0.07930000  1.0 -0.4627481514
O  O2963  1  0.89440000  0.96480000  0.42070000  1.0 -0.4681613628
O  O2964  1  0.17070000  0.89440000  0.21480000  1.0 -0.4627481514
O  O2965  1  0.35560000  0.96480000  0.32930000  1.0 -0.4627481514
O  O2966  1  0.03520000  0.64440000  0.67070000  1.0 -0.4627481514
O  O2967  1  0.10560000  0.92070000  0.46480000  1.0 -0.4627481514
O  O2968  1  0.03520000  0.10560000  0.57930000  1.0 -0.4627481514
O  O2969  1  0.35560000  0.78520000  0.92070000  1.0 -0.4627481514
O  O2970  1  0.07930000  0.85560000  0.71480000  1.0 -0.4627481514
O  O2971  1  0.21480000  0.10560000  0.17070000  1.0 -0.4627481514
O  O2972  1  0.14440000  0.82930000  0.96480000  1.0 -0.4627481514
O  O2973  1  0.17070000  0.85560000  0.03520000  1.0 -0.4627481514
O  O2974  1  0.10560000  0.82930000  0.78520000  1.0 -0.4627481514
O  O2975  1  0.07930000  0.89440000  0.53520000  1.0 -0.4627481514
O  O2976  1  0.14440000  0.92070000  0.28520000  1.0 -0.4627481514
O  O2977  1  0.78520000  0.17070000  0.10560000  1.0 -0.4681613628
O  O2978  1  0.42070000  0.21480000  0.85560000  1.0 -0.4627481514
O  O2979  1  0.32930000  0.03520000  0.35560000  1.0 -0.4627481514
O  O2980  1  0.42070000  0.03520000  0.89440000  1.0 -0.4627481514
O  O2981  1  0.28520000  0.07930000  0.14440000  1.0 -0.4627481514
O  O2982  1  0.82930000  0.21480000  0.89440000  1.0 -0.4681613628
O  O2983  1  0.96480000  0.17070000  0.14440000  1.0 -0.4681613628
O  O2984  1  0.46480000  0.07930000  0.10560000  1.0 -0.4681613628
O  O2985  1  0.92070000  0.21480000  0.35560000  1.0 -0.4681613628
O  O2986  1  0.89440000  0.28520000  0.32930000  1.0 -0.4681613628
O  O2987  1  0.21480000  0.14440000  0.57930000  1.0 -0.4627481514
O  O2988  1  0.89440000  0.46480000  0.92070000  1.0 -0.4681613628
O  O2989  1  0.17070000  0.39440000  0.71480000  1.0 -0.4627481514
O  O2990  1  0.35560000  0.46480000  0.82930000  1.0 -0.4627481514
O  O2991  1  0.03520000  0.14440000  0.17070000  1.0 -0.4627481514
O  O2992  1  0.10560000  0.42070000  0.96480000  1.0 -0.4627481514
O  O2993  1  0.03520000  0.60560000  0.07930000  1.0 -0.4627481514
O  O2994  1  0.35560000  0.28520000  0.42070000  1.0 -0.4627481514
O  O2995  1  0.07930000  0.35560000  0.21480000  1.0 -0.4627481514
O  O2996  1  0.21480000  0.60560000  0.67070000  1.0 -0.4627481514
O  O2997  1  0.14440000  0.32930000  0.46480000  1.0 -0.4627481514
O  O2998  1  0.17070000  0.35560000  0.53520000  1.0 -0.4627481514
O  O2999  1  0.10560000  0.32930000  0.28520000  1.0 -0.4627481514
O  O3000  1  0.07930000  0.39440000  0.03520000  1.0 -0.4627481514
O  O3001  1  0.14440000  0.42070000  0.78520000  1.0 -0.4627481514
O  O3002  1  0.78520000  0.67070000  0.60560000  1.0 -0.4681613628
O  O3003  1  0.42070000  0.71480000  0.35560000  1.0 -0.4627481514
O  O3004  1  0.32930000  0.53520000  0.85560000  1.0 -0.4627481514
O  O3005  1  0.42070000  0.53520000  0.39440000  1.0 -0.4627481514
O  O3006  1  0.28520000  0.57930000  0.64440000  1.0 -0.4627481514
O  O3007  1  0.82930000  0.71480000  0.39440000  1.0 -0.4681613628
O  O3008  1  0.96480000  0.67070000  0.64440000  1.0 -0.4681613628
O  O3009  1  0.46480000  0.57930000  0.60560000  1.0 -0.4627481514
O  O3010  1  0.92070000  0.71480000  0.85560000  1.0 -0.4681613628
O  O3011  1  0.39440000  0.78520000  0.32930000  1.0 -0.4627481514
O  O3012  1  0.71480000  0.64440000  0.57930000  1.0 -0.4681613628
O  O3013  1  0.39440000  0.96480000  0.92070000  1.0 -0.4627481514
O  O3014  1  0.67070000  0.89440000  0.71480000  1.0 -0.4681613628
O  O3015  1  0.85560000  0.96480000  0.82930000  1.0 -0.4681613628
O  O3016  1  0.53520000  0.64440000  0.17070000  1.0 -0.4627481514
O  O3017  1  0.60560000  0.92070000  0.96480000  1.0 -0.4681613628
O  O3018  1  0.53520000  0.10560000  0.07930000  1.0 -0.4681613628
O  O3019  1  0.85560000  0.78520000  0.42070000  1.0 -0.4681613628
O  O3020  1  0.57930000  0.85560000  0.21480000  1.0 -0.4627481514
O  O3021  1  0.71480000  0.10560000  0.67070000  1.0 -0.4681613628
O  O3022  1  0.64440000  0.82930000  0.46480000  1.0 -0.4681613628
O  O3023  1  0.67070000  0.85560000  0.53520000  1.0 -0.4681613628
O  O3024  1  0.60560000  0.82930000  0.28520000  1.0 -0.4627481514
O  O3025  1  0.57930000  0.89440000  0.03520000  1.0 -0.4627481514
O  O3026  1  0.64440000  0.92070000  0.78520000  1.0 -0.4681613628
O  O3027  1  0.28520000  0.17070000  0.60560000  1.0 -0.4627481514
O  O3028  1  0.82930000  0.03520000  0.85560000  1.0 -0.4681613628
O  O3029  1  0.92070000  0.03520000  0.39440000  1.0 -0.4681613628
O  O3030  1  0.78520000  0.07930000  0.64440000  1.0 -0.4681613628
O  O3031  1  0.32930000  0.21480000  0.39440000  1.0 -0.4627481514
O  O3032  1  0.46480000  0.17070000  0.64440000  1.0 -0.4681613628
O  O3033  1  0.96480000  0.07930000  0.60560000  1.0 -0.4681613628
O  O3034  1  0.39440000  0.28520000  0.82930000  1.0 -0.4681613628
O  O3035  1  0.71480000  0.14440000  0.07930000  1.0 -0.4681613628
O  O3036  1  0.39440000  0.46480000  0.42070000  1.0 -0.4627481514
O  O3037  1  0.67070000  0.39440000  0.21480000  1.0 -0.4681613628
O  O3038  1  0.85560000  0.46480000  0.32930000  1.0 -0.4681613628
O  O3039  1  0.53520000  0.14440000  0.67070000  1.0 -0.4681613628
O  O3040  1  0.60560000  0.42070000  0.46480000  1.0 -0.4681613628
O  O3041  1  0.53520000  0.60560000  0.57930000  1.0 -0.4681613628
O  O3042  1  0.85560000  0.28520000  0.92070000  1.0 -0.4681613628
O  O3043  1  0.57930000  0.35560000  0.71480000  1.0 -0.4681613628
O  O3044  1  0.71480000  0.60560000  0.17070000  1.0 -0.4681613628
O  O3045  1  0.64440000  0.32930000  0.96480000  1.0 -0.4681613628
O  O3046  1  0.67070000  0.35560000  0.03520000  1.0 -0.4681613628
O  O3047  1  0.60560000  0.32930000  0.78520000  1.0 -0.4681613628
O  O3048  1  0.57930000  0.39440000  0.53520000  1.0 -0.4681613628
O  O3049  1  0.64440000  0.42070000  0.28520000  1.0 -0.4681613628
O  O3050  1  0.28520000  0.67070000  0.10560000  1.0 -0.4627481514
O  O3051  1  0.82930000  0.53520000  0.35560000  1.0 -0.4681613628
O  O3052  1  0.92070000  0.53520000  0.89440000  1.0 -0.4681613628
O  O3053  1  0.78520000  0.57930000  0.14440000  1.0 -0.4681613628
O  O3054  1  0.32930000  0.71480000  0.89440000  1.0 -0.4627481514
O  O3055  1  0.46480000  0.67070000  0.14440000  1.0 -0.4627481514
O  O3056  1  0.96480000  0.57930000  0.10560000  1.0 -0.4681613628
O  O3057  1  0.10560000  0.21480000  0.17070000  1.0 -0.4627481514
O  O3058  1  0.78520000  0.35560000  0.92070000  1.0 -0.4681613628
O  O3059  1  0.10560000  0.03520000  0.57930000  1.0 -0.4627481514
O  O3060  1  0.82930000  0.10560000  0.78520000  1.0 -0.4681613628
O  O3061  1  0.64440000  0.03520000  0.67070000  1.0 -0.4681613628
O  O3062  1  0.96480000  0.35560000  0.32930000  1.0 -0.4681613628
O  O3063  1  0.89440000  0.07930000  0.53520000  1.0 -0.4681613628
O  O3064  1  0.96480000  0.89440000  0.42070000  1.0 -0.4681613628
O  O3065  1  0.64440000  0.21480000  0.07930000  1.0 -0.4681613628
O  O3066  1  0.92070000  0.14440000  0.28520000  1.0 -0.4681613628
O  O3067  1  0.78520000  0.89440000  0.82930000  1.0 -0.4681613628
O  O3068  1  0.85560000  0.17070000  0.03520000  1.0 -0.4681613628
O  O3069  1  0.82930000  0.14440000  0.96480000  1.0 -0.4681613628
O  O3070  1  0.89440000  0.17070000  0.21480000  1.0 -0.4681613628
O  O3071  1  0.92070000  0.10560000  0.46480000  1.0 -0.4681613628
O  O3072  1  0.85560000  0.07930000  0.71480000  1.0 -0.4681613628
O  O3073  1  0.21480000  0.82930000  0.89440000  1.0 -0.4627481514
O  O3074  1  0.57930000  0.78520000  0.14440000  1.0 -0.4627481514
O  O3075  1  0.67070000  0.96480000  0.64440000  1.0 -0.4681613628
O  O3076  1  0.57930000  0.96480000  0.10560000  1.0 -0.4681613628
O  O3077  1  0.71480000  0.92070000  0.85560000  1.0 -0.4681613628
O  O3078  1  0.17070000  0.78520000  0.10560000  1.0 -0.4627481514
O  O3079  1  0.03520000  0.82930000  0.85560000  1.0 -0.4627481514
O  O3080  1  0.53520000  0.92070000  0.89440000  1.0 -0.4627481514
O  O3081  1  0.07930000  0.78520000  0.64440000  1.0 -0.4627481514
O  O3082  1  0.10560000  0.71480000  0.67070000  1.0 -0.4627481514
O  O3083  1  0.78520000  0.85560000  0.42070000  1.0 -0.4681613628
O  O3084  1  0.10560000  0.53520000  0.07930000  1.0 -0.4627481514
O  O3085  1  0.82930000  0.60560000  0.28520000  1.0 -0.4681613628
O  O3086  1  0.64440000  0.53520000  0.17070000  1.0 -0.4681613628
O  O3087  1  0.96480000  0.85560000  0.82930000  1.0 -0.4681613628
O  O3088  1  0.89440000  0.57930000  0.03520000  1.0 -0.4681613628
O  O3089  1  0.96480000  0.39440000  0.92070000  1.0 -0.4681613628
O  O3090  1  0.64440000  0.71480000  0.57930000  1.0 -0.4681613628
O  O3091  1  0.92070000  0.64440000  0.78520000  1.0 -0.4681613628
O  O3092  1  0.78520000  0.39440000  0.32930000  1.0 -0.4681613628
O  O3093  1  0.85560000  0.67070000  0.53520000  1.0 -0.4681613628
O  O3094  1  0.82930000  0.64440000  0.46480000  1.0 -0.4681613628
O  O3095  1  0.89440000  0.67070000  0.71480000  1.0 -0.4681613628
O  O3096  1  0.92070000  0.60560000  0.96480000  1.0 -0.4681613628
O  O3097  1  0.85560000  0.57930000  0.21480000  1.0 -0.4681613628
O  O3098  1  0.21480000  0.32930000  0.39440000  1.0 -0.4627481514
O  O3099  1  0.57930000  0.28520000  0.64440000  1.0 -0.4681613628
O  O3100  1  0.67070000  0.46480000  0.14440000  1.0 -0.4681613628
O  O3101  1  0.57930000  0.46480000  0.60560000  1.0 -0.4681613628
O  O3102  1  0.71480000  0.42070000  0.35560000  1.0 -0.4681613628
O  O3103  1  0.17070000  0.28520000  0.60560000  1.0 -0.4627481514
O  O3104  1  0.03520000  0.32930000  0.35560000  1.0 -0.4627481514
O  O3105  1  0.53520000  0.42070000  0.39440000  1.0 -0.4681613628
O  O3106  1  0.07930000  0.28520000  0.14440000  1.0 -0.4627481514
O  O3107  1  0.60560000  0.21480000  0.67070000  1.0 -0.4681613628
O  O3108  1  0.28520000  0.35560000  0.42070000  1.0 -0.4627481514
O  O3109  1  0.60560000  0.03520000  0.07930000  1.0 -0.4681613628
O  O3110  1  0.32930000  0.10560000  0.28520000  1.0 -0.4681613628
O  O3111  1  0.14440000  0.03520000  0.17070000  1.0 -0.4627481514
O  O3112  1  0.46480000  0.35560000  0.82930000  1.0 -0.4681613628
O  O3113  1  0.39440000  0.07930000  0.03520000  1.0 -0.4627481514
O  O3114  1  0.46480000  0.89440000  0.92070000  1.0 -0.4627481514
O  O3115  1  0.14440000  0.21480000  0.57930000  1.0 -0.4627481514
O  O3116  1  0.42070000  0.14440000  0.78520000  1.0 -0.4681613628
O  O3117  1  0.28520000  0.89440000  0.32930000  1.0 -0.4627481514
O  O3118  1  0.35560000  0.17070000  0.53520000  1.0 -0.4627481514
O  O3119  1  0.32930000  0.14440000  0.46480000  1.0 -0.4627481514
O  O3120  1  0.39440000  0.17070000  0.71480000  1.0 -0.4681613628
O  O3121  1  0.42070000  0.10560000  0.96480000  1.0 -0.4681613628
O  O3122  1  0.35560000  0.07930000  0.21480000  1.0 -0.4681613628
O  O3123  1  0.71480000  0.82930000  0.39440000  1.0 -0.4681613628
O  O3124  1  0.17070000  0.96480000  0.14440000  1.0 -0.4627481514
O  O3125  1  0.07930000  0.96480000  0.60560000  1.0 -0.4627481514
O  O3126  1  0.21480000  0.92070000  0.35560000  1.0 -0.4627481514
O  O3127  1  0.67070000  0.78520000  0.60560000  1.0 -0.4681613628
O  O3128  1  0.53520000  0.82930000  0.35560000  1.0 -0.4627481514
O  O3129  1  0.03520000  0.92070000  0.39440000  1.0 -0.4627481514
O  O3130  1  0.60560000  0.71480000  0.17070000  1.0 -0.4627481514
O  O3131  1  0.28520000  0.85560000  0.92070000  1.0 -0.4627481514
O  O3132  1  0.60560000  0.53520000  0.57930000  1.0 -0.4681613628
O  O3133  1  0.32930000  0.60560000  0.78520000  1.0 -0.4627481514
O  O3134  1  0.14440000  0.53520000  0.67070000  1.0 -0.4627481514
O  O3135  1  0.46480000  0.85560000  0.32930000  1.0 -0.4627481514
O  O3136  1  0.39440000  0.57930000  0.53520000  1.0 -0.4627481514
O  O3137  1  0.46480000  0.39440000  0.42070000  1.0 -0.4681613628
O  O3138  1  0.14440000  0.71480000  0.07930000  1.0 -0.4627481514
O  O3139  1  0.42070000  0.64440000  0.28520000  1.0 -0.4627481514
O  O3140  1  0.28520000  0.39440000  0.82930000  1.0 -0.4627481514
O  O3141  1  0.35560000  0.67070000  0.03520000  1.0 -0.4627481514
O  O3142  1  0.32930000  0.64440000  0.96480000  1.0 -0.4627481514
O  O3143  1  0.39440000  0.67070000  0.21480000  1.0 -0.4627481514
O  O3144  1  0.42070000  0.60560000  0.46480000  1.0 -0.4627481514
O  O3145  1  0.35560000  0.57930000  0.71480000  1.0 -0.4627481514
O  O3146  1  0.71480000  0.32930000  0.89440000  1.0 -0.4681613628
O  O3147  1  0.17070000  0.46480000  0.64440000  1.0 -0.4627481514
O  O3148  1  0.07930000  0.46480000  0.10560000  1.0 -0.4627481514
O  O3149  1  0.21480000  0.42070000  0.85560000  1.0 -0.4627481514
O  O3150  1  0.67070000  0.28520000  0.10560000  1.0 -0.4681613628
O  O3151  1  0.53520000  0.32930000  0.85560000  1.0 -0.4681613628
O  O3152  1  0.03520000  0.42070000  0.89440000  1.0 -0.4627481514
O  O3153  1  0.88770000  0.72640000  0.87000000  1.0 -0.4681613628
O  O3154  1  0.27360000  0.63770000  0.12000000  1.0 -0.4681613628
O  O3155  1  0.88770000  0.02360000  0.38000000  1.0 -0.4681613628
O  O3156  1  0.13000000  0.88770000  0.27360000  1.0 -0.4681613628
O  O3157  1  0.36230000  0.02360000  0.37000000  1.0 -0.4681613628
O  O3158  1  0.97640000  0.63770000  0.63000000  1.0 -0.4681613628
O  O3159  1  0.11230000  0.88000000  0.52360000  1.0 -0.4681613628
O  O3160  1  0.97640000  0.11230000  0.62000000  1.0 -0.4681613628
O  O3161  1  0.36230000  0.72640000  0.88000000  1.0 -0.4681613628
O  O3162  1  0.12000000  0.86230000  0.77360000  1.0 -0.4681613628
O  O3163  1  0.27360000  0.11230000  0.13000000  1.0 -0.4681613628
O  O3164  1  0.13770000  0.87000000  0.02360000  1.0 -0.4681613628
O  O3165  1  0.13000000  0.86230000  0.97640000  1.0 -0.4681613628
O  O3166  1  0.11230000  0.87000000  0.72640000  1.0 -0.4681613628
O  O3167  1  0.12000000  0.88770000  0.47640000  1.0 -0.4681613628
O  O3168  1  0.13770000  0.88000000  0.22640000  1.0 -0.4681613628
O  O3169  1  0.72640000  0.13000000  0.11230000  1.0 -0.4681613628
O  O3170  1  0.38000000  0.27360000  0.86230000  1.0 -0.4681613628
O  O3171  1  0.37000000  0.97640000  0.36230000  1.0 -0.4681613628
O  O3172  1  0.38000000  0.97640000  0.88770000  1.0 -0.4681613628
O  O3173  1  0.22640000  0.12000000  0.13770000  1.0 -0.4681613628
O  O3174  1  0.87000000  0.27360000  0.88770000  1.0 -0.4681613628
O  O3175  1  0.02360000  0.13000000  0.13770000  1.0 -0.4681613628
O  O3176  1  0.52360000  0.12000000  0.11230000  1.0 -0.4681613628
O  O3177  1  0.88000000  0.27360000  0.36230000  1.0 -0.4681613628
O  O3178  1  0.88770000  0.22640000  0.37000000  1.0 -0.4681613628
O  O3179  1  0.27360000  0.13770000  0.62000000  1.0 -0.4681613628
O  O3180  1  0.88770000  0.52360000  0.88000000  1.0 -0.4681613628
O  O3181  1  0.13000000  0.38770000  0.77360000  1.0 -0.4681613628
O  O3182  1  0.36230000  0.52360000  0.87000000  1.0 -0.4681613628
O  O3183  1  0.97640000  0.13770000  0.13000000  1.0 -0.4681613628
O  O3184  1  0.11230000  0.38000000  0.02360000  1.0 -0.4681613628
O  O3185  1  0.97640000  0.61230000  0.12000000  1.0 -0.4681613628
O  O3186  1  0.36230000  0.22640000  0.38000000  1.0 -0.4681613628
O  O3187  1  0.12000000  0.36230000  0.27360000  1.0 -0.4681613628
O  O3188  1  0.27360000  0.61230000  0.63000000  1.0 -0.4681613628
O  O3189  1  0.13770000  0.37000000  0.52360000  1.0 -0.4681613628
O  O3190  1  0.13000000  0.36230000  0.47640000  1.0 -0.4681613628
O  O3191  1  0.11230000  0.37000000  0.22640000  1.0 -0.4681613628
O  O3192  1  0.12000000  0.38770000  0.97640000  1.0 -0.4681613628
O  O3193  1  0.13770000  0.38000000  0.72640000  1.0 -0.4681613628
O  O3194  1  0.72640000  0.63000000  0.61230000  1.0 -0.4681613628
O  O3195  1  0.38000000  0.77360000  0.36230000  1.0 -0.4681613628
O  O3196  1  0.37000000  0.47640000  0.86230000  1.0 -0.4681613628
O  O3197  1  0.38000000  0.47640000  0.38770000  1.0 -0.4681613628
O  O3198  1  0.22640000  0.62000000  0.63770000  1.0 -0.4681613628
O  O3199  1  0.87000000  0.77360000  0.38770000  1.0 -0.4681613628
O  O3200  1  0.02360000  0.63000000  0.63770000  1.0 -0.4681613628
O  O3201  1  0.52360000  0.62000000  0.61230000  1.0 -0.4681613628
O  O3202  1  0.88000000  0.77360000  0.86230000  1.0 -0.4681613628
O  O3203  1  0.38770000  0.72640000  0.37000000  1.0 -0.4681613628
O  O3204  1  0.77360000  0.63770000  0.62000000  1.0 -0.4681613628
O  O3205  1  0.38770000  0.02360000  0.88000000  1.0 -0.4681613628
O  O3206  1  0.63000000  0.88770000  0.77360000  1.0 -0.4681613628
O  O3207  1  0.86230000  0.02360000  0.87000000  1.0 -0.4681613628
O  O3208  1  0.47640000  0.63770000  0.13000000  1.0 -0.4681613628
O  O3209  1  0.61230000  0.88000000  0.02360000  1.0 -0.4681613628
O  O3210  1  0.47640000  0.11230000  0.12000000  1.0 -0.4681613628
O  O3211  1  0.86230000  0.72640000  0.38000000  1.0 -0.4681613628
O  O3212  1  0.62000000  0.86230000  0.27360000  1.0 -0.4681613628
O  O3213  1  0.77360000  0.11230000  0.63000000  1.0 -0.4681613628
O  O3214  1  0.63770000  0.87000000  0.52360000  1.0 -0.4681613628
O  O3215  1  0.63000000  0.86230000  0.47640000  1.0 -0.4681613628
O  O3216  1  0.61230000  0.87000000  0.22640000  1.0 -0.4681613628
O  O3217  1  0.62000000  0.88770000  0.97640000  1.0 -0.4681613628
O  O3218  1  0.63770000  0.88000000  0.72640000  1.0 -0.4681613628
O  O3219  1  0.22640000  0.13000000  0.61230000  1.0 -0.4681613628
O  O3220  1  0.87000000  0.97640000  0.86230000  1.0 -0.4681613628
O  O3221  1  0.88000000  0.97640000  0.38770000  1.0 -0.4681613628
O  O3222  1  0.72640000  0.12000000  0.63770000  1.0 -0.4681613628
O  O3223  1  0.37000000  0.27360000  0.38770000  1.0 -0.4681613628
O  O3224  1  0.52360000  0.13000000  0.63770000  1.0 -0.4681613628
O  O3225  1  0.02360000  0.12000000  0.61230000  1.0 -0.4681613628
O  O3226  1  0.38770000  0.22640000  0.87000000  1.0 -0.4681613628
O  O3227  1  0.77360000  0.13770000  0.12000000  1.0 -0.4681613628
O  O3228  1  0.38770000  0.52360000  0.38000000  1.0 -0.4681613628
O  O3229  1  0.63000000  0.38770000  0.27360000  1.0 -0.4681613628
O  O3230  1  0.86230000  0.52360000  0.37000000  1.0 -0.4681613628
O  O3231  1  0.47640000  0.13770000  0.63000000  1.0 -0.4681613628
O  O3232  1  0.61230000  0.38000000  0.52360000  1.0 -0.4681613628
O  O3233  1  0.47640000  0.61230000  0.62000000  1.0 -0.4681613628
O  O3234  1  0.86230000  0.22640000  0.88000000  1.0 -0.4681613628
O  O3235  1  0.62000000  0.36230000  0.77360000  1.0 -0.4681613628
O  O3236  1  0.77360000  0.61230000  0.13000000  1.0 -0.4681613628
O  O3237  1  0.63770000  0.37000000  0.02360000  1.0 -0.4681613628
O  O3238  1  0.63000000  0.36230000  0.97640000  1.0 -0.4681613628
O  O3239  1  0.61230000  0.37000000  0.72640000  1.0 -0.4681613628
O  O3240  1  0.62000000  0.38770000  0.47640000  1.0 -0.4681613628
O  O3241  1  0.63770000  0.38000000  0.22640000  1.0 -0.4681613628
O  O3242  1  0.22640000  0.63000000  0.11230000  1.0 -0.4681613628
O  O3243  1  0.87000000  0.47640000  0.36230000  1.0 -0.4681613628
O  O3244  1  0.88000000  0.47640000  0.88770000  1.0 -0.4681613628
O  O3245  1  0.72640000  0.62000000  0.13770000  1.0 -0.4681613628
O  O3246  1  0.37000000  0.77360000  0.88770000  1.0 -0.4681613628
O  O3247  1  0.52360000  0.63000000  0.13770000  1.0 -0.4681613628
O  O3248  1  0.02360000  0.62000000  0.11230000  1.0 -0.4681613628
O  O3249  1  0.11230000  0.27360000  0.13000000  1.0 -0.4681613628
O  O3250  1  0.72640000  0.36230000  0.88000000  1.0 -0.4681613628
O  O3251  1  0.11230000  0.97640000  0.62000000  1.0 -0.4681613628
O  O3252  1  0.87000000  0.11230000  0.72640000  1.0 -0.4681613628
O  O3253  1  0.63770000  0.97640000  0.63000000  1.0 -0.4681613628
O  O3254  1  0.02360000  0.36230000  0.37000000  1.0 -0.4681613628
O  O3255  1  0.88770000  0.12000000  0.47640000  1.0 -0.4681613628
O  O3256  1  0.02360000  0.88770000  0.38000000  1.0 -0.4681613628
O  O3257  1  0.63770000  0.27360000  0.12000000  1.0 -0.4681613628
O  O3258  1  0.88000000  0.13770000  0.22640000  1.0 -0.4681613628
O  O3259  1  0.72640000  0.88770000  0.87000000  1.0 -0.4681613628
O  O3260  1  0.86230000  0.13000000  0.97640000  1.0 -0.4681613628
O  O3261  1  0.87000000  0.13770000  0.02360000  1.0 -0.4681613628
O  O3262  1  0.88770000  0.13000000  0.27360000  1.0 -0.4681613628
O  O3263  1  0.88000000  0.11230000  0.52360000  1.0 -0.4681613628
O  O3264  1  0.86230000  0.12000000  0.77360000  1.0 -0.4681613628
O  O3265  1  0.27360000  0.87000000  0.88770000  1.0 -0.4681613628
O  O3266  1  0.62000000  0.72640000  0.13770000  1.0 -0.4681613628
O  O3267  1  0.63000000  0.02360000  0.63770000  1.0 -0.4681613628
O  O3268  1  0.62000000  0.02360000  0.11230000  1.0 -0.4681613628
O  O3269  1  0.77360000  0.88000000  0.86230000  1.0 -0.4681613628
O  O3270  1  0.13000000  0.72640000  0.11230000  1.0 -0.4681613628
O  O3271  1  0.97640000  0.87000000  0.86230000  1.0 -0.4681613628
O  O3272  1  0.47640000  0.88000000  0.88770000  1.0 -0.4681613628
O  O3273  1  0.12000000  0.72640000  0.63770000  1.0 -0.4681613628
O  O3274  1  0.11230000  0.77360000  0.63000000  1.0 -0.4681613628
O  O3275  1  0.72640000  0.86230000  0.38000000  1.0 -0.4681613628
O  O3276  1  0.11230000  0.47640000  0.12000000  1.0 -0.4681613628
O  O3277  1  0.87000000  0.61230000  0.22640000  1.0 -0.4681613628
O  O3278  1  0.63770000  0.47640000  0.13000000  1.0 -0.4681613628
O  O3279  1  0.02360000  0.86230000  0.87000000  1.0 -0.4681613628
O  O3280  1  0.88770000  0.62000000  0.97640000  1.0 -0.4681613628
O  O3281  1  0.02360000  0.38770000  0.88000000  1.0 -0.4681613628
O  O3282  1  0.63770000  0.77360000  0.62000000  1.0 -0.4681613628
O  O3283  1  0.88000000  0.63770000  0.72640000  1.0 -0.4681613628
O  O3284  1  0.72640000  0.38770000  0.37000000  1.0 -0.4681613628
O  O3285  1  0.86230000  0.63000000  0.47640000  1.0 -0.4681613628
O  O3286  1  0.87000000  0.63770000  0.52360000  1.0 -0.4681613628
O  O3287  1  0.88770000  0.63000000  0.77360000  1.0 -0.4681613628
O  O3288  1  0.88000000  0.61230000  0.02360000  1.0 -0.4681613628
O  O3289  1  0.86230000  0.62000000  0.27360000  1.0 -0.4681613628
O  O3290  1  0.27360000  0.37000000  0.38770000  1.0 -0.4681613628
O  O3291  1  0.62000000  0.22640000  0.63770000  1.0 -0.4681613628
O  O3292  1  0.63000000  0.52360000  0.13770000  1.0 -0.4681613628
O  O3293  1  0.62000000  0.52360000  0.61230000  1.0 -0.4681613628
O  O3294  1  0.77360000  0.38000000  0.36230000  1.0 -0.4681613628
O  O3295  1  0.13000000  0.22640000  0.61230000  1.0 -0.4681613628
O  O3296  1  0.97640000  0.37000000  0.36230000  1.0 -0.4681613628
O  O3297  1  0.47640000  0.38000000  0.38770000  1.0 -0.4681613628
O  O3298  1  0.12000000  0.22640000  0.13770000  1.0 -0.4681613628
O  O3299  1  0.61230000  0.27360000  0.63000000  1.0 -0.4681613628
O  O3300  1  0.22640000  0.36230000  0.38000000  1.0 -0.4681613628
O  O3301  1  0.61230000  0.97640000  0.12000000  1.0 -0.4681613628
O  O3302  1  0.37000000  0.11230000  0.22640000  1.0 -0.4681613628
O  O3303  1  0.13770000  0.97640000  0.13000000  1.0 -0.4681613628
O  O3304  1  0.52360000  0.36230000  0.87000000  1.0 -0.4681613628
O  O3305  1  0.38770000  0.12000000  0.97640000  1.0 -0.4681613628
O  O3306  1  0.52360000  0.88770000  0.88000000  1.0 -0.4681613628
O  O3307  1  0.13770000  0.27360000  0.62000000  1.0 -0.4681613628
O  O3308  1  0.38000000  0.13770000  0.72640000  1.0 -0.4681613628
O  O3309  1  0.22640000  0.88770000  0.37000000  1.0 -0.4681613628
O  O3310  1  0.36230000  0.13000000  0.47640000  1.0 -0.4681613628
O  O3311  1  0.37000000  0.13770000  0.52360000  1.0 -0.4681613628
O  O3312  1  0.38770000  0.13000000  0.77360000  1.0 -0.4681613628
O  O3313  1  0.38000000  0.11230000  0.02360000  1.0 -0.4681613628
O  O3314  1  0.36230000  0.12000000  0.27360000  1.0 -0.4681613628
O  O3315  1  0.77360000  0.87000000  0.38770000  1.0 -0.4681613628
O  O3316  1  0.13000000  0.02360000  0.13770000  1.0 -0.4681613628
O  O3317  1  0.12000000  0.02360000  0.61230000  1.0 -0.4681613628
O  O3318  1  0.27360000  0.88000000  0.36230000  1.0 -0.4681613628
O  O3319  1  0.63000000  0.72640000  0.61230000  1.0 -0.4681613628
O  O3320  1  0.47640000  0.87000000  0.36230000  1.0 -0.4681613628
O  O3321  1  0.97640000  0.88000000  0.38770000  1.0 -0.4681613628
O  O3322  1  0.61230000  0.77360000  0.13000000  1.0 -0.4681613628
O  O3323  1  0.22640000  0.86230000  0.88000000  1.0 -0.4681613628
O  O3324  1  0.61230000  0.47640000  0.62000000  1.0 -0.4681613628
O  O3325  1  0.37000000  0.61230000  0.72640000  1.0 -0.4681613628
O  O3326  1  0.13770000  0.47640000  0.63000000  1.0 -0.4681613628
O  O3327  1  0.52360000  0.86230000  0.37000000  1.0 -0.4681613628
O  O3328  1  0.38770000  0.62000000  0.47640000  1.0 -0.4681613628
O  O3329  1  0.52360000  0.38770000  0.38000000  1.0 -0.4681613628
O  O3330  1  0.13770000  0.77360000  0.12000000  1.0 -0.4681613628
O  O3331  1  0.38000000  0.63770000  0.22640000  1.0 -0.4681613628
O  O3332  1  0.22640000  0.38770000  0.87000000  1.0 -0.4681613628
O  O3333  1  0.36230000  0.63000000  0.97640000  1.0 -0.4681613628
O  O3334  1  0.37000000  0.63770000  0.02360000  1.0 -0.4681613628
O  O3335  1  0.38770000  0.63000000  0.27360000  1.0 -0.4681613628
O  O3336  1  0.38000000  0.61230000  0.52360000  1.0 -0.4681613628
O  O3337  1  0.36230000  0.62000000  0.77360000  1.0 -0.4681613628
O  O3338  1  0.77360000  0.37000000  0.88770000  1.0 -0.4681613628
O  O3339  1  0.13000000  0.52360000  0.63770000  1.0 -0.4681613628
O  O3340  1  0.12000000  0.52360000  0.11230000  1.0 -0.4681613628
O  O3341  1  0.27360000  0.38000000  0.86230000  1.0 -0.4681613628
O  O3342  1  0.63000000  0.22640000  0.11230000  1.0 -0.4681613628
O  O3343  1  0.47640000  0.37000000  0.86230000  1.0 -0.4681613628
O  O3344  1  0.97640000  0.38000000  0.88770000  1.0 -0.4681613628
O  O3345  1  0.90000000  0.75750000  0.87850000  1.0 -0.5068336556
O  O3346  1  0.24250000  0.65000000  0.12850000  1.0 -0.5068336556
O  O3347  1  0.90000000  0.99250000  0.37150000  1.0 -0.5068336556
O  O3348  1  0.12150000  0.90000000  0.24250000  1.0 -0.5068336556
O  O3349  1  0.35000000  0.99250000  0.37850000  1.0 -0.5068336556
O  O3350  1  0.00750000  0.65000000  0.62150000  1.0 -0.5068336556
O  O3351  1  0.10000000  0.87150000  0.49250000  1.0 -0.5068336556
O  O3352  1  0.00750000  0.10000000  0.62850000  1.0 -0.5068336556
O  O3353  1  0.35000000  0.75750000  0.87150000  1.0 -0.5068336556
O  O3354  1  0.12850000  0.85000000  0.74250000  1.0 -0.5068336556
O  O3355  1  0.24250000  0.10000000  0.12150000  1.0 -0.5068336556
O  O3356  1  0.15000000  0.87850000  0.99250000  1.0 -0.5068336556
O  O3357  1  0.12150000  0.85000000  0.00750000  1.0 -0.5068336556
O  O3358  1  0.10000000  0.87850000  0.75750000  1.0 -0.5068336556
O  O3359  1  0.12850000  0.90000000  0.50750000  1.0 -0.5068336556
O  O3360  1  0.15000000  0.87150000  0.25750000  1.0 -0.5068336556
O  O3361  1  0.75750000  0.12150000  0.10000000  1.0 -0.5068336556
O  O3362  1  0.37150000  0.24250000  0.85000000  1.0 -0.5068336556
O  O3363  1  0.37850000  0.00750000  0.35000000  1.0 -0.5068336556
O  O3364  1  0.37150000  0.00750000  0.90000000  1.0 -0.5068336556
O  O3365  1  0.25750000  0.12850000  0.15000000  1.0 -0.5068336556
O  O3366  1  0.87850000  0.24250000  0.90000000  1.0 -0.5068336556
O  O3367  1  0.99250000  0.12150000  0.15000000  1.0 -0.5068336556
O  O3368  1  0.49250000  0.12850000  0.10000000  1.0 -0.5068336556
O  O3369  1  0.87150000  0.24250000  0.35000000  1.0 -0.5068336556
O  O3370  1  0.90000000  0.25750000  0.37850000  1.0 -0.5068336556
O  O3371  1  0.24250000  0.15000000  0.62850000  1.0 -0.5068336556
O  O3372  1  0.90000000  0.49250000  0.87150000  1.0 -0.5068336556
O  O3373  1  0.12150000  0.40000000  0.74250000  1.0 -0.5068336556
O  O3374  1  0.35000000  0.49250000  0.87850000  1.0 -0.5068336556
O  O3375  1  0.00750000  0.15000000  0.12150000  1.0 -0.5068336556
O  O3376  1  0.10000000  0.37150000  0.99250000  1.0 -0.5068336556
O  O3377  1  0.00750000  0.60000000  0.12850000  1.0 -0.5068336556
O  O3378  1  0.35000000  0.25750000  0.37150000  1.0 -0.5068336556
O  O3379  1  0.12850000  0.35000000  0.24250000  1.0 -0.5068336556
O  O3380  1  0.24250000  0.60000000  0.62150000  1.0 -0.5068336556
O  O3381  1  0.15000000  0.37850000  0.49250000  1.0 -0.5068336556
O  O3382  1  0.12150000  0.35000000  0.50750000  1.0 -0.5068336556
O  O3383  1  0.10000000  0.37850000  0.25750000  1.0 -0.5068336556
O  O3384  1  0.12850000  0.40000000  0.00750000  1.0 -0.5068336556
O  O3385  1  0.15000000  0.37150000  0.75750000  1.0 -0.5068336556
O  O3386  1  0.75750000  0.62150000  0.60000000  1.0 -0.5068336556
O  O3387  1  0.37150000  0.74250000  0.35000000  1.0 -0.5068336556
O  O3388  1  0.37850000  0.50750000  0.85000000  1.0 -0.5068336556
O  O3389  1  0.37150000  0.50750000  0.40000000  1.0 -0.5068336556
O  O3390  1  0.25750000  0.62850000  0.65000000  1.0 -0.5068336556
O  O3391  1  0.87850000  0.74250000  0.40000000  1.0 -0.5068336556
O  O3392  1  0.99250000  0.62150000  0.65000000  1.0 -0.5068336556
O  O3393  1  0.49250000  0.62850000  0.60000000  1.0 -0.5068336556
O  O3394  1  0.87150000  0.74250000  0.85000000  1.0 -0.5068336556
O  O3395  1  0.40000000  0.75750000  0.37850000  1.0 -0.5068336556
O  O3396  1  0.74250000  0.65000000  0.62850000  1.0 -0.5068336556
O  O3397  1  0.40000000  0.99250000  0.87150000  1.0 -0.5068336556
O  O3398  1  0.62150000  0.90000000  0.74250000  1.0 -0.5068336556
O  O3399  1  0.85000000  0.99250000  0.87850000  1.0 -0.5068336556
O  O3400  1  0.50750000  0.65000000  0.12150000  1.0 -0.5068336556
O  O3401  1  0.60000000  0.87150000  0.99250000  1.0 -0.5068336556
O  O3402  1  0.50750000  0.10000000  0.12850000  1.0 -0.5068336556
O  O3403  1  0.85000000  0.75750000  0.37150000  1.0 -0.5068336556
O  O3404  1  0.62850000  0.85000000  0.24250000  1.0 -0.5068336556
O  O3405  1  0.74250000  0.10000000  0.62150000  1.0 -0.5068336556
O  O3406  1  0.65000000  0.87850000  0.49250000  1.0 -0.5068336556
O  O3407  1  0.62150000  0.85000000  0.50750000  1.0 -0.5068336556
O  O3408  1  0.60000000  0.87850000  0.25750000  1.0 -0.5068336556
O  O3409  1  0.62850000  0.90000000  0.00750000  1.0 -0.5068336556
O  O3410  1  0.65000000  0.87150000  0.75750000  1.0 -0.5068336556
O  O3411  1  0.25750000  0.12150000  0.60000000  1.0 -0.5068336556
O  O3412  1  0.87850000  0.00750000  0.85000000  1.0 -0.5068336556
O  O3413  1  0.87150000  0.00750000  0.40000000  1.0 -0.5068336556
O  O3414  1  0.75750000  0.12850000  0.65000000  1.0 -0.5068336556
O  O3415  1  0.37850000  0.24250000  0.40000000  1.0 -0.5068336556
O  O3416  1  0.49250000  0.12150000  0.65000000  1.0 -0.5068336556
O  O3417  1  0.99250000  0.12850000  0.60000000  1.0 -0.5068336556
O  O3418  1  0.40000000  0.25750000  0.87850000  1.0 -0.5068336556
O  O3419  1  0.74250000  0.15000000  0.12850000  1.0 -0.5068336556
O  O3420  1  0.40000000  0.49250000  0.37150000  1.0 -0.5068336556
O  O3421  1  0.62150000  0.40000000  0.24250000  1.0 -0.5068336556
O  O3422  1  0.85000000  0.49250000  0.37850000  1.0 -0.5068336556
O  O3423  1  0.50750000  0.15000000  0.62150000  1.0 -0.5068336556
O  O3424  1  0.60000000  0.37150000  0.49250000  1.0 -0.5068336556
O  O3425  1  0.50750000  0.60000000  0.62850000  1.0 -0.5068336556
O  O3426  1  0.85000000  0.25750000  0.87150000  1.0 -0.5068336556
O  O3427  1  0.62850000  0.35000000  0.74250000  1.0 -0.5068336556
O  O3428  1  0.74250000  0.60000000  0.12150000  1.0 -0.5068336556
O  O3429  1  0.65000000  0.37850000  0.99250000  1.0 -0.5068336556
O  O3430  1  0.62150000  0.35000000  0.00750000  1.0 -0.5068336556
O  O3431  1  0.60000000  0.37850000  0.75750000  1.0 -0.5068336556
O  O3432  1  0.62850000  0.40000000  0.50750000  1.0 -0.5068336556
O  O3433  1  0.65000000  0.37150000  0.25750000  1.0 -0.5068336556
O  O3434  1  0.25750000  0.62150000  0.10000000  1.0 -0.5068336556
O  O3435  1  0.87850000  0.50750000  0.35000000  1.0 -0.5068336556
O  O3436  1  0.87150000  0.50750000  0.90000000  1.0 -0.5068336556
O  O3437  1  0.75750000  0.62850000  0.15000000  1.0 -0.5068336556
O  O3438  1  0.37850000  0.74250000  0.90000000  1.0 -0.5068336556
O  O3439  1  0.49250000  0.62150000  0.15000000  1.0 -0.5068336556
O  O3440  1  0.99250000  0.62850000  0.10000000  1.0 -0.5068336556
O  O3441  1  0.10000000  0.24250000  0.12150000  1.0 -0.5068336556
O  O3442  1  0.75750000  0.35000000  0.87150000  1.0 -0.5068336556
O  O3443  1  0.10000000  0.00750000  0.62850000  1.0 -0.5068336556
O  O3444  1  0.87850000  0.10000000  0.75750000  1.0 -0.5068336556
O  O3445  1  0.65000000  0.00750000  0.62150000  1.0 -0.5068336556
O  O3446  1  0.99250000  0.35000000  0.37850000  1.0 -0.5068336556
O  O3447  1  0.90000000  0.12850000  0.50750000  1.0 -0.5068336556
O  O3448  1  0.99250000  0.90000000  0.37150000  1.0 -0.5068336556
O  O3449  1  0.65000000  0.24250000  0.12850000  1.0 -0.5068336556
O  O3450  1  0.87150000  0.15000000  0.25750000  1.0 -0.5068336556
O  O3451  1  0.75750000  0.90000000  0.87850000  1.0 -0.5068336556
O  O3452  1  0.85000000  0.12150000  0.00750000  1.0 -0.5068336556
O  O3453  1  0.87850000  0.15000000  0.99250000  1.0 -0.5068336556
O  O3454  1  0.90000000  0.12150000  0.24250000  1.0 -0.5068336556
O  O3455  1  0.87150000  0.10000000  0.49250000  1.0 -0.5068336556
O  O3456  1  0.85000000  0.12850000  0.74250000  1.0 -0.5068336556
O  O3457  1  0.24250000  0.87850000  0.90000000  1.0 -0.5068336556
O  O3458  1  0.62850000  0.75750000  0.15000000  1.0 -0.5068336556
O  O3459  1  0.62150000  0.99250000  0.65000000  1.0 -0.5068336556
O  O3460  1  0.62850000  0.99250000  0.10000000  1.0 -0.5068336556
O  O3461  1  0.74250000  0.87150000  0.85000000  1.0 -0.5068336556
O  O3462  1  0.12150000  0.75750000  0.10000000  1.0 -0.5068336556
O  O3463  1  0.00750000  0.87850000  0.85000000  1.0 -0.5068336556
O  O3464  1  0.50750000  0.87150000  0.90000000  1.0 -0.5068336556
O  O3465  1  0.12850000  0.75750000  0.65000000  1.0 -0.5068336556
O  O3466  1  0.10000000  0.74250000  0.62150000  1.0 -0.5068336556
O  O3467  1  0.75750000  0.85000000  0.37150000  1.0 -0.5068336556
O  O3468  1  0.10000000  0.50750000  0.12850000  1.0 -0.5068336556
O  O3469  1  0.87850000  0.60000000  0.25750000  1.0 -0.5068336556
O  O3470  1  0.65000000  0.50750000  0.12150000  1.0 -0.5068336556
O  O3471  1  0.99250000  0.85000000  0.87850000  1.0 -0.5068336556
O  O3472  1  0.90000000  0.62850000  0.00750000  1.0 -0.5068336556
O  O3473  1  0.99250000  0.40000000  0.87150000  1.0 -0.5068336556
O  O3474  1  0.65000000  0.74250000  0.62850000  1.0 -0.5068336556
O  O3475  1  0.87150000  0.65000000  0.75750000  1.0 -0.5068336556
O  O3476  1  0.75750000  0.40000000  0.37850000  1.0 -0.5068336556
O  O3477  1  0.85000000  0.62150000  0.50750000  1.0 -0.5068336556
O  O3478  1  0.87850000  0.65000000  0.49250000  1.0 -0.5068336556
O  O3479  1  0.90000000  0.62150000  0.74250000  1.0 -0.5068336556
O  O3480  1  0.87150000  0.60000000  0.99250000  1.0 -0.5068336556
O  O3481  1  0.85000000  0.62850000  0.24250000  1.0 -0.5068336556
O  O3482  1  0.24250000  0.37850000  0.40000000  1.0 -0.5068336556
O  O3483  1  0.62850000  0.25750000  0.65000000  1.0 -0.5068336556
O  O3484  1  0.62150000  0.49250000  0.15000000  1.0 -0.5068336556
O  O3485  1  0.62850000  0.49250000  0.60000000  1.0 -0.5068336556
O  O3486  1  0.74250000  0.37150000  0.35000000  1.0 -0.5068336556
O  O3487  1  0.12150000  0.25750000  0.60000000  1.0 -0.5068336556
O  O3488  1  0.00750000  0.37850000  0.35000000  1.0 -0.5068336556
O  O3489  1  0.50750000  0.37150000  0.40000000  1.0 -0.5068336556
O  O3490  1  0.12850000  0.25750000  0.15000000  1.0 -0.5068336556
O  O3491  1  0.60000000  0.24250000  0.62150000  1.0 -0.5068336556
O  O3492  1  0.25750000  0.35000000  0.37150000  1.0 -0.5068336556
O  O3493  1  0.60000000  0.00750000  0.12850000  1.0 -0.5068336556
O  O3494  1  0.37850000  0.10000000  0.25750000  1.0 -0.5068336556
O  O3495  1  0.15000000  0.00750000  0.12150000  1.0 -0.5068336556
O  O3496  1  0.49250000  0.35000000  0.87850000  1.0 -0.5068336556
O  O3497  1  0.40000000  0.12850000  0.00750000  1.0 -0.5068336556
O  O3498  1  0.49250000  0.90000000  0.87150000  1.0 -0.5068336556
O  O3499  1  0.15000000  0.24250000  0.62850000  1.0 -0.5068336556
O  O3500  1  0.37150000  0.15000000  0.75750000  1.0 -0.5068336556
O  O3501  1  0.25750000  0.90000000  0.37850000  1.0 -0.5068336556
O  O3502  1  0.35000000  0.12150000  0.50750000  1.0 -0.5068336556
O  O3503  1  0.37850000  0.15000000  0.49250000  1.0 -0.5068336556
O  O3504  1  0.40000000  0.12150000  0.74250000  1.0 -0.5068336556
O  O3505  1  0.37150000  0.10000000  0.99250000  1.0 -0.5068336556
O  O3506  1  0.35000000  0.12850000  0.24250000  1.0 -0.5068336556
O  O3507  1  0.74250000  0.87850000  0.40000000  1.0 -0.5068336556
O  O3508  1  0.12150000  0.99250000  0.15000000  1.0 -0.5068336556
O  O3509  1  0.12850000  0.99250000  0.60000000  1.0 -0.5068336556
O  O3510  1  0.24250000  0.87150000  0.35000000  1.0 -0.5068336556
O  O3511  1  0.62150000  0.75750000  0.60000000  1.0 -0.5068336556
O  O3512  1  0.50750000  0.87850000  0.35000000  1.0 -0.5068336556
O  O3513  1  0.00750000  0.87150000  0.40000000  1.0 -0.5068336556
O  O3514  1  0.60000000  0.74250000  0.12150000  1.0 -0.5068336556
O  O3515  1  0.25750000  0.85000000  0.87150000  1.0 -0.5068336556
O  O3516  1  0.60000000  0.50750000  0.62850000  1.0 -0.5068336556
O  O3517  1  0.37850000  0.60000000  0.75750000  1.0 -0.5068336556
O  O3518  1  0.15000000  0.50750000  0.62150000  1.0 -0.5068336556
O  O3519  1  0.49250000  0.85000000  0.37850000  1.0 -0.5068336556
O  O3520  1  0.40000000  0.62850000  0.50750000  1.0 -0.5068336556
O  O3521  1  0.49250000  0.40000000  0.37150000  1.0 -0.5068336556
O  O3522  1  0.15000000  0.74250000  0.12850000  1.0 -0.5068336556
O  O3523  1  0.37150000  0.65000000  0.25750000  1.0 -0.5068336556
O  O3524  1  0.25750000  0.40000000  0.87850000  1.0 -0.5068336556
O  O3525  1  0.35000000  0.62150000  0.00750000  1.0 -0.5068336556
O  O3526  1  0.37850000  0.65000000  0.99250000  1.0 -0.5068336556
O  O3527  1  0.40000000  0.62150000  0.24250000  1.0 -0.5068336556
O  O3528  1  0.37150000  0.60000000  0.49250000  1.0 -0.5068336556
O  O3529  1  0.35000000  0.62850000  0.74250000  1.0 -0.5068336556
O  O3530  1  0.74250000  0.37850000  0.90000000  1.0 -0.5068336556
O  O3531  1  0.12150000  0.49250000  0.65000000  1.0 -0.5068336556
O  O3532  1  0.12850000  0.49250000  0.10000000  1.0 -0.5068336556
O  O3533  1  0.24250000  0.37150000  0.85000000  1.0 -0.5068336556
O  O3534  1  0.62150000  0.25750000  0.10000000  1.0 -0.5068336556
O  O3535  1  0.50750000  0.37850000  0.85000000  1.0 -0.5068336556
O  O3536  1  0.00750000  0.37150000  0.90000000  1.0 -0.5068336556
O  O3537  1  0.84970000  0.90030000  0.03350000  1.0 0.059451856
O  O3538  1  0.09970000  0.59970000  0.28350000  1.0 0.059451856
O  O3539  1  0.84970000  0.84970000  0.21650000  1.0 0.059451856
O  O3540  1  0.96650000  0.84970000  0.09970000  1.0 0.059451856
O  O3541  1  0.40030000  0.84970000  0.53350000  1.0 0.059451856
O  O3542  1  0.15030000  0.59970000  0.46650000  1.0 0.059451856
O  O3543  1  0.15030000  0.71650000  0.34970000  1.0 0.059451856
O  O3544  1  0.15030000  0.15030000  0.78350000  1.0 0.059451856
O  O3545  1  0.40030000  0.90030000  0.71650000  1.0 0.059451856
O  O3546  1  0.28350000  0.90030000  0.59970000  1.0 0.059451856
O  O3547  1  0.09970000  0.15030000  0.96650000  1.0 0.059451856
O  O3548  1  0.09970000  0.03350000  0.84970000  1.0 0.059451856
O  O3549  1  0.96650000  0.90030000  0.15030000  1.0 0.059451856
O  O3550  1  0.15030000  0.03350000  0.90030000  1.0 0.059451856
O  O3551  1  0.28350000  0.84970000  0.65030000  1.0 0.059451856
O  O3552  1  0.09970000  0.71650000  0.40030000  1.0 0.059451856
O  O3553  1  0.90030000  0.96650000  0.15030000  1.0 0.059451856
O  O3554  1  0.21650000  0.09970000  0.90030000  1.0 0.059451856
O  O3555  1  0.53350000  0.15030000  0.40030000  1.0 0.059451856
O  O3556  1  0.21650000  0.15030000  0.84970000  1.0 0.059451856
O  O3557  1  0.40030000  0.28350000  0.09970000  1.0 0.059451856
O  O3558  1  0.03350000  0.09970000  0.84970000  1.0 0.059451856
O  O3559  1  0.84970000  0.96650000  0.09970000  1.0 0.059451856
O  O3560  1  0.34970000  0.28350000  0.15030000  1.0 0.059451856
O  O3561  1  0.71650000  0.09970000  0.40030000  1.0 0.059451856
O  O3562  1  0.84970000  0.40030000  0.53350000  1.0 0.059451856
O  O3563  1  0.09970000  0.09970000  0.78350000  1.0 0.059451856
O  O3564  1  0.84970000  0.34970000  0.71650000  1.0 0.059451856
O  O3565  1  0.96650000  0.34970000  0.59970000  1.0 0.059451856
O  O3566  1  0.40030000  0.34970000  0.03350000  1.0 0.059451856
O  O3567  1  0.15030000  0.09970000  0.96650000  1.0 0.059451856
O  O3568  1  0.15030000  0.21650000  0.84970000  1.0 0.059451856
O  O3569  1  0.15030000  0.65030000  0.28350000  1.0 0.059451856
O  O3570  1  0.40030000  0.40030000  0.21650000  1.0 0.059451856
O  O3571  1  0.28350000  0.40030000  0.09970000  1.0 0.059451856
O  O3572  1  0.09970000  0.65030000  0.46650000  1.0 0.059451856
O  O3573  1  0.09970000  0.53350000  0.34970000  1.0 0.059451856
O  O3574  1  0.96650000  0.40030000  0.65030000  1.0 0.059451856
O  O3575  1  0.15030000  0.53350000  0.40030000  1.0 0.059451856
O  O3576  1  0.28350000  0.34970000  0.15030000  1.0 0.059451856
O  O3577  1  0.09970000  0.21650000  0.90030000  1.0 0.059451856
O  O3578  1  0.90030000  0.46650000  0.65030000  1.0 0.059451856
O  O3579  1  0.21650000  0.59970000  0.40030000  1.0 0.059451856
O  O3580  1  0.53350000  0.65030000  0.90030000  1.0 0.059451856
O  O3581  1  0.21650000  0.65030000  0.34970000  1.0 0.059451856
O  O3582  1  0.40030000  0.78350000  0.59970000  1.0 0.059451856
O  O3583  1  0.03350000  0.59970000  0.34970000  1.0 0.059451856
O  O3584  1  0.84970000  0.46650000  0.59970000  1.0 0.059451856
O  O3585  1  0.34970000  0.78350000  0.65030000  1.0 0.059451856
O  O3586  1  0.71650000  0.59970000  0.90030000  1.0 0.059451856
O  O3587  1  0.34970000  0.90030000  0.53350000  1.0 0.059451856
O  O3588  1  0.59970000  0.59970000  0.78350000  1.0 0.059451856
O  O3589  1  0.34970000  0.84970000  0.71650000  1.0 0.059451856
O  O3590  1  0.46650000  0.84970000  0.59970000  1.0 0.059451856
O  O3591  1  0.90030000  0.84970000  0.03350000  1.0 0.059451856
O  O3592  1  0.65030000  0.59970000  0.96650000  1.0 0.059451856
O  O3593  1  0.65030000  0.71650000  0.84970000  1.0 0.059451856
O  O3594  1  0.65030000  0.15030000  0.28350000  1.0 0.059451856
O  O3595  1  0.90030000  0.90030000  0.21650000  1.0 0.059451856
O  O3596  1  0.78350000  0.90030000  0.09970000  1.0 0.059451856
O  O3597  1  0.59970000  0.15030000  0.46650000  1.0 0.059451856
O  O3598  1  0.59970000  0.03350000  0.34970000  1.0 0.059451856
O  O3599  1  0.46650000  0.90030000  0.65030000  1.0 0.059451856
O  O3600  1  0.65030000  0.03350000  0.40030000  1.0 0.059451856
O  O3601  1  0.78350000  0.84970000  0.15030000  1.0 0.059451856
O  O3602  1  0.59970000  0.71650000  0.90030000  1.0 0.059451856
O  O3603  1  0.40030000  0.96650000  0.65030000  1.0 0.059451856
O  O3604  1  0.03350000  0.15030000  0.90030000  1.0 0.059451856
O  O3605  1  0.71650000  0.15030000  0.34970000  1.0 0.059451856
O  O3606  1  0.90030000  0.28350000  0.59970000  1.0 0.059451856
O  O3607  1  0.53350000  0.09970000  0.34970000  1.0 0.059451856
O  O3608  1  0.34970000  0.96650000  0.59970000  1.0 0.059451856
O  O3609  1  0.84970000  0.28350000  0.65030000  1.0 0.059451856
O  O3610  1  0.34970000  0.40030000  0.03350000  1.0 0.059451856
O  O3611  1  0.59970000  0.09970000  0.28350000  1.0 0.059451856
O  O3612  1  0.34970000  0.34970000  0.21650000  1.0 0.059451856
O  O3613  1  0.46650000  0.34970000  0.09970000  1.0 0.059451856
O  O3614  1  0.90030000  0.34970000  0.53350000  1.0 0.059451856
O  O3615  1  0.65030000  0.09970000  0.46650000  1.0 0.059451856
O  O3616  1  0.65030000  0.21650000  0.34970000  1.0 0.059451856
O  O3617  1  0.65030000  0.65030000  0.78350000  1.0 0.059451856
O  O3618  1  0.90030000  0.40030000  0.71650000  1.0 0.059451856
O  O3619  1  0.78350000  0.40030000  0.59970000  1.0 0.059451856
O  O3620  1  0.59970000  0.65030000  0.96650000  1.0 0.059451856
O  O3621  1  0.59970000  0.53350000  0.84970000  1.0 0.059451856
O  O3622  1  0.46650000  0.40030000  0.15030000  1.0 0.059451856
O  O3623  1  0.65030000  0.53350000  0.90030000  1.0 0.059451856
O  O3624  1  0.78350000  0.34970000  0.65030000  1.0 0.059451856
O  O3625  1  0.59970000  0.21650000  0.40030000  1.0 0.059451856
O  O3626  1  0.40030000  0.46650000  0.15030000  1.0 0.059451856
O  O3627  1  0.03350000  0.65030000  0.40030000  1.0 0.059451856
O  O3628  1  0.71650000  0.65030000  0.84970000  1.0 0.059451856
O  O3629  1  0.90030000  0.78350000  0.09970000  1.0 0.059451856
O  O3630  1  0.53350000  0.59970000  0.84970000  1.0 0.059451856
O  O3631  1  0.34970000  0.46650000  0.09970000  1.0 0.059451856
O  O3632  1  0.84970000  0.78350000  0.15030000  1.0 0.059451856
O  O3633  1  0.87500000  0.87500000  0.93230000  1.0 0.432137535
O  O3634  1  0.12500000  0.62500000  0.18230000  1.0 0.432137535
O  O3635  1  0.87500000  0.87500000  0.31770000  1.0 0.432137535
O  O3636  1  0.06770000  0.87500000  0.12500000  1.0 0.432137535
O  O3637  1  0.37500000  0.87500000  0.43230000  1.0 0.432137535
O  O3638  1  0.12500000  0.62500000  0.56770000  1.0 0.432137535
O  O3639  1  0.12500000  0.81770000  0.37500000  1.0 0.432137535
O  O3640  1  0.12500000  0.12500000  0.68230000  1.0 0.4362439284
O  O3641  1  0.37500000  0.87500000  0.81770000  1.0 0.432137535
O  O3642  1  0.18230000  0.87500000  0.62500000  1.0 0.432137535
O  O3643  1  0.12500000  0.12500000  0.06770000  1.0 0.4362439284
O  O3644  1  0.12500000  0.93230000  0.87500000  1.0 0.4362439284
O  O3645  1  0.87500000  0.06770000  0.12500000  1.0 0.432137535
O  O3646  1  0.31770000  0.12500000  0.87500000  1.0 0.4362439284
O  O3647  1  0.43230000  0.12500000  0.37500000  1.0 0.4362439284
O  O3648  1  0.37500000  0.18230000  0.12500000  1.0 0.432137535
O  O3649  1  0.93230000  0.12500000  0.87500000  1.0 0.432137535
O  O3650  1  0.81770000  0.12500000  0.37500000  1.0 0.432137535
O  O3651  1  0.87500000  0.37500000  0.43230000  1.0 0.432137535
O  O3652  1  0.87500000  0.37500000  0.81770000  1.0 0.432137535
O  O3653  1  0.06770000  0.37500000  0.62500000  1.0 0.4362439284
O  O3654  1  0.37500000  0.37500000  0.93230000  1.0 0.432137535
O  O3655  1  0.12500000  0.31770000  0.87500000  1.0 0.4362439284
O  O3656  1  0.37500000  0.37500000  0.31770000  1.0 0.432137535
O  O3657  1  0.18230000  0.37500000  0.12500000  1.0 0.432137535
O  O3658  1  0.12500000  0.43230000  0.37500000  1.0 0.432137535
O  O3659  1  0.87500000  0.56770000  0.62500000  1.0 0.432137535
O  O3660  1  0.31770000  0.62500000  0.37500000  1.0 0.432137535
O  O3661  1  0.43230000  0.62500000  0.87500000  1.0 0.432137535
O  O3662  1  0.37500000  0.68230000  0.62500000  1.0 0.432137535
O  O3663  1  0.93230000  0.62500000  0.37500000  1.0 0.432137535
O  O3664  1  0.81770000  0.62500000  0.87500000  1.0 0.432137535
O  O3665  1  0.62500000  0.62500000  0.68230000  1.0 0.432137535
O  O3666  1  0.56770000  0.87500000  0.62500000  1.0 0.432137535
O  O3667  1  0.62500000  0.62500000  0.06770000  1.0 0.432137535
O  O3668  1  0.62500000  0.81770000  0.87500000  1.0 0.432137535
O  O3669  1  0.62500000  0.12500000  0.18230000  1.0 0.432137535
O  O3670  1  0.68230000  0.87500000  0.12500000  1.0 0.432137535
O  O3671  1  0.62500000  0.12500000  0.56770000  1.0 0.432137535
O  O3672  1  0.62500000  0.93230000  0.37500000  1.0 0.432137535
O  O3673  1  0.37500000  0.06770000  0.62500000  1.0 0.4362439284
O  O3674  1  0.87500000  0.18230000  0.62500000  1.0 0.432137535
O  O3675  1  0.56770000  0.37500000  0.12500000  1.0 0.432137535
O  O3676  1  0.62500000  0.31770000  0.37500000  1.0 0.432137535
O  O3677  1  0.68230000  0.37500000  0.62500000  1.0 0.432137535
O  O3678  1  0.62500000  0.43230000  0.87500000  1.0 0.432137535
O  O3679  1  0.37500000  0.56770000  0.12500000  1.0 0.432137535
O  O3680  1  0.87500000  0.68230000  0.12500000  1.0 0.432137535
O  O3681  1  0.84400000  0.84400000  0.85000000  1.0 -0.4341646384
O  O3682  1  0.15600000  0.59400000  0.10000000  1.0 -0.4394637192
O  O3683  1  0.84400000  0.90600000  0.40000000  1.0 -0.4394637192
O  O3684  1  0.15000000  0.84400000  0.15600000  1.0 -0.4394637192
O  O3685  1  0.40600000  0.90600000  0.35000000  1.0 -0.4394637192
O  O3686  1  0.09400000  0.59400000  0.65000000  1.0 -0.4394637192
O  O3687  1  0.15600000  0.90000000  0.40600000  1.0 -0.4394637192
O  O3688  1  0.09400000  0.15600000  0.60000000  1.0 -0.4341646384
O  O3689  1  0.40600000  0.84400000  0.90000000  1.0 -0.4341646384
O  O3690  1  0.10000000  0.90600000  0.65600000  1.0 -0.4394637192
O  O3691  1  0.15600000  0.15600000  0.15000000  1.0 -0.4394637192
O  O3692  1  0.09400000  0.85000000  0.90600000  1.0 -0.4341646384
O  O3693  1  0.15000000  0.90600000  0.09400000  1.0 -0.4394637192
O  O3694  1  0.15600000  0.85000000  0.84400000  1.0 -0.4341646384
O  O3695  1  0.10000000  0.84400000  0.59400000  1.0 -0.4394637192
O  O3696  1  0.09400000  0.90000000  0.34400000  1.0 -0.4394637192
O  O3697  1  0.84400000  0.15000000  0.15600000  1.0 -0.4394637192
O  O3698  1  0.40000000  0.15600000  0.90600000  1.0 -0.4341646384
O  O3699  1  0.35000000  0.09400000  0.40600000  1.0 -0.4341646384
O  O3700  1  0.40000000  0.09400000  0.84400000  1.0 -0.4341646384
O  O3701  1  0.34400000  0.10000000  0.09400000  1.0 -0.4394637192
O  O3702  1  0.85000000  0.15600000  0.84400000  1.0 -0.4341646384
O  O3703  1  0.90600000  0.15000000  0.09400000  1.0 -0.4394637192
O  O3704  1  0.40600000  0.10000000  0.15600000  1.0 -0.4394637192
O  O3705  1  0.90000000  0.15600000  0.40600000  1.0 -0.4341646384
O  O3706  1  0.84400000  0.34400000  0.35000000  1.0 -0.4394637192
O  O3707  1  0.15600000  0.09400000  0.60000000  1.0 -0.4341646384
O  O3708  1  0.84400000  0.40600000  0.90000000  1.0 -0.4341646384
O  O3709  1  0.15000000  0.34400000  0.65600000  1.0 -0.4341646384
O  O3710  1  0.40600000  0.40600000  0.85000000  1.0 -0.4341646384
O  O3711  1  0.09400000  0.09400000  0.15000000  1.0 -0.4394637192
O  O3712  1  0.15600000  0.40000000  0.90600000  1.0 -0.4341646384
O  O3713  1  0.09400000  0.65600000  0.10000000  1.0 -0.4394637192
O  O3714  1  0.40600000  0.34400000  0.40000000  1.0 -0.4394637192
O  O3715  1  0.10000000  0.40600000  0.15600000  1.0 -0.4394637192
O  O3716  1  0.15600000  0.65600000  0.65000000  1.0 -0.4394637192
O  O3717  1  0.09400000  0.35000000  0.40600000  1.0 -0.4394637192
O  O3718  1  0.15000000  0.40600000  0.59400000  1.0 -0.4341646384
O  O3719  1  0.15600000  0.35000000  0.34400000  1.0 -0.4394637192
O  O3720  1  0.10000000  0.34400000  0.09400000  1.0 -0.4394637192
O  O3721  1  0.09400000  0.40000000  0.84400000  1.0 -0.4341646384
O  O3722  1  0.84400000  0.65000000  0.65600000  1.0 -0.4341646384
O  O3723  1  0.40000000  0.65600000  0.40600000  1.0 -0.4394637192
O  O3724  1  0.35000000  0.59400000  0.90600000  1.0 -0.4341646384
O  O3725  1  0.40000000  0.59400000  0.34400000  1.0 -0.4394637192
O  O3726  1  0.34400000  0.60000000  0.59400000  1.0 -0.4394637192
O  O3727  1  0.85000000  0.65600000  0.34400000  1.0 -0.4394637192
O  O3728  1  0.90600000  0.65000000  0.59400000  1.0 -0.4341646384
O  O3729  1  0.40600000  0.60000000  0.65600000  1.0 -0.4394637192
O  O3730  1  0.90000000  0.65600000  0.90600000  1.0 -0.4341646384
O  O3731  1  0.34400000  0.84400000  0.35000000  1.0 -0.4394637192
O  O3732  1  0.65600000  0.59400000  0.60000000  1.0 -0.4394637192
O  O3733  1  0.34400000  0.90600000  0.90000000  1.0 -0.4341646384
O  O3734  1  0.65000000  0.84400000  0.65600000  1.0 -0.4394637192
O  O3735  1  0.90600000  0.90600000  0.85000000  1.0 -0.4341646384
O  O3736  1  0.59400000  0.59400000  0.15000000  1.0 -0.4394637192
O  O3737  1  0.65600000  0.90000000  0.90600000  1.0 -0.4341646384
O  O3738  1  0.59400000  0.15600000  0.10000000  1.0 -0.4394637192
O  O3739  1  0.90600000  0.84400000  0.40000000  1.0 -0.4394637192
O  O3740  1  0.60000000  0.90600000  0.15600000  1.0 -0.4394637192
O  O3741  1  0.65600000  0.15600000  0.65000000  1.0 -0.4341646384
O  O3742  1  0.59400000  0.85000000  0.40600000  1.0 -0.4394637192
O  O3743  1  0.65000000  0.90600000  0.59400000  1.0 -0.4394637192
O  O3744  1  0.65600000  0.85000000  0.34400000  1.0 -0.4394637192
O  O3745  1  0.60000000  0.84400000  0.09400000  1.0 -0.4394637192
O  O3746  1  0.59400000  0.90000000  0.84400000  1.0 -0.4341646384
O  O3747  1  0.34400000  0.15000000  0.65600000  1.0 -0.4341646384
O  O3748  1  0.85000000  0.09400000  0.90600000  1.0 -0.4341646384
O  O3749  1  0.90000000  0.09400000  0.34400000  1.0 -0.4341646384
O  O3750  1  0.84400000  0.10000000  0.59400000  1.0 -0.4341646384
O  O3751  1  0.35000000  0.15600000  0.34400000  1.0 -0.4341646384
O  O3752  1  0.40600000  0.15000000  0.59400000  1.0 -0.4341646384
O  O3753  1  0.90600000  0.10000000  0.65600000  1.0 -0.4341646384
O  O3754  1  0.34400000  0.34400000  0.85000000  1.0 -0.4341646384
O  O3755  1  0.65600000  0.09400000  0.10000000  1.0 -0.4394637192
O  O3756  1  0.34400000  0.40600000  0.40000000  1.0 -0.4394637192
O  O3757  1  0.65000000  0.34400000  0.15600000  1.0 -0.4394637192
O  O3758  1  0.90600000  0.40600000  0.35000000  1.0 -0.4394637192
O  O3759  1  0.59400000  0.09400000  0.65000000  1.0 -0.4341646384
O  O3760  1  0.65600000  0.40000000  0.40600000  1.0 -0.4394637192
O  O3761  1  0.59400000  0.65600000  0.60000000  1.0 -0.4394637192
O  O3762  1  0.90600000  0.34400000  0.90000000  1.0 -0.4341646384
O  O3763  1  0.60000000  0.40600000  0.65600000  1.0 -0.4341646384
O  O3764  1  0.65600000  0.65600000  0.15000000  1.0 -0.4394637192
O  O3765  1  0.59400000  0.35000000  0.90600000  1.0 -0.4341646384
O  O3766  1  0.65000000  0.40600000  0.09400000  1.0 -0.4394637192
O  O3767  1  0.65600000  0.35000000  0.84400000  1.0 -0.4341646384
O  O3768  1  0.60000000  0.34400000  0.59400000  1.0 -0.4341646384
O  O3769  1  0.59400000  0.40000000  0.34400000  1.0 -0.4394637192
O  O3770  1  0.34400000  0.65000000  0.15600000  1.0 -0.4394637192
O  O3771  1  0.85000000  0.59400000  0.40600000  1.0 -0.4394637192
O  O3772  1  0.90000000  0.59400000  0.84400000  1.0 -0.4341646384
O  O3773  1  0.84400000  0.60000000  0.09400000  1.0 -0.4394637192
O  O3774  1  0.35000000  0.65600000  0.84400000  1.0 -0.4341646384
O  O3775  1  0.40600000  0.65000000  0.09400000  1.0 -0.4394637192
O  O3776  1  0.90600000  0.60000000  0.15600000  1.0 -0.4394637192
O  O3777  1  0.83560000  0.91440000  0.97660000  1.0 0.8833846005
O  O3778  1  0.08560000  0.58560000  0.22660000  1.0 0.8833846005
O  O3779  1  0.83560000  0.83560000  0.27340000  1.0 0.8833846005
O  O3780  1  0.02340000  0.83560000  0.08560000  1.0 0.8833846005
O  O3781  1  0.41440000  0.83560000  0.47660000  1.0 0.8833846005
O  O3782  1  0.16440000  0.58560000  0.52340000  1.0 0.8833846005
O  O3783  1  0.16440000  0.77340000  0.33560000  1.0 0.8833846005
O  O3784  1  0.16440000  0.16440000  0.72660000  1.0 0.8833846005
O  O3785  1  0.41440000  0.91440000  0.77340000  1.0 0.8833846005
O  O3786  1  0.22660000  0.91440000  0.58560000  1.0 0.8833846005
O  O3787  1  0.08560000  0.16440000  0.02340000  1.0 0.8833846005
O  O3788  1  0.08560000  0.97660000  0.83560000  1.0 0.8833846005
O  O3789  1  0.02340000  0.91440000  0.16440000  1.0 0.8833846005
O  O3790  1  0.16440000  0.97660000  0.91440000  1.0 0.8833846005
O  O3791  1  0.22660000  0.83560000  0.66440000  1.0 0.8833846005
O  O3792  1  0.08560000  0.77340000  0.41440000  1.0 0.8833846005
O  O3793  1  0.91440000  0.02340000  0.16440000  1.0 0.8860873388
O  O3794  1  0.27340000  0.08560000  0.91440000  1.0 0.8833846005
O  O3795  1  0.47660000  0.16440000  0.41440000  1.0 0.8833846005
O  O3796  1  0.27340000  0.16440000  0.83560000  1.0 0.8833846005
O  O3797  1  0.41440000  0.22660000  0.08560000  1.0 0.8833846005
O  O3798  1  0.97660000  0.08560000  0.83560000  1.0 0.8833846005
O  O3799  1  0.83560000  0.02340000  0.08560000  1.0 0.8860873388
O  O3800  1  0.33560000  0.22660000  0.16440000  1.0 0.8833846005
O  O3801  1  0.77340000  0.08560000  0.41440000  1.0 0.8833846005
O  O3802  1  0.83560000  0.41440000  0.47660000  1.0 0.8833846005
O  O3803  1  0.08560000  0.08560000  0.72660000  1.0 0.8833846005
O  O3804  1  0.83560000  0.33560000  0.77340000  1.0 0.8833846005
O  O3805  1  0.02340000  0.33560000  0.58560000  1.0 0.8833846005
O  O3806  1  0.41440000  0.33560000  0.97660000  1.0 0.8833846005
O  O3807  1  0.16440000  0.08560000  0.02340000  1.0 0.8860873388
O  O3808  1  0.16440000  0.27340000  0.83560000  1.0 0.8833846005
O  O3809  1  0.16440000  0.66440000  0.22660000  1.0 0.8833846005
O  O3810  1  0.41440000  0.41440000  0.27340000  1.0 0.8833846005
O  O3811  1  0.22660000  0.41440000  0.08560000  1.0 0.8833846005
O  O3812  1  0.08560000  0.66440000  0.52340000  1.0 0.8833846005
O  O3813  1  0.08560000  0.47660000  0.33560000  1.0 0.8833846005
O  O3814  1  0.02340000  0.41440000  0.66440000  1.0 0.8833846005
O  O3815  1  0.16440000  0.47660000  0.41440000  1.0 0.8833846005
O  O3816  1  0.22660000  0.33560000  0.16440000  1.0 0.8833846005
O  O3817  1  0.08560000  0.27340000  0.91440000  1.0 0.8833846005
O  O3818  1  0.91440000  0.52340000  0.66440000  1.0 0.8833846005
O  O3819  1  0.27340000  0.58560000  0.41440000  1.0 0.8833846005
O  O3820  1  0.47660000  0.66440000  0.91440000  1.0 0.8833846005
O  O3821  1  0.27340000  0.66440000  0.33560000  1.0 0.8833846005
O  O3822  1  0.41440000  0.72660000  0.58560000  1.0 0.8833846005
O  O3823  1  0.97660000  0.58560000  0.33560000  1.0 0.8833846005
O  O3824  1  0.83560000  0.52340000  0.58560000  1.0 0.8833846005
O  O3825  1  0.33560000  0.72660000  0.66440000  1.0 0.8833846005
O  O3826  1  0.77340000  0.58560000  0.91440000  1.0 0.8833846005
O  O3827  1  0.33560000  0.91440000  0.47660000  1.0 0.8833846005
O  O3828  1  0.58560000  0.58560000  0.72660000  1.0 0.8833846005
O  O3829  1  0.33560000  0.83560000  0.77340000  1.0 0.8833846005
O  O3830  1  0.52340000  0.83560000  0.58560000  1.0 0.8833846005
O  O3831  1  0.91440000  0.83560000  0.97660000  1.0 0.8833846005
O  O3832  1  0.66440000  0.58560000  0.02340000  1.0 0.8860873388
O  O3833  1  0.66440000  0.77340000  0.83560000  1.0 0.8833846005
O  O3834  1  0.66440000  0.16440000  0.22660000  1.0 0.8833846005
O  O3835  1  0.91440000  0.91440000  0.27340000  1.0 0.8833846005
O  O3836  1  0.72660000  0.91440000  0.08560000  1.0 0.8833846005
O  O3837  1  0.58560000  0.16440000  0.52340000  1.0 0.8833846005
O  O3838  1  0.58560000  0.97660000  0.33560000  1.0 0.8833846005
O  O3839  1  0.52340000  0.91440000  0.66440000  1.0 0.8833846005
O  O3840  1  0.66440000  0.97660000  0.41440000  1.0 0.8833846005
O  O3841  1  0.72660000  0.83560000  0.16440000  1.0 0.8833846005
O  O3842  1  0.58560000  0.77340000  0.91440000  1.0 0.8833846005
O  O3843  1  0.41440000  0.02340000  0.66440000  1.0 0.8833846005
O  O3844  1  0.97660000  0.16440000  0.91440000  1.0 0.8833846005
O  O3845  1  0.77340000  0.16440000  0.33560000  1.0 0.8833846005
O  O3846  1  0.91440000  0.22660000  0.58560000  1.0 0.8833846005
O  O3847  1  0.47660000  0.08560000  0.33560000  1.0 0.8833846005
O  O3848  1  0.33560000  0.02340000  0.58560000  1.0 0.8833846005
O  O3849  1  0.83560000  0.22660000  0.66440000  1.0 0.8833846005
O  O3850  1  0.33560000  0.41440000  0.97660000  1.0 0.8833846005
O  O3851  1  0.58560000  0.08560000  0.22660000  1.0 0.8833846005
O  O3852  1  0.33560000  0.33560000  0.27340000  1.0 0.8833846005
O  O3853  1  0.52340000  0.33560000  0.08560000  1.0 0.8833846005
O  O3854  1  0.91440000  0.33560000  0.47660000  1.0 0.8833846005
O  O3855  1  0.66440000  0.08560000  0.52340000  1.0 0.8833846005
O  O3856  1  0.66440000  0.27340000  0.33560000  1.0 0.8833846005
O  O3857  1  0.66440000  0.66440000  0.72660000  1.0 0.8833846005
O  O3858  1  0.91440000  0.41440000  0.77340000  1.0 0.8833846005
O  O3859  1  0.72660000  0.41440000  0.58560000  1.0 0.8833846005
O  O3860  1  0.58560000  0.66440000  0.02340000  1.0 0.8833846005
O  O3861  1  0.58560000  0.47660000  0.83560000  1.0 0.8833846005
O  O3862  1  0.52340000  0.41440000  0.16440000  1.0 0.8833846005
O  O3863  1  0.66440000  0.47660000  0.91440000  1.0 0.8833846005
O  O3864  1  0.72660000  0.33560000  0.66440000  1.0 0.8833846005
O  O3865  1  0.58560000  0.27340000  0.41440000  1.0 0.8833846005
O  O3866  1  0.41440000  0.52340000  0.16440000  1.0 0.8833846005
O  O3867  1  0.97660000  0.66440000  0.41440000  1.0 0.8833846005
O  O3868  1  0.77340000  0.66440000  0.83560000  1.0 0.8833846005
O  O3869  1  0.91440000  0.72660000  0.08560000  1.0 0.8833846005
O  O3870  1  0.47660000  0.58560000  0.83560000  1.0 0.8833846005
O  O3871  1  0.33560000  0.52340000  0.08560000  1.0 0.8833846005
O  O3872  1  0.83560000  0.72660000  0.16440000  1.0 0.8833846005
O  O3873  1  0.74930000  0.93350000  0.94900000  1.0 -0.3140425725
O  O3874  1  0.06650000  0.49930000  0.19900000  1.0 -0.3163352609
O  O3875  1  0.74930000  0.81650000  0.30100000  1.0 -0.3163352609
O  O3876  1  0.05100000  0.74930000  0.06650000  1.0 -0.3163352609
O  O3877  1  0.50070000  0.81650000  0.44900000  1.0 -0.3163352609
O  O3878  1  0.18350000  0.49930000  0.55100000  1.0 -0.3140425725
O  O3879  1  0.25070000  0.80100000  0.31650000  1.0 -0.3163352609
O  O3880  1  0.18350000  0.25070000  0.69900000  1.0 -0.3140425725
O  O3881  1  0.50070000  0.93350000  0.80100000  1.0 -0.3140425725
O  O3882  1  0.19900000  0.00070000  0.56650000  1.0 -0.3140425725
O  O3883  1  0.06650000  0.25070000  0.05100000  1.0 -0.3163352609
O  O3884  1  0.99930000  0.94900000  0.81650000  1.0 -0.3140425725
O  O3885  1  0.05100000  0.00070000  0.18350000  1.0 -0.3140425725
O  O3886  1  0.25070000  0.94900000  0.93350000  1.0 -0.3140425725
O  O3887  1  0.19900000  0.74930000  0.68350000  1.0 -0.3140425725
O  O3888  1  0.99930000  0.80100000  0.43350000  1.0 -0.3140425725
O  O3889  1  0.93350000  0.05100000  0.25070000  1.0 -0.3163352609
O  O3890  1  0.30100000  0.06650000  0.00070000  1.0 -0.3140425725
O  O3891  1  0.44900000  0.18350000  0.50070000  1.0 -0.3163352609
O  O3892  1  0.30100000  0.18350000  0.74930000  1.0 -0.3140425725
O  O3893  1  0.43350000  0.19900000  0.99930000  1.0 -0.3163352609
O  O3894  1  0.94900000  0.06650000  0.74930000  1.0 -0.3163352609
O  O3895  1  0.81650000  0.05100000  0.99930000  1.0 -0.3163352609
O  O3896  1  0.31650000  0.19900000  0.25070000  1.0 -0.3163352609
O  O3897  1  0.80100000  0.06650000  0.50070000  1.0 -0.3163352609
O  O3898  1  0.74930000  0.43350000  0.44900000  1.0 -0.3163352609
O  O3899  1  0.06650000  0.99930000  0.69900000  1.0 -0.3163352609
O  O3900  1  0.74930000  0.31650000  0.80100000  1.0 -0.3163352609
O  O3901  1  0.05100000  0.24930000  0.56650000  1.0 -0.3140425725
O  O3902  1  0.50070000  0.31650000  0.94900000  1.0 -0.3140425725
O  O3903  1  0.18350000  0.99930000  0.05100000  1.0 -0.3163352609
O  O3904  1  0.25070000  0.30100000  0.81650000  1.0 -0.3140425725
O  O3905  1  0.18350000  0.75070000  0.19900000  1.0 -0.3163352609
O  O3906  1  0.50070000  0.43350000  0.30100000  1.0 -0.3163352609
O  O3907  1  0.19900000  0.50070000  0.06650000  1.0 -0.3163352609
O  O3908  1  0.06650000  0.75070000  0.55100000  1.0 -0.3140425725
O  O3909  1  0.99930000  0.44900000  0.31650000  1.0 -0.3140425725
O  O3910  1  0.05100000  0.50070000  0.68350000  1.0 -0.3140425725
O  O3911  1  0.25070000  0.44900000  0.43350000  1.0 -0.3163352609
O  O3912  1  0.19900000  0.24930000  0.18350000  1.0 -0.3163352609
O  O3913  1  0.99930000  0.30100000  0.93350000  1.0 -0.3140425725
O  O3914  1  0.93350000  0.55100000  0.75070000  1.0 -0.3163352609
O  O3915  1  0.30100000  0.56650000  0.50070000  1.0 -0.3163352609
O  O3916  1  0.44900000  0.68350000  0.00070000  1.0 -0.3140425725
O  O3917  1  0.30100000  0.68350000  0.24930000  1.0 -0.3163352609
O  O3918  1  0.43350000  0.69900000  0.49930000  1.0 -0.3163352609
O  O3919  1  0.94900000  0.56650000  0.24930000  1.0 -0.3163352609
O  O3920  1  0.81650000  0.55100000  0.49930000  1.0 -0.3163352609
O  O3921  1  0.31650000  0.69900000  0.75070000  1.0 -0.3140425725
O  O3922  1  0.80100000  0.56650000  0.00070000  1.0 -0.3140425725
O  O3923  1  0.24930000  0.93350000  0.44900000  1.0 -0.3163352609
O  O3924  1  0.56650000  0.49930000  0.69900000  1.0 -0.3163352609
O  O3925  1  0.24930000  0.81650000  0.80100000  1.0 -0.3140425725
O  O3926  1  0.55100000  0.74930000  0.56650000  1.0 -0.3163352609
O  O3927  1  0.00070000  0.81650000  0.94900000  1.0 -0.3163352609
O  O3928  1  0.68350000  0.49930000  0.05100000  1.0 -0.3163352609
O  O3929  1  0.75070000  0.80100000  0.81650000  1.0 -0.3163352609
O  O3930  1  0.68350000  0.25070000  0.19900000  1.0 -0.3163352609
O  O3931  1  0.00070000  0.93350000  0.30100000  1.0 -0.3163352609
O  O3932  1  0.69900000  0.00070000  0.06650000  1.0 -0.3163352609
O  O3933  1  0.56650000  0.25070000  0.55100000  1.0 -0.3163352609
O  O3934  1  0.49930000  0.94900000  0.31650000  1.0 -0.3163352609
O  O3935  1  0.55100000  0.00070000  0.68350000  1.0 -0.3140425725
O  O3936  1  0.75070000  0.94900000  0.43350000  1.0 -0.3163352609
O  O3937  1  0.69900000  0.74930000  0.18350000  1.0 -0.3163352609
O  O3938  1  0.49930000  0.80100000  0.93350000  1.0 -0.3140425725
O  O3939  1  0.43350000  0.05100000  0.75070000  1.0 -0.3140425725
O  O3940  1  0.94900000  0.18350000  0.00070000  1.0 -0.3163352609
O  O3941  1  0.80100000  0.18350000  0.24930000  1.0 -0.3163352609
O  O3942  1  0.93350000  0.19900000  0.49930000  1.0 -0.3163352609
O  O3943  1  0.44900000  0.06650000  0.24930000  1.0 -0.3163352609
O  O3944  1  0.31650000  0.05100000  0.49930000  1.0 -0.3140425725
O  O3945  1  0.81650000  0.19900000  0.75070000  1.0 -0.3163352609
O  O3946  1  0.24930000  0.43350000  0.94900000  1.0 -0.3140425725
O  O3947  1  0.56650000  0.99930000  0.19900000  1.0 -0.3163352609
O  O3948  1  0.24930000  0.31650000  0.30100000  1.0 -0.3163352609
O  O3949  1  0.55100000  0.24930000  0.06650000  1.0 -0.3163352609
O  O3950  1  0.00070000  0.31650000  0.44900000  1.0 -0.3163352609
O  O3951  1  0.68350000  0.99930000  0.55100000  1.0 -0.3163352609
O  O3952  1  0.75070000  0.30100000  0.31650000  1.0 -0.3163352609
O  O3953  1  0.68350000  0.75070000  0.69900000  1.0 -0.3163352609
O  O3954  1  0.00070000  0.43350000  0.80100000  1.0 -0.3163352609
O  O3955  1  0.69900000  0.50070000  0.56650000  1.0 -0.3163352609
O  O3956  1  0.56650000  0.75070000  0.05100000  1.0 -0.3163352609
O  O3957  1  0.49930000  0.44900000  0.81650000  1.0 -0.3140425725
O  O3958  1  0.55100000  0.50070000  0.18350000  1.0 -0.3163352609
O  O3959  1  0.75070000  0.44900000  0.93350000  1.0 -0.3140425725
O  O3960  1  0.69900000  0.24930000  0.68350000  1.0 -0.3163352609
O  O3961  1  0.49930000  0.30100000  0.43350000  1.0 -0.3163352609
O  O3962  1  0.43350000  0.55100000  0.25070000  1.0 -0.3163352609
O  O3963  1  0.94900000  0.68350000  0.50070000  1.0 -0.3163352609
O  O3964  1  0.80100000  0.68350000  0.74930000  1.0 -0.3163352609
O  O3965  1  0.93350000  0.69900000  0.99930000  1.0 -0.3163352609
O  O3966  1  0.44900000  0.56650000  0.74930000  1.0 -0.3140425725
O  O3967  1  0.31650000  0.55100000  0.99930000  1.0 -0.3163352609
O  O3968  1  0.81650000  0.69900000  0.25070000  1.0 -0.3163352609
O  O3969  1  0.25070000  0.06650000  0.05100000  1.0 -0.3163352609
O  O3970  1  0.93350000  0.50070000  0.80100000  1.0 -0.3163352609
O  O3971  1  0.25070000  0.18350000  0.69900000  1.0 -0.3140425725
O  O3972  1  0.94900000  0.25070000  0.93350000  1.0 -0.3163352609
O  O3973  1  0.49930000  0.18350000  0.55100000  1.0 -0.3163352609
O  O3974  1  0.81650000  0.50070000  0.44900000  1.0 -0.3163352609
O  O3975  1  0.74930000  0.19900000  0.68350000  1.0 -0.3163352609
O  O3976  1  0.81650000  0.74930000  0.30100000  1.0 -0.3163352609
O  O3977  1  0.49930000  0.06650000  0.19900000  1.0 -0.3163352609
O  O3978  1  0.80100000  0.99930000  0.43350000  1.0 -0.3163352609
O  O3979  1  0.93350000  0.74930000  0.94900000  1.0 -0.3163352609
O  O3980  1  0.00070000  0.05100000  0.18350000  1.0 -0.3163352609
O  O3981  1  0.94900000  0.99930000  0.81650000  1.0 -0.3163352609
O  O3982  1  0.74930000  0.05100000  0.06650000  1.0 -0.3163352609
O  O3983  1  0.80100000  0.25070000  0.31650000  1.0 -0.3163352609
O  O3984  1  0.00070000  0.19900000  0.56650000  1.0 -0.3163352609
O  O3985  1  0.06650000  0.94900000  0.74930000  1.0 -0.3140425725
O  O3986  1  0.69900000  0.93350000  0.99930000  1.0 -0.3163352609
O  O3987  1  0.55100000  0.81650000  0.49930000  1.0 -0.3163352609
O  O3988  1  0.69900000  0.81650000  0.25070000  1.0 -0.3163352609
O  O3989  1  0.56650000  0.80100000  0.00070000  1.0 -0.3140425725
O  O3990  1  0.05100000  0.93350000  0.25070000  1.0 -0.3140425725
O  O3991  1  0.18350000  0.94900000  0.00070000  1.0 -0.3140425725
O  O3992  1  0.68350000  0.80100000  0.74930000  1.0 -0.3163352609
O  O3993  1  0.19900000  0.93350000  0.49930000  1.0 -0.3140425725
O  O3994  1  0.25070000  0.56650000  0.55100000  1.0 -0.3163352609
O  O3995  1  0.93350000  0.00070000  0.30100000  1.0 -0.3163352609
O  O3996  1  0.25070000  0.68350000  0.19900000  1.0 -0.3163352609
O  O3997  1  0.94900000  0.75070000  0.43350000  1.0 -0.3163352609
O  O3998  1  0.49930000  0.68350000  0.05100000  1.0 -0.3163352609
O  O3999  1  0.81650000  0.00070000  0.94900000  1.0 -0.3140425725
O  O4000  1  0.74930000  0.69900000  0.18350000  1.0 -0.3163352609
O  O4001  1  0.81650000  0.24930000  0.80100000  1.0 -0.3163352609
O  O4002  1  0.49930000  0.56650000  0.69900000  1.0 -0.3163352609
O  O4003  1  0.80100000  0.49930000  0.93350000  1.0 -0.3163352609
O  O4004  1  0.93350000  0.24930000  0.44900000  1.0 -0.3163352609
O  O4005  1  0.00070000  0.55100000  0.68350000  1.0 -0.3163352609
O  O4006  1  0.94900000  0.49930000  0.31650000  1.0 -0.3163352609
O  O4007  1  0.74930000  0.55100000  0.56650000  1.0 -0.3163352609
O  O4008  1  0.80100000  0.75070000  0.81650000  1.0 -0.3163352609
O  O4009  1  0.00070000  0.69900000  0.06650000  1.0 -0.3163352609
O  O4010  1  0.06650000  0.44900000  0.24930000  1.0 -0.3163352609
O  O4011  1  0.69900000  0.43350000  0.49930000  1.0 -0.3163352609
O  O4012  1  0.55100000  0.31650000  0.99930000  1.0 -0.3163352609
O  O4013  1  0.69900000  0.31650000  0.75070000  1.0 -0.3163352609
O  O4014  1  0.56650000  0.30100000  0.50070000  1.0 -0.3163352609
O  O4015  1  0.05100000  0.43350000  0.75070000  1.0 -0.3140425725
O  O4016  1  0.18350000  0.44900000  0.50070000  1.0 -0.3163352609
O  O4017  1  0.68350000  0.30100000  0.24930000  1.0 -0.3163352609
O  O4018  1  0.19900000  0.43350000  0.99930000  1.0 -0.3163352609
O  O4019  1  0.75070000  0.06650000  0.55100000  1.0 -0.3163352609
O  O4020  1  0.43350000  0.50070000  0.30100000  1.0 -0.3163352609
O  O4021  1  0.75070000  0.18350000  0.19900000  1.0 -0.3163352609
O  O4022  1  0.44900000  0.25070000  0.43350000  1.0 -0.3163352609
O  O4023  1  0.99930000  0.18350000  0.05100000  1.0 -0.3163352609
O  O4024  1  0.31650000  0.50070000  0.94900000  1.0 -0.3140425725
O  O4025  1  0.24930000  0.19900000  0.18350000  1.0 -0.3163352609
O  O4026  1  0.31650000  0.74930000  0.80100000  1.0 -0.3140425725
O  O4027  1  0.99930000  0.06650000  0.69900000  1.0 -0.3140425725
O  O4028  1  0.30100000  0.99930000  0.93350000  1.0 -0.3163352609
O  O4029  1  0.43350000  0.74930000  0.44900000  1.0 -0.3163352609
O  O4030  1  0.50070000  0.05100000  0.68350000  1.0 -0.3140425725
O  O4031  1  0.44900000  0.99930000  0.31650000  1.0 -0.3163352609
O  O4032  1  0.24930000  0.05100000  0.56650000  1.0 -0.3140425725
O  O4033  1  0.30100000  0.25070000  0.81650000  1.0 -0.3140425725
O  O4034  1  0.50070000  0.19900000  0.06650000  1.0 -0.3163352609
O  O4035  1  0.56650000  0.94900000  0.24930000  1.0 -0.3163352609
O  O4036  1  0.05100000  0.81650000  0.99930000  1.0 -0.3163352609
O  O4037  1  0.19900000  0.81650000  0.75070000  1.0 -0.3140425725
O  O4038  1  0.06650000  0.80100000  0.50070000  1.0 -0.3140425725
O  O4039  1  0.55100000  0.93350000  0.75070000  1.0 -0.3163352609
O  O4040  1  0.68350000  0.94900000  0.50070000  1.0 -0.3163352609
O  O4041  1  0.18350000  0.80100000  0.24930000  1.0 -0.3163352609
O  O4042  1  0.75070000  0.56650000  0.05100000  1.0 -0.3163352609
O  O4043  1  0.43350000  0.00070000  0.80100000  1.0 -0.3140425725
O  O4044  1  0.75070000  0.68350000  0.69900000  1.0 -0.3163352609
O  O4045  1  0.44900000  0.75070000  0.93350000  1.0 -0.3140425725
O  O4046  1  0.99930000  0.68350000  0.55100000  1.0 -0.3140425725
O  O4047  1  0.31650000  0.00070000  0.44900000  1.0 -0.3140425725
O  O4048  1  0.24930000  0.69900000  0.68350000  1.0 -0.3140425725
O  O4049  1  0.31650000  0.24930000  0.30100000  1.0 -0.3163352609
O  O4050  1  0.99930000  0.56650000  0.19900000  1.0 -0.3163352609
O  O4051  1  0.30100000  0.49930000  0.43350000  1.0 -0.3163352609
O  O4052  1  0.43350000  0.24930000  0.94900000  1.0 -0.3140425725
O  O4053  1  0.50070000  0.55100000  0.18350000  1.0 -0.3163352609
O  O4054  1  0.44900000  0.49930000  0.81650000  1.0 -0.3140425725
O  O4055  1  0.24930000  0.55100000  0.06650000  1.0 -0.3163352609
O  O4056  1  0.30100000  0.75070000  0.31650000  1.0 -0.3163352609
O  O4057  1  0.50070000  0.69900000  0.56650000  1.0 -0.3163352609
O  O4058  1  0.56650000  0.44900000  0.74930000  1.0 -0.3163352609
O  O4059  1  0.05100000  0.31650000  0.49930000  1.0 -0.3140425725
O  O4060  1  0.19900000  0.31650000  0.25070000  1.0 -0.3163352609
O  O4061  1  0.06650000  0.30100000  0.00070000  1.0 -0.3140425725
O  O4062  1  0.55100000  0.43350000  0.25070000  1.0 -0.3163352609
O  O4063  1  0.68350000  0.44900000  0.00070000  1.0 -0.3140425725
O  O4064  1  0.18350000  0.30100000  0.74930000  1.0 -0.3140425725
O  O4065  1  0.94260000  0.75000000  0.80720000  1.0 -0.2767822413
O  O4066  1  0.25000000  0.69260000  0.05720000  1.0 -0.2767822413
O  O4067  1  0.94260000  0.00000000  0.44280000  1.0 -0.2767822413
O  O4068  1  0.19280000  0.94260000  0.25000000  1.0 -0.2767822413
O  O4069  1  0.30740000  0.00000000  0.30720000  1.0 -0.2767822413
O  O4070  1  0.00000000  0.69260000  0.69280000  1.0 -0.2735910541
O  O4071  1  0.05740000  0.94280000  0.50000000  1.0 -0.2767822413
O  O4072  1  0.00000000  0.05740000  0.55720000  1.0 -0.2735910541
O  O4073  1  0.30740000  0.75000000  0.94280000  1.0 -0.2767822413
O  O4074  1  0.05720000  0.80740000  0.75000000  1.0 -0.2767822413
O  O4075  1  0.25000000  0.05740000  0.19280000  1.0 -0.2767822413
O  O4076  1  0.19260000  0.80720000  0.00000000  1.0 -0.2767822413
O  O4077  1  0.75000000  0.19280000  0.05740000  1.0 -0.2767822413
O  O4078  1  0.44280000  0.25000000  0.80740000  1.0 -0.2767822413
O  O4079  1  0.44280000  0.00000000  0.94260000  1.0 -0.2735910541
O  O4080  1  0.80720000  0.25000000  0.94260000  1.0 -0.2767822413
O  O4081  1  0.00000000  0.19280000  0.19260000  1.0 -0.2735910541
O  O4082  1  0.50000000  0.05720000  0.05740000  1.0 -0.2767822413
O  O4083  1  0.94280000  0.25000000  0.30740000  1.0 -0.2767822413
O  O4084  1  0.25000000  0.19260000  0.55720000  1.0 -0.2767822413
O  O4085  1  0.94260000  0.50000000  0.94280000  1.0 -0.2767822413
O  O4086  1  0.19280000  0.44260000  0.75000000  1.0 -0.2767822413
O  O4087  1  0.30740000  0.50000000  0.80720000  1.0 -0.2767822413
O  O4088  1  0.05740000  0.44280000  0.00000000  1.0 -0.2767822413
O  O4089  1  0.00000000  0.55740000  0.05720000  1.0 -0.2767822413
O  O4090  1  0.30740000  0.25000000  0.44280000  1.0 -0.2767822413
O  O4091  1  0.05720000  0.30740000  0.25000000  1.0 -0.2767822413
O  O4092  1  0.25000000  0.55740000  0.69280000  1.0 -0.2767822413
O  O4093  1  0.19260000  0.30720000  0.50000000  1.0 -0.2767822413
O  O4094  1  0.75000000  0.69280000  0.55740000  1.0 -0.2767822413
O  O4095  1  0.44280000  0.75000000  0.30740000  1.0 -0.2767822413
O  O4096  1  0.44280000  0.50000000  0.44260000  1.0 -0.2767822413
O  O4097  1  0.80720000  0.75000000  0.44260000  1.0 -0.2767822413
O  O4098  1  0.50000000  0.55720000  0.55740000  1.0 -0.2767822413
O  O4099  1  0.69280000  0.94260000  0.75000000  1.0 -0.2767822413
O  O4100  1  0.80740000  0.00000000  0.80720000  1.0 -0.2735910541
O  O4101  1  0.50000000  0.69260000  0.19280000  1.0 -0.2767822413
O  O4102  1  0.55740000  0.94280000  0.00000000  1.0 -0.2767822413
O  O4103  1  0.55720000  0.80740000  0.25000000  1.0 -0.2767822413
O  O4104  1  0.75000000  0.05740000  0.69280000  1.0 -0.2767822413
O  O4105  1  0.69260000  0.80720000  0.50000000  1.0 -0.2767822413
O  O4106  1  0.50000000  0.19280000  0.69260000  1.0 -0.2767822413
O  O4107  1  0.69280000  0.44260000  0.25000000  1.0 -0.2767822413
O  O4108  1  0.80740000  0.50000000  0.30720000  1.0 -0.2767822413
O  O4109  1  0.55740000  0.44280000  0.50000000  1.0 -0.2767822413
O  O4110  1  0.55720000  0.30740000  0.75000000  1.0 -0.2767822413
O  O4111  1  0.75000000  0.55740000  0.19280000  1.0 -0.2767822413
O  O4112  1  0.69260000  0.30720000  0.00000000  1.0 -0.2767822413
O  O4113  1  0.05740000  0.25000000  0.19280000  1.0 -0.2767822413
O  O4114  1  0.75000000  0.30740000  0.94280000  1.0 -0.2767822413
O  O4115  1  0.05740000  0.00000000  0.55720000  1.0 -0.2735910541
O  O4116  1  0.80720000  0.05740000  0.75000000  1.0 -0.2767822413
O  O4117  1  0.69260000  0.00000000  0.69280000  1.0 -0.2767822413
O  O4118  1  0.00000000  0.30740000  0.30720000  1.0 -0.2735910541
O  O4119  1  0.94260000  0.05720000  0.50000000  1.0 -0.2767822413
O  O4120  1  0.00000000  0.94260000  0.44280000  1.0 -0.2767822413
O  O4121  1  0.69260000  0.25000000  0.05720000  1.0 -0.2767822413
O  O4122  1  0.94280000  0.19260000  0.25000000  1.0 -0.2767822413
O  O4123  1  0.75000000  0.94260000  0.80720000  1.0 -0.2767822413
O  O4124  1  0.80740000  0.19280000  0.00000000  1.0 -0.2767822413
O  O4125  1  0.25000000  0.80720000  0.94260000  1.0 -0.2767822413
O  O4126  1  0.55720000  0.75000000  0.19260000  1.0 -0.2767822413
O  O4127  1  0.55720000  0.00000000  0.05740000  1.0 -0.2767822413
O  O4128  1  0.19280000  0.75000000  0.05740000  1.0 -0.2767822413
O  O4129  1  0.00000000  0.80720000  0.80740000  1.0 -0.2735910541
O  O4130  1  0.50000000  0.94280000  0.94260000  1.0 -0.2767822413
O  O4131  1  0.05720000  0.75000000  0.69260000  1.0 -0.2767822413
O  O4132  1  0.75000000  0.80740000  0.44280000  1.0 -0.2767822413
O  O4133  1  0.05740000  0.50000000  0.05720000  1.0 -0.2767822413
O  O4134  1  0.80720000  0.55740000  0.25000000  1.0 -0.2767822413
O  O4135  1  0.69260000  0.50000000  0.19280000  1.0 -0.2767822413
O  O4136  1  0.94260000  0.55720000  0.00000000  1.0 -0.2767822413
O  O4137  1  0.00000000  0.44260000  0.94280000  1.0 -0.2735910541
O  O4138  1  0.69260000  0.75000000  0.55720000  1.0 -0.2767822413
O  O4139  1  0.94280000  0.69260000  0.75000000  1.0 -0.2767822413
O  O4140  1  0.75000000  0.44260000  0.30720000  1.0 -0.2767822413
O  O4141  1  0.80740000  0.69280000  0.50000000  1.0 -0.2767822413
O  O4142  1  0.25000000  0.30720000  0.44260000  1.0 -0.2767822413
O  O4143  1  0.55720000  0.25000000  0.69260000  1.0 -0.2767822413
O  O4144  1  0.55720000  0.50000000  0.55740000  1.0 -0.2767822413
O  O4145  1  0.19280000  0.25000000  0.55740000  1.0 -0.2767822413
O  O4146  1  0.50000000  0.44280000  0.44260000  1.0 -0.2767822413
O  O4147  1  0.30720000  0.05740000  0.25000000  1.0 -0.2767822413
O  O4148  1  0.19260000  0.00000000  0.19280000  1.0 -0.2767822413
O  O4149  1  0.50000000  0.30740000  0.80720000  1.0 -0.2767822413
O  O4150  1  0.44260000  0.05720000  0.00000000  1.0 -0.2767822413
O  O4151  1  0.44280000  0.19260000  0.75000000  1.0 -0.2767822413
O  O4152  1  0.25000000  0.94260000  0.30720000  1.0 -0.2767822413
O  O4153  1  0.30740000  0.19280000  0.50000000  1.0 -0.2767822413
O  O4154  1  0.50000000  0.80720000  0.30740000  1.0 -0.2767822413
O  O4155  1  0.30720000  0.55740000  0.75000000  1.0 -0.2767822413
O  O4156  1  0.19260000  0.50000000  0.69280000  1.0 -0.2767822413
O  O4157  1  0.44260000  0.55720000  0.50000000  1.0 -0.2767822413
O  O4158  1  0.44280000  0.69260000  0.25000000  1.0 -0.2767822413
O  O4159  1  0.25000000  0.44260000  0.80720000  1.0 -0.2767822413
O  O4160  1  0.30740000  0.69280000  0.00000000  1.0 -0.2767822413
O  O4161  1  0.91370000  0.72550000  0.89110000  1.0 -0.1193160579
O  O4162  1  0.27450000  0.66370000  0.14110000  1.0 -0.1193160579
O  O4163  1  0.91370000  0.02450000  0.35890000  1.0 -0.1193160579
O  O4164  1  0.10890000  0.91370000  0.27450000  1.0 -0.1193160579
O  O4165  1  0.33630000  0.02450000  0.39110000  1.0 -0.1193160579
O  O4166  1  0.97550000  0.66370000  0.60890000  1.0 -0.1193160579
O  O4167  1  0.08630000  0.85890000  0.52450000  1.0 -0.1193160579
O  O4168  1  0.97550000  0.08630000  0.64110000  1.0 -0.1193160579
O  O4169  1  0.33630000  0.72550000  0.85890000  1.0 -0.1193160579
O  O4170  1  0.14110000  0.83630000  0.77450000  1.0 -0.1193160579
O  O4171  1  0.27450000  0.08630000  0.10890000  1.0 -0.1193160579
O  O4172  1  0.16370000  0.89110000  0.02450000  1.0 -0.1193160579
O  O4173  1  0.10890000  0.83630000  0.97550000  1.0 -0.1193160579
O  O4174  1  0.08630000  0.89110000  0.72550000  1.0 -0.1116419026
O  O4175  1  0.14110000  0.91370000  0.47550000  1.0 -0.1193160579
O  O4176  1  0.16370000  0.85890000  0.22550000  1.0 -0.1193160579
O  O4177  1  0.72550000  0.10890000  0.08630000  1.0 -0.1193160579
O  O4178  1  0.35890000  0.27450000  0.83630000  1.0 -0.1193160579
O  O4179  1  0.39110000  0.97550000  0.33630000  1.0 -0.1193160579
O  O4180  1  0.35890000  0.97550000  0.91370000  1.0 -0.1193160579
O  O4181  1  0.22550000  0.14110000  0.16370000  1.0 -0.1193160579
O  O4182  1  0.89110000  0.27450000  0.91370000  1.0 -0.1193160579
O  O4183  1  0.02450000  0.10890000  0.16370000  1.0 -0.1193160579
O  O4184  1  0.52450000  0.14110000  0.08630000  1.0 -0.1193160579
O  O4185  1  0.85890000  0.27450000  0.33630000  1.0 -0.1193160579
O  O4186  1  0.91370000  0.22550000  0.39110000  1.0 -0.1193160579
O  O4187  1  0.27450000  0.16370000  0.64110000  1.0 -0.1193160579
O  O4188  1  0.91370000  0.52450000  0.85890000  1.0 -0.1193160579
O  O4189  1  0.10890000  0.41370000  0.77450000  1.0 -0.1193160579
O  O4190  1  0.33630000  0.52450000  0.89110000  1.0 -0.1193160579
O  O4191  1  0.97550000  0.16370000  0.10890000  1.0 -0.1193160579
O  O4192  1  0.08630000  0.35890000  0.02450000  1.0 -0.1193160579
O  O4193  1  0.97550000  0.58630000  0.14110000  1.0 -0.1193160579
O  O4194  1  0.33630000  0.22550000  0.35890000  1.0 -0.1193160579
O  O4195  1  0.14110000  0.33630000  0.27450000  1.0 -0.1193160579
O  O4196  1  0.27450000  0.58630000  0.60890000  1.0 -0.1193160579
O  O4197  1  0.16370000  0.39110000  0.52450000  1.0 -0.1193160579
O  O4198  1  0.10890000  0.33630000  0.47550000  1.0 -0.1193160579
O  O4199  1  0.08630000  0.39110000  0.22550000  1.0 -0.1193160579
O  O4200  1  0.14110000  0.41370000  0.97550000  1.0 -0.1193160579
O  O4201  1  0.16370000  0.35890000  0.72550000  1.0 -0.1193160579
O  O4202  1  0.72550000  0.60890000  0.58630000  1.0 -0.1193160579
O  O4203  1  0.35890000  0.77450000  0.33630000  1.0 -0.1193160579
O  O4204  1  0.39110000  0.47550000  0.83630000  1.0 -0.1193160579
O  O4205  1  0.35890000  0.47550000  0.41370000  1.0 -0.1193160579
O  O4206  1  0.22550000  0.64110000  0.66370000  1.0 -0.1193160579
O  O4207  1  0.89110000  0.77450000  0.41370000  1.0 -0.1193160579
O  O4208  1  0.02450000  0.60890000  0.66370000  1.0 -0.1116419026
O  O4209  1  0.52450000  0.64110000  0.58630000  1.0 -0.1193160579
O  O4210  1  0.85890000  0.77450000  0.83630000  1.0 -0.1193160579
O  O4211  1  0.41370000  0.72550000  0.39110000  1.0 -0.1193160579
O  O4212  1  0.77450000  0.66370000  0.64110000  1.0 -0.1193160579
O  O4213  1  0.41370000  0.02450000  0.85890000  1.0 -0.1193160579
O  O4214  1  0.60890000  0.91370000  0.77450000  1.0 -0.1193160579
O  O4215  1  0.83630000  0.02450000  0.89110000  1.0 -0.1193160579
O  O4216  1  0.47550000  0.66370000  0.10890000  1.0 -0.1193160579
O  O4217  1  0.58630000  0.85890000  0.02450000  1.0 -0.1193160579
O  O4218  1  0.47550000  0.08630000  0.14110000  1.0 -0.1193160579
O  O4219  1  0.83630000  0.72550000  0.35890000  1.0 -0.1193160579
O  O4220  1  0.64110000  0.83630000  0.27450000  1.0 -0.1193160579
O  O4221  1  0.77450000  0.08630000  0.60890000  1.0 -0.1193160579
O  O4222  1  0.66370000  0.89110000  0.52450000  1.0 -0.1193160579
O  O4223  1  0.60890000  0.83630000  0.47550000  1.0 -0.1193160579
O  O4224  1  0.58630000  0.89110000  0.22550000  1.0 -0.1193160579
O  O4225  1  0.64110000  0.91370000  0.97550000  1.0 -0.1193160579
O  O4226  1  0.66370000  0.85890000  0.72550000  1.0 -0.1193160579
O  O4227  1  0.22550000  0.10890000  0.58630000  1.0 -0.1193160579
O  O4228  1  0.89110000  0.97550000  0.83630000  1.0 -0.1193160579
O  O4229  1  0.85890000  0.97550000  0.41370000  1.0 -0.1193160579
O  O4230  1  0.72550000  0.14110000  0.66370000  1.0 -0.1193160579
O  O4231  1  0.39110000  0.27450000  0.41370000  1.0 -0.1193160579
O  O4232  1  0.52450000  0.10890000  0.66370000  1.0 -0.1193160579
O  O4233  1  0.02450000  0.14110000  0.58630000  1.0 -0.1116419026
O  O4234  1  0.41370000  0.22550000  0.89110000  1.0 -0.1193160579
O  O4235  1  0.77450000  0.16370000  0.14110000  1.0 -0.1193160579
O  O4236  1  0.41370000  0.52450000  0.35890000  1.0 -0.1193160579
O  O4237  1  0.60890000  0.41370000  0.27450000  1.0 -0.1193160579
O  O4238  1  0.83630000  0.52450000  0.39110000  1.0 -0.1193160579
O  O4239  1  0.47550000  0.16370000  0.60890000  1.0 -0.1193160579
O  O4240  1  0.58630000  0.35890000  0.52450000  1.0 -0.1193160579
O  O4241  1  0.47550000  0.58630000  0.64110000  1.0 -0.1193160579
O  O4242  1  0.83630000  0.22550000  0.85890000  1.0 -0.1193160579
O  O4243  1  0.64110000  0.33630000  0.77450000  1.0 -0.1193160579
O  O4244  1  0.77450000  0.58630000  0.10890000  1.0 -0.1193160579
O  O4245  1  0.66370000  0.39110000  0.02450000  1.0 -0.1193160579
O  O4246  1  0.60890000  0.33630000  0.97550000  1.0 -0.1193160579
O  O4247  1  0.58630000  0.39110000  0.72550000  1.0 -0.1193160579
O  O4248  1  0.64110000  0.41370000  0.47550000  1.0 -0.1193160579
O  O4249  1  0.66370000  0.35890000  0.22550000  1.0 -0.1193160579
O  O4250  1  0.22550000  0.60890000  0.08630000  1.0 -0.1193160579
O  O4251  1  0.89110000  0.47550000  0.33630000  1.0 -0.1193160579
O  O4252  1  0.85890000  0.47550000  0.91370000  1.0 -0.1193160579
O  O4253  1  0.72550000  0.64110000  0.16370000  1.0 -0.1193160579
O  O4254  1  0.39110000  0.77450000  0.91370000  1.0 -0.1193160579
O  O4255  1  0.52450000  0.60890000  0.16370000  1.0 -0.1193160579
O  O4256  1  0.02450000  0.64110000  0.08630000  1.0 -0.1193160579
O  O4257  1  0.08630000  0.27450000  0.10890000  1.0 -0.1193160579
O  O4258  1  0.72550000  0.33630000  0.85890000  1.0 -0.1193160579
O  O4259  1  0.08630000  0.97550000  0.64110000  1.0 -0.1193160579
O  O4260  1  0.89110000  0.08630000  0.72550000  1.0 -0.1193160579
O  O4261  1  0.66370000  0.97550000  0.60890000  1.0 -0.1193160579
O  O4262  1  0.02450000  0.33630000  0.39110000  1.0 -0.1193160579
O  O4263  1  0.91370000  0.14110000  0.47550000  1.0 -0.1193160579
O  O4264  1  0.02450000  0.91370000  0.35890000  1.0 -0.1116419026
O  O4265  1  0.66370000  0.27450000  0.14110000  1.0 -0.1193160579
O  O4266  1  0.85890000  0.16370000  0.22550000  1.0 -0.1193160579
O  O4267  1  0.72550000  0.91370000  0.89110000  1.0 -0.1193160579
O  O4268  1  0.83630000  0.10890000  0.97550000  1.0 -0.1193160579
O  O4269  1  0.89110000  0.16370000  0.02450000  1.0 -0.1193160579
O  O4270  1  0.91370000  0.10890000  0.27450000  1.0 -0.1193160579
O  O4271  1  0.85890000  0.08630000  0.52450000  1.0 -0.1193160579
O  O4272  1  0.83630000  0.14110000  0.77450000  1.0 -0.1193160579
O  O4273  1  0.27450000  0.89110000  0.91370000  1.0 -0.1193160579
O  O4274  1  0.64110000  0.72550000  0.16370000  1.0 -0.1193160579
O  O4275  1  0.60890000  0.02450000  0.66370000  1.0 -0.1193160579
O  O4276  1  0.64110000  0.02450000  0.08630000  1.0 -0.1193160579
O  O4277  1  0.77450000  0.85890000  0.83630000  1.0 -0.1193160579
O  O4278  1  0.10890000  0.72550000  0.08630000  1.0 -0.1193160579
O  O4279  1  0.97550000  0.89110000  0.83630000  1.0 -0.1193160579
O  O4280  1  0.47550000  0.85890000  0.91370000  1.0 -0.1193160579
O  O4281  1  0.14110000  0.72550000  0.66370000  1.0 -0.1193160579
O  O4282  1  0.08630000  0.77450000  0.60890000  1.0 -0.1193160579
O  O4283  1  0.72550000  0.83630000  0.35890000  1.0 -0.1193160579
O  O4284  1  0.08630000  0.47550000  0.14110000  1.0 -0.1193160579
O  O4285  1  0.89110000  0.58630000  0.22550000  1.0 -0.1193160579
O  O4286  1  0.66370000  0.47550000  0.10890000  1.0 -0.1193160579
O  O4287  1  0.02450000  0.83630000  0.89110000  1.0 -0.1116419026
O  O4288  1  0.91370000  0.64110000  0.97550000  1.0 -0.1193160579
O  O4289  1  0.02450000  0.41370000  0.85890000  1.0 -0.1116419026
O  O4290  1  0.66370000  0.77450000  0.64110000  1.0 -0.1193160579
O  O4291  1  0.85890000  0.66370000  0.72550000  1.0 -0.1193160579
O  O4292  1  0.72550000  0.41370000  0.39110000  1.0 -0.1193160579
O  O4293  1  0.83630000  0.60890000  0.47550000  1.0 -0.1193160579
O  O4294  1  0.89110000  0.66370000  0.52450000  1.0 -0.1193160579
O  O4295  1  0.91370000  0.60890000  0.77450000  1.0 -0.1193160579
O  O4296  1  0.85890000  0.58630000  0.02450000  1.0 -0.1193160579
O  O4297  1  0.83630000  0.64110000  0.27450000  1.0 -0.1193160579
O  O4298  1  0.27450000  0.39110000  0.41370000  1.0 -0.1193160579
O  O4299  1  0.64110000  0.22550000  0.66370000  1.0 -0.1193160579
O  O4300  1  0.60890000  0.52450000  0.16370000  1.0 -0.1193160579
O  O4301  1  0.64110000  0.52450000  0.58630000  1.0 -0.1193160579
O  O4302  1  0.77450000  0.35890000  0.33630000  1.0 -0.1193160579
O  O4303  1  0.10890000  0.22550000  0.58630000  1.0 -0.1193160579
O  O4304  1  0.97550000  0.39110000  0.33630000  1.0 -0.1193160579
O  O4305  1  0.47550000  0.35890000  0.41370000  1.0 -0.1193160579
O  O4306  1  0.14110000  0.22550000  0.16370000  1.0 -0.1193160579
O  O4307  1  0.58630000  0.27450000  0.60890000  1.0 -0.1193160579
O  O4308  1  0.22550000  0.33630000  0.35890000  1.0 -0.1193160579
O  O4309  1  0.58630000  0.97550000  0.14110000  1.0 -0.1193160579
O  O4310  1  0.39110000  0.08630000  0.22550000  1.0 -0.1193160579
O  O4311  1  0.16370000  0.97550000  0.10890000  1.0 -0.1193160579
O  O4312  1  0.52450000  0.33630000  0.89110000  1.0 -0.1193160579
O  O4313  1  0.41370000  0.14110000  0.97550000  1.0 -0.1193160579
O  O4314  1  0.52450000  0.91370000  0.85890000  1.0 -0.1193160579
O  O4315  1  0.16370000  0.27450000  0.64110000  1.0 -0.1193160579
O  O4316  1  0.35890000  0.16370000  0.72550000  1.0 -0.1193160579
O  O4317  1  0.22550000  0.91370000  0.39110000  1.0 -0.1193160579
O  O4318  1  0.33630000  0.10890000  0.47550000  1.0 -0.1193160579
O  O4319  1  0.39110000  0.16370000  0.52450000  1.0 -0.1193160579
O  O4320  1  0.41370000  0.10890000  0.77450000  1.0 -0.1193160579
O  O4321  1  0.35890000  0.08630000  0.02450000  1.0 -0.1193160579
O  O4322  1  0.33630000  0.14110000  0.27450000  1.0 -0.1193160579
O  O4323  1  0.77450000  0.89110000  0.41370000  1.0 -0.1193160579
O  O4324  1  0.10890000  0.02450000  0.16370000  1.0 -0.1193160579
O  O4325  1  0.14110000  0.02450000  0.58630000  1.0 -0.1116419026
O  O4326  1  0.27450000  0.85890000  0.33630000  1.0 -0.1193160579
O  O4327  1  0.60890000  0.72550000  0.58630000  1.0 -0.1193160579
O  O4328  1  0.47550000  0.89110000  0.33630000  1.0 -0.1193160579
O  O4329  1  0.97550000  0.85890000  0.41370000  1.0 -0.1193160579
O  O4330  1  0.58630000  0.77450000  0.10890000  1.0 -0.1193160579
O  O4331  1  0.22550000  0.83630000  0.85890000  1.0 -0.1193160579
O  O4332  1  0.58630000  0.47550000  0.64110000  1.0 -0.1193160579
O  O4333  1  0.39110000  0.58630000  0.72550000  1.0 -0.1193160579
O  O4334  1  0.16370000  0.47550000  0.60890000  1.0 -0.1193160579
O  O4335  1  0.52450000  0.83630000  0.39110000  1.0 -0.1193160579
O  O4336  1  0.41370000  0.64110000  0.47550000  1.0 -0.1193160579
O  O4337  1  0.52450000  0.41370000  0.35890000  1.0 -0.1193160579
O  O4338  1  0.16370000  0.77450000  0.14110000  1.0 -0.1193160579
O  O4339  1  0.35890000  0.66370000  0.22550000  1.0 -0.1193160579
O  O4340  1  0.22550000  0.41370000  0.89110000  1.0 -0.1193160579
O  O4341  1  0.33630000  0.60890000  0.97550000  1.0 -0.1193160579
O  O4342  1  0.39110000  0.66370000  0.02450000  1.0 -0.1193160579
O  O4343  1  0.41370000  0.60890000  0.27450000  1.0 -0.1193160579
O  O4344  1  0.35890000  0.58630000  0.52450000  1.0 -0.1193160579
O  O4345  1  0.33630000  0.64110000  0.77450000  1.0 -0.1193160579
O  O4346  1  0.77450000  0.39110000  0.91370000  1.0 -0.1193160579
O  O4347  1  0.10890000  0.52450000  0.66370000  1.0 -0.1193160579
O  O4348  1  0.14110000  0.52450000  0.08630000  1.0 -0.1193160579
O  O4349  1  0.27450000  0.35890000  0.83630000  1.0 -0.1193160579
O  O4350  1  0.60890000  0.22550000  0.08630000  1.0 -0.1193160579
O  O4351  1  0.47550000  0.39110000  0.83630000  1.0 -0.1193160579
O  O4352  1  0.97550000  0.35890000  0.91370000  1.0 -0.1193160579
