# DDEC6 charges by PACMAN v1.1 (https://github.com/mtap-research/PACMAN-charge/)
data_CILLAL_FSR_pacman
_symmetry_space_group_name_H-M   'P 1'
_cell_length_a   24.84880000
_cell_length_b   24.84880000
_cell_length_c   24.84880000
_cell_angle_alpha   108.92800000
_cell_angle_beta   108.92800000
_cell_angle_gamma   110.56300000
_symmetry_Int_Tables_number   1
_chemical_formula_structural   Cu3H31C44SO18
_chemical_formula_sum   'Cu24 H248 C352 S8 O144'
_cell_volume   11808.01617644
_cell_formula_units_Z   8
loop_
 _symmetry_equiv_pos_site_id
 _symmetry_equiv_pos_as_xyz
  1  'x, y, z'
loop_
 _atom_site_type_symbol
 _atom_site_label
 _atom_site_symmetry_multiplicity
 _atom_site_fract_x
 _atom_site_fract_y
 _atom_site_fract_z
 _atom_site_occupancy
 _atom_site_charge
Cu  Cu1  1  0.78327000  0.50000000  0.28327000  1.0 0.9159814669
Cu  Cu2  1  0.21673000  0.50000000  0.71673000  1.0 0.9159814669
Cu  Cu3  1  0.50000000  0.78327000  0.28327000  1.0 0.9159814669
Cu  Cu4  1  0.50000000  0.21673000  0.71673000  1.0 0.9159814669
Cu  Cu5  1  0.87476000  0.50000000  0.37476000  1.0 0.9080427292
Cu  Cu6  1  0.12524000  0.50000000  0.62524000  1.0 0.9080427292
Cu  Cu7  1  0.50000000  0.87476000  0.37476000  1.0 0.9080427292
Cu  Cu8  1  0.50000000  0.12524000  0.62524000  1.0 0.9080427292
Cu  Cu9  1  0.45239000  0.16928000  0.99781000  1.0 0.9080427292
Cu  Cu10  1  0.17147000  0.45458000  0.00219000  1.0 0.9080427292
Cu  Cu11  1  0.45458000  0.45239000  0.28311000  1.0 0.9080427292
Cu  Cu12  1  0.16928000  0.17147000  0.71689000  1.0 0.9080427292
Cu  Cu13  1  0.54761000  0.54542000  0.71689000  1.0 0.9080427292
Cu  Cu14  1  0.82853000  0.83072000  0.28311000  1.0 0.9080427292
Cu  Cu15  1  0.54542000  0.82853000  0.99781000  1.0 0.9080427292
Cu  Cu16  1  0.83072000  0.54761000  0.00219000  1.0 0.9080427292
Cu  Cu17  1  0.42762000  0.05708000  0.99810000  1.0 0.8246045365
Cu  Cu18  1  0.05898000  0.42952000  0.00190000  1.0 0.8246045365
Cu  Cu19  1  0.42952000  0.42762000  0.37054000  1.0 0.8246045365
Cu  Cu20  1  0.05708000  0.05898000  0.62946000  1.0 0.8246045365
Cu  Cu21  1  0.57238000  0.57048000  0.62946000  1.0 0.8246045365
Cu  Cu22  1  0.94102000  0.94292000  0.37054000  1.0 0.8246045365
Cu  Cu23  1  0.57048000  0.94102000  0.99810000  1.0 0.8246045365
Cu  Cu24  1  0.94292000  0.57238000  0.00190000  1.0 0.8246045365
H  H1  1  0.64870000  0.29580000  0.16470000  1.0 0.1486004517
H  H2  1  0.13110000  0.48400000  0.83530000  1.0 0.1486004517
H  H3  1  0.48400000  0.64870000  0.35290000  1.0 0.1486004517
H  H4  1  0.29580000  0.13110000  0.64710000  1.0 0.1486004517
H  H5  1  0.35130000  0.51600000  0.64710000  1.0 0.1486004517
H  H6  1  0.86890000  0.70420000  0.35290000  1.0 0.1486004517
H  H7  1  0.51600000  0.86890000  0.16470000  1.0 0.1486004517
H  H8  1  0.70420000  0.35130000  0.83530000  1.0 0.1486004517
H  H9  1  0.79370000  0.28480000  0.28410000  1.0 0.1590540996
H  H10  1  0.00070000  0.50960000  0.71590000  1.0 0.1590540996
H  H11  1  0.50960000  0.79370000  0.50890000  1.0 0.1590540996
H  H12  1  0.28480000  0.00070000  0.49110000  1.0 0.1590540996
H  H13  1  0.20630000  0.49040000  0.49110000  1.0 0.1590540996
H  H14  1  0.99930000  0.71520000  0.50890000  1.0 0.1590540996
H  H15  1  0.49040000  0.99930000  0.28410000  1.0 0.1590540996
H  H16  1  0.71520000  0.20630000  0.71590000  1.0 0.1590540996
H  H17  1  0.62160000  0.11880000  0.14160000  1.0 0.1590540996
H  H18  1  0.97720000  0.48000000  0.85840000  1.0 0.1590540996
H  H19  1  0.48000000  0.62160000  0.50280000  1.0 0.1590540996
H  H20  1  0.11880000  0.97720000  0.49720000  1.0 0.1590540996
H  H21  1  0.37840000  0.52000000  0.49720000  1.0 0.1590540996
H  H22  1  0.02280000  0.88120000  0.50280000  1.0 0.1590540996
H  H23  1  0.52000000  0.02280000  0.14160000  1.0 0.1590540996
H  H24  1  0.88120000  0.37840000  0.85840000  1.0 0.1590540996
H  H25  1  0.65310000  0.08710000  0.20860000  1.0 0.1001563225
H  H26  1  0.87850000  0.44450000  0.79140000  1.0 0.1001563225
H  H27  1  0.44450000  0.65310000  0.56600000  1.0 0.1001563225
H  H28  1  0.08710000  0.87850000  0.43400000  1.0 0.1001563225
H  H29  1  0.34690000  0.55550000  0.43400000  1.0 0.1001563225
H  H30  1  0.12150000  0.91290000  0.56600000  1.0 0.1001563225
H  H31  1  0.55550000  0.12150000  0.20860000  1.0 0.1001563225
H  H32  1  0.91290000  0.34690000  0.79140000  1.0 0.1001563225
H  H33  1  0.69790000  0.07350000  0.18080000  1.0 0.1093859405
H  H34  1  0.89270000  0.51710000  0.81920000  1.0 0.1093859405
H  H35  1  0.51710000  0.69790000  0.62440000  1.0 0.1093859405
H  H36  1  0.07350000  0.89270000  0.37560000  1.0 0.1093859405
H  H37  1  0.30210000  0.48290000  0.37560000  1.0 0.1093859405
H  H38  1  0.10730000  0.92650000  0.62440000  1.0 0.1093859405
H  H39  1  0.48290000  0.10730000  0.18080000  1.0 0.1093859405
H  H40  1  0.92650000  0.30210000  0.81920000  1.0 0.1093859405
H  H41  1  0.81550000  0.11670000  0.29680000  1.0 0.1180077922
H  H42  1  0.81990000  0.51870000  0.70320000  1.0 0.1180077922
H  H43  1  0.51870000  0.81550000  0.69880000  1.0 0.1180077922
H  H44  1  0.11670000  0.81990000  0.30120000  1.0 0.1180077922
H  H45  1  0.18450000  0.48130000  0.30120000  1.0 0.1180077922
H  H46  1  0.18010000  0.88330000  0.69880000  1.0 0.1180077922
H  H47  1  0.48130000  0.18010000  0.29680000  1.0 0.1180077922
H  H48  1  0.88330000  0.18450000  0.70320000  1.0 0.1180077922
H  H49  1  0.62550000  0.01870000  0.25080000  1.0 0.0937426184
H  H50  1  0.76790000  0.37470000  0.74920000  1.0 0.0937426184
H  H51  1  0.37470000  0.62550000  0.60680000  1.0 0.0937426184
H  H52  1  0.01870000  0.76790000  0.39320000  1.0 0.0937426184
H  H53  1  0.37450000  0.62530000  0.39320000  1.0 0.0937426184
H  H54  1  0.23210000  0.98130000  0.60680000  1.0 0.0937426184
H  H55  1  0.62530000  0.23210000  0.25080000  1.0 0.0937426184
H  H56  1  0.98130000  0.37450000  0.74920000  1.0 0.0937426184
H  H57  1  0.76730000  0.01440000  0.38330000  1.0 0.1093859405
H  H58  1  0.63110000  0.38400000  0.61670000  1.0 0.1093859405
H  H59  1  0.38400000  0.76730000  0.75290000  1.0 0.1093859405
H  H60  1  0.01440000  0.63110000  0.24710000  1.0 0.1093859405
H  H61  1  0.23270000  0.61600000  0.24710000  1.0 0.1093859405
H  H62  1  0.36890000  0.98560000  0.75290000  1.0 0.1093859405
H  H63  1  0.61600000  0.36890000  0.38330000  1.0 0.1093859405
H  H64  1  0.98560000  0.23270000  0.61670000  1.0 0.1093859405
H  H65  1  0.13460000  0.29210000  0.64270000  1.0 0.1486004517
H  H66  1  0.64940000  0.49190000  0.35730000  1.0 0.1486004517
H  H67  1  0.49190000  0.13460000  0.84250000  1.0 0.1486004517
H  H68  1  0.29210000  0.64940000  0.15750000  1.0 0.1486004517
H  H69  1  0.86540000  0.50810000  0.15750000  1.0 0.1486004517
H  H70  1  0.35060000  0.70790000  0.84250000  1.0 0.1486004517
H  H71  1  0.50810000  0.35060000  0.64270000  1.0 0.1486004517
H  H72  1  0.70790000  0.86540000  0.35730000  1.0 0.1486004517
H  H73  1  0.99170000  0.28650000  0.50180000  1.0 0.1590540996
H  H74  1  0.78470000  0.48990000  0.49820000  1.0 0.1590540996
H  H75  1  0.48990000  0.99170000  0.70520000  1.0 0.1590540996
H  H76  1  0.28650000  0.78470000  0.29480000  1.0 0.1590540996
H  H77  1  0.00830000  0.51010000  0.29480000  1.0 0.1590540996
H  H78  1  0.21530000  0.71350000  0.70520000  1.0 0.1590540996
H  H79  1  0.51010000  0.21530000  0.50180000  1.0 0.1590540996
H  H80  1  0.71350000  0.00830000  0.49820000  1.0 0.1590540996
H  H81  1  0.98000000  0.11720000  0.48980000  1.0 0.1486004517
H  H82  1  0.62740000  0.49020000  0.51020000  1.0 0.1486004517
H  H83  1  0.49020000  0.98000000  0.86280000  1.0 0.1486004517
H  H84  1  0.11720000  0.62740000  0.13720000  1.0 0.1486004517
H  H85  1  0.02000000  0.50980000  0.13720000  1.0 0.1486004517
H  H86  1  0.37260000  0.88280000  0.86280000  1.0 0.1486004517
H  H87  1  0.50980000  0.37260000  0.48980000  1.0 0.1486004517
H  H88  1  0.88280000  0.02000000  0.51020000  1.0 0.1486004517
H  H89  1  0.88680000  0.08000000  0.37440000  1.0 0.1093859405
H  H90  1  0.70560000  0.51240000  0.62560000  1.0 0.1093859405
H  H91  1  0.51240000  0.88680000  0.80680000  1.0 0.1093859405
H  H92  1  0.08000000  0.70560000  0.19320000  1.0 0.1093859405
H  H93  1  0.11320000  0.48760000  0.19320000  1.0 0.1093859405
H  H94  1  0.29440000  0.92000000  0.80680000  1.0 0.1093859405
H  H95  1  0.48760000  0.29440000  0.37440000  1.0 0.1093859405
H  H96  1  0.92000000  0.11320000  0.62560000  1.0 0.1093859405
H  H97  1  0.87750000  0.09630000  0.43580000  1.0 0.0937426184
H  H98  1  0.66050000  0.44170000  0.56420000  1.0 0.0937426184
H  H99  1  0.44170000  0.87750000  0.78120000  1.0 0.0937426184
H  H100  1  0.09630000  0.66050000  0.21880000  1.0 0.0937426184
H  H101  1  0.12250000  0.55830000  0.21880000  1.0 0.0937426184
H  H102  1  0.33950000  0.90370000  0.78120000  1.0 0.0937426184
H  H103  1  0.55830000  0.33950000  0.43580000  1.0 0.0937426184
H  H104  1  0.90370000  0.12250000  0.56420000  1.0 0.0937426184
H  H105  1  0.42560000  0.26750000  0.16110000  1.0 0.1486004517
H  H106  1  0.10640000  0.26450000  0.83890000  1.0 0.1486004517
H  H107  1  0.26450000  0.42560000  0.15810000  1.0 0.1486004517
H  H108  1  0.26750000  0.10640000  0.84190000  1.0 0.1486004517
H  H109  1  0.57440000  0.73550000  0.84190000  1.0 0.1486004517
H  H110  1  0.89360000  0.73250000  0.15810000  1.0 0.1486004517
H  H111  1  0.73550000  0.89360000  0.16110000  1.0 0.1486004517
H  H112  1  0.73250000  0.57440000  0.83890000  1.0 0.1486004517
H  H113  1  0.36910000  0.22370000  0.28300000  1.0 0.1590540996
H  H114  1  0.94070000  0.08610000  0.71700000  1.0 0.1590540996
H  H115  1  0.08610000  0.36910000  0.14540000  1.0 0.1590540996
H  H116  1  0.22370000  0.94070000  0.85460000  1.0 0.1590540996
H  H117  1  0.63090000  0.91390000  0.85460000  1.0 0.1590540996
H  H118  1  0.05930000  0.77630000  0.14540000  1.0 0.1590540996
H  H119  1  0.91390000  0.05930000  0.28300000  1.0 0.1590540996
H  H120  1  0.77630000  0.63090000  0.71700000  1.0 0.1590540996
H  H121  1  0.36530000  0.08540000  0.13950000  1.0 0.1363928992
H  H122  1  0.94590000  0.22580000  0.86050000  1.0 0.1363928992
H  H123  1  0.22580000  0.36530000  0.27990000  1.0 0.1363928992
H  H124  1  0.08540000  0.94590000  0.72010000  1.0 0.1363928992
H  H125  1  0.63470000  0.77420000  0.72010000  1.0 0.1363928992
H  H126  1  0.05410000  0.91460000  0.27990000  1.0 0.1363928992
H  H127  1  0.77420000  0.05410000  0.13950000  1.0 0.1363928992
H  H128  1  0.91460000  0.63470000  0.86050000  1.0 0.1363928992
H  H129  1  0.30580000  0.01350000  0.17910000  1.0 0.1180077922
H  H130  1  0.83440000  0.12670000  0.82090000  1.0 0.1180077922
H  H131  1  0.12670000  0.30580000  0.29230000  1.0 0.1180077922
H  H132  1  0.01350000  0.83440000  0.70770000  1.0 0.1180077922
H  H133  1  0.69420000  0.87330000  0.70770000  1.0 0.1180077922
H  H134  1  0.16560000  0.98650000  0.29230000  1.0 0.1180077922
H  H135  1  0.87330000  0.16560000  0.17910000  1.0 0.1180077922
H  H136  1  0.98650000  0.69420000  0.82090000  1.0 0.1180077922
H  H137  1  0.38170000  0.05190000  0.22940000  1.0 0.1180077922
H  H138  1  0.82250000  0.15230000  0.77060000  1.0 0.1180077922
H  H139  1  0.15230000  0.38170000  0.32980000  1.0 0.1180077922
H  H140  1  0.05190000  0.82250000  0.67020000  1.0 0.1180077922
H  H141  1  0.61830000  0.84770000  0.67020000  1.0 0.1180077922
H  H142  1  0.17750000  0.94810000  0.32980000  1.0 0.1180077922
H  H143  1  0.84770000  0.17750000  0.22940000  1.0 0.1180077922
H  H144  1  0.94810000  0.61830000  0.77060000  1.0 0.1180077922
H  H145  1  0.22770000  0.00000000  0.22770000  1.0 0.1363928992
H  H146  1  0.77230000  0.00000000  0.77230000  1.0 0.1363928992
H  H147  1  0.00000000  0.22770000  0.22770000  1.0 0.1363928992
H  H148  1  0.00000000  0.77230000  0.77230000  1.0 0.1363928992
H  H149  1  0.39120000  0.00000000  0.39120000  1.0 0.1294727279
H  H150  1  0.60880000  0.00000000  0.60880000  1.0 0.1294727279
H  H151  1  0.00000000  0.39120000  0.39120000  1.0 0.1294727279
H  H152  1  0.00000000  0.60880000  0.60880000  1.0 0.1294727279
H  H153  1  0.41690000  0.04750000  0.32800000  1.0 0.1294727279
H  H154  1  0.71950000  0.08890000  0.67200000  1.0 0.1294727279
H  H155  1  0.08890000  0.41690000  0.36940000  1.0 0.1294727279
H  H156  1  0.04750000  0.71950000  0.63060000  1.0 0.1294727279
H  H157  1  0.58310000  0.91110000  0.63060000  1.0 0.1294727279
H  H158  1  0.28050000  0.95250000  0.36940000  1.0 0.1294727279
H  H159  1  0.91110000  0.28050000  0.32800000  1.0 0.1294727279
H  H160  1  0.95250000  0.58310000  0.67200000  1.0 0.1294727279
H  H161  1  0.34490000  0.99600000  0.05830000  1.0 0.1692191363
H  H162  1  0.93770000  0.28660000  0.94170000  1.0 0.1692191363
H  H163  1  0.28660000  0.34490000  0.34890000  1.0 0.1692191363
H  H164  1  0.99600000  0.93770000  0.65110000  1.0 0.1692191363
H  H165  1  0.65510000  0.71340000  0.65110000  1.0 0.1692191363
H  H166  1  0.06230000  0.00400000  0.34890000  1.0 0.1692191363
H  H167  1  0.71340000  0.06230000  0.05830000  1.0 0.1692191363
H  H168  1  0.00400000  0.65510000  0.94170000  1.0 0.1692191363
H  H169  1  0.27120000  0.93750000  0.01490000  1.0 0.1590540996
H  H170  1  0.92260000  0.25630000  0.98510000  1.0 0.1590540996
H  H171  1  0.25630000  0.27120000  0.33370000  1.0 0.1590540996
H  H172  1  0.93750000  0.92260000  0.66630000  1.0 0.1590540996
H  H173  1  0.72880000  0.74370000  0.66630000  1.0 0.1590540996
H  H174  1  0.07740000  0.06250000  0.33370000  1.0 0.1590540996
H  H175  1  0.74370000  0.07740000  0.01490000  1.0 0.1590540996
H  H176  1  0.06250000  0.72880000  0.98510000  1.0 0.1590540996
H  H177  1  0.32380000  0.93300000  0.06620000  1.0 0.1486004517
H  H178  1  0.86680000  0.25760000  0.93380000  1.0 0.1486004517
H  H179  1  0.25760000  0.32380000  0.39080000  1.0 0.1486004517
H  H180  1  0.93300000  0.86680000  0.60920000  1.0 0.1486004517
H  H181  1  0.67620000  0.74240000  0.60920000  1.0 0.1486004517
H  H182  1  0.13320000  0.06700000  0.39080000  1.0 0.1486004517
H  H183  1  0.74240000  0.13320000  0.06620000  1.0 0.1486004517
H  H184  1  0.06700000  0.67620000  0.93380000  1.0 0.1486004517
H  H185  1  0.33830000  0.85570000  0.03200000  1.0 0.1486004517
H  H186  1  0.82370000  0.30630000  0.96800000  1.0 0.1486004517
H  H187  1  0.30630000  0.33830000  0.48260000  1.0 0.1486004517
H  H188  1  0.85570000  0.82370000  0.51740000  1.0 0.1486004517
H  H189  1  0.66170000  0.69370000  0.51740000  1.0 0.1486004517
H  H190  1  0.17630000  0.14430000  0.48260000  1.0 0.1486004517
H  H191  1  0.69370000  0.17630000  0.03200000  1.0 0.1486004517
H  H192  1  0.14430000  0.66170000  0.96800000  1.0 0.1486004517
H  H193  1  0.32090000  0.81100000  0.96050000  1.0 0.1590540996
H  H194  1  0.85050000  0.36040000  0.03950000  1.0 0.1590540996
H  H195  1  0.36040000  0.32090000  0.50990000  1.0 0.1590540996
H  H196  1  0.81100000  0.85050000  0.49010000  1.0 0.1590540996
H  H197  1  0.67910000  0.63960000  0.49010000  1.0 0.1590540996
H  H198  1  0.14950000  0.18900000  0.50990000  1.0 0.1590540996
H  H199  1  0.63960000  0.14950000  0.96050000  1.0 0.1590540996
H  H200  1  0.18900000  0.67910000  0.03950000  1.0 0.1590540996
H  H201  1  0.39420000  0.86700000  0.01320000  1.0 0.1692191363
H  H202  1  0.85380000  0.38100000  0.98680000  1.0 0.1692191363
H  H203  1  0.38100000  0.39420000  0.52720000  1.0 0.1692191363
H  H204  1  0.86700000  0.85380000  0.47280000  1.0 0.1692191363
H  H205  1  0.60580000  0.61900000  0.47280000  1.0 0.1692191363
H  H206  1  0.14620000  0.13300000  0.52720000  1.0 0.1692191363
H  H207  1  0.61900000  0.14620000  0.01320000  1.0 0.1692191363
H  H208  1  0.13300000  0.60580000  0.98680000  1.0 0.1692191363
H  H209  1  0.63490000  0.36200000  0.59370000  1.0 0.1001563225
H  H210  1  0.76830000  0.04120000  0.40630000  1.0 0.1001563225
H  H211  1  0.04120000  0.63490000  0.27290000  1.0 0.1001563225
H  H212  1  0.36200000  0.76830000  0.72710000  1.0 0.1001563225
H  H213  1  0.36510000  0.95880000  0.72710000  1.0 0.1001563225
H  H214  1  0.23170000  0.63800000  0.27290000  1.0 0.1001563225
H  H215  1  0.95880000  0.23170000  0.59370000  1.0 0.1001563225
H  H216  1  0.63800000  0.36510000  0.40630000  1.0 0.1001563225
H  H217  1  0.66180000  0.31820000  0.66080000  1.0 0.1093859405
H  H218  1  0.65740000  0.00100000  0.33920000  1.0 0.1093859405
H  H219  1  0.00100000  0.66180000  0.34360000  1.0 0.1093859405
H  H220  1  0.31820000  0.65740000  0.65640000  1.0 0.1093859405
H  H221  1  0.33820000  0.99900000  0.65640000  1.0 0.1093859405
H  H222  1  0.34260000  0.68180000  0.34360000  1.0 0.1093859405
H  H223  1  0.99900000  0.34260000  0.66080000  1.0 0.1093859405
H  H224  1  0.68180000  0.33820000  0.33920000  1.0 0.1093859405
H  H225  1  0.82400000  0.49300000  0.67680000  1.0 0.1180077922
H  H226  1  0.81620000  0.14720000  0.32320000  1.0 0.1180077922
H  H227  1  0.14720000  0.82400000  0.33100000  1.0 0.1180077922
H  H228  1  0.49300000  0.81620000  0.66900000  1.0 0.1180077922
H  H229  1  0.17600000  0.85280000  0.66900000  1.0 0.1180077922
H  H230  1  0.18380000  0.50700000  0.33100000  1.0 0.1180077922
H  H231  1  0.85280000  0.18380000  0.67680000  1.0 0.1180077922
H  H232  1  0.50700000  0.17600000  0.32320000  1.0 0.1180077922
H  H233  1  0.65880000  0.37290000  0.70950000  1.0 0.1180077922
H  H234  1  0.66340000  0.94930000  0.29050000  1.0 0.1180077922
H  H235  1  0.94930000  0.65880000  0.28590000  1.0 0.1180077922
H  H236  1  0.37290000  0.66340000  0.71410000  1.0 0.1180077922
H  H237  1  0.34120000  0.05070000  0.71410000  1.0 0.1180077922
H  H238  1  0.33660000  0.62710000  0.28590000  1.0 0.1180077922
H  H239  1  0.05070000  0.33660000  0.70950000  1.0 0.1180077922
H  H240  1  0.62710000  0.34120000  0.29050000  1.0 0.1180077922
H  H241  1  0.76910000  0.42190000  0.78600000  1.0 0.1001563225
H  H242  1  0.63590000  0.98310000  0.21400000  1.0 0.1001563225
H  H243  1  0.98310000  0.76910000  0.34720000  1.0 0.1001563225
H  H244  1  0.42190000  0.63590000  0.65280000  1.0 0.1001563225
H  H245  1  0.23090000  0.01690000  0.65280000  1.0 0.1001563225
H  H246  1  0.36410000  0.57810000  0.34720000  1.0 0.1001563225
H  H247  1  0.01690000  0.36410000  0.78600000  1.0 0.1001563225
H  H248  1  0.57810000  0.23090000  0.21400000  1.0 0.1001563225
C  C1  1  0.62470000  0.20220000  0.14450000  1.0 -0.029178972
C  C2  1  0.05770000  0.48020000  0.85550000  1.0 -0.029178972
C  C3  1  0.48020000  0.62470000  0.42250000  1.0 -0.029178972
C  C4  1  0.20220000  0.05770000  0.57750000  1.0 -0.029178972
C  C5  1  0.37530000  0.51980000  0.57750000  1.0 -0.029178972
C  C6  1  0.94230000  0.79780000  0.42250000  1.0 -0.029178972
C  C7  1  0.51980000  0.94230000  0.14450000  1.0 -0.029178972
C  C8  1  0.79780000  0.37530000  0.85550000  1.0 -0.029178972
C  C9  1  0.66440000  0.27060000  0.17760000  1.0 -0.1541156033
C  C10  1  0.09300000  0.48680000  0.82240000  1.0 -0.1541156033
C  C11  1  0.48680000  0.66440000  0.39380000  1.0 -0.1541156033
C  C12  1  0.27060000  0.09300000  0.60620000  1.0 -0.1541156033
C  C13  1  0.33560000  0.51320000  0.60620000  1.0 -0.1541156033
C  C14  1  0.90700000  0.72940000  0.39380000  1.0 -0.1541156033
C  C15  1  0.51320000  0.90700000  0.17760000  1.0 -0.1541156033
C  C16  1  0.72940000  0.33560000  0.82240000  1.0 -0.1541156033
C  C17  1  0.72770000  0.30160000  0.22990000  1.0 -0.0024116449
C  C18  1  0.07170000  0.49780000  0.77010000  1.0 -0.0024116449
C  C19  1  0.49780000  0.72770000  0.42610000  1.0 -0.0024116449
C  C20  1  0.30160000  0.07170000  0.57390000  1.0 -0.0024116449
C  C21  1  0.27230000  0.50220000  0.57390000  1.0 -0.0024116449
C  C22  1  0.92830000  0.69840000  0.42610000  1.0 -0.0024116449
C  C23  1  0.50220000  0.92830000  0.22990000  1.0 -0.0024116449
C  C24  1  0.69840000  0.27230000  0.77010000  1.0 -0.0024116449
C  C25  1  0.75130000  0.26400000  0.24910000  1.0 -0.2127794901
C  C26  1  0.01490000  0.50220000  0.75090000  1.0 -0.2127794901
C  C27  1  0.50220000  0.75130000  0.48730000  1.0 -0.2127794901
C  C28  1  0.26400000  0.01490000  0.51270000  1.0 -0.2127794901
C  C29  1  0.24870000  0.49780000  0.51270000  1.0 -0.2127794901
C  C30  1  0.98510000  0.73600000  0.48730000  1.0 -0.2127794901
C  C31  1  0.49780000  0.98510000  0.24910000  1.0 -0.2127794901
C  C32  1  0.73600000  0.24870000  0.75090000  1.0 -0.2127794901
C  C33  1  0.71150000  0.19550000  0.21600000  1.0 0.2304155942
C  C34  1  0.97950000  0.49550000  0.78400000  1.0 0.2304155942
C  C35  1  0.49550000  0.71150000  0.51600000  1.0 0.2304155942
C  C36  1  0.19550000  0.97950000  0.48400000  1.0 0.2304155942
C  C37  1  0.28850000  0.50450000  0.48400000  1.0 0.2304155942
C  C38  1  0.02050000  0.80450000  0.51600000  1.0 0.2304155942
C  C39  1  0.50450000  0.02050000  0.21600000  1.0 0.2304155942
C  C40  1  0.80450000  0.28850000  0.78400000  1.0 0.2304155942
C  C41  1  0.64810000  0.16460000  0.16370000  1.0 -0.219422098
C  C42  1  0.00090000  0.48440000  0.83630000  1.0 -0.219422098
C  C43  1  0.48440000  0.64810000  0.48350000  1.0 -0.219422098
C  C44  1  0.16460000  0.00090000  0.51650000  1.0 -0.219422098
C  C45  1  0.35190000  0.51560000  0.51650000  1.0 -0.219422098
C  C46  1  0.99910000  0.83540000  0.48350000  1.0 -0.219422098
C  C47  1  0.51560000  0.99910000  0.16370000  1.0 -0.219422098
C  C48  1  0.83540000  0.35190000  0.83630000  1.0 -0.219422098
C  C49  1  0.56200000  0.16770000  0.08350000  1.0 0.5544638699
C  C50  1  0.08420000  0.47850000  0.91650000  1.0 0.5544638699
C  C51  1  0.47850000  0.56200000  0.39430000  1.0 0.5544638699
C  C52  1  0.16770000  0.08420000  0.60570000  1.0 0.5544638699
C  C53  1  0.43800000  0.52150000  0.60570000  1.0 0.5544638699
C  C54  1  0.91580000  0.83230000  0.39430000  1.0 0.5544638699
C  C55  1  0.52150000  0.91580000  0.08350000  1.0 0.5544638699
C  C56  1  0.83230000  0.43800000  0.91650000  1.0 0.5544638699
C  C57  1  0.76840000  0.37630000  0.26790000  1.0 0.5590082658
C  C58  1  0.10840000  0.50050000  0.73210000  1.0 0.5590082658
C  C59  1  0.50050000  0.76840000  0.39210000  1.0 0.5590082658
C  C60  1  0.37630000  0.10840000  0.60790000  1.0 0.5590082658
C  C61  1  0.23160000  0.49950000  0.60790000  1.0 0.5590082658
C  C62  1  0.89160000  0.62370000  0.39210000  1.0 0.5590082658
C  C63  1  0.49950000  0.89160000  0.26790000  1.0 0.5590082658
C  C64  1  0.62370000  0.23160000  0.73210000  1.0 0.5590082658
C  C65  1  0.69800000  0.09680000  0.22060000  1.0 0.0005144547
C  C66  1  0.87620000  0.47740000  0.77940000  1.0 0.0005144547
C  C67  1  0.47740000  0.69800000  0.60120000  1.0 0.0005144547
C  C68  1  0.09680000  0.87620000  0.39880000  1.0 0.0005144547
C  C69  1  0.30200000  0.52260000  0.39880000  1.0 0.0005144547
C  C70  1  0.12380000  0.90320000  0.60120000  1.0 0.0005144547
C  C71  1  0.52260000  0.12380000  0.22060000  1.0 0.0005144547
C  C72  1  0.90320000  0.30200000  0.77940000  1.0 0.0005144547
C  C73  1  0.71740000  0.06950000  0.26510000  1.0 0.0194978237
C  C74  1  0.80440000  0.45230000  0.73490000  1.0 0.0194978237
C  C75  1  0.45230000  0.71740000  0.64790000  1.0 0.0194978237
C  C76  1  0.06950000  0.80440000  0.35210000  1.0 0.0194978237
C  C77  1  0.28260000  0.54770000  0.35210000  1.0 0.0194978237
C  C78  1  0.19560000  0.93050000  0.64790000  1.0 0.0194978237
C  C79  1  0.54770000  0.19560000  0.26510000  1.0 0.0194978237
C  C80  1  0.93050000  0.28260000  0.73490000  1.0 0.0194978237
C  C81  1  0.78390000  0.09360000  0.30530000  1.0 -0.1183868181
C  C82  1  0.78830000  0.47860000  0.69470000  1.0 -0.1183868181
C  C83  1  0.47860000  0.78390000  0.69030000  1.0 -0.1183868181
C  C84  1  0.09360000  0.78830000  0.30970000  1.0 -0.1183868181
C  C85  1  0.21610000  0.52140000  0.30970000  1.0 -0.1183868181
C  C86  1  0.21170000  0.90640000  0.69030000  1.0 -0.1183868181
C  C87  1  0.52140000  0.21170000  0.30530000  1.0 -0.1183868181
C  C88  1  0.90640000  0.21610000  0.69470000  1.0 -0.1183868181
C  C89  1  0.80300000  0.08300000  0.35820000  1.0 -0.019702591
C  C90  1  0.72480000  0.44480000  0.64180000  1.0 -0.019702591
C  C91  1  0.44480000  0.80300000  0.72000000  1.0 -0.019702591
C  C92  1  0.08300000  0.72480000  0.28000000  1.0 -0.019702591
C  C93  1  0.19700000  0.55520000  0.28000000  1.0 -0.019702591
C  C94  1  0.27520000  0.91700000  0.72000000  1.0 -0.019702591
C  C95  1  0.55520000  0.27520000  0.35820000  1.0 -0.019702591
C  C96  1  0.91700000  0.19700000  0.64180000  1.0 -0.019702591
C  C97  1  0.68910000  0.02420000  0.33070000  1.0 -0.0497966362
C  C98  1  0.69350000  0.35840000  0.66930000  1.0 -0.0497966362
C  C99  1  0.35840000  0.68910000  0.66490000  1.0 -0.0497966362
C  C100  1  0.02420000  0.69350000  0.33510000  1.0 -0.0497966362
C  C101  1  0.31090000  0.64160000  0.33510000  1.0 -0.0497966362
C  C102  1  0.30650000  0.97580000  0.66490000  1.0 -0.0497966362
C  C103  1  0.64160000  0.30650000  0.33070000  1.0 -0.0497966362
C  C104  1  0.97580000  0.31090000  0.66930000  1.0 -0.0497966362
C  C105  1  0.67000000  0.03480000  0.27780000  1.0 -0.0114546604
C  C106  1  0.75700000  0.39220000  0.72220000  1.0 -0.0114546604
C  C107  1  0.39220000  0.67000000  0.63520000  1.0 -0.0114546604
C  C108  1  0.03480000  0.75700000  0.36480000  1.0 -0.0114546604
C  C109  1  0.33000000  0.60780000  0.36480000  1.0 -0.0114546604
C  C110  1  0.24300000  0.96520000  0.63520000  1.0 -0.0114546604
C  C111  1  0.60780000  0.24300000  0.27780000  1.0 -0.0114546604
C  C112  1  0.96520000  0.33000000  0.72220000  1.0 -0.0114546604
C  C113  1  0.75630000  0.02800000  0.35270000  1.0 -0.029178972
C  C114  1  0.67530000  0.40360000  0.64730000  1.0 -0.029178972
C  C115  1  0.40360000  0.75630000  0.72830000  1.0 -0.029178972
C  C116  1  0.02800000  0.67530000  0.27170000  1.0 -0.029178972
C  C117  1  0.24370000  0.59640000  0.27170000  1.0 -0.029178972
C  C118  1  0.32470000  0.97200000  0.72830000  1.0 -0.029178972
C  C119  1  0.59640000  0.32470000  0.35270000  1.0 -0.029178972
C  C120  1  0.97200000  0.24370000  0.64730000  1.0 -0.029178972
C  C121  1  0.06160000  0.19930000  0.57050000  1.0 -0.0114546604
C  C122  1  0.62880000  0.49110000  0.42950000  1.0 -0.0114546604
C  C123  1  0.49110000  0.06160000  0.86230000  1.0 -0.0114546604
C  C124  1  0.19930000  0.62880000  0.13770000  1.0 -0.0114546604
C  C125  1  0.93840000  0.50890000  0.13770000  1.0 -0.0114546604
C  C126  1  0.37120000  0.80070000  0.86230000  1.0 -0.0114546604
C  C127  1  0.50890000  0.37120000  0.57050000  1.0 -0.0114546604
C  C128  1  0.80070000  0.93840000  0.42950000  1.0 -0.0114546604
C  C129  1  0.09480000  0.26800000  0.60340000  1.0 -0.1632582554
C  C130  1  0.66460000  0.49140000  0.39660000  1.0 -0.1632582554
C  C131  1  0.49140000  0.09480000  0.82680000  1.0 -0.1632582554
C  C132  1  0.26800000  0.66460000  0.17320000  1.0 -0.1632582554
C  C133  1  0.90520000  0.50860000  0.17320000  1.0 -0.1632582554
C  C134  1  0.33540000  0.73200000  0.82680000  1.0 -0.1632582554
C  C135  1  0.50860000  0.33540000  0.60340000  1.0 -0.1632582554
C  C136  1  0.73200000  0.90520000  0.39660000  1.0 -0.1632582554
C  C137  1  0.06860000  0.30070000  0.57770000  1.0 -0.0114546604
C  C138  1  0.72300000  0.49090000  0.42230000  1.0 -0.0114546604
C  C139  1  0.49090000  0.06860000  0.76790000  1.0 -0.0114546604
C  C140  1  0.30070000  0.72300000  0.23210000  1.0 -0.0114546604
C  C141  1  0.93140000  0.50910000  0.23210000  1.0 -0.0114546604
C  C142  1  0.27700000  0.69930000  0.76790000  1.0 -0.0114546604
C  C143  1  0.50910000  0.27700000  0.57770000  1.0 -0.0114546604
C  C144  1  0.69930000  0.93140000  0.42230000  1.0 -0.0114546604
C  C145  1  0.00930000  0.26470000  0.51900000  1.0 -0.219422098
C  C146  1  0.74570000  0.49030000  0.48100000  1.0 -0.219422098
C  C147  1  0.49030000  0.00930000  0.74460000  1.0 -0.219422098
C  C148  1  0.26470000  0.74570000  0.25540000  1.0 -0.219422098
C  C149  1  0.99070000  0.50970000  0.25540000  1.0 -0.219422098
C  C150  1  0.25430000  0.73530000  0.74460000  1.0 -0.219422098
C  C151  1  0.50970000  0.25430000  0.51900000  1.0 -0.219422098
C  C152  1  0.73530000  0.99070000  0.48100000  1.0 -0.219422098
C  C153  1  0.97610000  0.19600000  0.48610000  1.0 0.2304155942
C  C154  1  0.70990000  0.49000000  0.51390000  1.0 0.2304155942
C  C155  1  0.49000000  0.97610000  0.78010000  1.0 0.2304155942
C  C156  1  0.19600000  0.70990000  0.21990000  1.0 0.2304155942
C  C157  1  0.02390000  0.51000000  0.21990000  1.0 0.2304155942
C  C158  1  0.29010000  0.80400000  0.78010000  1.0 0.2304155942
C  C159  1  0.51000000  0.29010000  0.48610000  1.0 0.2304155942
C  C160  1  0.80400000  0.02390000  0.51390000  1.0 0.2304155942
C  C161  1  0.00230000  0.16320000  0.51190000  1.0 -0.2375136679
C  C162  1  0.65130000  0.49040000  0.48810000  1.0 -0.2375136679
C  C163  1  0.49040000  0.00230000  0.83910000  1.0 -0.2375136679
C  C164  1  0.16320000  0.65130000  0.16090000  1.0 -0.2375136679
C  C165  1  0.99770000  0.50960000  0.16090000  1.0 -0.2375136679
C  C166  1  0.34870000  0.83680000  0.83910000  1.0 -0.2375136679
C  C167  1  0.50960000  0.34870000  0.51190000  1.0 -0.2375136679
C  C168  1  0.83680000  0.99770000  0.48810000  1.0 -0.2375136679
C  C169  1  0.07500000  0.16860000  0.61240000  1.0 0.5590082658
C  C170  1  0.55620000  0.46260000  0.38760000  1.0 0.5590082658
C  C171  1  0.46260000  0.07500000  0.90640000  1.0 0.5590082658
C  C172  1  0.16860000  0.55620000  0.09360000  1.0 0.5590082658
C  C173  1  0.92500000  0.53740000  0.09360000  1.0 0.5590082658
C  C174  1  0.44380000  0.83140000  0.90640000  1.0 0.5590082658
C  C175  1  0.53740000  0.44380000  0.61240000  1.0 0.5590082658
C  C176  1  0.83140000  0.92500000  0.38760000  1.0 0.5590082658
C  C177  1  0.10660000  0.37660000  0.61380000  1.0 0.5590082658
C  C178  1  0.76280000  0.49280000  0.38620000  1.0 0.5590082658
C  C179  1  0.49280000  0.10660000  0.73000000  1.0 0.5590082658
C  C180  1  0.37660000  0.76280000  0.27000000  1.0 0.5590082658
C  C181  1  0.89340000  0.50720000  0.27000000  1.0 0.5590082658
C  C182  1  0.23720000  0.62340000  0.73000000  1.0 0.5590082658
C  C183  1  0.50720000  0.23720000  0.61380000  1.0 0.5590082658
C  C184  1  0.62340000  0.89340000  0.38620000  1.0 0.5590082658
C  C185  1  0.87410000  0.10600000  0.40050000  1.0 -0.0114546604
C  C186  1  0.70550000  0.47360000  0.59950000  1.0 -0.0114546604
C  C187  1  0.47360000  0.87410000  0.76810000  1.0 -0.0114546604
C  C188  1  0.10600000  0.70550000  0.23190000  1.0 -0.0114546604
C  C189  1  0.12590000  0.52640000  0.23190000  1.0 -0.0114546604
C  C190  1  0.29450000  0.89400000  0.76810000  1.0 -0.0114546604
C  C191  1  0.52640000  0.29450000  0.40050000  1.0 -0.0114546604
C  C192  1  0.89400000  0.12590000  0.59950000  1.0 -0.0114546604
C  C193  1  0.39720000  0.17330000  0.14150000  1.0 -0.019702591
C  C194  1  0.03180000  0.25570000  0.85850000  1.0 -0.019702591
C  C195  1  0.25570000  0.39720000  0.22390000  1.0 -0.019702591
C  C196  1  0.17330000  0.03180000  0.77610000  1.0 -0.019702591
C  C197  1  0.60280000  0.74430000  0.77610000  1.0 -0.019702591
C  C198  1  0.96820000  0.82670000  0.22390000  1.0 -0.019702591
C  C199  1  0.74430000  0.96820000  0.14150000  1.0 -0.019702591
C  C200  1  0.82670000  0.60280000  0.85850000  1.0 -0.019702591
C  C201  1  0.41000000  0.23730000  0.17450000  1.0 -0.1300666862
C  C202  1  0.06280000  0.23550000  0.82550000  1.0 -0.1300666862
C  C203  1  0.23550000  0.41000000  0.17270000  1.0 -0.1300666862
C  C204  1  0.23730000  0.06280000  0.82730000  1.0 -0.1300666862
C  C205  1  0.59000000  0.76450000  0.82730000  1.0 -0.1300666862
C  C206  1  0.93720000  0.76270000  0.17270000  1.0 -0.1300666862
C  C207  1  0.76450000  0.93720000  0.17450000  1.0 -0.1300666862
C  C208  1  0.76270000  0.59000000  0.82550000  1.0 -0.1300666862
C  C209  1  0.39950000  0.25620000  0.22750000  1.0 0.0194978237
C  C210  1  0.02870000  0.17200000  0.77250000  1.0 0.0194978237
C  C211  1  0.17200000  0.39950000  0.14330000  1.0 0.0194978237
C  C212  1  0.25620000  0.02870000  0.85670000  1.0 0.0194978237
C  C213  1  0.60050000  0.82800000  0.85670000  1.0 0.0194978237
C  C214  1  0.97130000  0.74380000  0.14330000  1.0 0.0194978237
C  C215  1  0.82800000  0.97130000  0.22750000  1.0 0.0194978237
C  C216  1  0.74380000  0.60050000  0.77250000  1.0 0.0194978237
C  C217  1  0.37620000  0.21110000  0.24750000  1.0 -0.219422098
C  C218  1  0.96360000  0.12870000  0.75250000  1.0 -0.219422098
C  C219  1  0.12870000  0.37620000  0.16510000  1.0 -0.219422098
C  C220  1  0.21110000  0.96360000  0.83490000  1.0 -0.219422098
C  C221  1  0.62380000  0.87130000  0.83490000  1.0 -0.219422098
C  C222  1  0.03640000  0.78890000  0.16510000  1.0 -0.219422098
C  C223  1  0.87130000  0.03640000  0.24750000  1.0 -0.219422098
C  C224  1  0.78890000  0.62380000  0.75250000  1.0 -0.219422098
C  C225  1  0.36340000  0.14710000  0.21450000  1.0 0.2304155942
C  C226  1  0.93260000  0.14890000  0.78550000  1.0 0.2304155942
C  C227  1  0.14890000  0.36340000  0.21630000  1.0 0.2304155942
C  C228  1  0.14710000  0.93260000  0.78370000  1.0 0.2304155942
C  C229  1  0.63660000  0.85110000  0.78370000  1.0 0.2304155942
C  C230  1  0.06740000  0.85290000  0.21630000  1.0 0.2304155942
C  C231  1  0.85110000  0.06740000  0.21450000  1.0 0.2304155942
C  C232  1  0.85290000  0.63660000  0.78550000  1.0 0.2304155942
C  C233  1  0.37390000  0.12820000  0.16150000  1.0 -0.2375136679
C  C234  1  0.96670000  0.21240000  0.83850000  1.0 -0.2375136679
C  C235  1  0.21240000  0.37390000  0.24570000  1.0 -0.2375136679
C  C236  1  0.12820000  0.96670000  0.75430000  1.0 -0.2375136679
C  C237  1  0.62610000  0.78760000  0.75430000  1.0 -0.2375136679
C  C238  1  0.03330000  0.87180000  0.24570000  1.0 -0.2375136679
C  C239  1  0.78760000  0.03330000  0.16150000  1.0 -0.2375136679
C  C240  1  0.87180000  0.62610000  0.83850000  1.0 -0.2375136679
C  C241  1  0.40020000  0.14710000  0.08130000  1.0 0.565294887
C  C242  1  0.06580000  0.31890000  0.91870000  1.0 0.565294887
C  C243  1  0.31890000  0.40020000  0.25310000  1.0 0.565294887
C  C244  1  0.14710000  0.06580000  0.74690000  1.0 0.565294887
C  C245  1  0.59980000  0.68110000  0.74690000  1.0 0.565294887
C  C246  1  0.93420000  0.85290000  0.25310000  1.0 0.565294887
C  C247  1  0.68110000  0.93420000  0.08130000  1.0 0.565294887
C  C248  1  0.85290000  0.59980000  0.91870000  1.0 0.565294887
C  C249  1  0.42350000  0.33020000  0.26750000  1.0 0.5544638699
C  C250  1  0.06270000  0.15600000  0.73250000  1.0 0.5544638699
C  C251  1  0.15600000  0.42350000  0.09330000  1.0 0.5544638699
C  C252  1  0.33020000  0.06270000  0.90670000  1.0 0.5544638699
C  C253  1  0.57650000  0.84400000  0.90670000  1.0 0.5544638699
C  C254  1  0.93730000  0.66980000  0.09330000  1.0 0.5544638699
C  C255  1  0.84400000  0.93730000  0.26750000  1.0 0.5544638699
C  C256  1  0.66980000  0.57650000  0.73250000  1.0 0.5544638699
C  C257  1  0.33940000  0.04640000  0.22420000  1.0 -0.0114546604
C  C258  1  0.82220000  0.11520000  0.77580000  1.0 -0.0114546604
C  C259  1  0.11520000  0.33940000  0.29300000  1.0 -0.019702591
C  C260  1  0.04640000  0.82220000  0.70700000  1.0 -0.019702591
C  C261  1  0.66060000  0.88480000  0.70700000  1.0 -0.0114546604
C  C262  1  0.17780000  0.95360000  0.29300000  1.0 -0.019702591
C  C263  1  0.88480000  0.17780000  0.22420000  1.0 -0.0114546604
C  C264  1  0.95360000  0.66060000  0.77580000  1.0 -0.0114546604
C  C265  1  0.32400000  0.02230000  0.26950000  1.0 0.0779218767
C  C266  1  0.75280000  0.05450000  0.73050000  1.0 0.0779218767
C  C267  1  0.05450000  0.32400000  0.30170000  1.0 0.0779218767
C  C268  1  0.02230000  0.75280000  0.69830000  1.0 0.0779218767
C  C269  1  0.67600000  0.94550000  0.69830000  1.0 0.0779218767
C  C270  1  0.24720000  0.97770000  0.30170000  1.0 0.0779218767
C  C271  1  0.94550000  0.24720000  0.26950000  1.0 0.0779218767
C  C272  1  0.97770000  0.67600000  0.73050000  1.0 0.0779218767
C  C273  1  0.25990000  0.00000000  0.25990000  1.0 -0.1791509809
C  C274  1  0.74010000  0.00000000  0.74010000  1.0 -0.1791509809
C  C275  1  0.00000000  0.25990000  0.25990000  1.0 -0.1791509809
C  C276  1  0.00000000  0.74010000  0.74010000  1.0 -0.1791509809
C  C277  1  0.35900000  0.00000000  0.35900000  1.0 -0.0814742275
C  C278  1  0.64100000  0.00000000  0.64100000  1.0 -0.0814742275
C  C279  1  0.00000000  0.35900000  0.35900000  1.0 -0.0814742275
C  C280  1  0.00000000  0.64100000  0.64100000  1.0 -0.0814742275
C  C281  1  0.37362000  0.02680000  0.31982000  1.0 -0.1791509809
C  C282  1  0.70698000  0.05380000  0.68018000  1.0 -0.1791509809
C  C283  1  0.05380000  0.37362000  0.34682000  1.0 -0.1791509809
C  C284  1  0.02680000  0.70698000  0.65318000  1.0 -0.1791509809
C  C285  1  0.62638000  0.94620000  0.65318000  1.0 -0.1791509809
C  C286  1  0.29302000  0.97320000  0.34682000  1.0 -0.1791509809
C  C287  1  0.94620000  0.29302000  0.31982000  1.0 -0.1791509809
C  C288  1  0.97320000  0.62638000  0.68018000  1.0 -0.1791509809
C  C289  1  0.31660000  0.94880000  0.03560000  1.0 -0.5559462132
C  C290  1  0.91320000  0.28100000  0.96440000  1.0 -0.5559462132
C  C291  1  0.28100000  0.31660000  0.36780000  1.0 -0.5559462132
C  C292  1  0.94880000  0.91320000  0.63220000  1.0 -0.5559462132
C  C293  1  0.68340000  0.71900000  0.63220000  1.0 -0.5559462132
C  C294  1  0.08680000  0.05120000  0.36780000  1.0 -0.5559462132
C  C295  1  0.71900000  0.08680000  0.03560000  1.0 -0.5559462132
C  C296  1  0.05120000  0.68340000  0.96440000  1.0 -0.5559462132
C  C297  1  0.34860000  0.85480000  0.99780000  1.0 -0.5355851696
C  C298  1  0.85700000  0.35080000  0.00220000  1.0 -0.5355851696
C  C299  1  0.35080000  0.34860000  0.49380000  1.0 -0.5355851696
C  C300  1  0.85480000  0.85700000  0.50620000  1.0 -0.5355851696
C  C301  1  0.65140000  0.64920000  0.50620000  1.0 -0.5355851696
C  C302  1  0.14300000  0.14520000  0.49380000  1.0 -0.5355851696
C  C303  1  0.64920000  0.14300000  0.99780000  1.0 -0.5355851696
C  C304  1  0.14520000  0.65140000  0.00220000  1.0 -0.5355851696
C  C305  1  0.67740000  0.38470000  0.62910000  1.0 -0.029178972
C  C306  1  0.75560000  0.04830000  0.37090000  1.0 -0.029178972
C  C307  1  0.04830000  0.67740000  0.29270000  1.0 -0.029178972
C  C308  1  0.38470000  0.75560000  0.70730000  1.0 -0.029178972
C  C309  1  0.32260000  0.95170000  0.70730000  1.0 -0.029178972
C  C310  1  0.24440000  0.61530000  0.29270000  1.0 -0.029178972
C  C311  1  0.95170000  0.24440000  0.62910000  1.0 -0.029178972
C  C312  1  0.61530000  0.32260000  0.37090000  1.0 -0.029178972
C  C313  1  0.80750000  0.46230000  0.73900000  1.0 0.0285235224
C  C314  1  0.72330000  0.06850000  0.26100000  1.0 0.0285235224
C  C315  1  0.06850000  0.80750000  0.34520000  1.0 0.0285235224
C  C316  1  0.46230000  0.72330000  0.65480000  1.0 0.0285235224
C  C317  1  0.19250000  0.93150000  0.65480000  1.0 0.0285235224
C  C318  1  0.27670000  0.53770000  0.34520000  1.0 0.0285235224
C  C319  1  0.93150000  0.27670000  0.73900000  1.0 0.0285235224
C  C320  1  0.53770000  0.19250000  0.26100000  1.0 0.0285235224
C  C321  1  0.79090000  0.46890000  0.68340000  1.0 -0.1183868181
C  C322  1  0.78550000  0.10750000  0.31660000  1.0 -0.1183868181
C  C323  1  0.10750000  0.79090000  0.32200000  1.0 -0.1183868181
C  C324  1  0.46890000  0.78550000  0.67800000  1.0 -0.1183868181
C  C325  1  0.20910000  0.89250000  0.67800000  1.0 -0.1183868181
C  C326  1  0.21450000  0.53110000  0.32200000  1.0 -0.1183868181
C  C327  1  0.89250000  0.21450000  0.68340000  1.0 -0.1183868181
C  C328  1  0.53110000  0.20910000  0.31660000  1.0 -0.1183868181
C  C329  1  0.72480000  0.43960000  0.63760000  1.0 -0.0114546604
C  C330  1  0.80200000  0.08720000  0.36240000  1.0 -0.0114546604
C  C331  1  0.08720000  0.72480000  0.28520000  1.0 -0.0114546604
C  C332  1  0.43960000  0.80200000  0.71480000  1.0 -0.0114546604
C  C333  1  0.27520000  0.91280000  0.71480000  1.0 -0.0114546604
C  C334  1  0.19800000  0.56040000  0.28520000  1.0 -0.0114546604
C  C335  1  0.91280000  0.19800000  0.63760000  1.0 -0.0114546604
C  C336  1  0.56040000  0.27520000  0.36240000  1.0 -0.0114546604
C  C337  1  0.69200000  0.39700000  0.70300000  1.0 -0.0497966362
C  C338  1  0.69400000  0.98900000  0.29700000  1.0 -0.0497966362
C  C339  1  0.98900000  0.69200000  0.29500000  1.0 -0.0497966362
C  C340  1  0.39700000  0.69400000  0.70500000  1.0 -0.0497966362
C  C341  1  0.30800000  0.01100000  0.70500000  1.0 -0.0497966362
C  C342  1  0.30600000  0.60300000  0.29500000  1.0 -0.0497966362
C  C343  1  0.01100000  0.30600000  0.70300000  1.0 -0.0497966362
C  C344  1  0.60300000  0.30800000  0.29700000  1.0 -0.0497966362
C  C345  1  0.75800000  0.42640000  0.74880000  1.0 -0.0814742275
C  C346  1  0.67760000  0.00920000  0.25120000  1.0 -0.0814742275
C  C347  1  0.00920000  0.75800000  0.33160000  1.0 -0.0814742275
C  C348  1  0.42640000  0.67760000  0.66840000  1.0 -0.0814742275
C  C349  1  0.24200000  0.99080000  0.66840000  1.0 -0.0814742275
C  C350  1  0.32240000  0.57360000  0.33160000  1.0 -0.0814742275
C  C351  1  0.99080000  0.32240000  0.74880000  1.0 -0.0814742275
C  C352  1  0.57360000  0.24200000  0.25120000  1.0 -0.0814742275
S  S1  1  0.33480000  0.91160000  0.97500000  1.0 0.6638235627
S  S2  1  0.93660000  0.35980000  0.02500000  1.0 0.6638235627
S  S3  1  0.35980000  0.33480000  0.42320000  1.0 0.6638235627
S  S4  1  0.91160000  0.93660000  0.57680000  1.0 0.6638235627
S  S5  1  0.66520000  0.64020000  0.57680000  1.0 0.6638235627
S  S6  1  0.06340000  0.08840000  0.42320000  1.0 0.6638235627
S  S7  1  0.64020000  0.06340000  0.97500000  1.0 0.6638235627
S  S8  1  0.08840000  0.66520000  0.02500000  1.0 0.6638235627
O  O1  1  0.52460000  0.10830000  0.06710000  1.0 -0.4804013765
O  O2  1  0.04120000  0.45750000  0.93290000  1.0 -0.4804013765
O  O3  1  0.45750000  0.52460000  0.41630000  1.0 -0.4804013765
O  O4  1  0.10830000  0.04120000  0.58370000  1.0 -0.4804013765
O  O5  1  0.47540000  0.54250000  0.58370000  1.0 -0.4804013765
O  O6  1  0.95880000  0.89170000  0.41630000  1.0 -0.4804013765
O  O7  1  0.54250000  0.95880000  0.06710000  1.0 -0.4804013765
O  O8  1  0.89170000  0.47540000  0.93290000  1.0 -0.4804013765
O  O9  1  0.54480000  0.20060000  0.06340000  1.0 -0.4676849255
O  O10  1  0.13720000  0.48140000  0.93660000  1.0 -0.4676849255
O  O11  1  0.48140000  0.54480000  0.34420000  1.0 -0.4676849255
O  O12  1  0.20060000  0.13720000  0.65580000  1.0 -0.4676849255
O  O13  1  0.45520000  0.51860000  0.65580000  1.0 -0.4676849255
O  O14  1  0.86280000  0.79940000  0.34420000  1.0 -0.4676849255
O  O15  1  0.51860000  0.86280000  0.06340000  1.0 -0.4676849255
O  O16  1  0.79940000  0.45520000  0.93660000  1.0 -0.4676849255
O  O17  1  0.73970000  0.40170000  0.24340000  1.0 -0.4911121493
O  O18  1  0.15830000  0.49630000  0.75660000  1.0 -0.4911121493
O  O19  1  0.49630000  0.73970000  0.33800000  1.0 -0.4911121493
O  O20  1  0.40170000  0.15830000  0.66200000  1.0 -0.4911121493
O  O21  1  0.26030000  0.50370000  0.66200000  1.0 -0.4911121493
O  O22  1  0.84170000  0.59830000  0.33800000  1.0 -0.4911121493
O  O23  1  0.50370000  0.84170000  0.24340000  1.0 -0.4911121493
O  O24  1  0.59830000  0.26030000  0.75660000  1.0 -0.4911121493
O  O25  1  0.82090000  0.40410000  0.31960000  1.0 -0.4911121493
O  O26  1  0.08450000  0.50130000  0.68040000  1.0 -0.4911121493
O  O27  1  0.50130000  0.82090000  0.41680000  1.0 -0.4911121493
O  O28  1  0.40410000  0.08450000  0.58320000  1.0 -0.4911121493
O  O29  1  0.17910000  0.49870000  0.58320000  1.0 -0.4911121493
O  O30  1  0.91550000  0.59590000  0.41680000  1.0 -0.4911121493
O  O31  1  0.49870000  0.91550000  0.31960000  1.0 -0.4911121493
O  O32  1  0.59590000  0.17910000  0.68040000  1.0 -0.4911121493
O  O33  1  0.73650000  0.16170000  0.24520000  1.0 -0.3022744404
O  O34  1  0.91650000  0.49130000  0.75480000  1.0 -0.3022744404
O  O35  1  0.49130000  0.73650000  0.57480000  1.0 -0.3022744404
O  O36  1  0.16170000  0.91650000  0.42520000  1.0 -0.3022744404
O  O37  1  0.26350000  0.50870000  0.42520000  1.0 -0.3022744404
O  O38  1  0.08350000  0.83830000  0.57480000  1.0 -0.3022744404
O  O39  1  0.50870000  0.08350000  0.24520000  1.0 -0.3022744404
O  O40  1  0.83830000  0.26350000  0.75480000  1.0 -0.3022744404
O  O41  1  0.03700000  0.10680000  0.58560000  1.0 -0.4676849255
O  O42  1  0.52120000  0.45140000  0.41440000  1.0 -0.4676849255
O  O43  1  0.45140000  0.03700000  0.93020000  1.0 -0.4676849255
O  O44  1  0.10680000  0.52120000  0.06980000  1.0 -0.4676849255
O  O45  1  0.96300000  0.54860000  0.06980000  1.0 -0.4676849255
O  O46  1  0.47880000  0.89320000  0.93020000  1.0 -0.4676849255
O  O47  1  0.54860000  0.47880000  0.58560000  1.0 -0.4676849255
O  O48  1  0.89320000  0.96300000  0.41440000  1.0 -0.4676849255
O  O49  1  0.13040000  0.20320000  0.66300000  1.0 -0.4804013765
O  O50  1  0.54020000  0.46740000  0.33700000  1.0 -0.4804013765
O  O51  1  0.46740000  0.13040000  0.92720000  1.0 -0.4804013765
O  O52  1  0.20320000  0.54020000  0.07280000  1.0 -0.4804013765
O  O53  1  0.86960000  0.53260000  0.07280000  1.0 -0.4804013765
O  O54  1  0.45980000  0.79680000  0.92720000  1.0 -0.4804013765
O  O55  1  0.53260000  0.45980000  0.66300000  1.0 -0.4804013765
O  O56  1  0.79680000  0.86960000  0.33700000  1.0 -0.4804013765
O  O57  1  0.16320000  0.40560000  0.66340000  1.0 -0.4985825764
O  O58  1  0.74220000  0.49980000  0.33660000  1.0 -0.4985825764
O  O59  1  0.49980000  0.16320000  0.75760000  1.0 -0.4985825764
O  O60  1  0.40560000  0.74220000  0.24240000  1.0 -0.4985825764
O  O61  1  0.83680000  0.50020000  0.24240000  1.0 -0.4985825764
O  O62  1  0.25780000  0.59440000  0.75760000  1.0 -0.4985825764
O  O63  1  0.50020000  0.25780000  0.66340000  1.0 -0.4985825764
O  O64  1  0.59440000  0.83680000  0.33660000  1.0 -0.4985825764
O  O65  1  0.08180000  0.40400000  0.58680000  1.0 -0.5094262706
O  O66  1  0.81720000  0.49500000  0.41320000  1.0 -0.5094262706
O  O67  1  0.49500000  0.08180000  0.67780000  1.0 -0.5094262706
O  O68  1  0.40400000  0.81720000  0.32220000  1.0 -0.5094262706
O  O69  1  0.91820000  0.50500000  0.32220000  1.0 -0.5094262706
O  O70  1  0.18280000  0.59600000  0.67780000  1.0 -0.5094262706
O  O71  1  0.50500000  0.18280000  0.58680000  1.0 -0.5094262706
O  O72  1  0.59600000  0.91820000  0.41320000  1.0 -0.5094262706
O  O73  1  0.91820000  0.17060000  0.42680000  1.0 -0.26226521
O  O74  1  0.74380000  0.49140000  0.57320000  1.0 -0.26226521
O  O75  1  0.49140000  0.91820000  0.74760000  1.0 -0.26226521
O  O76  1  0.17060000  0.74380000  0.25240000  1.0 -0.26226521
O  O77  1  0.08180000  0.50860000  0.25240000  1.0 -0.26226521
O  O78  1  0.25620000  0.82940000  0.74760000  1.0 -0.26226521
O  O79  1  0.50860000  0.25620000  0.42680000  1.0 -0.26226521
O  O80  1  0.82940000  0.08180000  0.57320000  1.0 -0.26226521
O  O81  1  0.40030000  0.09320000  0.06610000  1.0 -0.531521515
O  O82  1  0.02710000  0.33420000  0.93390000  1.0 -0.531521515
O  O83  1  0.33420000  0.40030000  0.30710000  1.0 -0.531521515
O  O84  1  0.09320000  0.02710000  0.69290000  1.0 -0.531521515
O  O85  1  0.59970000  0.66580000  0.69290000  1.0 -0.531521515
O  O86  1  0.97290000  0.90680000  0.30710000  1.0 -0.531521515
O  O87  1  0.66580000  0.97290000  0.06610000  1.0 -0.531521515
O  O88  1  0.90680000  0.59970000  0.93390000  1.0 -0.531521515
O  O89  1  0.41820000  0.18720000  0.06320000  1.0 -0.4804013765
O  O90  1  0.12400000  0.35500000  0.93680000  1.0 -0.4804013765
O  O91  1  0.35500000  0.41820000  0.23100000  1.0 -0.4804013765
O  O92  1  0.18720000  0.12400000  0.76900000  1.0 -0.4804013765
O  O93  1  0.58180000  0.64500000  0.76900000  1.0 -0.4804013765
O  O94  1  0.87600000  0.81280000  0.23100000  1.0 -0.4804013765
O  O95  1  0.64500000  0.87600000  0.06320000  1.0 -0.4804013765
O  O96  1  0.81280000  0.58180000  0.93680000  1.0 -0.4804013765
O  O97  1  0.43580000  0.36630000  0.24230000  1.0 -0.4538613455
O  O98  1  0.12400000  0.19350000  0.75770000  1.0 -0.4538613455
O  O99  1  0.19350000  0.43580000  0.06950000  1.0 -0.4538613455
O  O100  1  0.36630000  0.12400000  0.93050000  1.0 -0.4538613455
O  O101  1  0.56420000  0.80650000  0.93050000  1.0 -0.4538613455
O  O102  1  0.87600000  0.63370000  0.06950000  1.0 -0.4538613455
O  O103  1  0.80650000  0.87600000  0.24230000  1.0 -0.4538613455
O  O104  1  0.63370000  0.56420000  0.75770000  1.0 -0.4538613455
O  O105  1  0.41610000  0.34630000  0.31760000  1.0 -0.5170257436
O  O106  1  0.02870000  0.09850000  0.68240000  1.0 -0.5170257436
O  O107  1  0.09850000  0.41610000  0.06980000  1.0 -0.5170257436
O  O108  1  0.34630000  0.02870000  0.93020000  1.0 -0.5170257436
O  O109  1  0.58390000  0.90150000  0.93020000  1.0 -0.5170257436
O  O110  1  0.97130000  0.65370000  0.06980000  1.0 -0.5170257436
O  O111  1  0.90150000  0.97130000  0.31760000  1.0 -0.5170257436
O  O112  1  0.65370000  0.58390000  0.68240000  1.0 -0.5170257436
O  O113  1  0.34140000  0.10320000  0.23740000  1.0 -0.1300666862
O  O114  1  0.86580000  0.10400000  0.76260000  1.0 -0.1300666862
O  O115  1  0.10400000  0.34140000  0.23820000  1.0 -0.1300666862
O  O116  1  0.10320000  0.86580000  0.76180000  1.0 -0.1300666862
O  O117  1  0.65860000  0.89600000  0.76180000  1.0 -0.1300666862
O  O118  1  0.13420000  0.89680000  0.23820000  1.0 -0.1300666862
O  O119  1  0.89600000  0.13420000  0.23740000  1.0 -0.1300666862
O  O120  1  0.89680000  0.65860000  0.76260000  1.0 -0.1300666862
O  O121  1  0.70770000  0.50000000  0.20770000  1.0 -0.3518248942
O  O122  1  0.29230000  0.50000000  0.79230000  1.0 -0.3518248942
O  O123  1  0.50000000  0.70770000  0.20770000  1.0 -0.3630720125
O  O124  1  0.50000000  0.29230000  0.79230000  1.0 -0.3518248942
O  O125  1  0.94750000  0.50000000  0.44750000  1.0 -0.2127794901
O  O126  1  0.05250000  0.50000000  0.55250000  1.0 -0.2265897291
O  O127  1  0.50000000  0.94750000  0.44750000  1.0 -0.219422098
O  O128  1  0.50000000  0.05250000  0.55250000  1.0 -0.219422098
O  O129  1  0.47340000  0.25690000  0.98610000  1.0 -0.3989090817
O  O130  1  0.27080000  0.48730000  0.01390000  1.0 -0.3937007533
O  O131  1  0.48730000  0.47340000  0.21650000  1.0 -0.3989090817
O  O132  1  0.25690000  0.27080000  0.78350000  1.0 -0.3989090817
O  O133  1  0.52660000  0.51270000  0.78350000  1.0 -0.3989090817
O  O134  1  0.72920000  0.74310000  0.21650000  1.0 -0.3989090817
O  O135  1  0.51270000  0.72920000  0.98610000  1.0 -0.3989090817
O  O136  1  0.74310000  0.52660000  0.01390000  1.0 -0.4102090643
O  O137  1  0.40380000  0.96470000  0.99630000  1.0 -0.531521515
O  O138  1  0.96840000  0.40750000  0.00370000  1.0 -0.531521515
O  O139  1  0.40750000  0.40380000  0.43910000  1.0 -0.531521515
O  O140  1  0.96470000  0.96840000  0.56090000  1.0 -0.531521515
O  O141  1  0.59620000  0.59250000  0.56090000  1.0 -0.531521515
O  O142  1  0.03160000  0.03530000  0.43910000  1.0 -0.531521515
O  O143  1  0.59250000  0.03160000  0.99630000  1.0 -0.531521515
O  O144  1  0.03530000  0.59620000  0.00370000  1.0 -0.531521515
