# DDEC6 charges by PACMAN v1.1 (https://github.com/mtap-research/PACMAN-charge/)
data_CIMKUI_FSR_pacman
_symmetry_space_group_name_H-M   'P 1'
_cell_length_a   13.68170000
_cell_length_b   43.28080000
_cell_length_c   35.23640000
_cell_angle_alpha   90.00000000
_cell_angle_beta   107.42600000
_cell_angle_gamma   90.00000000
_symmetry_Int_Tables_number   1
_chemical_formula_structural   Cd7H114C142N18O49
_chemical_formula_sum   'Cd28 H456 C568 N72 O196'
_cell_volume   19907.77997638
_cell_formula_units_Z   4
loop_
 _symmetry_equiv_pos_site_id
 _symmetry_equiv_pos_as_xyz
  1  'x, y, z'
loop_
 _atom_site_type_symbol
 _atom_site_label
 _atom_site_symmetry_multiplicity
 _atom_site_fract_x
 _atom_site_fract_y
 _atom_site_fract_z
 _atom_site_occupancy
 _atom_site_charge
Cd  Cd1  1  0.27766000  0.09890000  0.93727000  1.0 0.978576571
Cd  Cd2  1  0.27766000  0.40110000  0.43727000  1.0 0.978576571
Cd  Cd3  1  0.51960000  0.36008000  0.45156000  1.0 1.0199515821
Cd  Cd4  1  0.51960000  0.13992000  0.95156000  1.0 1.0199515821
Cd  Cd5  1  0.68512000  0.40182000  0.40743000  1.0 0.9198799731
Cd  Cd6  1  0.68512000  0.09818000  0.90743000  1.0 0.9198799731
Cd  Cd7  1  0.35179000  0.58009000  0.90823000  1.0 1.0092112126
Cd  Cd8  1  0.35179000  0.91991000  0.40823000  1.0 1.0092112126
Cd  Cd9  1  0.13050000  0.61296000  0.82493000  1.0 1.1811136606
Cd  Cd10  1  0.13050000  0.88704000  0.32493000  1.0 1.1811136606
Cd  Cd11  1  0.31151000  0.65903000  0.90881000  1.0 1.002132863
Cd  Cd12  1  0.31151000  0.84097000  0.40881000  1.0 1.002132863
Cd  Cd13  1  0.55276000  0.63289000  0.87777000  1.0 1.002132863
Cd  Cd14  1  0.55276000  0.86711000  0.37777000  1.0 1.002132863
Cd  Cd15  1  0.72234000  0.59890000  0.56273000  1.0 0.978576571
Cd  Cd16  1  0.72234000  0.90110000  0.06273000  1.0 0.978576571
Cd  Cd17  1  0.48040000  0.86008000  0.04844000  1.0 1.0199515821
Cd  Cd18  1  0.48040000  0.63992000  0.54844000  1.0 1.0199515821
Cd  Cd19  1  0.31488000  0.90182000  0.09257000  1.0 0.9198799731
Cd  Cd20  1  0.31488000  0.59818000  0.59257000  1.0 0.9198799731
Cd  Cd21  1  0.64821000  0.08009000  0.59177000  1.0 1.0092112126
Cd  Cd22  1  0.64821000  0.41991000  0.09177000  1.0 1.0092112126
Cd  Cd23  1  0.86950000  0.11296000  0.67507000  1.0 1.1811136606
Cd  Cd24  1  0.86950000  0.38704000  0.17507000  1.0 1.1811136606
Cd  Cd25  1  0.68849000  0.15903000  0.59119000  1.0 1.002132863
Cd  Cd26  1  0.68849000  0.34097000  0.09119000  1.0 1.002132863
Cd  Cd27  1  0.44724000  0.13289000  0.62223000  1.0 1.002132863
Cd  Cd28  1  0.44724000  0.36711000  0.12223000  1.0 1.002132863
H  H1  1  0.77038000  0.58366000  0.31610000  1.0 0.2710555595
H  H2  1  0.77038000  0.91634000  0.81610000  1.0 0.2710555595
H  H3  1  0.63383000  0.61458000  0.13760000  1.0 0.2777646385
H  H4  1  0.63383000  0.88542000  0.63760000  1.0 0.2777646385
H  H5  1  0.78779000  0.72061000  0.26410000  1.0 0.2710555595
H  H6  1  0.78779000  0.77939000  0.76410000  1.0 0.2710555595
H  H7  1  0.03410000  0.41871000  0.75484000  1.0 0.2710555595
H  H8  1  0.03410000  0.08129000  0.25484000  1.0 0.2710555595
H  H9  1  0.98647000  0.35920000  0.65958000  1.0 0.2863006985
H  H10  1  0.98647000  0.14080000  0.15958000  1.0 0.2863006985
H  H11  1  0.12899000  0.29481000  0.83875000  1.0 0.2863006985
H  H12  1  0.12899000  0.20519000  0.33875000  1.0 0.2863006985
H  H13  1  0.21048000  0.95217000  0.76211000  1.0 0.2710555595
H  H14  1  0.21048000  0.54783000  0.26211000  1.0 0.2710555595
H  H15  1  0.16778000  0.85873000  0.62379000  1.0 0.2863006985
H  H16  1  0.16778000  0.64127000  0.12379000  1.0 0.2863006985
H  H17  1  0.27278000  0.81082000  0.79798000  1.0 0.2710555595
H  H18  1  0.27278000  0.68918000  0.29798000  1.0 0.2710555595
H  H19  1  0.60500000  0.44138000  0.81016000  1.0 0.2863006985
H  H20  1  0.60500000  0.05862000  0.31016000  1.0 0.2863006985
H  H21  1  0.49896000  0.39972000  0.70141000  1.0 0.2777646385
H  H22  1  0.49896000  0.10028000  0.20141000  1.0 0.2777646385
H  H23  1  0.61477000  0.28727000  0.81319000  1.0 0.2777646385
H  H24  1  0.61477000  0.21273000  0.31319000  1.0 0.2777646385
H  H25  1  0.62385000  0.28522000  0.58103000  1.0 0.0908473011
H  H26  1  0.62385000  0.21478000  0.08103000  1.0 0.0908473011
H  H27  1  0.72520000  0.26398000  0.58331000  1.0 0.1001339501
H  H28  1  0.72520000  0.23602000  0.08331000  1.0 0.1001339501
H  H29  1  0.77789000  0.50791000  0.40277000  1.0 0.1207220346
H  H30  1  0.77789000  0.99209000  0.90277000  1.0 0.1207220346
H  H31  1  0.78580000  0.55494000  0.37231000  1.0 0.1207220346
H  H32  1  0.78580000  0.94506000  0.87231000  1.0 0.1207220346
H  H33  1  0.70688000  0.51290000  0.26433000  1.0 0.139726322
H  H34  1  0.70688000  0.98710000  0.76433000  1.0 0.139726322
H  H35  1  0.69750000  0.46582000  0.29624000  1.0 0.1207220346
H  H36  1  0.69750000  0.03418000  0.79624000  1.0 0.1207220346
H  H37  1  0.79161000  0.62773000  0.30532000  1.0 0.1104579224
H  H38  1  0.79161000  0.87227000  0.80532000  1.0 0.1104579224
H  H39  1  0.76599000  0.68854000  0.21554000  1.0 0.1207220346
H  H40  1  0.76599000  0.81146000  0.71554000  1.0 0.1207220346
H  H41  1  0.70252000  0.59811000  0.19108000  1.0 0.1104579224
H  H42  1  0.70252000  0.90189000  0.69108000  1.0 0.1104579224
H  H43  1  0.76509000  0.65141000  0.08132000  1.0 0.139726322
H  H44  1  0.76509000  0.84859000  0.58132000  1.0 0.139726322
H  H45  1  0.72252000  0.64781000  0.01218000  1.0 0.1207220346
H  H46  1  0.72252000  0.85219000  0.51218000  1.0 0.1207220346
H  H47  1  0.44870000  0.61112000  0.00762000  1.0 0.1104579224
H  H48  1  0.44870000  0.88888000  0.50762000  1.0 0.1104579224
H  H49  1  0.49354000  0.61163000  0.07603000  1.0 0.1207220346
H  H50  1  0.49354000  0.88837000  0.57603000  1.0 0.1207220346
H  H51  1  0.27296000  0.69646000  0.97410000  1.0 0.1001339501
H  H52  1  0.27296000  0.80354000  0.47410000  1.0 0.1001339501
H  H53  1  0.29547000  0.70006000  0.05425000  1.0 0.1298722307
H  H54  1  0.29547000  0.79994000  0.55425000  1.0 0.1298722307
H  H55  1  0.36453000  0.73038000  0.06694000  1.0 0.1298722307
H  H56  1  0.36453000  0.76962000  0.56694000  1.0 0.1298722307
H  H57  1  0.26512000  0.73114000  0.02882000  1.0 0.1104579224
H  H58  1  0.26512000  0.76886000  0.52882000  1.0 0.1104579224
H  H59  1  0.52738000  0.70342000  0.01693000  1.0 0.139726322
H  H60  1  0.52738000  0.79658000  0.51693000  1.0 0.139726322
H  H61  1  0.51271000  0.73346000  0.04115000  1.0 0.1207220346
H  H62  1  0.51271000  0.76654000  0.54115000  1.0 0.1207220346
H  H63  1  0.51740000  0.69995000  0.06083000  1.0 0.139726322
H  H64  1  0.51740000  0.80005000  0.56083000  1.0 0.139726322
H  H65  1  0.91416000  0.81383000  0.31415000  1.0 0.1104579224
H  H66  1  0.91416000  0.68617000  0.81415000  1.0 0.1104579224
H  H67  1  0.99824000  0.71433000  0.34984000  1.0 0.1207220346
H  H68  1  0.99824000  0.78567000  0.84984000  1.0 0.1207220346
H  H69  1  0.11254000  0.75403000  0.37553000  1.0 0.1104579224
H  H70  1  0.11254000  0.74597000  0.87553000  1.0 0.1104579224
H  H71  1  0.30522000  0.58622000  0.79414000  1.0 0.0908473011
H  H72  1  0.30522000  0.91378000  0.29414000  1.0 0.0908473011
H  H73  1  0.49882000  0.59853000  0.76454000  1.0 0.139726322
H  H74  1  0.49882000  0.90147000  0.26454000  1.0 0.139726322
H  H75  1  0.43737000  0.57038000  0.77608000  1.0 0.1207220346
H  H76  1  0.43737000  0.92962000  0.27608000  1.0 0.1207220346
H  H77  1  0.43152000  0.57611000  0.73058000  1.0 0.139726322
H  H78  1  0.43152000  0.92389000  0.23058000  1.0 0.139726322
H  H79  1  0.40412000  0.64307000  0.73072000  1.0 0.1298722307
H  H80  1  0.40412000  0.85693000  0.23072000  1.0 0.1298722307
H  H81  1  0.32778000  0.62288000  0.69640000  1.0 0.139726322
H  H82  1  0.32778000  0.87712000  0.19640000  1.0 0.139726322
H  H83  1  0.28321000  0.64480000  0.72385000  1.0 0.1298722307
H  H84  1  0.28321000  0.85520000  0.22385000  1.0 0.1298722307
H  H85  1  0.36244000  0.51714000  0.93723000  1.0 0.1298722307
H  H86  1  0.36244000  0.98286000  0.43723000  1.0 0.1298722307
H  H87  1  0.40800000  0.44803000  0.92117000  1.0 0.0805150608
H  H88  1  0.40800000  0.05197000  0.42117000  1.0 0.0805150608
H  H89  1  0.45610000  0.44618000  0.96848000  1.0 0.0730696024
H  H90  1  0.45610000  0.05382000  0.46848000  1.0 0.0730696024
H  H91  1  0.34832000  0.46298000  0.94940000  1.0 0.0908473011
H  H92  1  0.34832000  0.03702000  0.44940000  1.0 0.0908473011
H  H93  1  0.61529000  0.47694000  0.97252000  1.0 0.0730696024
H  H94  1  0.61529000  0.02306000  0.47252000  1.0 0.0730696024
H  H95  1  0.58375000  0.47588000  0.92499000  1.0 0.0908473011
H  H96  1  0.58375000  0.02412000  0.42499000  1.0 0.0908473011
H  H97  1  0.60101000  0.50841000  0.94762000  1.0 0.0908473011
H  H98  1  0.60101000  0.99159000  0.44762000  1.0 0.0908473011
H  H99  1  0.07633000  0.52089000  0.76962000  1.0 0.1207220346
H  H100  1  0.07633000  0.97911000  0.26962000  1.0 0.1207220346
H  H101  1  0.02740000  0.47162000  0.74561000  1.0 0.1298722307
H  H102  1  0.02740000  0.02838000  0.24561000  1.0 0.1298722307
H  H103  1  0.17669000  0.43526000  0.85283000  1.0 0.1298722307
H  H104  1  0.17669000  0.06474000  0.35283000  1.0 0.1298722307
H  H105  1  0.22982000  0.48447000  0.87654000  1.0 0.1104579224
H  H106  1  0.22982000  0.01553000  0.37654000  1.0 0.1104579224
H  H107  1  0.96866000  0.38322000  0.72074000  1.0 0.1104579224
H  H108  1  0.96866000  0.11678000  0.22074000  1.0 0.1104579224
H  H109  1  0.92429000  0.29064000  0.72323000  1.0 0.1298722307
H  H110  1  0.92429000  0.20936000  0.22323000  1.0 0.1298722307
H  H111  1  0.04977000  0.33757000  0.82593000  1.0 0.1207220346
H  H112  1  0.04977000  0.16243000  0.32593000  1.0 0.1207220346
H  H113  1  0.73566000  0.36962000  0.61136000  1.0 0.1298722307
H  H114  1  0.73566000  0.13038000  0.11136000  1.0 0.1298722307
H  H115  1  0.66778000  0.38372000  0.54435000  1.0 0.1207220346
H  H116  1  0.66778000  0.11628000  0.04435000  1.0 0.1207220346
H  H117  1  0.93532000  0.36580000  0.52606000  1.0 0.1207220346
H  H118  1  0.93532000  0.13420000  0.02606000  1.0 0.1207220346
H  H119  1  0.00466000  0.34999000  0.59151000  1.0 0.1298722307
H  H120  1  0.00466000  0.15001000  0.09151000  1.0 0.1298722307
H  H121  1  0.01598000  0.22180000  0.83639000  1.0 0.1298722307
H  H122  1  0.01598000  0.27820000  0.33639000  1.0 0.1298722307
H  H123  1  0.10104000  0.17848000  0.87066000  1.0 0.1207220346
H  H124  1  0.10104000  0.32152000  0.37066000  1.0 0.1298722307
H  H125  1  0.36280000  0.22704000  0.90902000  1.0 0.1104579224
H  H126  1  0.36280000  0.27296000  0.40902000  1.0 0.1104579224
H  H127  1  0.27983000  0.27069000  0.87709000  1.0 0.139726322
H  H128  1  0.27983000  0.22931000  0.37709000  1.0 0.139726322
H  H129  1  0.16267000  0.04244000  0.81410000  1.0 0.1298722307
H  H130  1  0.16267000  0.45756000  0.31410000  1.0 0.1298722307
H  H131  1  0.16015000  0.00101000  0.77191000  1.0 0.1207220346
H  H132  1  0.16015000  0.49899000  0.27191000  1.0 0.1207220346
H  H133  1  0.28993000  0.94560000  0.86649000  1.0 0.139726322
H  H134  1  0.28993000  0.55440000  0.36649000  1.0 0.139726322
H  H135  1  0.29788000  0.98932000  0.90821000  1.0 0.1298722307
H  H136  1  0.29788000  0.51068000  0.40821000  1.0 0.1298722307
H  H137  1  0.20883000  0.92686000  0.71501000  1.0 0.1104579224
H  H138  1  0.20883000  0.57314000  0.21501000  1.0 0.1104579224
H  H139  1  0.22849000  0.83918000  0.67777000  1.0 0.1104579224
H  H140  1  0.22849000  0.66082000  0.17777000  1.0 0.1104579224
H  H141  1  0.27947000  0.85686000  0.79501000  1.0 0.1104579224
H  H142  1  0.27947000  0.64314000  0.29501000  1.0 0.1104579224
H  H143  1  0.27059000  0.92434000  0.59112000  1.0 0.1298722307
H  H144  1  0.27059000  0.57566000  0.09112000  1.0 0.1298722307
H  H145  1  0.29305000  0.92868000  0.52842000  1.0 0.1104579224
H  H146  1  0.29305000  0.57132000  0.02842000  1.0 0.1104579224
H  H147  1  0.15434000  0.84661000  0.49723000  1.0 0.1104579224
H  H148  1  0.15434000  0.65339000  0.99723000  1.0 0.1104579224
H  H149  1  0.13232000  0.84166000  0.55882000  1.0 0.1207220346
H  H150  1  0.13232000  0.65834000  0.05882000  1.0 0.1207220346
H  H151  1  0.28581000  0.74506000  0.74112000  1.0 0.1298722307
H  H152  1  0.28581000  0.75494000  0.24112000  1.0 0.1298722307
H  H153  1  0.32844000  0.69463000  0.76819000  1.0 0.1104579224
H  H154  1  0.32844000  0.80537000  0.26819000  1.0 0.1104579224
H  H155  1  0.36496000  0.72768000  0.87481000  1.0 0.1207220346
H  H156  1  0.36496000  0.77232000  0.37481000  1.0 0.1207220346
H  H157  1  0.31183000  0.77609000  0.84876000  1.0 0.1207220346
H  H158  1  0.31183000  0.72391000  0.34876000  1.0 0.1207220346
H  H159  1  0.69941000  0.53689000  0.86392000  1.0 0.1207220346
H  H160  1  0.69941000  0.96311000  0.36392000  1.0 0.1207220346
H  H161  1  0.71064000  0.48379000  0.85138000  1.0 0.1298722307
H  H162  1  0.71064000  0.01621000  0.35138000  1.0 0.1298722307
H  H163  1  0.40358000  0.47594000  0.82945000  1.0 0.1298722307
H  H164  1  0.40358000  0.02406000  0.32945000  1.0 0.1298722307
H  H165  1  0.39462000  0.52841000  0.84425000  1.0 0.1104579224
H  H166  1  0.39462000  0.97159000  0.34425000  1.0 0.1104579224
H  H167  1  0.51075000  0.40810000  0.75986000  1.0 0.1104579224
H  H168  1  0.51075000  0.09190000  0.25986000  1.0 0.1104579224
H  H169  1  0.50554000  0.31437000  0.76405000  1.0 0.1207220346
H  H170  1  0.50554000  0.18563000  0.26405000  1.0 0.1207220346
H  H171  1  0.54507000  0.36442000  0.86480000  1.0 0.1207220346
H  H172  1  0.54507000  0.13558000  0.36480000  1.0 0.1207220346
H  H173  1  0.71972000  0.24426000  0.82601000  1.0 0.1298722307
H  H174  1  0.71972000  0.25574000  0.32601000  1.0 0.1298722307
H  H175  1  0.74796000  0.19305000  0.84806000  1.0 0.1207220346
H  H176  1  0.74796000  0.30695000  0.34806000  1.0 0.1207220346
H  H177  1  0.50698000  0.19918000  0.89157000  1.0 0.1207220346
H  H178  1  0.50698000  0.30082000  0.39157000  1.0 0.1207220346
H  H179  1  0.48261000  0.25098000  0.87185000  1.0 0.1207220346
H  H180  1  0.48261000  0.24902000  0.37185000  1.0 0.1207220346
H  H181  1  0.40316000  0.42264000  0.63718000  1.0 0.1207220346
H  H182  1  0.40316000  0.07736000  0.13718000  1.0 0.1207220346
H  H183  1  0.37884000  0.42350000  0.56953000  1.0 0.1207220346
H  H184  1  0.37884000  0.07650000  0.06953000  1.0 0.1207220346
H  H185  1  0.52758000  0.34362000  0.57667000  1.0 0.1104579224
H  H186  1  0.52758000  0.15638000  0.07667000  1.0 0.1104579224
H  H187  1  0.55119000  0.34071000  0.64479000  1.0 0.1298722307
H  H188  1  0.55119000  0.15929000  0.14479000  1.0 0.1298722307
H  H189  1  0.80120000  0.77313000  0.28568000  1.0 0.1104579224
H  H190  1  0.80120000  0.72687000  0.78568000  1.0 0.1104579224
H  H191  1  0.43685000  0.44785000  0.41485000  1.0 0.139726322
H  H192  1  0.43685000  0.05215000  0.91485000  1.0 0.139726322
H  H193  1  0.99250000  0.80351000  0.27477000  1.0 0.1207220346
H  H194  1  0.99250000  0.69649000  0.77477000  1.0 0.1207220346
H  H195  1  0.85960000  0.76570000  0.25409000  1.0 0.1104579224
H  H196  1  0.85960000  0.73430000  0.75409000  1.0 0.1104579224
H  H197  1  0.36466000  0.51139000  0.93668000  1.0 0.1207220346
H  H198  1  0.36466000  0.98861000  0.43668000  1.0 0.1207220346
H  H199  1  0.50282000  0.45493000  0.92501000  1.0 0.0908473011
H  H200  1  0.50282000  0.04507000  0.42501000  1.0 0.0908473011
H  H201  1  0.52076000  0.45419000  0.97201000  1.0 0.0908473011
H  H202  1  0.52076000  0.04581000  0.47201000  1.0 0.0908473011
H  H203  1  0.41027000  0.46267000  0.94247000  1.0 0.0313912707
H  H204  1  0.41027000  0.03733000  0.44247000  1.0 0.0313912707
H  H205  1  0.65205000  0.49629000  0.98940000  1.0 0.0805150608
H  H206  1  0.65205000  0.00371000  0.48940000  1.0 0.0805150608
H  H207  1  0.65348000  0.49206000  0.94445000  1.0 0.0610899778
H  H208  1  0.65348000  0.00794000  0.44445000  1.0 0.0610899778
H  H209  1  0.63308000  0.52543000  0.96013000  1.0 0.1001339501
H  H210  1  0.63308000  0.97457000  0.46013000  1.0 0.1001339501
H  H211  1  0.43102000  0.76168000  0.76769000  1.0 0.1207220346
H  H212  1  0.43102000  0.73832000  0.26769000  1.0 0.1207220346
H  H213  1  0.42926000  0.70718000  0.77468000  1.0 0.1104579224
H  H214  1  0.42926000  0.79282000  0.27468000  1.0 0.1104579224
H  H215  1  0.57240000  0.30973000  0.51920000  1.0 0.1298722307
H  H216  1  0.57240000  0.19027000  0.01920000  1.0 0.1298722307
H  H217  1  0.82670000  0.28725000  0.57746000  1.0 0.0908473011
H  H218  1  0.82670000  0.21275000  0.07746000  1.0 0.0908473011
H  H219  1  0.71733000  0.29185000  0.58447000  1.0 0.1104579224
H  H220  1  0.71733000  0.20815000  0.08447000  1.0 0.1104579224
H  H221  1  0.74617000  0.25938000  0.56890000  1.0 0.0908473011
H  H222  1  0.74617000  0.24062000  0.06890000  1.0 0.0908473011
H  H223  1  0.78479000  0.30268000  0.48874000  1.0 0.1207220346
H  H224  1  0.78479000  0.19732000  0.98874000  1.0 0.1207220346
H  H225  1  0.85656000  0.28715000  0.52858000  1.0 0.0908473011
H  H226  1  0.85656000  0.21285000  0.02858000  1.0 0.0908473011
H  H227  1  0.77760000  0.26634000  0.49586000  1.0 0.1001339501
H  H228  1  0.77760000  0.23366000  0.99586000  1.0 0.1001339501
H  H229  1  0.22962000  0.08366000  0.18390000  1.0 0.2710555595
H  H230  1  0.22962000  0.41634000  0.68390000  1.0 0.2710555595
H  H231  1  0.36617000  0.11458000  0.36240000  1.0 0.2777646385
H  H232  1  0.36617000  0.38542000  0.86240000  1.0 0.2777646385
H  H233  1  0.21221000  0.22061000  0.23590000  1.0 0.2710555595
H  H234  1  0.21221000  0.27939000  0.73590000  1.0 0.2710555595
H  H235  1  0.96590000  0.91871000  0.74516000  1.0 0.2710555595
H  H236  1  0.96590000  0.58129000  0.24516000  1.0 0.2710555595
H  H237  1  0.01353000  0.85920000  0.84042000  1.0 0.2863006985
H  H238  1  0.01353000  0.64080000  0.34042000  1.0 0.2863006985
H  H239  1  0.87101000  0.79481000  0.66125000  1.0 0.2863006985
H  H240  1  0.87101000  0.70519000  0.16125000  1.0 0.2863006985
H  H241  1  0.78952000  0.45217000  0.73789000  1.0 0.2710555595
H  H242  1  0.78952000  0.04783000  0.23789000  1.0 0.2710555595
H  H243  1  0.83222000  0.35873000  0.87621000  1.0 0.2863006985
H  H244  1  0.83222000  0.14127000  0.37621000  1.0 0.2863006985
H  H245  1  0.72722000  0.31082000  0.70202000  1.0 0.2710555595
H  H246  1  0.72722000  0.18918000  0.20202000  1.0 0.2710555595
H  H247  1  0.39500000  0.94138000  0.68984000  1.0 0.2863006985
H  H248  1  0.39500000  0.55862000  0.18984000  1.0 0.2863006985
H  H249  1  0.50104000  0.89972000  0.79859000  1.0 0.2777646385
H  H250  1  0.50104000  0.60028000  0.29859000  1.0 0.2777646385
H  H251  1  0.38523000  0.78727000  0.68681000  1.0 0.2777646385
H  H252  1  0.38523000  0.71273000  0.18681000  1.0 0.2777646385
H  H253  1  0.37615000  0.78522000  0.91897000  1.0 0.0908473011
H  H254  1  0.37615000  0.71478000  0.41897000  1.0 0.0908473011
H  H255  1  0.27480000  0.76398000  0.91669000  1.0 0.1001339501
H  H256  1  0.27480000  0.73602000  0.41669000  1.0 0.1001339501
H  H257  1  0.22211000  0.00791000  0.09723000  1.0 0.1207220346
H  H258  1  0.22211000  0.49209000  0.59723000  1.0 0.1207220346
H  H259  1  0.21420000  0.05494000  0.12769000  1.0 0.1207220346
H  H260  1  0.21420000  0.44506000  0.62769000  1.0 0.1207220346
H  H261  1  0.29312000  0.01290000  0.23567000  1.0 0.139726322
H  H262  1  0.29312000  0.48710000  0.73567000  1.0 0.139726322
H  H263  1  0.30250000  0.96582000  0.20376000  1.0 0.1207220346
H  H264  1  0.30250000  0.53418000  0.70376000  1.0 0.1207220346
H  H265  1  0.20839000  0.12773000  0.19468000  1.0 0.1104579224
H  H266  1  0.20839000  0.37227000  0.69468000  1.0 0.1104579224
H  H267  1  0.23401000  0.18854000  0.28446000  1.0 0.1207220346
H  H268  1  0.23401000  0.31146000  0.78446000  1.0 0.1207220346
H  H269  1  0.29748000  0.09811000  0.30892000  1.0 0.1104579224
H  H270  1  0.29748000  0.40189000  0.80892000  1.0 0.1104579224
H  H271  1  0.23491000  0.15141000  0.41868000  1.0 0.139726322
H  H272  1  0.23491000  0.34859000  0.91868000  1.0 0.139726322
H  H273  1  0.27748000  0.14781000  0.48782000  1.0 0.1207220346
H  H274  1  0.27748000  0.35219000  0.98782000  1.0 0.1207220346
H  H275  1  0.55130000  0.11112000  0.49238000  1.0 0.1104579224
H  H276  1  0.55130000  0.38888000  0.99238000  1.0 0.1104579224
H  H277  1  0.50646000  0.11163000  0.42397000  1.0 0.1207220346
H  H278  1  0.50646000  0.38837000  0.92397000  1.0 0.1207220346
H  H279  1  0.72704000  0.19646000  0.52590000  1.0 0.1001339501
H  H280  1  0.72704000  0.30354000  0.02590000  1.0 0.1001339501
H  H281  1  0.70453000  0.20006000  0.44575000  1.0 0.1298722307
H  H282  1  0.70453000  0.29994000  0.94575000  1.0 0.1298722307
H  H283  1  0.63547000  0.23038000  0.43306000  1.0 0.1298722307
H  H284  1  0.63547000  0.26962000  0.93306000  1.0 0.1298722307
H  H285  1  0.73488000  0.23114000  0.47118000  1.0 0.1104579224
H  H286  1  0.73488000  0.26886000  0.97118000  1.0 0.1104579224
H  H287  1  0.47262000  0.20342000  0.48307000  1.0 0.139726322
H  H288  1  0.47262000  0.29658000  0.98307000  1.0 0.139726322
H  H289  1  0.48729000  0.23346000  0.45885000  1.0 0.1207220346
H  H290  1  0.48729000  0.26654000  0.95885000  1.0 0.1207220346
H  H291  1  0.48260000  0.19995000  0.43917000  1.0 0.139726322
H  H292  1  0.48260000  0.30005000  0.93917000  1.0 0.139726322
H  H293  1  0.08584000  0.31383000  0.18585000  1.0 0.1104579224
H  H294  1  0.08584000  0.18617000  0.68585000  1.0 0.1104579224
H  H295  1  0.00176000  0.21433000  0.15016000  1.0 0.1207220346
H  H296  1  0.00176000  0.28567000  0.65016000  1.0 0.1207220346
H  H297  1  0.88746000  0.25403000  0.12447000  1.0 0.1104579224
H  H298  1  0.88746000  0.24597000  0.62447000  1.0 0.1104579224
H  H299  1  0.69478000  0.08622000  0.70586000  1.0 0.0908473011
H  H300  1  0.69478000  0.41378000  0.20586000  1.0 0.0908473011
H  H301  1  0.50118000  0.09853000  0.73546000  1.0 0.139726322
H  H302  1  0.50118000  0.40147000  0.23546000  1.0 0.139726322
H  H303  1  0.56263000  0.07038000  0.72392000  1.0 0.1207220346
H  H304  1  0.56263000  0.42962000  0.22392000  1.0 0.1207220346
H  H305  1  0.56848000  0.07611000  0.76942000  1.0 0.139726322
H  H306  1  0.56848000  0.42389000  0.26942000  1.0 0.139726322
H  H307  1  0.59588000  0.14307000  0.76928000  1.0 0.1298722307
H  H308  1  0.59588000  0.35693000  0.26928000  1.0 0.1298722307
H  H309  1  0.67222000  0.12288000  0.80360000  1.0 0.139726322
H  H310  1  0.67222000  0.37712000  0.30360000  1.0 0.139726322
H  H311  1  0.71679000  0.14480000  0.77615000  1.0 0.1298722307
H  H312  1  0.71679000  0.35520000  0.27615000  1.0 0.1298722307
H  H313  1  0.63756000  0.01714000  0.56277000  1.0 0.1298722307
H  H314  1  0.63756000  0.48286000  0.06277000  1.0 0.1298722307
H  H315  1  0.59200000  0.94803000  0.57883000  1.0 0.0805150608
H  H316  1  0.59200000  0.55197000  0.07883000  1.0 0.0805150608
H  H317  1  0.54390000  0.94618000  0.53152000  1.0 0.0730696024
H  H318  1  0.54390000  0.55382000  0.03152000  1.0 0.0730696024
H  H319  1  0.65168000  0.96298000  0.55060000  1.0 0.0908473011
H  H320  1  0.65168000  0.53702000  0.05060000  1.0 0.0908473011
H  H321  1  0.38471000  0.97694000  0.52748000  1.0 0.0730696024
H  H322  1  0.38471000  0.52306000  0.02748000  1.0 0.0730696024
H  H323  1  0.41625000  0.97588000  0.57501000  1.0 0.0908473011
H  H324  1  0.41625000  0.52412000  0.07501000  1.0 0.0908473011
H  H325  1  0.39899000  0.00841000  0.55238000  1.0 0.0908473011
H  H326  1  0.39899000  0.49159000  0.05238000  1.0 0.0908473011
H  H327  1  0.92367000  0.02089000  0.73038000  1.0 0.1207220346
H  H328  1  0.92367000  0.47911000  0.23038000  1.0 0.1207220346
H  H329  1  0.97260000  0.97162000  0.75439000  1.0 0.1298722307
H  H330  1  0.97260000  0.52838000  0.25439000  1.0 0.1298722307
H  H331  1  0.82331000  0.93526000  0.64717000  1.0 0.1298722307
H  H332  1  0.82331000  0.56474000  0.14717000  1.0 0.1298722307
H  H333  1  0.77018000  0.98447000  0.62346000  1.0 0.1104579224
H  H334  1  0.77018000  0.51553000  0.12346000  1.0 0.1104579224
H  H335  1  0.03134000  0.88322000  0.77926000  1.0 0.1104579224
H  H336  1  0.03134000  0.61678000  0.27926000  1.0 0.1104579224
H  H337  1  0.07571000  0.79064000  0.77677000  1.0 0.1298722307
H  H338  1  0.07571000  0.70936000  0.27677000  1.0 0.1298722307
H  H339  1  0.95023000  0.83757000  0.67407000  1.0 0.1207220346
H  H340  1  0.95023000  0.66243000  0.17407000  1.0 0.1207220346
H  H341  1  0.26434000  0.86962000  0.88864000  1.0 0.1298722307
H  H342  1  0.26434000  0.63038000  0.38864000  1.0 0.1298722307
H  H343  1  0.33222000  0.88372000  0.95565000  1.0 0.1207220346
H  H344  1  0.33222000  0.61628000  0.45565000  1.0 0.1207220346
H  H345  1  0.06468000  0.86580000  0.97394000  1.0 0.1207220346
H  H346  1  0.06468000  0.63420000  0.47394000  1.0 0.1207220346
H  H347  1  0.99534000  0.84999000  0.90849000  1.0 0.1298722307
H  H348  1  0.99534000  0.65001000  0.40849000  1.0 0.1298722307
H  H349  1  0.98402000  0.72180000  0.66361000  1.0 0.1298722307
H  H350  1  0.98402000  0.77820000  0.16361000  1.0 0.1298722307
H  H351  1  0.89896000  0.67848000  0.62934000  1.0 0.1207220346
H  H352  1  0.89896000  0.82152000  0.12934000  1.0 0.1207220346
H  H353  1  0.63720000  0.72704000  0.59098000  1.0 0.1104579224
H  H354  1  0.63720000  0.77296000  0.09098000  1.0 0.1104579224
H  H355  1  0.72017000  0.77069000  0.62291000  1.0 0.139726322
H  H356  1  0.72017000  0.72931000  0.12291000  1.0 0.139726322
H  H357  1  0.83733000  0.54244000  0.68590000  1.0 0.1298722307
H  H358  1  0.83733000  0.95756000  0.18590000  1.0 0.1298722307
H  H359  1  0.83985000  0.50101000  0.72809000  1.0 0.1207220346
H  H360  1  0.83985000  0.99899000  0.22809000  1.0 0.1207220346
H  H361  1  0.71007000  0.44560000  0.63351000  1.0 0.139726322
H  H362  1  0.71007000  0.05440000  0.13351000  1.0 0.139726322
H  H363  1  0.70212000  0.48932000  0.59179000  1.0 0.1298722307
H  H364  1  0.70212000  0.01068000  0.09179000  1.0 0.1298722307
H  H365  1  0.79117000  0.42686000  0.78499000  1.0 0.1104579224
H  H366  1  0.79117000  0.07314000  0.28499000  1.0 0.1104579224
H  H367  1  0.77151000  0.33918000  0.82223000  1.0 0.1104579224
H  H368  1  0.77151000  0.16082000  0.32223000  1.0 0.1104579224
H  H369  1  0.72053000  0.35686000  0.70499000  1.0 0.1104579224
H  H370  1  0.72053000  0.14314000  0.20499000  1.0 0.1104579224
H  H371  1  0.72941000  0.42434000  0.90888000  1.0 0.1298722307
H  H372  1  0.72941000  0.07566000  0.40888000  1.0 0.1298722307
H  H373  1  0.70695000  0.42868000  0.97158000  1.0 0.1104579224
H  H374  1  0.70695000  0.07132000  0.47158000  1.0 0.1104579224
H  H375  1  0.84566000  0.34661000  0.00277000  1.0 0.1104579224
H  H376  1  0.84566000  0.15339000  0.50277000  1.0 0.1104579224
H  H377  1  0.86768000  0.34166000  0.94118000  1.0 0.1207220346
H  H378  1  0.86768000  0.15834000  0.44118000  1.0 0.1207220346
H  H379  1  0.71419000  0.24506000  0.75888000  1.0 0.1298722307
H  H380  1  0.71419000  0.25494000  0.25888000  1.0 0.1298722307
H  H381  1  0.67156000  0.19463000  0.73181000  1.0 0.1104579224
H  H382  1  0.67156000  0.30537000  0.23181000  1.0 0.1104579224
H  H383  1  0.63504000  0.22768000  0.62519000  1.0 0.1207220346
H  H384  1  0.63504000  0.27232000  0.12519000  1.0 0.1207220346
H  H385  1  0.68817000  0.27609000  0.65124000  1.0 0.1207220346
H  H386  1  0.68817000  0.22391000  0.15124000  1.0 0.1207220346
H  H387  1  0.30059000  0.03689000  0.63608000  1.0 0.1207220346
H  H388  1  0.30059000  0.46311000  0.13608000  1.0 0.1207220346
H  H389  1  0.28936000  0.98379000  0.64862000  1.0 0.1298722307
H  H390  1  0.28936000  0.51621000  0.14862000  1.0 0.1298722307
H  H391  1  0.59642000  0.97594000  0.67055000  1.0 0.1298722307
H  H392  1  0.59642000  0.52406000  0.17055000  1.0 0.1298722307
H  H393  1  0.60538000  0.02841000  0.65575000  1.0 0.1104579224
H  H394  1  0.60538000  0.47159000  0.15575000  1.0 0.1104579224
H  H395  1  0.48925000  0.90810000  0.74014000  1.0 0.1104579224
H  H396  1  0.48925000  0.59190000  0.24014000  1.0 0.1104579224
H  H397  1  0.49446000  0.81437000  0.73595000  1.0 0.1207220346
H  H398  1  0.49446000  0.68563000  0.23595000  1.0 0.1207220346
H  H399  1  0.45493000  0.86442000  0.63520000  1.0 0.1207220346
H  H400  1  0.45493000  0.63558000  0.13520000  1.0 0.1207220346
H  H401  1  0.28028000  0.74426000  0.67399000  1.0 0.1298722307
H  H402  1  0.28028000  0.75574000  0.17399000  1.0 0.1298722307
H  H403  1  0.25204000  0.69305000  0.65194000  1.0 0.1207220346
H  H404  1  0.25204000  0.80695000  0.15194000  1.0 0.1207220346
H  H405  1  0.49302000  0.69918000  0.60843000  1.0 0.1207220346
H  H406  1  0.49302000  0.80082000  0.10843000  1.0 0.1207220346
H  H407  1  0.51739000  0.75098000  0.62815000  1.0 0.1207220346
H  H408  1  0.51739000  0.74902000  0.12815000  1.0 0.1207220346
H  H409  1  0.59684000  0.92264000  0.86282000  1.0 0.1207220346
H  H410  1  0.59684000  0.57736000  0.36282000  1.0 0.1207220346
H  H411  1  0.62116000  0.92350000  0.93047000  1.0 0.1207220346
H  H412  1  0.62116000  0.57650000  0.43047000  1.0 0.1207220346
H  H413  1  0.47242000  0.84362000  0.92333000  1.0 0.1104579224
H  H414  1  0.47242000  0.65638000  0.42333000  1.0 0.1104579224
H  H415  1  0.44881000  0.84071000  0.85521000  1.0 0.1298722307
H  H416  1  0.44881000  0.65929000  0.35521000  1.0 0.1298722307
H  H417  1  0.19880000  0.27313000  0.21432000  1.0 0.1104579224
H  H418  1  0.19880000  0.22687000  0.71432000  1.0 0.1104579224
H  H419  1  0.56315000  0.94785000  0.08515000  1.0 0.139726322
H  H420  1  0.56315000  0.55215000  0.58515000  1.0 0.139726322
H  H421  1  0.00750000  0.30351000  0.22523000  1.0 0.1207220346
H  H422  1  0.00750000  0.19649000  0.72523000  1.0 0.1207220346
H  H423  1  0.14040000  0.26570000  0.24591000  1.0 0.1104579224
H  H424  1  0.14040000  0.23430000  0.74591000  1.0 0.1104579224
H  H425  1  0.63534000  0.01139000  0.56332000  1.0 0.1207220346
H  H426  1  0.63534000  0.48861000  0.06332000  1.0 0.1207220346
H  H427  1  0.49718000  0.95493000  0.57499000  1.0 0.0908473011
H  H428  1  0.49718000  0.54507000  0.07499000  1.0 0.0908473011
H  H429  1  0.47924000  0.95419000  0.52799000  1.0 0.0908473011
H  H430  1  0.47924000  0.54581000  0.02799000  1.0 0.0908473011
H  H431  1  0.58973000  0.96267000  0.55753000  1.0 0.0313912707
H  H432  1  0.58973000  0.53733000  0.05753000  1.0 0.0313912707
H  H433  1  0.34795000  0.99629000  0.51060000  1.0 0.0805150608
H  H434  1  0.34795000  0.50371000  0.01060000  1.0 0.0805150608
H  H435  1  0.34652000  0.99206000  0.55555000  1.0 0.0610899778
H  H436  1  0.34652000  0.50794000  0.05555000  1.0 0.0610899778
H  H437  1  0.36692000  0.02543000  0.53987000  1.0 0.1001339501
H  H438  1  0.36692000  0.47457000  0.03987000  1.0 0.1001339501
H  H439  1  0.56898000  0.26168000  0.73231000  1.0 0.1207220346
H  H440  1  0.56898000  0.23832000  0.23231000  1.0 0.1207220346
H  H441  1  0.57074000  0.20718000  0.72532000  1.0 0.1104579224
H  H442  1  0.57074000  0.29282000  0.22532000  1.0 0.1104579224
H  H443  1  0.42760000  0.80973000  0.98080000  1.0 0.1298722307
H  H444  1  0.42760000  0.69027000  0.48080000  1.0 0.1298722307
H  H445  1  0.17330000  0.78725000  0.92254000  1.0 0.0908473011
H  H446  1  0.17330000  0.71275000  0.42254000  1.0 0.0908473011
H  H447  1  0.28267000  0.79185000  0.91553000  1.0 0.1104579224
H  H448  1  0.28267000  0.70815000  0.41553000  1.0 0.1104579224
H  H449  1  0.25383000  0.75938000  0.93110000  1.0 0.0908473011
H  H450  1  0.25383000  0.74062000  0.43110000  1.0 0.0908473011
H  H451  1  0.21521000  0.80268000  0.01126000  1.0 0.1207220346
H  H452  1  0.21521000  0.69732000  0.51126000  1.0 0.1207220346
H  H453  1  0.14344000  0.78715000  0.97142000  1.0 0.0908473011
H  H454  1  0.14344000  0.71285000  0.47142000  1.0 0.0908473011
H  H455  1  0.22240000  0.76634000  0.00414000  1.0 0.1001339501
H  H456  1  0.22240000  0.73366000  0.50414000  1.0 0.1001339501
C  C1  1  0.77580000  0.29020000  0.52880000  1.0 0.0908473011
C  C2  1  0.77580000  0.20980000  0.02880000  1.0 0.0908473011
C  C3  1  0.64220000  0.15795000  0.88380000  1.0 0.5686785879
C  C4  1  0.64220000  0.34205000  0.38380000  1.0 0.5686785879
C  C5  1  0.67510000  0.27860000  0.56970000  1.0 -0.1190458509
C  C6  1  0.67510000  0.22140000  0.06970000  1.0 -0.1190458509
C  C7  1  0.72950000  0.45199000  0.37150000  1.0 0.5414952563
C  C8  1  0.72950000  0.04801000  0.87150000  1.0 0.5414952563
C  C9  1  0.73690000  0.48241000  0.35270000  1.0 -0.0322082742
C  C10  1  0.73690000  0.01759000  0.85270000  1.0 -0.0322082742
C  C11  1  0.76290000  0.50883000  0.37470000  1.0 -0.0721842119
C  C12  1  0.76290000  0.99117000  0.87470000  1.0 -0.0721842119
C  C13  1  0.76740000  0.53684000  0.35650000  1.0 -0.2237724232
C  C14  1  0.76740000  0.96316000  0.85650000  1.0 -0.2237724232
C  C15  1  0.74530000  0.53884000  0.31520000  1.0 0.2302390239
C  C16  1  0.74530000  0.96116000  0.81520000  1.0 0.2302390239
C  C17  1  0.72040000  0.51215000  0.29240000  1.0 -0.199623421
C  C18  1  0.72040000  0.98785000  0.79240000  1.0 -0.199623421
C  C19  1  0.71560000  0.48412000  0.31160000  1.0 -0.0908274399
C  C20  1  0.71560000  0.01588000  0.81160000  1.0 -0.0908274399
C  C21  1  0.72572000  0.57544000  0.26032000  1.0 0.4506075738
C  C22  1  0.72572000  0.92456000  0.76032000  1.0 0.4506075738
C  C23  1  0.74086000  0.60850000  0.25026000  1.0 -0.0322082742
C  C24  1  0.74086000  0.89150000  0.75026000  1.0 -0.0322082742
C  C25  1  0.77517000  0.63199000  0.27767000  1.0 -0.1775878815
C  C26  1  0.77517000  0.86801000  0.77767000  1.0 -0.1775878815
C  C27  1  0.78566000  0.66246000  0.26446000  1.0 -0.009734819
C  C28  1  0.78566000  0.83754000  0.76446000  1.0 -0.009734819
C  C29  1  0.76161000  0.66804000  0.22451000  1.0 -0.1405055391
C  C30  1  0.76161000  0.83196000  0.72451000  1.0 -0.1405055391
C  C31  1  0.73070000  0.64425000  0.19650000  1.0 -0.009734819
C  C32  1  0.73070000  0.85575000  0.69650000  1.0 -0.009734819
C  C33  1  0.72183000  0.61453000  0.20973000  1.0 -0.1405055391
C  C34  1  0.72183000  0.88547000  0.70973000  1.0 -0.1405055391
C  C35  1  0.83565000  0.68520000  0.29655000  1.0 0.4598850181
C  C36  1  0.83565000  0.81480000  0.79655000  1.0 0.4598850181
C  C37  1  0.71550000  0.65104000  0.15360000  1.0 0.477423683
C  C38  1  0.71550000  0.84896000  0.65360000  1.0 0.477423683
C  C39  1  0.63400000  0.63150000  0.08560000  1.0 0.2302390239
C  C40  1  0.63400000  0.86850000  0.58560000  1.0 0.2302390239
C  C41  1  0.70130000  0.64270000  0.06640000  1.0 -0.1775878815
C  C42  1  0.70130000  0.85730000  0.56640000  1.0 -0.1775878815
C  C43  1  0.67500000  0.64120000  0.02540000  1.0 -0.0908274399
C  C44  1  0.67500000  0.85880000  0.52540000  1.0 -0.0908274399
C  C45  1  0.57862000  0.63014000  0.00312000  1.0 -0.0322082742
C  C46  1  0.57862000  0.86986000  0.50312000  1.0 -0.0322082742
C  C47  1  0.51341000  0.61916000  0.02251000  1.0 -0.1119771598
C  C48  1  0.51341000  0.88084000  0.52251000  1.0 -0.1119771598
C  C49  1  0.53984000  0.61957000  0.06304000  1.0 -0.2237724232
C  C50  1  0.53984000  0.88043000  0.56304000  1.0 -0.2237724232
C  C51  1  0.54990000  0.62931000  0.95870000  1.0 0.5905574761
C  C52  1  0.54990000  0.87069000  0.45870000  1.0 0.5905574761
C  C53  1  0.34560000  0.69780000  0.98360000  1.0 0.1501778366
C  C54  1  0.34560000  0.80220000  0.48360000  1.0 0.1501778366
C  C55  1  0.32230000  0.71840000  0.04440000  1.0 -0.3539816363
C  C56  1  0.32230000  0.78160000  0.54440000  1.0 -0.3539816363
C  C57  1  0.49430000  0.71160000  0.03590000  1.0 -0.336154863
C  C58  1  0.49430000  0.78840000  0.53590000  1.0 -0.336154863
C  C59  1  0.11300000  0.81280000  0.35460000  1.0 0.4688169027
C  C60  1  0.11300000  0.68720000  0.85460000  1.0 0.4688169027
C  C61  1  0.03640000  0.78647000  0.34010000  1.0 -0.009734819
C  C62  1  0.03640000  0.71353000  0.84010000  1.0 -0.009734819
C  C63  1  0.93710000  0.79300000  0.31800000  1.0 -0.0599458179
C  C64  1  0.93710000  0.70700000  0.81800000  1.0 -0.0599458179
C  C65  1  0.90130000  0.73889000  0.30640000  1.0 0.1817314608
C  C66  1  0.90130000  0.76111000  0.80640000  1.0 0.1817314608
C  C67  1  0.98540000  0.73430000  0.33820000  1.0 -0.227587491
C  C68  1  0.98540000  0.76570000  0.83820000  1.0 -0.227587491
C  C69  1  0.05280000  0.75822000  0.35400000  1.0 -0.1775878815
C  C70  1  0.05280000  0.74178000  0.85400000  1.0 -0.1775878815
C  C71  1  0.28940000  0.60300000  0.77590000  1.0 0.2710555595
C  C72  1  0.28940000  0.89700000  0.27590000  1.0 0.2710555595
C  C73  1  0.43610000  0.58620000  0.75600000  1.0 -0.3217756113
C  C74  1  0.43610000  0.91380000  0.25600000  1.0 -0.3217756113
C  C75  1  0.34010000  0.63120000  0.72330000  1.0 -0.3217756113
C  C76  1  0.34010000  0.86880000  0.22330000  1.0 -0.3217756113
C  C77  1  0.43430000  0.51711000  0.94130000  1.0 -0.0322082742
C  C78  1  0.43430000  0.98289000  0.44130000  1.0 -0.0322082742
C  C79  1  0.41600000  0.45890000  0.94630000  1.0 -0.210431973
C  C80  1  0.41600000  0.04110000  0.44630000  1.0 -0.210431973
C  C81  1  0.57580000  0.48720000  0.94790000  1.0 -0.0184912775
C  C82  1  0.57580000  0.01280000  0.44790000  1.0 -0.0184912775
C  C83  1  0.18720000  0.53991000  0.84210000  1.0 0.4950512054
C  C84  1  0.18720000  0.96009000  0.34210000  1.0 0.4950512054
C  C85  1  0.15530000  0.50800000  0.82660000  1.0 -0.0505437793
C  C86  1  0.15530000  0.99200000  0.32660000  1.0 -0.0505437793
C  C87  1  0.09580000  0.50359000  0.78680000  1.0 -0.0988324186
C  C88  1  0.09580000  0.99641000  0.28680000  1.0 -0.0988324186
C  C89  1  0.06570000  0.47442000  0.77270000  1.0 -0.199623421
C  C90  1  0.06570000  0.02558000  0.27270000  1.0 -0.199623421
C  C91  1  0.09067000  0.44937000  0.79747000  1.0 0.2302390239
C  C92  1  0.09067000  0.05063000  0.29747000  1.0 0.2302390239
C  C93  1  0.15480000  0.45279000  0.83620000  1.0 -0.1707248289
C  C94  1  0.15480000  0.04721000  0.33620000  1.0 -0.1707248289
C  C95  1  0.18600000  0.48206000  0.85010000  1.0 -0.0908274399
C  C96  1  0.18600000  0.01794000  0.35010000  1.0 -0.0908274399
C  C97  1  0.04836000  0.39371000  0.80096000  1.0 0.4506075738
C  C98  1  0.04836000  0.10629000  0.30096000  1.0 0.4506075738
C  C99  1  0.01315000  0.36510000  0.77675000  1.0 -0.009734819
C  C100  1  0.01315000  0.13490000  0.27675000  1.0 -0.009734819
C  C101  1  0.97289000  0.36463000  0.73549000  1.0 -0.1775878815
C  C102  1  0.97289000  0.13537000  0.23549000  1.0 -0.1775878815
C  C103  1  0.93865000  0.33692000  0.71575000  1.0 0.0025622099
C  C104  1  0.93865000  0.16308000  0.21575000  1.0 0.0025622099
C  C105  1  0.94832000  0.30944000  0.73672000  1.0 -0.1405055391
C  C106  1  0.94832000  0.19056000  0.23672000  1.0 -0.1405055391
C  C107  1  0.99353000  0.30963000  0.77773000  1.0 -0.009734819
C  C108  1  0.99353000  0.19037000  0.27773000  1.0 -0.009734819
C  C109  1  0.02295000  0.33745000  0.79775000  1.0 -0.1493769752
C  C110  1  0.02295000  0.16255000  0.29775000  1.0 -0.1493769752
C  C111  1  0.87798000  0.33724000  0.67248000  1.0 0.4688169027
C  C112  1  0.87798000  0.16276000  0.17248000  1.0 0.4688169027
C  C113  1  0.87641000  0.35924000  0.60811000  1.0 0.1997468902
C  C114  1  0.87641000  0.14076000  0.10811000  1.0 0.1997468902
C  C115  1  0.77733000  0.36880000  0.59413000  1.0 -0.1900566069
C  C116  1  0.77733000  0.13120000  0.09413000  1.0 -0.1900566069
C  C117  1  0.73733000  0.37742000  0.55423000  1.0 -0.1300010493
C  C118  1  0.73733000  0.12258000  0.05423000  1.0 -0.1300010493
C  C119  1  0.79673000  0.37691000  0.52923000  1.0 -0.0184912775
C  C120  1  0.79673000  0.12309000  0.02923000  1.0 -0.0184912775
C  C121  1  0.89420000  0.36670000  0.54350000  1.0 -0.0988324186
C  C122  1  0.89420000  0.13330000  0.04350000  1.0 -0.0988324186
C  C123  1  0.93630000  0.35740000  0.58240000  1.0 -0.199623421
C  C124  1  0.93630000  0.14260000  0.08240000  1.0 -0.199623421
C  C125  1  0.75560000  0.38591000  0.48630000  1.0 0.5686785879
C  C126  1  0.75560000  0.11409000  0.98630000  1.0 0.5686785879
C  C127  1  0.01106000  0.27870000  0.79886000  1.0 0.4598850181
C  C128  1  0.01106000  0.22130000  0.29886000  1.0 0.4598850181
C  C129  1  0.14050000  0.25031000  0.85140000  1.0 0.2381113434
C  C130  1  0.14050000  0.24969000  0.35140000  1.0 0.2381113434
C  C131  1  0.08670000  0.22298000  0.85070000  1.0 -0.199623421
C  C132  1  0.08670000  0.27702000  0.35070000  1.0 -0.199623421
C  C133  1  0.13780000  0.19720000  0.87140000  1.0 -0.0988324186
C  C134  1  0.13780000  0.30280000  0.37140000  1.0 -0.0988324186
C  C135  1  0.23960000  0.19828000  0.89270000  1.0 -0.0404039874
C  C136  1  0.23960000  0.30172000  0.39270000  1.0 -0.0404039874
C  C137  1  0.29230000  0.22595000  0.89430000  1.0 -0.0908274399
C  C138  1  0.29230000  0.27405000  0.39430000  1.0 -0.0908274399
C  C139  1  0.24360000  0.25173000  0.87480000  1.0 -0.199623421
C  C140  1  0.24360000  0.24827000  0.37480000  1.0 -0.199623421
C  C141  1  0.29470000  0.16950000  0.91210000  1.0 0.5905574761
C  C142  1  0.29470000  0.33050000  0.41210000  1.0 0.5905574761
C  C143  1  0.23700000  0.04678000  0.89260000  1.0 0.5414952563
C  C144  1  0.23700000  0.45322000  0.39260000  1.0 0.5414952563
C  C145  1  0.22750000  0.01959000  0.86500000  1.0 -0.0599458179
C  C146  1  0.22750000  0.48041000  0.36500000  1.0 -0.0599458179
C  C147  1  0.18900000  0.02298000  0.82490000  1.0 -0.0721842119
C  C148  1  0.18900000  0.47702000  0.32490000  1.0 -0.0721842119
C  C149  1  0.18780000  0.99837000  0.79990000  1.0 -0.210431973
C  C150  1  0.18780000  0.50163000  0.29990000  1.0 -0.210431973
C  C151  1  0.22700000  0.96940000  0.81530000  1.0 0.2302390239
C  C152  1  0.22700000  0.53060000  0.31530000  1.0 0.2302390239
C  C153  1  0.26560000  0.96520000  0.85550000  1.0 -0.199623421
C  C154  1  0.26560000  0.53480000  0.35550000  1.0 -0.199623421
C  C155  1  0.26780000  0.99135000  0.88030000  1.0 -0.0908274399
C  C156  1  0.26780000  0.50865000  0.38030000  1.0 -0.0908274399
C  C157  1  0.24832000  0.91567000  0.79502000  1.0 0.4506075738
C  C158  1  0.24832000  0.58433000  0.29502000  1.0 0.4506075738
C  C159  1  0.24369000  0.89536000  0.76019000  1.0 -0.0322082742
C  C160  1  0.24369000  0.60464000  0.26019000  1.0 -0.0322082742
C  C161  1  0.22150000  0.90556000  0.72100000  1.0 -0.1775878815
C  C162  1  0.22150000  0.59444000  0.22100000  1.0 -0.1775878815
C  C163  1  0.21800000  0.88470000  0.69070000  1.0 -0.0184912775
C  C164  1  0.21800000  0.61530000  0.19070000  1.0 -0.0184912775
C  C165  1  0.23332000  0.85348000  0.69872000  1.0 -0.1493769752
C  C166  1  0.23332000  0.64652000  0.19872000  1.0 -0.1493769752
C  C167  1  0.25661000  0.84306000  0.73871000  1.0 0.0025622099
C  C168  1  0.25661000  0.65694000  0.23871000  1.0 0.0025622099
C  C169  1  0.26237000  0.86387000  0.76827000  1.0 -0.1190458509
C  C170  1  0.26237000  0.63613000  0.26827000  1.0 -0.1190458509
C  C171  1  0.20586000  0.89776000  0.65026000  1.0 0.4598850181
C  C172  1  0.20586000  0.60224000  0.15026000  1.0 0.4598850181
C  C173  1  0.20002000  0.88294000  0.58152000  1.0 0.2302390239
C  C174  1  0.20002000  0.61706000  0.08152000  1.0 0.2302390239
C  C175  1  0.24699000  0.90836000  0.57209000  1.0 -0.1900566069
C  C176  1  0.24699000  0.59164000  0.07209000  1.0 -0.1900566069
C  C177  1  0.26038000  0.91086000  0.53468000  1.0 -0.1190458509
C  C178  1  0.26038000  0.58914000  0.03468000  1.0 -0.1190458509
C  C179  1  0.22710000  0.88797000  0.50630000  1.0 -0.0404039874
C  C180  1  0.22710000  0.61203000  0.00630000  1.0 -0.0404039874
C  C181  1  0.17870000  0.86250000  0.51640000  1.0 -0.0824750869
C  C182  1  0.17870000  0.63750000  0.01640000  1.0 -0.0824750869
C  C183  1  0.16520000  0.85949000  0.55270000  1.0 -0.199623421
C  C184  1  0.16520000  0.64051000  0.05270000  1.0 -0.199623421
C  C185  1  0.24710000  0.88997000  0.46730000  1.0 0.5686785879
C  C186  1  0.24710000  0.61003000  0.96730000  1.0 0.5686785879
C  C187  1  0.27875000  0.80903000  0.74455000  1.0 0.4688169027
C  C188  1  0.27875000  0.69097000  0.24455000  1.0 0.4688169027
C  C189  1  0.31350000  0.76724000  0.79410000  1.0 0.1817314608
C  C190  1  0.31350000  0.73276000  0.29410000  1.0 0.1817314608
C  C191  1  0.30850000  0.74220000  0.76910000  1.0 -0.0184912775
C  C192  1  0.30850000  0.75780000  0.26910000  1.0 -0.0184912775
C  C193  1  0.33720000  0.71220000  0.78500000  1.0 -0.0599458179
C  C194  1  0.33720000  0.78780000  0.28500000  1.0 -0.0599458179
C  C195  1  0.37870000  0.70962000  0.82630000  1.0 -0.0019510614
C  C196  1  0.37870000  0.79038000  0.32630000  1.0 -0.0019510614
C  C197  1  0.35790000  0.73150000  0.84760000  1.0 -0.1707248289
C  C198  1  0.35790000  0.76850000  0.34760000  1.0 -0.1707248289
C  C199  1  0.32560000  0.76062000  0.83190000  1.0 -0.2479023633
C  C200  1  0.32560000  0.73938000  0.33190000  1.0 -0.2479023633
C  C201  1  0.42390000  0.67860000  0.84320000  1.0 0.5278598072
C  C202  1  0.42390000  0.82140000  0.34320000  1.0 0.5278598072
C  C203  1  0.54160000  0.57128000  0.86350000  1.0 0.5456085207
C  C204  1  0.54160000  0.92872000  0.36350000  1.0 0.5456085207
C  C205  1  0.54526000  0.53761000  0.85546000  1.0 -0.0404039874
C  C206  1  0.54526000  0.96239000  0.35546000  1.0 -0.0404039874
C  C207  1  0.63950000  0.52444000  0.85720000  1.0 -0.0824750869
C  C208  1  0.63950000  0.97556000  0.35720000  1.0 -0.0824750869
C  C209  1  0.64630000  0.49313000  0.84910000  1.0 -0.199623421
C  C210  1  0.64630000  0.00687000  0.34910000  1.0 -0.199623421
C  C211  1  0.55689000  0.47603000  0.83769000  1.0 0.1997468902
C  C212  1  0.55689000  0.02397000  0.33769000  1.0 0.1997468902
C  C213  1  0.46353000  0.48838000  0.83633000  1.0 -0.2237724232
C  C214  1  0.46353000  0.01162000  0.33633000  1.0 -0.2237724232
C  C215  1  0.45874000  0.51949000  0.84524000  1.0 -0.1300010493
C  C216  1  0.45874000  0.98051000  0.34524000  1.0 -0.1300010493
C  C217  1  0.51720000  0.42028000  0.83520000  1.0 0.4688169027
C  C218  1  0.51720000  0.07972000  0.33520000  1.0 0.4688169027
C  C219  1  0.52712000  0.39045000  0.81512000  1.0 -0.0019510614
C  C220  1  0.52712000  0.10955000  0.31512000  1.0 -0.0019510614
C  C221  1  0.51348000  0.38945000  0.77438000  1.0 -0.1775878815
C  C222  1  0.51348000  0.11055000  0.27438000  1.0 -0.1775878815
C  C223  1  0.50405000  0.36114000  0.75495000  1.0 -0.009734819
C  C224  1  0.50405000  0.13886000  0.25495000  1.0 -0.009734819
C  C225  1  0.51156000  0.33382000  0.77706000  1.0 -0.1493769752
C  C226  1  0.51156000  0.16618000  0.27706000  1.0 -0.1493769752
C  C227  1  0.52779000  0.33505000  0.81809000  1.0 -0.0184912775
C  C228  1  0.52779000  0.16495000  0.31809000  1.0 -0.0184912775
C  C229  1  0.53485000  0.36347000  0.83695000  1.0 -0.1405055391
C  C230  1  0.53485000  0.13653000  0.33695000  1.0 -0.1405055391
C  C231  1  0.53200000  0.30619000  0.84190000  1.0 0.4598850181
C  C232  1  0.53200000  0.19381000  0.34190000  1.0 0.4598850181
C  C233  1  0.59980000  0.25236000  0.84700000  1.0 0.2302390239
C  C234  1  0.59980000  0.24764000  0.34700000  1.0 0.2302390239
C  C235  1  0.67700000  0.23517000  0.83980000  1.0 -0.199623421
C  C236  1  0.67700000  0.26483000  0.33980000  1.0 -0.199623421
C  C237  1  0.69340000  0.20461000  0.85250000  1.0 -0.0908274399
C  C238  1  0.69340000  0.29539000  0.35250000  1.0 -0.0908274399
C  C239  1  0.62940000  0.19125000  0.87180000  1.0 -0.0322082742
C  C240  1  0.62940000  0.30875000  0.37180000  1.0 -0.0322082742
C  C241  1  0.55110000  0.20849000  0.87860000  1.0 -0.0908274399
C  C242  1  0.55110000  0.29151000  0.37860000  1.0 -0.0908274399
C  C243  1  0.53570000  0.23920000  0.86660000  1.0 -0.199623421
C  C244  1  0.53570000  0.26080000  0.36660000  1.0 -0.199623421
C  C245  1  0.48493000  0.35659000  0.71113000  1.0 0.4506075738
C  C246  1  0.48493000  0.14341000  0.21113000  1.0 0.4506075738
C  C247  1  0.47651000  0.38139000  0.64761000  1.0 0.2381113434
C  C248  1  0.47651000  0.11861000  0.14761000  1.0 0.2381113434
C  C249  1  0.42740000  0.40598000  0.62490000  1.0 -0.199623421
C  C250  1  0.42740000  0.09402000  0.12490000  1.0 -0.199623421
C  C251  1  0.41340000  0.40650000  0.58480000  1.0 -0.0824750869
C  C252  1  0.41340000  0.09350000  0.08480000  1.0 -0.0824750869
C  C253  1  0.44830000  0.38297000  0.56620000  1.0 -0.0322082742
C  C254  1  0.44830000  0.11703000  0.06620000  1.0 -0.0322082742
C  C255  1  0.50030000  0.35952000  0.58910000  1.0 -0.0988324186
C  C256  1  0.50030000  0.14048000  0.08910000  1.0 -0.0988324186
C  C257  1  0.51548000  0.35763000  0.62968000  1.0 -0.1707248289
C  C258  1  0.51548000  0.14237000  0.12968000  1.0 -0.1707248289
C  C259  1  0.42753000  0.38288000  0.52183000  1.0 0.5905574761
C  C260  1  0.42753000  0.11712000  0.02183000  1.0 0.5905574761
C  C261  1  0.62840000  0.30810000  0.50860000  1.0 -0.0019510614
C  C262  1  0.62840000  0.19190000  0.00860000  1.0 -0.0019510614
C  C263  1  0.44110000  0.41600000  0.39110000  1.0 0.2710555595
C  C264  1  0.44110000  0.08400000  0.89110000  1.0 0.2645589115
C  C265  1  0.86950000  0.76860000  0.30100000  1.0 -0.0721842119
C  C266  1  0.86950000  0.73140000  0.80100000  1.0 -0.0721842119
C  C267  1  0.47320000  0.42940000  0.41370000  1.0 0.2118388267
C  C268  1  0.47320000  0.07060000  0.91370000  1.0 0.2118388267
C  C269  1  0.97900000  0.78840000  0.29200000  1.0 -0.0824750869
C  C270  1  0.97900000  0.71160000  0.79200000  1.0 -0.0824750869
C  C271  1  0.90680000  0.76500000  0.28010000  1.0 -0.0322082742
C  C272  1  0.90680000  0.73500000  0.78010000  1.0 -0.0322082742
C  C273  1  0.48430000  0.46460000  0.94710000  1.0 -0.0184912775
C  C274  1  0.48430000  0.03540000  0.44710000  1.0 -0.0184912775
C  C275  1  0.62160000  0.50320000  0.96190000  1.0 -0.2237724232
C  C276  1  0.62160000  0.99680000  0.46190000  1.0 -0.2237724232
C  C277  1  0.39060000  0.75130000  0.78160000  1.0 -0.0721842119
C  C278  1  0.39060000  0.74870000  0.28160000  1.0 -0.0721842119
C  C279  1  0.40470000  0.72090000  0.79070000  1.0 -0.009734819
C  C280  1  0.40470000  0.77910000  0.29070000  1.0 -0.009734819
C  C281  1  0.75390000  0.28180000  0.56780000  1.0 -0.0908274399
C  C282  1  0.75390000  0.21820000  0.06780000  1.0 -0.0908274399
C  C283  1  0.78880000  0.28660000  0.50880000  1.0 -0.210431973
C  C284  1  0.78880000  0.21340000  0.00880000  1.0 -0.210431973
C  C285  1  0.22420000  0.79020000  0.97120000  1.0 0.0908473011
C  C286  1  0.22420000  0.70980000  0.47120000  1.0 0.0908473011
C  C287  1  0.35780000  0.65795000  0.61620000  1.0 0.5686785879
C  C288  1  0.35780000  0.84205000  0.11620000  1.0 0.5686785879
C  C289  1  0.32490000  0.77860000  0.93030000  1.0 -0.1190458509
C  C290  1  0.32490000  0.72140000  0.43030000  1.0 -0.1190458509
C  C291  1  0.27050000  0.95199000  0.12850000  1.0 0.5414952563
C  C292  1  0.27050000  0.54801000  0.62850000  1.0 0.5414952563
C  C293  1  0.26310000  0.98241000  0.14730000  1.0 -0.0322082742
C  C294  1  0.26310000  0.51759000  0.64730000  1.0 -0.0322082742
C  C295  1  0.23710000  0.00883000  0.12530000  1.0 -0.0721842119
C  C296  1  0.23710000  0.49117000  0.62530000  1.0 -0.0721842119
C  C297  1  0.23260000  0.03684000  0.14350000  1.0 -0.2237724232
C  C298  1  0.23260000  0.46316000  0.64350000  1.0 -0.2237724232
C  C299  1  0.25470000  0.03884000  0.18480000  1.0 0.2302390239
C  C300  1  0.25470000  0.46116000  0.68480000  1.0 0.2302390239
C  C301  1  0.27960000  0.01215000  0.20760000  1.0 -0.199623421
C  C302  1  0.27960000  0.48785000  0.70760000  1.0 -0.199623421
C  C303  1  0.28440000  0.98412000  0.18840000  1.0 -0.0908274399
C  C304  1  0.28440000  0.51588000  0.68840000  1.0 -0.0908274399
C  C305  1  0.27428000  0.07544000  0.23968000  1.0 0.4506075738
C  C306  1  0.27428000  0.42456000  0.73968000  1.0 0.4506075738
C  C307  1  0.25914000  0.10850000  0.24974000  1.0 -0.0322082742
C  C308  1  0.25914000  0.39150000  0.74974000  1.0 -0.0322082742
C  C309  1  0.22483000  0.13199000  0.22233000  1.0 -0.1775878815
C  C310  1  0.22483000  0.36801000  0.72233000  1.0 -0.1775878815
C  C311  1  0.21434000  0.16246000  0.23554000  1.0 -0.009734819
C  C312  1  0.21434000  0.33754000  0.73554000  1.0 -0.009734819
C  C313  1  0.23839000  0.16804000  0.27549000  1.0 -0.1405055391
C  C314  1  0.23839000  0.33196000  0.77549000  1.0 -0.1405055391
C  C315  1  0.26930000  0.14425000  0.30350000  1.0 -0.009734819
C  C316  1  0.26930000  0.35575000  0.80350000  1.0 -0.009734819
C  C317  1  0.27817000  0.11453000  0.29027000  1.0 -0.1405055391
C  C318  1  0.27817000  0.38547000  0.79027000  1.0 -0.1405055391
C  C319  1  0.16435000  0.18520000  0.20345000  1.0 0.4598850181
C  C320  1  0.16435000  0.31480000  0.70345000  1.0 0.4598850181
C  C321  1  0.28450000  0.15104000  0.34640000  1.0 0.477423683
C  C322  1  0.28450000  0.34896000  0.84640000  1.0 0.477423683
C  C323  1  0.36600000  0.13150000  0.41440000  1.0 0.2302390239
C  C324  1  0.36600000  0.36850000  0.91440000  1.0 0.2302390239
C  C325  1  0.29870000  0.14270000  0.43360000  1.0 -0.1775878815
C  C326  1  0.29870000  0.35730000  0.93360000  1.0 -0.1775878815
C  C327  1  0.32500000  0.14120000  0.47460000  1.0 -0.0908274399
C  C328  1  0.32500000  0.35880000  0.97460000  1.0 -0.0908274399
C  C329  1  0.42138000  0.13014000  0.49688000  1.0 -0.0322082742
C  C330  1  0.42138000  0.36986000  0.99688000  1.0 -0.0322082742
C  C331  1  0.48659000  0.11916000  0.47749000  1.0 -0.1119771598
C  C332  1  0.48659000  0.38084000  0.97749000  1.0 -0.1119771598
C  C333  1  0.46016000  0.11957000  0.43696000  1.0 -0.2237724232
C  C334  1  0.46016000  0.38043000  0.93696000  1.0 -0.2237724232
C  C335  1  0.45010000  0.12931000  0.54130000  1.0 0.5905574761
C  C336  1  0.45010000  0.37069000  0.04130000  1.0 0.5905574761
C  C337  1  0.65440000  0.19780000  0.51640000  1.0 0.1501778366
C  C338  1  0.65440000  0.30220000  0.01640000  1.0 0.1501778366
C  C339  1  0.67770000  0.21840000  0.45560000  1.0 -0.3539816363
C  C340  1  0.67770000  0.28160000  0.95560000  1.0 -0.3539816363
C  C341  1  0.50570000  0.21160000  0.46410000  1.0 -0.336154863
C  C342  1  0.50570000  0.28840000  0.96410000  1.0 -0.336154863
C  C343  1  0.88700000  0.31280000  0.14540000  1.0 0.4688169027
C  C344  1  0.88700000  0.18720000  0.64540000  1.0 0.4688169027
C  C345  1  0.96360000  0.28647000  0.15990000  1.0 -0.009734819
C  C346  1  0.96360000  0.21353000  0.65990000  1.0 -0.009734819
C  C347  1  0.06290000  0.29300000  0.18200000  1.0 -0.0599458179
C  C348  1  0.06290000  0.20700000  0.68200000  1.0 -0.0599458179
C  C349  1  0.09870000  0.23889000  0.19360000  1.0 0.1817314608
C  C350  1  0.09870000  0.26111000  0.69360000  1.0 0.1817314608
C  C351  1  0.01460000  0.23430000  0.16180000  1.0 -0.227587491
C  C352  1  0.01460000  0.26570000  0.66180000  1.0 -0.227587491
C  C353  1  0.94720000  0.25822000  0.14600000  1.0 -0.1775878815
C  C354  1  0.94720000  0.24178000  0.64600000  1.0 -0.1775878815
C  C355  1  0.71060000  0.10300000  0.72410000  1.0 0.2710555595
C  C356  1  0.71060000  0.39700000  0.22410000  1.0 0.2710555595
C  C357  1  0.56390000  0.08620000  0.74400000  1.0 -0.3217756113
C  C358  1  0.56390000  0.41380000  0.24400000  1.0 -0.3217756113
C  C359  1  0.65990000  0.13120000  0.77670000  1.0 -0.3217756113
C  C360  1  0.65990000  0.36880000  0.27670000  1.0 -0.3217756113
C  C361  1  0.56570000  0.01711000  0.55870000  1.0 -0.0322082742
C  C362  1  0.56570000  0.48289000  0.05870000  1.0 -0.0322082742
C  C363  1  0.58400000  0.95890000  0.55370000  1.0 -0.210431973
C  C364  1  0.58400000  0.54110000  0.05370000  1.0 -0.210431973
C  C365  1  0.42420000  0.98720000  0.55210000  1.0 -0.0184912775
C  C366  1  0.42420000  0.51280000  0.05210000  1.0 -0.0184912775
C  C367  1  0.81280000  0.03991000  0.65790000  1.0 0.4943504037
C  C368  1  0.81280000  0.46009000  0.15790000  1.0 0.4943504037
C  C369  1  0.84470000  0.00800000  0.67340000  1.0 -0.0505437793
C  C370  1  0.84470000  0.49200000  0.17340000  1.0 -0.0505437793
C  C371  1  0.90420000  0.00359000  0.71320000  1.0 -0.0988324186
C  C372  1  0.90420000  0.49641000  0.21320000  1.0 -0.0988324186
C  C373  1  0.93430000  0.97442000  0.72730000  1.0 -0.199623421
C  C374  1  0.93430000  0.52558000  0.22730000  1.0 -0.199623421
C  C375  1  0.90933000  0.94937000  0.70253000  1.0 0.2302390239
C  C376  1  0.90933000  0.55063000  0.20253000  1.0 0.2302390239
C  C377  1  0.84520000  0.95279000  0.66380000  1.0 -0.1707248289
C  C378  1  0.84520000  0.54721000  0.16380000  1.0 -0.1707248289
C  C379  1  0.81400000  0.98206000  0.64990000  1.0 -0.0908274399
C  C380  1  0.81400000  0.51794000  0.14990000  1.0 -0.0908274399
C  C381  1  0.95164000  0.89371000  0.69904000  1.0 0.4506075738
C  C382  1  0.95164000  0.60629000  0.19904000  1.0 0.4506075738
C  C383  1  0.98685000  0.86510000  0.72325000  1.0 -0.009734819
C  C384  1  0.98685000  0.63490000  0.22325000  1.0 -0.009734819
C  C385  1  0.02711000  0.86463000  0.76451000  1.0 -0.1775878815
C  C386  1  0.02711000  0.63537000  0.26451000  1.0 -0.1775878815
C  C387  1  0.06135000  0.83692000  0.78425000  1.0 0.0025622099
C  C388  1  0.06135000  0.66308000  0.28425000  1.0 0.0025622099
C  C389  1  0.05168000  0.80944000  0.76328000  1.0 -0.1405055391
C  C390  1  0.05168000  0.69056000  0.26328000  1.0 -0.1405055391
C  C391  1  0.00647000  0.80963000  0.72227000  1.0 -0.009734819
C  C392  1  0.00647000  0.69037000  0.22227000  1.0 -0.009734819
C  C393  1  0.97705000  0.83745000  0.70225000  1.0 -0.1493769752
C  C394  1  0.97705000  0.66255000  0.20225000  1.0 -0.1493769752
C  C395  1  0.12202000  0.83724000  0.82752000  1.0 0.4688169027
C  C396  1  0.12202000  0.66276000  0.32752000  1.0 0.4688169027
C  C397  1  0.12359000  0.85924000  0.89189000  1.0 0.1997468902
C  C398  1  0.12359000  0.64076000  0.39189000  1.0 0.1997468902
C  C399  1  0.22267000  0.86880000  0.90587000  1.0 -0.1900566069
C  C400  1  0.22267000  0.63120000  0.40587000  1.0 -0.1900566069
C  C401  1  0.26267000  0.87742000  0.94577000  1.0 -0.1300010493
C  C402  1  0.26267000  0.62258000  0.44577000  1.0 -0.1300010493
C  C403  1  0.20327000  0.87691000  0.97077000  1.0 -0.0184912775
C  C404  1  0.20327000  0.62309000  0.47077000  1.0 -0.0184912775
C  C405  1  0.10580000  0.86670000  0.95650000  1.0 -0.0988324186
C  C406  1  0.10580000  0.63330000  0.45650000  1.0 -0.0988324186
C  C407  1  0.06370000  0.85740000  0.91760000  1.0 -0.199623421
C  C408  1  0.06370000  0.64260000  0.41760000  1.0 -0.199623421
C  C409  1  0.24440000  0.88591000  0.01370000  1.0 0.5686785879
C  C410  1  0.24440000  0.61409000  0.51370000  1.0 0.5686785879
C  C411  1  0.98894000  0.77870000  0.70114000  1.0 0.4598850181
C  C412  1  0.98894000  0.72130000  0.20114000  1.0 0.4598850181
C  C413  1  0.85950000  0.75031000  0.64860000  1.0 0.2381113434
C  C414  1  0.85950000  0.74969000  0.14860000  1.0 0.2381113434
C  C415  1  0.91330000  0.72298000  0.64930000  1.0 -0.199623421
C  C416  1  0.91330000  0.77702000  0.14930000  1.0 -0.199623421
C  C417  1  0.86220000  0.69720000  0.62860000  1.0 -0.0988324186
C  C418  1  0.86220000  0.80280000  0.12860000  1.0 -0.0988324186
C  C419  1  0.76040000  0.69828000  0.60730000  1.0 -0.0404039874
C  C420  1  0.76040000  0.80172000  0.10730000  1.0 -0.0404039874
C  C421  1  0.70770000  0.72595000  0.60570000  1.0 -0.0908274399
C  C422  1  0.70770000  0.77405000  0.10570000  1.0 -0.0908274399
C  C423  1  0.75640000  0.75173000  0.62520000  1.0 -0.199623421
C  C424  1  0.75640000  0.74827000  0.12520000  1.0 -0.199623421
C  C425  1  0.70530000  0.66950000  0.58790000  1.0 0.5905574761
C  C426  1  0.70530000  0.83050000  0.08790000  1.0 0.5905574761
C  C427  1  0.76300000  0.54678000  0.60740000  1.0 0.5414952563
C  C428  1  0.76300000  0.95322000  0.10740000  1.0 0.5414952563
C  C429  1  0.77250000  0.51959000  0.63500000  1.0 -0.0599458179
C  C430  1  0.77250000  0.98041000  0.13500000  1.0 -0.0599458179
C  C431  1  0.81100000  0.52298000  0.67510000  1.0 -0.0721842119
C  C432  1  0.81100000  0.97702000  0.17510000  1.0 -0.0721842119
C  C433  1  0.81220000  0.49837000  0.70010000  1.0 -0.210431973
C  C434  1  0.81220000  0.00163000  0.20010000  1.0 -0.210431973
C  C435  1  0.77300000  0.46940000  0.68470000  1.0 0.2302390239
C  C436  1  0.77300000  0.03060000  0.18470000  1.0 0.2302390239
C  C437  1  0.73440000  0.46520000  0.64450000  1.0 -0.199623421
C  C438  1  0.73440000  0.03480000  0.14450000  1.0 -0.199623421
C  C439  1  0.73220000  0.49135000  0.61970000  1.0 -0.0908274399
C  C440  1  0.73220000  0.00865000  0.11970000  1.0 -0.0908274399
C  C441  1  0.75168000  0.41567000  0.70498000  1.0 0.4506075738
C  C442  1  0.75168000  0.08433000  0.20498000  1.0 0.4506075738
C  C443  1  0.75631000  0.39536000  0.73981000  1.0 -0.0322082742
C  C444  1  0.75631000  0.10464000  0.23981000  1.0 -0.0322082742
C  C445  1  0.77850000  0.40556000  0.77900000  1.0 -0.1775878815
C  C446  1  0.77850000  0.09444000  0.27900000  1.0 -0.1775878815
C  C447  1  0.78200000  0.38470000  0.80930000  1.0 -0.0184912775
C  C448  1  0.78200000  0.11530000  0.30930000  1.0 -0.0184912775
C  C449  1  0.76668000  0.35348000  0.80128000  1.0 -0.1493769752
C  C450  1  0.76668000  0.14652000  0.30128000  1.0 -0.1493769752
C  C451  1  0.74339000  0.34306000  0.76129000  1.0 0.0025622099
C  C452  1  0.74339000  0.15694000  0.26129000  1.0 0.0025622099
C  C453  1  0.73763000  0.36387000  0.73173000  1.0 -0.1190458509
C  C454  1  0.73763000  0.13613000  0.23173000  1.0 -0.1190458509
C  C455  1  0.79414000  0.39776000  0.84974000  1.0 0.4598850181
C  C456  1  0.79414000  0.10224000  0.34974000  1.0 0.4598850181
C  C457  1  0.79998000  0.38294000  0.91848000  1.0 0.2302390239
C  C458  1  0.79998000  0.11706000  0.41848000  1.0 0.2302390239
C  C459  1  0.75301000  0.40836000  0.92791000  1.0 -0.1900566069
C  C460  1  0.75301000  0.09164000  0.42791000  1.0 -0.1900566069
C  C461  1  0.73962000  0.41086000  0.96532000  1.0 -0.1190458509
C  C462  1  0.73962000  0.08914000  0.46532000  1.0 -0.1190458509
C  C463  1  0.77290000  0.38797000  0.99370000  1.0 -0.0404039874
C  C464  1  0.77290000  0.11203000  0.49370000  1.0 -0.0404039874
C  C465  1  0.82130000  0.36250000  0.98360000  1.0 -0.0824750869
C  C466  1  0.82130000  0.13750000  0.48360000  1.0 -0.0824750869
C  C467  1  0.83480000  0.35949000  0.94730000  1.0 -0.199623421
C  C468  1  0.83480000  0.14051000  0.44730000  1.0 -0.199623421
C  C469  1  0.75290000  0.38997000  0.03270000  1.0 0.5686785879
C  C470  1  0.75290000  0.11003000  0.53270000  1.0 0.5686785879
C  C471  1  0.72125000  0.30903000  0.75545000  1.0 0.4688169027
C  C472  1  0.72125000  0.19097000  0.25545000  1.0 0.4688169027
C  C473  1  0.68650000  0.26724000  0.70590000  1.0 0.1817314608
C  C474  1  0.68650000  0.23276000  0.20590000  1.0 0.1817314608
C  C475  1  0.69150000  0.24220000  0.73090000  1.0 -0.0184912775
C  C476  1  0.69150000  0.25780000  0.23090000  1.0 -0.0184912775
C  C477  1  0.66280000  0.21220000  0.71500000  1.0 -0.0599458179
C  C478  1  0.66280000  0.28780000  0.21500000  1.0 -0.0599458179
C  C479  1  0.62130000  0.20962000  0.67370000  1.0 -0.0019510614
C  C480  1  0.62130000  0.29038000  0.17370000  1.0 -0.0019510614
C  C481  1  0.64210000  0.23150000  0.65240000  1.0 -0.1707248289
C  C482  1  0.64210000  0.26850000  0.15240000  1.0 -0.1707248289
C  C483  1  0.67440000  0.26062000  0.66810000  1.0 -0.2479023633
C  C484  1  0.67440000  0.23938000  0.16810000  1.0 -0.2479023633
C  C485  1  0.57610000  0.17860000  0.65680000  1.0 0.5278598072
C  C486  1  0.57610000  0.32140000  0.15680000  1.0 0.5278598072
C  C487  1  0.45840000  0.07128000  0.63650000  1.0 0.5456085207
C  C488  1  0.45840000  0.42872000  0.13650000  1.0 0.5456085207
C  C489  1  0.45474000  0.03761000  0.64454000  1.0 -0.0404039874
C  C490  1  0.45474000  0.46239000  0.14454000  1.0 -0.0404039874
C  C491  1  0.36050000  0.02444000  0.64280000  1.0 -0.0824750869
C  C492  1  0.36050000  0.47556000  0.14280000  1.0 -0.0824750869
C  C493  1  0.35370000  0.99313000  0.65090000  1.0 -0.199623421
C  C494  1  0.35370000  0.50687000  0.15090000  1.0 -0.199623421
C  C495  1  0.44311000  0.97603000  0.66231000  1.0 0.1997468902
C  C496  1  0.44311000  0.52397000  0.16231000  1.0 0.1997468902
C  C497  1  0.53647000  0.98838000  0.66367000  1.0 -0.2237724232
C  C498  1  0.53647000  0.51162000  0.16367000  1.0 -0.2237724232
C  C499  1  0.54126000  0.01949000  0.65476000  1.0 -0.1300010493
C  C500  1  0.54126000  0.48051000  0.15476000  1.0 -0.1300010493
C  C501  1  0.48280000  0.92028000  0.66480000  1.0 0.4688169027
C  C502  1  0.48280000  0.57972000  0.16480000  1.0 0.4688169027
C  C503  1  0.47288000  0.89045000  0.68488000  1.0 -0.0019510614
C  C504  1  0.47288000  0.60955000  0.18488000  1.0 -0.0019510614
C  C505  1  0.48652000  0.88945000  0.72562000  1.0 -0.1775878815
C  C506  1  0.48652000  0.61055000  0.22562000  1.0 -0.1775878815
C  C507  1  0.49595000  0.86114000  0.74505000  1.0 -0.009734819
C  C508  1  0.49595000  0.63886000  0.24505000  1.0 -0.009734819
C  C509  1  0.48844000  0.83382000  0.72294000  1.0 -0.1493769752
C  C510  1  0.48844000  0.66618000  0.22294000  1.0 -0.1493769752
C  C511  1  0.47221000  0.83505000  0.68191000  1.0 -0.0184912775
C  C512  1  0.47221000  0.66495000  0.18191000  1.0 -0.0184912775
C  C513  1  0.46515000  0.86347000  0.66305000  1.0 -0.1405055391
C  C514  1  0.46515000  0.63653000  0.16305000  1.0 -0.1405055391
C  C515  1  0.46800000  0.80619000  0.65810000  1.0 0.4598850181
C  C516  1  0.46800000  0.69381000  0.15810000  1.0 0.4598850181
C  C517  1  0.40020000  0.75236000  0.65300000  1.0 0.2302390239
C  C518  1  0.40020000  0.74764000  0.15300000  1.0 0.2302390239
C  C519  1  0.32300000  0.73517000  0.66020000  1.0 -0.199623421
C  C520  1  0.32300000  0.76483000  0.16020000  1.0 -0.199623421
C  C521  1  0.30660000  0.70461000  0.64750000  1.0 -0.0908274399
C  C522  1  0.30660000  0.79539000  0.14750000  1.0 -0.0908274399
C  C523  1  0.37060000  0.69125000  0.62820000  1.0 -0.0322082742
C  C524  1  0.37060000  0.80875000  0.12820000  1.0 -0.0322082742
C  C525  1  0.44890000  0.70849000  0.62140000  1.0 -0.0908274399
C  C526  1  0.44890000  0.79151000  0.12140000  1.0 -0.0908274399
C  C527  1  0.46430000  0.73920000  0.63340000  1.0 -0.199623421
C  C528  1  0.46430000  0.76080000  0.13340000  1.0 -0.199623421
C  C529  1  0.51507000  0.85659000  0.78887000  1.0 0.4506075738
C  C530  1  0.51507000  0.64341000  0.28887000  1.0 0.4506075738
C  C531  1  0.52349000  0.88139000  0.85239000  1.0 0.2381113434
C  C532  1  0.52349000  0.61861000  0.35239000  1.0 0.2381113434
C  C533  1  0.57260000  0.90598000  0.87510000  1.0 -0.199623421
C  C534  1  0.57260000  0.59402000  0.37510000  1.0 -0.199623421
C  C535  1  0.58660000  0.90650000  0.91520000  1.0 -0.0824750869
C  C536  1  0.58660000  0.59350000  0.41520000  1.0 -0.0824750869
C  C537  1  0.55170000  0.88297000  0.93380000  1.0 -0.0322082742
C  C538  1  0.55170000  0.61703000  0.43380000  1.0 -0.0322082742
C  C539  1  0.49970000  0.85952000  0.91090000  1.0 -0.0988324186
C  C540  1  0.49970000  0.64048000  0.41090000  1.0 -0.0988324186
C  C541  1  0.48452000  0.85763000  0.87032000  1.0 -0.1707248289
C  C542  1  0.48452000  0.64237000  0.37032000  1.0 -0.1707248289
C  C543  1  0.57247000  0.88288000  0.97817000  1.0 0.5905574761
C  C544  1  0.57247000  0.61712000  0.47817000  1.0 0.5905574761
C  C545  1  0.37160000  0.80810000  0.99140000  1.0 -0.0019510614
C  C546  1  0.37160000  0.69190000  0.49140000  1.0 -0.0019510614
C  C547  1  0.55890000  0.91600000  0.10890000  1.0 0.2710555595
C  C548  1  0.55890000  0.58400000  0.60890000  1.0 0.2710555595
C  C549  1  0.13050000  0.26860000  0.19900000  1.0 -0.0721842119
C  C550  1  0.13050000  0.23140000  0.69900000  1.0 -0.0721842119
C  C551  1  0.52680000  0.92940000  0.08630000  1.0 0.2118388267
C  C552  1  0.52680000  0.57060000  0.58630000  1.0 0.2118388267
C  C553  1  0.02100000  0.28840000  0.20800000  1.0 -0.0824750869
C  C554  1  0.02100000  0.21160000  0.70800000  1.0 -0.0824750869
C  C555  1  0.09320000  0.26500000  0.21990000  1.0 -0.0322082742
C  C556  1  0.09320000  0.23500000  0.71990000  1.0 -0.0322082742
C  C557  1  0.51570000  0.96460000  0.55290000  1.0 -0.009734819
C  C558  1  0.51570000  0.53540000  0.05290000  1.0 -0.0184912775
C  C559  1  0.37840000  0.00320000  0.53810000  1.0 -0.2237724232
C  C560  1  0.37840000  0.49680000  0.03810000  1.0 -0.2237724232
C  C561  1  0.60940000  0.25130000  0.71840000  1.0 -0.0721842119
C  C562  1  0.60940000  0.24870000  0.21840000  1.0 -0.0721842119
C  C563  1  0.59530000  0.22090000  0.70930000  1.0 -0.009734819
C  C564  1  0.59530000  0.27910000  0.20930000  1.0 -0.009734819
C  C565  1  0.24610000  0.78180000  0.93220000  1.0 -0.0908274399
C  C566  1  0.24610000  0.71820000  0.43220000  1.0 -0.0908274399
C  C567  1  0.21120000  0.78660000  0.99120000  1.0 -0.210431973
C  C568  1  0.21120000  0.71340000  0.49120000  1.0 -0.210431973
N  N1  1  0.74981000  0.56837000  0.29911000  1.0 -0.3817330541
N  N2  1  0.74981000  0.93163000  0.79911000  1.0 -0.3817330541
N  N3  1  0.65830000  0.63033000  0.12750000  1.0 -0.3718849866
N  N4  1  0.65830000  0.86967000  0.62750000  1.0 -0.3718849866
N  N5  1  0.38400000  0.70890000  0.01940000  1.0 -0.0019510614
N  N6  1  0.38400000  0.79110000  0.51940000  1.0 -0.0019510614
N  N7  1  0.83502000  0.71516000  0.28612000  1.0 -0.4003383366
N  N8  1  0.83502000  0.78484000  0.78612000  1.0 -0.4003383366
N  N9  1  0.34780000  0.60610000  0.75110000  1.0 0.0420537616
N  N10  1  0.34780000  0.89390000  0.25110000  1.0 0.0420537616
N  N11  1  0.46850000  0.48798000  0.94600000  1.0 0.1104579224
N  N12  1  0.46850000  0.01202000  0.44600000  1.0 0.1104579224
N  N13  1  0.05457000  0.41994000  0.78097000  1.0 -0.3817330541
N  N14  1  0.05457000  0.08006000  0.28097000  1.0 -0.3817330541
N  N15  1  0.92320000  0.35272000  0.64880000  1.0 -0.3622039927
N  N16  1  0.92320000  0.14728000  0.14880000  1.0 -0.3622039927
N  N17  1  0.09721000  0.27727000  0.83051000  1.0 -0.3718849866
N  N18  1  0.09721000  0.22273000  0.33051000  1.0 -0.3718849866
N  N19  1  0.22645000  0.94636000  0.78715000  1.0 -0.3817330541
N  N20  1  0.22645000  0.55364000  0.28715000  1.0 -0.3817330541
N  N21  1  0.18838000  0.87732000  0.61958000  1.0 -0.3718849866
N  N22  1  0.18838000  0.62268000  0.11958000  1.0 -0.3718849866
N  N23  1  0.28614000  0.79794000  0.78084000  1.0 -0.4291462896
N  N24  1  0.28614000  0.70206000  0.28084000  1.0 -0.4291462896
N  N25  1  0.56542000  0.44478000  0.82532000  1.0 -0.3622039927
N  N26  1  0.56542000  0.05522000  0.32532000  1.0 -0.3622039927
N  N27  1  0.48850000  0.38174000  0.68920000  1.0 -0.3903618155
N  N28  1  0.48850000  0.11826000  0.18920000  1.0 -0.3903618155
N  N29  1  0.58541000  0.28291000  0.83161000  1.0 -0.3817330541
N  N30  1  0.58541000  0.21709000  0.33161000  1.0 -0.3817330541
N  N31  1  0.67660000  0.28880000  0.53780000  1.0 0.0420537616
N  N32  1  0.67660000  0.21120000  0.03780000  1.0 0.0420537616
N  N33  1  0.51250000  0.49700000  0.94960000  1.0 0.1001339501
N  N34  1  0.51250000  0.00300000  0.44960000  1.0 0.1001339501
N  N35  1  0.71240000  0.29210000  0.52780000  1.0 0.1104579224
N  N36  1  0.71240000  0.20790000  0.02780000  1.0 0.1104579224
N  N37  1  0.25019000  0.06837000  0.20089000  1.0 -0.3817330541
N  N38  1  0.25019000  0.43163000  0.70089000  1.0 -0.3817330541
N  N39  1  0.34170000  0.13033000  0.37250000  1.0 -0.3718849866
N  N40  1  0.34170000  0.36967000  0.87250000  1.0 -0.3718849866
N  N41  1  0.61600000  0.20890000  0.48060000  1.0 -0.0019510614
N  N42  1  0.61600000  0.29110000  0.98060000  1.0 -0.0019510614
N  N43  1  0.16498000  0.21516000  0.21388000  1.0 -0.4003383366
N  N44  1  0.16498000  0.28484000  0.71388000  1.0 -0.4003383366
N  N45  1  0.65220000  0.10610000  0.74890000  1.0 0.0420537616
N  N46  1  0.65220000  0.39390000  0.24890000  1.0 0.0420537616
N  N47  1  0.53150000  0.98798000  0.55400000  1.0 0.1104579224
N  N48  1  0.53150000  0.51202000  0.05400000  1.0 0.1104579224
N  N49  1  0.94543000  0.91994000  0.71903000  1.0 -0.3817330541
N  N50  1  0.94543000  0.58006000  0.21903000  1.0 -0.3817330541
N  N51  1  0.07680000  0.85272000  0.85120000  1.0 -0.3622039927
N  N52  1  0.07680000  0.64728000  0.35120000  1.0 -0.3622039927
N  N53  1  0.90279000  0.77727000  0.66949000  1.0 -0.3718849866
N  N54  1  0.90279000  0.72273000  0.16949000  1.0 -0.3718849866
N  N55  1  0.77355000  0.44636000  0.71285000  1.0 -0.3817330541
N  N56  1  0.77355000  0.05364000  0.21285000  1.0 -0.3817330541
N  N57  1  0.81162000  0.37732000  0.88042000  1.0 -0.3718849866
N  N58  1  0.81162000  0.12268000  0.38042000  1.0 -0.3718849866
N  N59  1  0.71386000  0.29794000  0.71916000  1.0 -0.4291462896
N  N60  1  0.71386000  0.20206000  0.21916000  1.0 -0.4291462896
N  N61  1  0.43458000  0.94478000  0.67468000  1.0 -0.3622039927
N  N62  1  0.43458000  0.55522000  0.17468000  1.0 -0.3622039927
N  N63  1  0.51150000  0.88174000  0.81080000  1.0 -0.3903618155
N  N64  1  0.51150000  0.61826000  0.31080000  1.0 -0.3903618155
N  N65  1  0.41459000  0.78291000  0.66839000  1.0 -0.3817330541
N  N66  1  0.41459000  0.71709000  0.16839000  1.0 -0.3817330541
N  N67  1  0.32340000  0.78880000  0.96220000  1.0 0.0420537616
N  N68  1  0.32340000  0.71120000  0.46220000  1.0 0.0420537616
N  N69  1  0.48750000  0.99700000  0.55040000  1.0 0.1001339501
N  N70  1  0.48750000  0.50300000  0.05040000  1.0 0.1001339501
N  N71  1  0.28760000  0.79210000  0.97220000  1.0 0.1104579224
N  N72  1  0.28760000  0.70790000  0.47220000  1.0 0.1104579224
O  O1  1  0.57798000  0.14444000  0.89678000  1.0 -0.5801910756
O  O2  1  0.57798000  0.35556000  0.39678000  1.0 -0.5801910756
O  O3  1  0.71817000  0.14342000  0.88017000  1.0 -0.5023443026
O  O4  1  0.71817000  0.35658000  0.38017000  1.0 -0.5023443026
O  O5  1  0.52290000  0.42040000  0.38270000  1.0 -0.0322082742
O  O6  1  0.52290000  0.07960000  0.88270000  1.0 -0.0322082742
O  O7  1  0.75347000  0.45069000  0.40867000  1.0 -0.5298410354
O  O8  1  0.75347000  0.04931000  0.90867000  1.0 -0.5298410354
O  O9  1  0.69414000  0.42894000  0.35094000  1.0 -0.5524094475
O  O10  1  0.69414000  0.07106000  0.85094000  1.0 -0.5524094475
O  O11  1  0.68803000  0.55717000  0.23363000  1.0 -0.4484421684
O  O12  1  0.68803000  0.94283000  0.73363000  1.0 -0.4484421684
O  O13  1  0.87886000  0.67633000  0.33066000  1.0 -0.4914970694
O  O14  1  0.87886000  0.82367000  0.83066000  1.0 -0.4914970694
O  O15  1  0.75548000  0.67387000  0.14308000  1.0 -0.5023443026
O  O16  1  0.75548000  0.82613000  0.64308000  1.0 -0.5023443026
O  O17  1  0.61897000  0.63603000  0.94297000  1.0 -0.5085243878
O  O18  1  0.61897000  0.86397000  0.44297000  1.0 -0.5085243878
O  O19  1  0.45898000  0.62251000  0.93908000  1.0 -0.5903349814
O  O20  1  0.45898000  0.87749000  0.43908000  1.0 -0.5903349814
O  O21  1  0.39059000  0.68930000  0.96119000  1.0 -0.4291462896
O  O22  1  0.39059000  0.81070000  0.46119000  1.0 -0.4291462896
O  O23  1  0.18490000  0.80822000  0.38270000  1.0 -0.4430734625
O  O24  1  0.18490000  0.69178000  0.88270000  1.0 -0.4430734625
O  O25  1  0.11800000  0.83470000  0.32180000  1.0 -0.199623421
O  O26  1  0.11800000  0.66530000  0.82180000  1.0 -0.199623421
O  O27  1  0.21510000  0.62039000  0.77700000  1.0 -0.4701403906
O  O28  1  0.21510000  0.87961000  0.27700000  1.0 -0.4701403906
O  O29  1  0.27964000  0.61899000  0.86814000  1.0 -0.7785364536
O  O30  1  0.27964000  0.88101000  0.36814000  1.0 -0.7785364536
O  O31  1  0.28443000  0.91468000  0.45913000  1.0 -0.5524094475
O  O32  1  0.28443000  0.58532000  0.95913000  1.0 -0.5524094475
O  O33  1  0.46364000  0.54368000  0.94044000  1.0 -0.4430734625
O  O34  1  0.46364000  0.95632000  0.44044000  1.0 -0.4430734625
O  O35  1  0.24835000  0.54197000  0.87635000  1.0 -0.5371493435
O  O36  1  0.24835000  0.95803000  0.37635000  1.0 -0.5371493435
O  O37  1  0.16020000  0.56110000  0.81520000  1.0 -0.1493769752
O  O38  1  0.16020000  0.93890000  0.31520000  1.0 -0.1493769752
O  O39  1  0.10026000  0.60933000  0.85896000  1.0 -0.4816941518
O  O40  1  0.10026000  0.89067000  0.35896000  1.0 -0.4816941518
O  O41  1  0.07068000  0.39233000  0.83748000  1.0 -0.4701403906
O  O42  1  0.07068000  0.10767000  0.33748000  1.0 -0.4701403906
O  O43  1  0.79412000  0.32529000  0.66042000  1.0 -0.4701403906
O  O44  1  0.79412000  0.17471000  0.16042000  1.0 -0.4701403906
O  O45  1  0.81455000  0.38808000  0.46555000  1.0 -0.5023443026
O  O46  1  0.81455000  0.11192000  0.96555000  1.0 -0.5023443026
O  O47  1  0.66045000  0.39248000  0.47275000  1.0 -0.6157319544
O  O48  1  0.66045000  0.10752000  0.97275000  1.0 -0.6157319544
O  O49  1  0.95196000  0.25723000  0.78676000  1.0 -0.4593036173
O  O50  1  0.95196000  0.24277000  0.28676000  1.0 -0.4593036173
O  O51  1  0.38924000  0.17184000  0.92574000  1.0 -0.5696641205
O  O52  1  0.38924000  0.32816000  0.42574000  1.0 -0.5696641205
O  O53  1  0.24113000  0.14650000  0.91383000  1.0 -0.5524094475
O  O54  1  0.24113000  0.35350000  0.41383000  1.0 -0.5524094475
O  O55  1  0.36038000  0.40054000  0.50168000  1.0 -0.5371493435
O  O56  1  0.36038000  0.09946000  0.00168000  1.0 -0.5371493435
O  O57  1  0.12760000  0.09630000  0.95310000  1.0 -0.0988324186
O  O58  1  0.12760000  0.40370000  0.45310000  1.0 -0.0988324186
O  O59  1  0.20979000  0.07267000  0.87719000  1.0 -0.5371493435
O  O60  1  0.20979000  0.42733000  0.37719000  1.0 -0.5371493435
O  O61  1  0.27224000  0.04340000  0.92964000  1.0 -0.5524094475
O  O62  1  0.27224000  0.45660000  0.42964000  1.0 -0.5524094475
O  O63  1  0.26832000  0.90484000  0.82812000  1.0 -0.4291462896
O  O64  1  0.26832000  0.59516000  0.32812000  1.0 -0.4291462896
O  O65  1  0.21741000  0.92561000  0.64661000  1.0 -0.4701403906
O  O66  1  0.21741000  0.57439000  0.14661000  1.0 -0.4701403906
O  O67  1  0.22609000  0.86710000  0.44479000  1.0 -0.5371493435
O  O68  1  0.22609000  0.63290000  0.94479000  1.0 -0.5371493435
O  O69  1  0.29239000  0.79302000  0.71789000  1.0 -0.5023443026
O  O70  1  0.29239000  0.70698000  0.21789000  1.0 -0.5023443026
O  O71  1  0.43540000  0.67414000  0.87920000  1.0 -0.5085243878
O  O72  1  0.43540000  0.82586000  0.37920000  1.0 -0.5085243878
O  O73  1  0.44698000  0.65904000  0.82228000  1.0 -0.4484421684
O  O74  1  0.44698000  0.84096000  0.32228000  1.0 -0.4484421684
O  O75  1  0.69110000  0.65640000  0.86640000  1.0 -0.5298410354
O  O76  1  0.69110000  0.84360000  0.36640000  1.0 -0.5298410354
O  O77  1  0.61870000  0.58719000  0.86710000  1.0 -0.4816941518
O  O78  1  0.61870000  0.91281000  0.36710000  1.0 -0.4816941518
O  O79  1  0.45782000  0.58337000  0.86482000  1.0 -0.5583475528
O  O80  1  0.45782000  0.91663000  0.36482000  1.0 -0.5583475528
O  O81  1  0.46684000  0.42150000  0.85884000  1.0 -0.4914970694
O  O82  1  0.46684000  0.07850000  0.35884000  1.0 -0.4914970694
O  O83  1  0.49062000  0.30483000  0.86842000  1.0 -0.4701403906
O  O84  1  0.49062000  0.19517000  0.36842000  1.0 -0.4701403906
O  O85  1  0.46923000  0.33084000  0.69693000  1.0 -0.4484421684
O  O86  1  0.46923000  0.16916000  0.19693000  1.0 -0.4484421684
O  O87  1  0.47990000  0.36471000  0.50850000  1.0 -0.5903349814
O  O88  1  0.47990000  0.13529000  0.00850000  1.0 -0.5903349814
O  O89  1  0.43382000  0.40343000  0.42342000  1.0 -0.3718849866
O  O90  1  0.43382000  0.09657000  0.92342000  1.0 -0.3718849866
O  O91  1  0.62512000  0.32026000  0.47812000  1.0 -0.3903618155
O  O92  1  0.62512000  0.17974000  0.97812000  1.0 -0.3903618155
O  O93  1  0.54990000  0.43210000  0.40370000  1.0 0.0025622099
O  O94  1  0.54990000  0.06790000  0.90370000  1.0 0.0025622099
O  O95  1  0.08850000  0.83840000  0.34380000  1.0 -0.0824750869
O  O96  1  0.08850000  0.66160000  0.84380000  1.0 -0.0824750869
O  O97  1  0.13550000  0.56390000  0.82450000  1.0 -0.1119771598
O  O98  1  0.13550000  0.93610000  0.32450000  1.0 -0.1119771598
O  O99  1  0.42202000  0.64444000  0.60322000  1.0 -0.5801910756
O  O100  1  0.42202000  0.85556000  0.10322000  1.0 -0.5801910756
O  O101  1  0.28183000  0.64342000  0.61983000  1.0 -0.5023443026
O  O102  1  0.28183000  0.85658000  0.11983000  1.0 -0.5023443026
O  O103  1  0.47710000  0.92040000  0.11730000  1.0 -0.0322082742
O  O104  1  0.47710000  0.57960000  0.61730000  1.0 -0.0322082742
O  O105  1  0.24653000  0.95069000  0.09133000  1.0 -0.5298410354
O  O106  1  0.24653000  0.54931000  0.59133000  1.0 -0.5298410354
O  O107  1  0.30586000  0.92894000  0.14906000  1.0 -0.5524094475
O  O108  1  0.30586000  0.57106000  0.64906000  1.0 -0.5524094475
O  O109  1  0.31197000  0.05717000  0.26637000  1.0 -0.4484421684
O  O110  1  0.31197000  0.44283000  0.76637000  1.0 -0.4484421684
O  O111  1  0.12114000  0.17633000  0.16934000  1.0 -0.4914970694
O  O112  1  0.12114000  0.32367000  0.66934000  1.0 -0.4914970694
O  O113  1  0.24452000  0.17387000  0.35692000  1.0 -0.5023443026
O  O114  1  0.24452000  0.32613000  0.85692000  1.0 -0.5023443026
O  O115  1  0.38103000  0.13603000  0.55703000  1.0 -0.5085243878
O  O116  1  0.38103000  0.36397000  0.05703000  1.0 -0.5085243878
O  O117  1  0.54102000  0.12251000  0.56092000  1.0 -0.5903349814
O  O118  1  0.54102000  0.37749000  0.06092000  1.0 -0.5903349814
O  O119  1  0.60941000  0.18930000  0.53881000  1.0 -0.4291462896
O  O120  1  0.60941000  0.31070000  0.03881000  1.0 -0.4291462896
O  O121  1  0.81510000  0.30822000  0.11730000  1.0 -0.4430734625
O  O122  1  0.81510000  0.19178000  0.61730000  1.0 -0.4430734625
O  O123  1  0.88200000  0.33470000  0.17820000  1.0 -0.199623421
O  O124  1  0.88200000  0.16530000  0.67820000  1.0 -0.199623421
O  O125  1  0.78490000  0.12039000  0.72300000  1.0 -0.4701403906
O  O126  1  0.78490000  0.37961000  0.22300000  1.0 -0.4701403906
O  O127  1  0.72036000  0.11899000  0.63186000  1.0 -0.7785364536
O  O128  1  0.72036000  0.38101000  0.13186000  1.0 -0.7785364536
O  O129  1  0.71557000  0.41468000  0.04087000  1.0 -0.5524094475
O  O130  1  0.71557000  0.08532000  0.54087000  1.0 -0.5524094475
O  O131  1  0.53636000  0.04368000  0.55956000  1.0 -0.4430734625
O  O132  1  0.53636000  0.45632000  0.05956000  1.0 -0.4430734625
O  O133  1  0.75165000  0.04197000  0.62365000  1.0 -0.5371493435
O  O134  1  0.75165000  0.45803000  0.12365000  1.0 -0.5371493435
O  O135  1  0.83980000  0.06110000  0.68480000  1.0 -0.1493769752
O  O136  1  0.83980000  0.43890000  0.18480000  1.0 -0.1493769752
O  O137  1  0.89974000  0.10933000  0.64104000  1.0 -0.4701403906
O  O138  1  0.89974000  0.39067000  0.14104000  1.0 -0.4701403906
O  O139  1  0.92932000  0.89233000  0.66252000  1.0 -0.4701403906
O  O140  1  0.92932000  0.60767000  0.16252000  1.0 -0.4701403906
O  O141  1  0.20588000  0.82529000  0.83958000  1.0 -0.4701403906
O  O142  1  0.20588000  0.67471000  0.33958000  1.0 -0.4701403906
O  O143  1  0.18545000  0.88808000  0.03445000  1.0 -0.5023443026
O  O144  1  0.18545000  0.61192000  0.53445000  1.0 -0.5023443026
O  O145  1  0.33955000  0.89248000  0.02725000  1.0 -0.6157319544
O  O146  1  0.33955000  0.60752000  0.52725000  1.0 -0.6157319544
O  O147  1  0.04804000  0.75723000  0.71324000  1.0 -0.4593036173
O  O148  1  0.04804000  0.74277000  0.21324000  1.0 -0.4593036173
O  O149  1  0.61076000  0.67184000  0.57426000  1.0 -0.5696641205
O  O150  1  0.61076000  0.82816000  0.07426000  1.0 -0.5696641205
O  O151  1  0.75887000  0.64650000  0.58617000  1.0 -0.5524094475
O  O152  1  0.75887000  0.85350000  0.08617000  1.0 -0.5524094475
O  O153  1  0.63962000  0.90054000  0.99832000  1.0 -0.5371493435
O  O154  1  0.63962000  0.59946000  0.49832000  1.0 -0.5371493435
O  O155  1  0.87240000  0.59630000  0.54690000  1.0 -0.0988324186
O  O156  1  0.87240000  0.90370000  0.04690000  1.0 -0.0988324186
O  O157  1  0.79021000  0.57267000  0.62281000  1.0 -0.5371493435
O  O158  1  0.79021000  0.92733000  0.12281000  1.0 -0.5371493435
O  O159  1  0.72776000  0.54340000  0.57036000  1.0 -0.5524094475
O  O160  1  0.72776000  0.95660000  0.07036000  1.0 -0.5524094475
O  O161  1  0.73168000  0.40484000  0.67188000  1.0 -0.4291462896
O  O162  1  0.73168000  0.09516000  0.17188000  1.0 -0.4291462896
O  O163  1  0.78259000  0.42561000  0.85339000  1.0 -0.4701403906
O  O164  1  0.78259000  0.07439000  0.35339000  1.0 -0.4701403906
O  O165  1  0.77391000  0.36710000  0.05521000  1.0 -0.5371493435
O  O166  1  0.77391000  0.13290000  0.55521000  1.0 -0.5371493435
O  O167  1  0.70761000  0.29302000  0.78211000  1.0 -0.5023443026
O  O168  1  0.70761000  0.20698000  0.28211000  1.0 -0.5023443026
O  O169  1  0.56460000  0.17414000  0.62080000  1.0 -0.5085243878
O  O170  1  0.56460000  0.32586000  0.12080000  1.0 -0.5085243878
O  O171  1  0.55302000  0.15904000  0.67772000  1.0 -0.4484421684
O  O172  1  0.55302000  0.34096000  0.17772000  1.0 -0.4484421684
O  O173  1  0.30890000  0.15640000  0.63360000  1.0 -0.5298410354
O  O174  1  0.30890000  0.34360000  0.13360000  1.0 -0.5298410354
O  O175  1  0.38130000  0.08719000  0.63290000  1.0 -0.4816941518
O  O176  1  0.38130000  0.41281000  0.13290000  1.0 -0.4816941518
O  O177  1  0.54218000  0.08337000  0.63518000  1.0 -0.5583475528
O  O178  1  0.54218000  0.41663000  0.13518000  1.0 -0.5583475528
O  O179  1  0.53316000  0.92150000  0.64116000  1.0 -0.4914970694
O  O180  1  0.53316000  0.57850000  0.14116000  1.0 -0.4914970694
O  O181  1  0.50938000  0.80483000  0.63158000  1.0 -0.4701403906
O  O182  1  0.50938000  0.69517000  0.13158000  1.0 -0.4701403906
O  O183  1  0.53077000  0.83084000  0.80307000  1.0 -0.4484421684
O  O184  1  0.53077000  0.66916000  0.30307000  1.0 -0.4484421684
O  O185  1  0.52010000  0.86471000  0.99150000  1.0 -0.5903349814
O  O186  1  0.52010000  0.63529000  0.49150000  1.0 -0.5903349814
O  O187  1  0.56618000  0.90343000  0.07658000  1.0 -0.3718849866
O  O188  1  0.56618000  0.59657000  0.57658000  1.0 -0.3718849866
O  O189  1  0.37488000  0.82026000  0.02188000  1.0 -0.3903618155
O  O190  1  0.37488000  0.67974000  0.52188000  1.0 -0.3903618155
O  O191  1  0.45010000  0.93210000  0.09630000  1.0 0.0025622099
O  O192  1  0.45010000  0.56790000  0.59630000  1.0 0.0025622099
O  O193  1  0.91150000  0.33840000  0.15620000  1.0 -0.0824750869
O  O194  1  0.91150000  0.16160000  0.65620000  1.0 -0.0824750869
O  O195  1  0.86450000  0.06390000  0.67550000  1.0 -0.1119771598
O  O196  1  0.86450000  0.43610000  0.17550000  1.0 -0.1119771598
