# DDEC6 charges by PACMAN v1.1 (https://github.com/mtap-research/PACMAN-charge/)
data_CIMKOC_FSR_pacman
_symmetry_space_group_name_H-M   'P 1'
_cell_length_a   14.69540000
_cell_length_b   42.29130000
_cell_length_c   36.55160000
_cell_angle_alpha   90.00000000
_cell_angle_beta   112.04700000
_cell_angle_gamma   90.00000000
_symmetry_Int_Tables_number   1
_chemical_formula_structural   Cd7H105C133N16O47
_chemical_formula_sum   'Cd28 H420 C532 N64 O188'
_cell_volume   21055.25928907
_cell_formula_units_Z   4
loop_
 _symmetry_equiv_pos_site_id
 _symmetry_equiv_pos_as_xyz
  1  'x, y, z'
loop_
 _atom_site_type_symbol
 _atom_site_label
 _atom_site_symmetry_multiplicity
 _atom_site_fract_x
 _atom_site_fract_y
 _atom_site_fract_z
 _atom_site_occupancy
 _atom_site_charge
Cd  Cd1  1  0.75698000  0.40718000  0.92763000  1.0 1.0715956379
Cd  Cd2  1  0.75698000  0.09282000  0.42763000  1.0 1.0715956379
Cd  Cd3  1  0.15084000  0.40894000  0.91353000  1.0 1.0091215725
Cd  Cd4  1  0.15084000  0.09106000  0.41353000  1.0 1.0091215725
Cd  Cd5  1  0.98916000  0.36533000  0.94814000  1.0 1.0782904978
Cd  Cd6  1  0.98916000  0.13467000  0.44814000  1.0 1.0782904978
Cd  Cd7  1  0.91031000  0.92897000  0.92161000  1.0 1.0715956379
Cd  Cd8  1  0.91031000  0.57103000  0.42161000  1.0 1.0715956379
Cd  Cd9  1  0.66450000  0.89575000  0.88076000  1.0 1.3411095496
Cd  Cd10  1  0.66450000  0.60425000  0.38076000  1.0 1.3411095496
Cd  Cd11  1  0.86966000  0.84612000  0.92095000  1.0 1.0640145496
Cd  Cd12  1  0.86966000  0.65388000  0.42095000  1.0 1.0640145496
Cd  Cd13  1  0.09457000  0.62420000  0.39749000  1.0 0.9967100378
Cd  Cd14  1  0.09457000  0.87580000  0.89749000  1.0 0.9967100378
Cd  Cd15  1  0.24302000  0.90718000  0.57237000  1.0 1.0715956379
Cd  Cd16  1  0.24302000  0.59282000  0.07237000  1.0 1.0715956379
Cd  Cd17  1  0.84916000  0.90894000  0.58647000  1.0 1.0091215725
Cd  Cd18  1  0.84916000  0.59106000  0.08647000  1.0 1.0091215725
Cd  Cd19  1  0.01084000  0.86533000  0.55186000  1.0 1.0782904978
Cd  Cd20  1  0.01084000  0.63467000  0.05186000  1.0 1.0782904978
Cd  Cd21  1  0.08969000  0.42897000  0.57839000  1.0 1.0715956379
Cd  Cd22  1  0.08969000  0.07103000  0.07839000  1.0 1.0715956379
Cd  Cd23  1  0.33550000  0.39575000  0.61924000  1.0 1.3183484431
Cd  Cd24  1  0.33550000  0.10425000  0.11924000  1.0 1.3183484431
Cd  Cd25  1  0.13034000  0.34612000  0.57905000  1.0 1.0640145496
Cd  Cd26  1  0.13034000  0.15388000  0.07905000  1.0 1.0715956379
Cd  Cd27  1  0.90543000  0.12420000  0.10251000  1.0 0.9967100378
Cd  Cd28  1  0.90543000  0.37580000  0.60251000  1.0 0.9967100378
H  H1  1  0.58880000  0.40719000  0.95482000  1.0 0.4288831744
H  H2  1  0.58880000  0.09281000  0.45482000  1.0 0.4288831744
H  H3  1  0.54393000  0.39669000  0.91109000  1.0 0.4288831744
H  H4  1  0.54393000  0.10331000  0.41109000  1.0 0.4288831744
H  H5  1  0.29628000  0.64708000  0.42671000  1.0 0.3990131262
H  H6  1  0.29628000  0.85292000  0.92671000  1.0 0.3990131262
H  H7  1  0.24667000  0.66760000  0.39519000  1.0 0.3990131262
H  H8  1  0.24667000  0.83240000  0.89519000  1.0 0.3990131262
H  H9  1  0.04065000  0.43688000  0.28827000  1.0 0.2789518839
H  H10  1  0.04065000  0.06312000  0.78827000  1.0 0.2789518839
H  H11  1  0.05136000  0.27665000  0.29764000  1.0 0.2789518839
H  H12  1  0.05136000  0.22335000  0.79764000  1.0 0.2789518839
H  H13  1  0.96471000  0.39439000  0.18937000  1.0 0.2789518839
H  H14  1  0.96471000  0.10561000  0.68937000  1.0 0.2789518839
H  H15  1  0.60525000  0.20709000  0.83119000  1.0 0.2789518839
H  H16  1  0.60525000  0.29291000  0.33119000  1.0 0.2789518839
H  H17  1  0.41647000  0.12588000  0.66885000  1.0 0.2789518839
H  H18  1  0.41647000  0.37412000  0.16885000  1.0 0.2789518839
H  H19  1  0.52325000  0.07829000  0.76370000  1.0 0.2789518839
H  H20  1  0.52325000  0.42171000  0.26370000  1.0 0.2789518839
H  H21  1  0.36743000  0.72150000  0.77080000  1.0 0.2850942965
H  H22  1  0.36743000  0.77850000  0.27080000  1.0 0.2850942965
H  H23  1  0.15587000  0.61664000  0.65030000  1.0 0.2789518839
H  H24  1  0.15587000  0.88336000  0.15030000  1.0 0.2789518839
H  H25  1  0.29435000  0.58816000  0.82707000  1.0 0.2789518839
H  H26  1  0.29435000  0.91184000  0.32707000  1.0 0.2789518839
H  H27  1  0.76105000  0.84952000  0.13377000  1.0 0.2789518839
H  H28  1  0.76105000  0.65048000  0.63377000  1.0 0.2789518839
H  H29  1  0.81260000  0.80513000  0.30078000  1.0 0.2789518839
H  H30  1  0.81260000  0.69487000  0.80078000  1.0 0.2789518839
H  H31  1  0.72294000  0.94584000  0.25717000  1.0 0.2789518839
H  H32  1  0.72294000  0.55416000  0.75717000  1.0 0.2789518839
H  H33  1  0.18280000  0.52834000  0.35390000  1.0 0.1205665368
H  H34  1  0.18280000  0.97166000  0.85390000  1.0 0.1205665368
H  H35  1  0.17094000  0.47597000  0.33210000  1.0 0.1303286218
H  H36  1  0.17094000  0.02403000  0.83210000  1.0 0.1303286218
H  H37  1  0.89092000  0.47334000  0.32269000  1.0 0.1303286218
H  H38  1  0.89092000  0.02666000  0.82269000  1.0 0.1303286218
H  H39  1  0.90617000  0.52487000  0.34745000  1.0 0.1205665368
H  H40  1  0.90617000  0.97513000  0.84745000  1.0 0.1205665368
H  H41  1  0.96524000  0.40188000  0.24393000  1.0 0.1126139153
H  H42  1  0.96524000  0.09812000  0.74393000  1.0 0.1126139153
H  H43  1  0.95609000  0.30699000  0.24698000  1.0 0.1205665368
H  H44  1  0.95609000  0.19301000  0.74698000  1.0 0.1205665368
H  H45  1  0.99300000  0.35719000  0.34440000  1.0 0.1205665368
H  H46  1  0.99300000  0.14281000  0.84440000  1.0 0.1205665368
H  H47  1  0.15055000  0.23305000  0.31355000  1.0 0.1400908685
H  H48  1  0.15055000  0.26695000  0.81355000  1.0 0.1400908685
H  H49  1  0.18827000  0.18373000  0.34262000  1.0 0.1205665368
H  H50  1  0.18827000  0.31627000  0.84262000  1.0 0.1205665368
H  H51  1  0.97626000  0.19423000  0.38589000  1.0 0.1205665368
H  H52  1  0.97626000  0.30577000  0.88589000  1.0 0.1205665368
H  H53  1  0.94175000  0.24418000  0.35813000  1.0 0.1205665368
H  H54  1  0.94175000  0.25582000  0.85813000  1.0 0.1205665368
H  H55  1  0.85067000  0.41653000  0.12344000  1.0 0.1205665368
H  H56  1  0.85067000  0.08347000  0.62344000  1.0 0.1205665368
H  H57  1  0.82895000  0.42110000  0.05778000  1.0 0.1205665368
H  H58  1  0.82895000  0.07890000  0.55778000  1.0 0.1205665368
H  H59  1  0.99769000  0.34464000  0.06856000  1.0 0.1126139153
H  H60  1  0.99769000  0.15536000  0.56856000  1.0 0.1126139153
H  H61  1  0.01499000  0.33893000  0.13369000  1.0 0.1303286218
H  H62  1  0.01499000  0.16107000  0.63369000  1.0 0.1303286218
H  H63  1  0.88657000  0.44839000  0.89405000  1.0 0.1000802796
H  H64  1  0.88657000  0.05161000  0.39405000  1.0 0.1000802796
H  H65  1  0.01252000  0.31113000  0.00258000  1.0 0.1000802796
H  H66  1  0.01252000  0.18887000  0.50258000  1.0 0.1000802796
H  H67  1  0.27875000  0.30833000  0.06155000  1.0 0.1400908685
H  H68  1  0.27875000  0.19167000  0.56155000  1.0 0.1400908685
H  H69  1  0.26867000  0.27805000  0.03556000  1.0 0.1303286218
H  H70  1  0.26867000  0.22195000  0.53556000  1.0 0.1303286218
H  H71  1  0.24155000  0.31133000  0.01549000  1.0 0.146078291
H  H72  1  0.24155000  0.18867000  0.51549000  1.0 0.146078291
H  H73  1  0.03226000  0.27618000  0.04776000  1.0 0.1400908685
H  H74  1  0.03226000  0.22382000  0.54776000  1.0 0.1400908685
H  H75  1  0.13065000  0.25715000  0.06585000  1.0 0.1400908685
H  H76  1  0.13065000  0.24285000  0.56585000  1.0 0.1303286218
H  H77  1  0.11888000  0.28953000  0.08447000  1.0 0.146078291
H  H78  1  0.11888000  0.21047000  0.58447000  1.0 0.146078291
H  H79  1  0.59053000  0.32665000  0.85808000  1.0 0.1205665368
H  H80  1  0.59053000  0.17335000  0.35808000  1.0 0.1205665368
H  H81  1  0.50373000  0.28265000  0.82606000  1.0 0.1400908685
H  H82  1  0.50373000  0.21735000  0.32606000  1.0 0.1400908685
H  H83  1  0.75025000  0.23075000  0.86879000  1.0 0.1400908685
H  H84  1  0.75025000  0.26925000  0.36879000  1.0 0.1400908685
H  H85  1  0.83614000  0.27493000  0.90073000  1.0 0.1205665368
H  H86  1  0.83614000  0.22507000  0.40073000  1.0 0.1205665368
H  H87  1  0.38045000  0.20592000  0.72322000  1.0 0.1303286218
H  H88  1  0.38045000  0.29408000  0.22322000  1.0 0.1303286218
H  H89  1  0.42733000  0.11169000  0.72684000  1.0 0.1126139153
H  H90  1  0.42733000  0.38831000  0.22684000  1.0 0.1126139153
H  H91  1  0.52572000  0.16321000  0.82671000  1.0 0.1205665368
H  H92  1  0.52572000  0.33679000  0.32671000  1.0 0.1205665368
H  H93  1  0.18254000  0.12730000  0.60872000  1.0 0.1303286218
H  H94  1  0.18254000  0.37270000  0.10872000  1.0 0.1303286218
H  H95  1  0.12158000  0.11394000  0.54240000  1.0 0.1205665368
H  H96  1  0.12158000  0.38606000  0.04240000  1.0 0.1205665368
H  H97  1  0.39304000  0.11705000  0.54142000  1.0 0.1205665368
H  H98  1  0.39304000  0.38295000  0.04142000  1.0 0.1205665368
H  H99  1  0.45321000  0.13099000  0.60736000  1.0 0.1303286218
H  H100  1  0.45321000  0.36901000  0.10736000  1.0 0.1303286218
H  H101  1  0.49208000  0.02036000  0.77826000  1.0 0.1205665368
H  H102  1  0.49208000  0.47964000  0.27826000  1.0 0.1205665368
H  H103  1  0.56421000  0.97648000  0.81586000  1.0 0.1303286218
H  H104  1  0.56421000  0.52352000  0.31586000  1.0 0.1303286218
H  H105  1  0.79123000  0.02886000  0.87879000  1.0 0.1205665368
H  H106  1  0.79123000  0.47114000  0.37879000  1.0 0.1205665368
H  H107  1  0.71313000  0.07367000  0.84651000  1.0 0.1303286218
H  H108  1  0.71313000  0.42633000  0.34651000  1.0 0.1303286218
H  H109  1  0.07018000  0.96725000  0.99707000  1.0 0.0945415478
H  H110  1  0.07018000  0.53275000  0.49707000  1.0 0.0945415478
H  H111  1  0.30876000  0.96774000  0.97946000  1.0 0.1303286218
H  H112  1  0.30876000  0.53226000  0.47946000  1.0 0.1303286218
H  H113  1  0.31169000  0.93537000  0.00077000  1.0 0.1303286218
H  H114  1  0.31169000  0.56463000  0.50077000  1.0 0.1303286218
H  H115  1  0.23102000  0.94150000  0.95884000  1.0 0.1400908685
H  H116  1  0.23102000  0.55850000  0.45884000  1.0 0.1400908685
H  H117  1  0.28147000  0.95231000  0.05768000  1.0 0.146078291
H  H118  1  0.28147000  0.54769000  0.55768000  1.0 0.146078291
H  H119  1  0.28574000  0.98850000  0.04914000  1.0 0.1400908685
H  H120  1  0.28574000  0.51150000  0.54914000  1.0 0.1400908685
H  H121  1  0.19098000  0.97402000  0.05250000  1.0 0.1303286218
H  H122  1  0.19098000  0.52598000  0.55250000  1.0 0.1303286218
H  H123  1  0.79006000  0.95375000  0.97950000  1.0 0.1000802796
H  H124  1  0.79006000  0.54625000  0.47950000  1.0 0.1000802796
H  H125  1  0.02620000  0.95794000  0.04802000  1.0 0.1205665368
H  H126  1  0.02620000  0.54206000  0.54802000  1.0 0.1205665368
H  H127  1  0.99745000  0.97671000  0.07908000  1.0 0.1400908685
H  H128  1  0.99745000  0.52329000  0.57908000  1.0 0.1400908685
H  H129  1  0.99031000  0.93972000  0.07748000  1.0 0.1400908685
H  H130  1  0.99031000  0.56028000  0.57748000  1.0 0.1400908685
H  H131  1  0.79407000  0.95849000  0.06405000  1.0 0.146078291
H  H132  1  0.79407000  0.54151000  0.56405000  1.0 0.146078291
H  H133  1  0.83335000  0.99268000  0.06221000  1.0 0.1400908685
H  H134  1  0.83335000  0.50732000  0.56221000  1.0 0.1400908685
H  H135  1  0.74995000  0.97836000  0.02514000  1.0 0.1205665368
H  H136  1  0.74995000  0.52164000  0.52514000  1.0 0.1205665368
H  H137  1  0.48478000  0.81725000  0.82018000  1.0 0.1303286218
H  H138  1  0.48478000  0.68275000  0.32018000  1.0 0.1303286218
H  H139  1  0.38222000  0.77639000  0.78825000  1.0 0.1303286218
H  H140  1  0.38222000  0.72361000  0.28825000  1.0 0.1303286218
H  H141  1  0.58605000  0.71416000  0.85042000  1.0 0.1303286218
H  H142  1  0.58605000  0.78584000  0.35042000  1.0 0.1303286218
H  H143  1  0.68951000  0.75557000  0.88125000  1.0 0.1205665368
H  H144  1  0.68951000  0.74443000  0.38125000  1.0 0.1205665368
H  H145  1  0.32987000  0.68808000  0.72591000  1.0 0.1205665368
H  H146  1  0.32987000  0.81192000  0.22591000  1.0 0.1205665368
H  H147  1  0.23034000  0.59882000  0.70434000  1.0 0.1126139153
H  H148  1  0.23034000  0.90118000  0.20434000  1.0 0.1126139153
H  H149  1  0.35545000  0.62944000  0.81587000  1.0 0.1205665368
H  H150  1  0.35545000  0.87056000  0.31587000  1.0 0.1205665368
H  H151  1  0.01510000  0.62345000  0.58433000  1.0 0.1303286218
H  H152  1  0.01510000  0.87655000  0.08433000  1.0 0.1303286218
H  H153  1  0.97513000  0.61862000  0.51687000  1.0 0.1205665368
H  H154  1  0.97513000  0.88138000  0.01687000  1.0 0.1205665368
H  H155  1  0.25955000  0.62581000  0.53378000  1.0 0.1205665368
H  H156  1  0.25955000  0.87419000  0.03378000  1.0 0.1205665368
H  H157  1  0.29950000  0.63114000  0.60106000  1.0 0.1400908685
H  H158  1  0.29950000  0.86886000  0.10106000  1.0 0.1400908685
H  H159  1  0.18640000  0.51880000  0.77786000  1.0 0.1400908685
H  H160  1  0.18640000  0.98120000  0.27786000  1.0 0.1400908685
H  H161  1  0.16549000  0.47364000  0.80889000  1.0 0.1303286218
H  H162  1  0.16549000  0.02636000  0.30889000  1.0 0.1303286218
H  H163  1  0.28934000  0.51481000  0.91435000  1.0 0.1205665368
H  H164  1  0.28934000  0.98519000  0.41435000  1.0 0.1205665368
H  H165  1  0.31910000  0.55955000  0.88390000  1.0 0.1303286218
H  H166  1  0.31910000  0.94045000  0.38390000  1.0 0.1303286218
H  H167  1  0.85687000  0.79528000  0.97908000  1.0 0.1000802796
H  H168  1  0.85687000  0.70472000  0.47908000  1.0 0.1000802796
H  H169  1  0.10275000  0.80498000  0.02624000  1.0 0.1400908685
H  H170  1  0.10275000  0.69502000  0.52624000  1.0 0.1400908685
H  H171  1  0.09889000  0.80121000  0.06830000  1.0 0.1400908685
H  H172  1  0.09889000  0.69879000  0.56830000  1.0 0.1400908685
H  H173  1  0.11584000  0.77151000  0.04599000  1.0 0.1303286218
H  H174  1  0.11584000  0.72849000  0.54599000  1.0 0.1303286218
H  H175  1  0.86388000  0.76243000  0.02793000  1.0 0.1303286218
H  H176  1  0.86388000  0.73757000  0.52793000  1.0 0.1303286218
H  H177  1  0.96566000  0.74865000  0.05541000  1.0 0.1400908685
H  H178  1  0.96566000  0.75135000  0.55541000  1.0 0.1400908685
H  H179  1  0.92546000  0.77963000  0.06750000  1.0 0.146078291
H  H180  1  0.92546000  0.72037000  0.56750000  1.0 0.146078291
H  H181  1  0.66434000  0.91380000  0.00833000  1.0 0.1205665368
H  H182  1  0.66434000  0.58620000  0.50833000  1.0 0.1205665368
H  H183  1  0.67137000  0.91133000  0.07361000  1.0 0.1400908685
H  H184  1  0.67137000  0.58867000  0.57361000  1.0 0.1400908685
H  H185  1  0.83104000  0.83372000  0.08987000  1.0 0.1303286218
H  H186  1  0.83104000  0.66628000  0.58987000  1.0 0.1303286218
H  H187  1  0.83327000  0.83851000  0.02770000  1.0 0.1205665368
H  H188  1  0.83327000  0.66149000  0.52770000  1.0 0.1126139153
H  H189  1  0.78510000  0.83160000  0.18501000  1.0 0.1205665368
H  H190  1  0.78510000  0.66840000  0.68501000  1.0 0.1205665368
H  H191  1  0.82480000  0.85344000  0.29683000  1.0 0.1205665368
H  H192  1  0.82480000  0.64656000  0.79683000  1.0 0.1205665368
H  H193  1  0.76068000  0.92149000  0.21448000  1.0 0.1205665368
H  H194  1  0.76068000  0.57851000  0.71448000  1.0 0.1205665368
H  H195  1  0.92307000  0.74671000  0.26401000  1.0 0.1303286218
H  H196  1  0.92307000  0.75329000  0.76401000  1.0 0.1303286218
H  H197  1  0.97994000  0.69892000  0.29415000  1.0 0.1303286218
H  H198  1  0.97994000  0.80108000  0.79415000  1.0 0.1303286218
H  H199  1  0.88493000  0.71927000  0.37810000  1.0 0.1205665368
H  H200  1  0.88493000  0.78073000  0.87810000  1.0 0.1205665368
H  H201  1  0.82208000  0.76651000  0.34688000  1.0 0.1303286218
H  H202  1  0.82208000  0.73349000  0.84688000  1.0 0.1303286218
H  H203  1  0.68115000  0.99652000  0.26325000  1.0 0.1303286218
H  H204  1  0.68115000  0.50348000  0.76325000  1.0 0.1303286218
H  H205  1  0.66406000  0.03773000  0.30299000  1.0 0.1303286218
H  H206  1  0.66406000  0.46227000  0.80299000  1.0 0.1303286218
H  H207  1  0.77135000  0.98279000  0.39788000  1.0 0.1303286218
H  H208  1  0.77135000  0.51721000  0.89788000  1.0 0.1303286218
H  H209  1  0.77063000  0.93963000  0.35761000  1.0 0.1400908685
H  H210  1  0.77063000  0.56037000  0.85761000  1.0 0.1400908685
H  H211  1  0.41120000  0.90719000  0.54518000  1.0 0.4288831744
H  H212  1  0.41120000  0.59281000  0.04518000  1.0 0.4288831744
H  H213  1  0.45607000  0.89669000  0.58891000  1.0 0.4288831744
H  H214  1  0.45607000  0.60331000  0.08891000  1.0 0.4288831744
H  H215  1  0.70372000  0.14708000  0.07329000  1.0 0.3990131262
H  H216  1  0.70372000  0.35292000  0.57329000  1.0 0.3990131262
H  H217  1  0.75333000  0.16760000  0.10481000  1.0 0.3990131262
H  H218  1  0.75333000  0.33240000  0.60481000  1.0 0.3990131262
H  H219  1  0.95935000  0.93688000  0.21173000  1.0 0.2789518839
H  H220  1  0.95935000  0.56312000  0.71173000  1.0 0.2789518839
H  H221  1  0.94864000  0.77665000  0.20236000  1.0 0.2789518839
H  H222  1  0.94864000  0.72335000  0.70236000  1.0 0.2789518839
H  H223  1  0.03529000  0.89439000  0.31063000  1.0 0.2789518839
H  H224  1  0.03529000  0.60561000  0.81063000  1.0 0.2789518839
H  H225  1  0.39475000  0.70709000  0.66881000  1.0 0.2789518839
H  H226  1  0.39475000  0.79291000  0.16881000  1.0 0.2789518839
H  H227  1  0.58353000  0.62588000  0.83115000  1.0 0.2789518839
H  H228  1  0.58353000  0.87412000  0.33115000  1.0 0.2789518839
H  H229  1  0.47675000  0.57829000  0.73630000  1.0 0.2789518839
H  H230  1  0.47675000  0.92171000  0.23630000  1.0 0.2789518839
H  H231  1  0.63257000  0.22150000  0.72920000  1.0 0.2789518839
H  H232  1  0.63257000  0.27850000  0.22920000  1.0 0.2850942965
H  H233  1  0.84413000  0.11664000  0.84970000  1.0 0.2789518839
H  H234  1  0.84413000  0.38336000  0.34970000  1.0 0.2789518839
H  H235  1  0.70565000  0.08816000  0.67293000  1.0 0.2789518839
H  H236  1  0.70565000  0.41184000  0.17293000  1.0 0.2789518839
H  H237  1  0.23895000  0.34952000  0.36623000  1.0 0.2789518839
H  H238  1  0.23895000  0.15048000  0.86623000  1.0 0.2789518839
H  H239  1  0.18740000  0.30513000  0.19922000  1.0 0.2789518839
H  H240  1  0.18740000  0.19487000  0.69922000  1.0 0.2789518839
H  H241  1  0.27706000  0.44584000  0.24283000  1.0 0.2789518839
H  H242  1  0.27706000  0.05416000  0.74283000  1.0 0.2789518839
H  H243  1  0.81720000  0.02834000  0.14610000  1.0 0.1205665368
H  H244  1  0.81720000  0.47166000  0.64610000  1.0 0.1205665368
H  H245  1  0.82906000  0.97597000  0.16790000  1.0 0.1303286218
H  H246  1  0.82906000  0.52403000  0.66790000  1.0 0.1303286218
H  H247  1  0.10908000  0.97334000  0.17731000  1.0 0.1303286218
H  H248  1  0.10908000  0.52666000  0.67731000  1.0 0.1303286218
H  H249  1  0.09383000  0.02487000  0.15255000  1.0 0.1205665368
H  H250  1  0.09383000  0.47513000  0.65255000  1.0 0.1205665368
H  H251  1  0.03476000  0.90188000  0.25607000  1.0 0.1126139153
H  H252  1  0.03476000  0.59812000  0.75607000  1.0 0.1126139153
H  H253  1  0.04391000  0.80699000  0.25302000  1.0 0.1205665368
H  H254  1  0.04391000  0.69301000  0.75302000  1.0 0.1205665368
H  H255  1  0.00700000  0.85719000  0.15560000  1.0 0.1205665368
H  H256  1  0.00700000  0.64281000  0.65560000  1.0 0.1205665368
H  H257  1  0.84945000  0.73305000  0.18645000  1.0 0.1400908685
H  H258  1  0.84945000  0.76695000  0.68645000  1.0 0.1400908685
H  H259  1  0.81173000  0.68373000  0.15738000  1.0 0.1205665368
H  H260  1  0.81173000  0.81627000  0.65738000  1.0 0.1205665368
H  H261  1  0.02374000  0.69423000  0.11411000  1.0 0.1205665368
H  H262  1  0.02374000  0.80577000  0.61411000  1.0 0.1205665368
H  H263  1  0.05825000  0.74418000  0.14187000  1.0 0.1205665368
H  H264  1  0.05825000  0.75582000  0.64187000  1.0 0.1205665368
H  H265  1  0.14933000  0.91653000  0.37656000  1.0 0.1205665368
H  H266  1  0.14933000  0.58347000  0.87656000  1.0 0.1205665368
H  H267  1  0.17105000  0.92110000  0.44222000  1.0 0.1205665368
H  H268  1  0.17105000  0.57890000  0.94222000  1.0 0.1205665368
H  H269  1  0.00231000  0.84464000  0.43144000  1.0 0.1126139153
H  H270  1  0.00231000  0.65536000  0.93144000  1.0 0.1126139153
H  H271  1  0.98501000  0.83893000  0.36631000  1.0 0.1303286218
H  H272  1  0.98501000  0.66107000  0.86631000  1.0 0.1303286218
H  H273  1  0.11343000  0.94839000  0.60595000  1.0 0.1000802796
H  H274  1  0.11343000  0.55161000  0.10595000  1.0 0.1000802796
H  H275  1  0.98748000  0.81113000  0.49742000  1.0 0.1000802796
H  H276  1  0.98748000  0.68887000  0.99742000  1.0 0.1000802796
H  H277  1  0.72125000  0.80833000  0.43845000  1.0 0.1400908685
H  H278  1  0.72125000  0.69167000  0.93845000  1.0 0.1400908685
H  H279  1  0.73133000  0.77805000  0.46444000  1.0 0.1303286218
H  H280  1  0.73133000  0.72195000  0.96444000  1.0 0.1303286218
H  H281  1  0.75845000  0.81133000  0.48451000  1.0 0.146078291
H  H282  1  0.75845000  0.68867000  0.98451000  1.0 0.146078291
H  H283  1  0.96774000  0.77618000  0.45224000  1.0 0.1400908685
H  H284  1  0.96774000  0.72382000  0.95224000  1.0 0.1400908685
H  H285  1  0.86935000  0.75715000  0.43415000  1.0 0.1303286218
H  H286  1  0.86935000  0.74285000  0.93415000  1.0 0.1303286218
H  H287  1  0.88112000  0.78953000  0.41553000  1.0 0.146078291
H  H288  1  0.88112000  0.71047000  0.91553000  1.0 0.146078291
H  H289  1  0.40947000  0.82665000  0.64192000  1.0 0.1205665368
H  H290  1  0.40947000  0.67335000  0.14192000  1.0 0.1205665368
H  H291  1  0.49627000  0.78265000  0.67394000  1.0 0.1400908685
H  H292  1  0.49627000  0.71735000  0.17394000  1.0 0.1400908685
H  H293  1  0.24975000  0.73075000  0.63121000  1.0 0.1400908685
H  H294  1  0.24975000  0.76925000  0.13121000  1.0 0.1400908685
H  H295  1  0.16386000  0.77493000  0.59927000  1.0 0.1205665368
H  H296  1  0.16386000  0.72507000  0.09927000  1.0 0.1205665368
H  H297  1  0.61955000  0.70592000  0.77678000  1.0 0.1205665368
H  H298  1  0.61955000  0.79408000  0.27678000  1.0 0.1303286218
H  H299  1  0.57267000  0.61169000  0.77316000  1.0 0.1126139153
H  H300  1  0.57267000  0.88831000  0.27316000  1.0 0.1126139153
H  H301  1  0.47428000  0.66321000  0.67329000  1.0 0.1205665368
H  H302  1  0.47428000  0.83679000  0.17329000  1.0 0.1205665368
H  H303  1  0.81746000  0.62730000  0.89128000  1.0 0.1303286218
H  H304  1  0.81746000  0.87270000  0.39128000  1.0 0.1303286218
H  H305  1  0.87842000  0.61394000  0.95760000  1.0 0.1205665368
H  H306  1  0.87842000  0.88606000  0.45760000  1.0 0.1205665368
H  H307  1  0.60696000  0.61705000  0.95858000  1.0 0.1205665368
H  H308  1  0.60696000  0.88295000  0.45858000  1.0 0.1205665368
H  H309  1  0.54679000  0.63099000  0.89264000  1.0 0.1303286218
H  H310  1  0.54679000  0.86901000  0.39264000  1.0 0.1303286218
H  H311  1  0.50792000  0.52036000  0.72174000  1.0 0.1205665368
H  H312  1  0.50792000  0.97964000  0.22174000  1.0 0.1205665368
H  H313  1  0.43579000  0.47648000  0.68414000  1.0 0.1303286218
H  H314  1  0.43579000  0.02352000  0.18414000  1.0 0.1303286218
H  H315  1  0.20877000  0.52886000  0.62121000  1.0 0.1205665368
H  H316  1  0.20877000  0.97114000  0.12121000  1.0 0.1205665368
H  H317  1  0.28687000  0.57367000  0.65349000  1.0 0.1303286218
H  H318  1  0.28687000  0.92633000  0.15349000  1.0 0.1303286218
H  H319  1  0.92982000  0.46725000  0.50293000  1.0 0.0945415478
H  H320  1  0.92982000  0.03275000  0.00293000  1.0 0.0945415478
H  H321  1  0.69124000  0.46774000  0.52054000  1.0 0.1303286218
H  H322  1  0.69124000  0.03226000  0.02054000  1.0 0.1303286218
H  H323  1  0.68831000  0.43537000  0.49923000  1.0 0.1303286218
H  H324  1  0.68831000  0.06463000  0.99923000  1.0 0.1303286218
H  H325  1  0.76898000  0.44150000  0.54116000  1.0 0.1400908685
H  H326  1  0.76898000  0.05850000  0.04116000  1.0 0.1400908685
H  H327  1  0.71853000  0.45231000  0.44232000  1.0 0.146078291
H  H328  1  0.71853000  0.04769000  0.94232000  1.0 0.146078291
H  H329  1  0.71426000  0.48850000  0.45086000  1.0 0.1400908685
H  H330  1  0.71426000  0.01150000  0.95086000  1.0 0.1400908685
H  H331  1  0.80902000  0.47402000  0.44750000  1.0 0.1303286218
H  H332  1  0.80902000  0.02598000  0.94750000  1.0 0.1303286218
H  H333  1  0.20994000  0.45375000  0.52050000  1.0 0.1000802796
H  H334  1  0.20994000  0.04625000  0.02050000  1.0 0.1000802796
H  H335  1  0.97380000  0.45794000  0.45198000  1.0 0.1205665368
H  H336  1  0.97380000  0.04206000  0.95198000  1.0 0.1205665368
H  H337  1  0.00255000  0.47671000  0.42092000  1.0 0.1400908685
H  H338  1  0.00255000  0.02329000  0.92092000  1.0 0.1400908685
H  H339  1  0.00969000  0.43972000  0.42252000  1.0 0.1400908685
H  H340  1  0.00969000  0.06028000  0.92252000  1.0 0.1400908685
H  H341  1  0.20593000  0.45849000  0.43595000  1.0 0.146078291
H  H342  1  0.20593000  0.04151000  0.93595000  1.0 0.1400908685
H  H343  1  0.16665000  0.49268000  0.43779000  1.0 0.1400908685
H  H344  1  0.16665000  0.00732000  0.93779000  1.0 0.1400908685
H  H345  1  0.25005000  0.47836000  0.47486000  1.0 0.1205665368
H  H346  1  0.25005000  0.02164000  0.97486000  1.0 0.1205665368
H  H347  1  0.51522000  0.31725000  0.67982000  1.0 0.1303286218
H  H348  1  0.51522000  0.18275000  0.17982000  1.0 0.1205665368
H  H349  1  0.61778000  0.27639000  0.71175000  1.0 0.1303286218
H  H350  1  0.61778000  0.22361000  0.21175000  1.0 0.1303286218
H  H351  1  0.41395000  0.21416000  0.64958000  1.0 0.1303286218
H  H352  1  0.41395000  0.28584000  0.14958000  1.0 0.1303286218
H  H353  1  0.31049000  0.25557000  0.61875000  1.0 0.1205665368
H  H354  1  0.31049000  0.24443000  0.11875000  1.0 0.1205665368
H  H355  1  0.67013000  0.18808000  0.77409000  1.0 0.1205665368
H  H356  1  0.67013000  0.31192000  0.27409000  1.0 0.1205665368
H  H357  1  0.76966000  0.09882000  0.79566000  1.0 0.1126139153
H  H358  1  0.76966000  0.40118000  0.29566000  1.0 0.1126139153
H  H359  1  0.64455000  0.12944000  0.68413000  1.0 0.1205665368
H  H360  1  0.64455000  0.37056000  0.18413000  1.0 0.1205665368
H  H361  1  0.98490000  0.12345000  0.91567000  1.0 0.1303286218
H  H362  1  0.98490000  0.37655000  0.41567000  1.0 0.1303286218
H  H363  1  0.02487000  0.11862000  0.98313000  1.0 0.1205665368
H  H364  1  0.02487000  0.38138000  0.48313000  1.0 0.1205665368
H  H365  1  0.74045000  0.12581000  0.96622000  1.0 0.1205665368
H  H366  1  0.74045000  0.37419000  0.46622000  1.0 0.1205665368
H  H367  1  0.70050000  0.13114000  0.89894000  1.0 0.1400908685
H  H368  1  0.70050000  0.36886000  0.39894000  1.0 0.1400908685
H  H369  1  0.81360000  0.01880000  0.72214000  1.0 0.1400908685
H  H370  1  0.81360000  0.48120000  0.22214000  1.0 0.1400908685
H  H371  1  0.83451000  0.97364000  0.69111000  1.0 0.1303286218
H  H372  1  0.83451000  0.52636000  0.19111000  1.0 0.1303286218
H  H373  1  0.71066000  0.01481000  0.58565000  1.0 0.1205665368
H  H374  1  0.71066000  0.48519000  0.08565000  1.0 0.1205665368
H  H375  1  0.68090000  0.05955000  0.61610000  1.0 0.1303286218
H  H376  1  0.68090000  0.44045000  0.11610000  1.0 0.1303286218
H  H377  1  0.14313000  0.29528000  0.52092000  1.0 0.1000802796
H  H378  1  0.14313000  0.20472000  0.02092000  1.0 0.1000802796
H  H379  1  0.89725000  0.30498000  0.47376000  1.0 0.1400908685
H  H380  1  0.89725000  0.19502000  0.97376000  1.0 0.1400908685
H  H381  1  0.90111000  0.30121000  0.43170000  1.0 0.1400908685
H  H382  1  0.90111000  0.19879000  0.93170000  1.0 0.1400908685
H  H383  1  0.88416000  0.27151000  0.45401000  1.0 0.1303286218
H  H384  1  0.88416000  0.22849000  0.95401000  1.0 0.1303286218
H  H385  1  0.13612000  0.26243000  0.47207000  1.0 0.1303286218
H  H386  1  0.13612000  0.23757000  0.97207000  1.0 0.1303286218
H  H387  1  0.03434000  0.24865000  0.44459000  1.0 0.1400908685
H  H388  1  0.03434000  0.25135000  0.94459000  1.0 0.1400908685
H  H389  1  0.07454000  0.27963000  0.43250000  1.0 0.146078291
H  H390  1  0.07454000  0.22037000  0.93250000  1.0 0.146078291
H  H391  1  0.33566000  0.41380000  0.49167000  1.0 0.1205665368
H  H392  1  0.33566000  0.08620000  0.99167000  1.0 0.1205665368
H  H393  1  0.32863000  0.41133000  0.42639000  1.0 0.1400908685
H  H394  1  0.32863000  0.08867000  0.92639000  1.0 0.1400908685
H  H395  1  0.16896000  0.33372000  0.41013000  1.0 0.1303286218
H  H396  1  0.16896000  0.16628000  0.91013000  1.0 0.1303286218
H  H397  1  0.16673000  0.33851000  0.47230000  1.0 0.1126139153
H  H398  1  0.16673000  0.16149000  0.97230000  1.0 0.1126139153
H  H399  1  0.21490000  0.33160000  0.31499000  1.0 0.1205665368
H  H400  1  0.21490000  0.16840000  0.81499000  1.0 0.1205665368
H  H401  1  0.17520000  0.35344000  0.20317000  1.0 0.1205665368
H  H402  1  0.17520000  0.14656000  0.70317000  1.0 0.1205665368
H  H403  1  0.23932000  0.42149000  0.28552000  1.0 0.1205665368
H  H404  1  0.23932000  0.07851000  0.78552000  1.0 0.1205665368
H  H405  1  0.07693000  0.24671000  0.23599000  1.0 0.1303286218
H  H406  1  0.07693000  0.25329000  0.73599000  1.0 0.1303286218
H  H407  1  0.02006000  0.19892000  0.20585000  1.0 0.1303286218
H  H408  1  0.02006000  0.30108000  0.70585000  1.0 0.1303286218
H  H409  1  0.11507000  0.21927000  0.12190000  1.0 0.1205665368
H  H410  1  0.11507000  0.28073000  0.62190000  1.0 0.1205665368
H  H411  1  0.17792000  0.26651000  0.15312000  1.0 0.1303286218
H  H412  1  0.17792000  0.23349000  0.65312000  1.0 0.1303286218
H  H413  1  0.31885000  0.49652000  0.23675000  1.0 0.1303286218
H  H414  1  0.31885000  0.00348000  0.73675000  1.0 0.1303286218
H  H415  1  0.33594000  0.53773000  0.19701000  1.0 0.1303286218
H  H416  1  0.33594000  0.96227000  0.69701000  1.0 0.1303286218
H  H417  1  0.22865000  0.48279000  0.10212000  1.0 0.1303286218
H  H418  1  0.22865000  0.01721000  0.60212000  1.0 0.1303286218
H  H419  1  0.22937000  0.43963000  0.14239000  1.0 0.1400908685
H  H420  1  0.22937000  0.06037000  0.64239000  1.0 0.1400908685
C  C1  1  0.05810000  0.56426000  0.36960000  1.0 0.5787020828
C  C2  1  0.05810000  0.93574000  0.86960000  1.0 0.5787020828
C  C3  1  0.04760000  0.53131000  0.35430000  1.0 -0.0385560452
C  C4  1  0.04760000  0.96869000  0.85430000  1.0 -0.0385560452
C  C5  1  0.12470000  0.51720000  0.34850000  1.0 -0.0779586173
C  C6  1  0.12470000  0.98280000  0.84850000  1.0 -0.0779586173
C  C7  1  0.11690000  0.48601000  0.33430000  1.0 -0.1979371012
C  C8  1  0.11690000  0.01399000  0.83430000  1.0 -0.1979371012
C  C9  1  0.02910000  0.47067000  0.32390000  1.0 0.2308411093
C  C10  1  0.02910000  0.02933000  0.82390000  1.0 0.2308411093
C  C11  1  0.94970000  0.48433000  0.32910000  1.0 -0.1792423819
C  C12  1  0.94970000  0.01567000  0.82910000  1.0 -0.1792423819
C  C13  1  0.95940000  0.51516000  0.34420000  1.0 -0.0779586173
C  C14  1  0.95940000  0.98484000  0.84420000  1.0 -0.0779586173
C  C15  1  0.98110000  0.41481000  0.31880000  1.0 0.4587467785
C  C16  1  0.98110000  0.08519000  0.81880000  1.0 0.4587467785
C  C17  1  0.97829000  0.38435000  0.29709000  1.0 -0.0105100175
C  C18  1  0.97829000  0.11565000  0.79709000  1.0 -0.0105100175
C  C19  1  0.96639000  0.38318000  0.25749000  1.0 -0.1792423819
C  C20  1  0.96639000  0.11682000  0.75749000  1.0 -0.1792423819
C  C21  1  0.95637000  0.35439000  0.23797000  1.0 -0.0105100175
C  C22  1  0.95637000  0.14561000  0.73797000  1.0 -0.0105100175
C  C23  1  0.96141000  0.32648000  0.25941000  1.0 -0.1370041092
C  C24  1  0.96141000  0.17352000  0.75941000  1.0 -0.1370041092
C  C25  1  0.97422000  0.32766000  0.29862000  1.0 -0.0105100175
C  C26  1  0.97422000  0.17234000  0.79862000  1.0 -0.0105100175
C  C27  1  0.98347000  0.35653000  0.31777000  1.0 -0.1370041092
C  C28  1  0.98347000  0.14347000  0.81777000  1.0 -0.1370041092
C  C29  1  0.97530000  0.29813000  0.32190000  1.0 0.4587467785
C  C30  1  0.97530000  0.20187000  0.82190000  1.0 0.4587467785
C  C31  1  0.04349000  0.24391000  0.33339000  1.0 0.2308411093
C  C32  1  0.04349000  0.25609000  0.83339000  1.0 0.2308411093
C  C33  1  0.11620000  0.22539000  0.32850000  1.0 -0.1979371012
C  C34  1  0.11620000  0.27461000  0.82850000  1.0 -0.1979371012
C  C35  1  0.13840000  0.19569000  0.34560000  1.0 -0.0779586173
C  C36  1  0.13840000  0.30431000  0.84560000  1.0 -0.0779586173
C  C37  1  0.08480000  0.18374000  0.36730000  1.0 -0.0204481419
C  C38  1  0.08480000  0.31626000  0.86730000  1.0 -0.0204481419
C  C39  1  0.01200000  0.20204000  0.37160000  1.0 -0.0920361758
C  C40  1  0.01200000  0.29796000  0.87160000  1.0 -0.0920361758
C  C41  1  0.99110000  0.23208000  0.35490000  1.0 -0.1792423819
C  C42  1  0.99110000  0.26792000  0.85490000  1.0 -0.1792423819
C  C43  1  0.10707000  0.15125000  0.38487000  1.0 0.5787020828
C  C44  1  0.10707000  0.34875000  0.88487000  1.0 0.5787020828
C  C45  1  0.94220000  0.35080000  0.19560000  1.0 0.4517167236
C  C46  1  0.94220000  0.14920000  0.69560000  1.0 0.4517167236
C  C47  1  0.93655000  0.37778000  0.13535000  1.0 0.2458157669
C  C48  1  0.93655000  0.12222000  0.63535000  1.0 0.2458157669
C  C49  1  0.88000000  0.40193000  0.11230000  1.0 -0.1979371012
C  C50  1  0.88000000  0.09807000  0.61230000  1.0 -0.1979371012
C  C51  1  0.86640000  0.40461000  0.07290000  1.0 -0.0779586173
C  C52  1  0.86640000  0.09539000  0.57290000  1.0 -0.0779586173
C  C53  1  0.90860000  0.38264000  0.05580000  1.0 -0.0385560452
C  C54  1  0.90860000  0.11736000  0.55580000  1.0 -0.0385560452
C  C55  1  0.96640000  0.35883000  0.07940000  1.0 -0.0920361758
C  C56  1  0.96640000  0.14117000  0.57940000  1.0 -0.0920361758
C  C57  1  0.97880000  0.35567000  0.11870000  1.0 -0.1622327142
C  C58  1  0.97880000  0.14433000  0.61870000  1.0 -0.1622327142
C  C59  1  0.89110000  0.38476000  0.01270000  1.0 0.598137116
C  C60  1  0.89110000  0.11524000  0.51270000  1.0 0.598137116
C  C61  1  0.93120000  0.43180000  0.90230000  1.0 0.5300243105
C  C62  1  0.93120000  0.06820000  0.40230000  1.0 0.5300243105
C  C63  1  0.07710000  0.31080000  0.00410000  1.0 0.2789518839
C  C64  1  0.07710000  0.18920000  0.50410000  1.0 0.2789518839
C  C65  1  0.24080000  0.29830000  0.03690000  1.0 -0.3309412357
C  C66  1  0.24080000  0.20170000  0.53690000  1.0 -0.3309412357
C  C67  1  0.10240000  0.27790000  0.06030000  1.0 -0.3427461195
C  C68  1  0.10240000  0.22210000  0.56030000  1.0 -0.3427461195
C  C69  1  0.77840000  0.33397000  0.90330000  1.0 0.598137116
C  C70  1  0.77840000  0.16603000  0.40330000  1.0 0.598137116
C  C71  1  0.72160000  0.30537000  0.88270000  1.0 -0.0385560452
C  C72  1  0.72160000  0.19463000  0.38270000  1.0 -0.0385560452
C  C73  1  0.62270000  0.30739000  0.86030000  1.0 -0.0920361758
C  C74  1  0.62270000  0.19261000  0.36030000  1.0 -0.0920361758
C  C75  1  0.57060000  0.28108000  0.84100000  1.0 -0.1792423819
C  C76  1  0.57060000  0.21892000  0.34100000  1.0 -0.1792423819
C  C77  1  0.61900000  0.25210000  0.84400000  1.0 0.2379868632
C  C78  1  0.61900000  0.24790000  0.34400000  1.0 0.2379868632
C  C79  1  0.71790000  0.24999000  0.86650000  1.0 -0.1907810532
C  C80  1  0.71790000  0.25001000  0.36650000  1.0 -0.1907810532
C  C81  1  0.76932000  0.27647000  0.88572000  1.0 -0.0920361758
C  C82  1  0.76932000  0.22353000  0.38572000  1.0 -0.0920361758
C  C83  1  0.47950000  0.22144000  0.79680000  1.0 0.4587467785
C  C84  1  0.47950000  0.27856000  0.29680000  1.0 0.4587467785
C  C85  1  0.45808000  0.18911000  0.77808000  1.0 -0.0105100175
C  C86  1  0.45808000  0.31089000  0.27808000  1.0 -0.0105100175
C  C87  1  0.40578000  0.18764000  0.73758000  1.0 -0.1339076019
C  C88  1  0.40578000  0.31236000  0.23758000  1.0 -0.1339076019
C  C89  1  0.39183000  0.15848000  0.71893000  1.0 -0.0105100175
C  C90  1  0.39183000  0.34152000  0.21893000  1.0 -0.0105100175
C  C91  1  0.43240000  0.13086000  0.73990000  1.0 -0.1979371012
C  C92  1  0.43240000  0.36914000  0.23990000  1.0 -0.1979371012
C  C93  1  0.48060000  0.13259000  0.78070000  1.0 -0.0105100175
C  C94  1  0.48060000  0.36741000  0.28070000  1.0 -0.0105100175
C  C95  1  0.49317000  0.16199000  0.79947000  1.0 -0.1339076019
C  C96  1  0.49317000  0.33801000  0.29947000  1.0 -0.1339076019
C  C97  1  0.33140000  0.15691000  0.67520000  1.0 0.4587467785
C  C98  1  0.33140000  0.34309000  0.17520000  1.0 0.4587467785
C  C99  1  0.32470000  0.13030000  0.61440000  1.0 0.2229651282
C  C100  1  0.32470000  0.36970000  0.11440000  1.0 0.2229651282
C  C101  1  0.22470000  0.12533000  0.59520000  1.0 -0.1712159746
C  C102  1  0.22470000  0.37467000  0.09520000  1.0 -0.1712159746
C  C103  1  0.18850000  0.11739000  0.55540000  1.0 -0.0920361758
C  C104  1  0.18850000  0.38261000  0.05540000  1.0 -0.0920361758
C  C105  1  0.24990000  0.11453000  0.53490000  1.0 -0.0290863828
C  C106  1  0.24990000  0.38547000  0.03490000  1.0 -0.0290863828
C  C107  1  0.35040000  0.11930000  0.55470000  1.0 -0.0779586173
C  C108  1  0.35040000  0.38070000  0.05470000  1.0 -0.0779586173
C  C109  1  0.38640000  0.12740000  0.59430000  1.0 -0.1979371012
C  C110  1  0.38640000  0.37260000  0.09430000  1.0 -0.1979371012
C  C111  1  0.21020000  0.10646000  0.49190000  1.0 0.5787020828
C  C112  1  0.21020000  0.39354000  0.99190000  1.0 0.5787020828
C  C113  1  0.52560000  0.10452000  0.80630000  1.0 0.4587467785
C  C114  1  0.52560000  0.39548000  0.30630000  1.0 0.4587467785
C  C115  1  0.59080000  0.05117000  0.81060000  1.0 0.2229651282
C  C116  1  0.59080000  0.44883000  0.31060000  1.0 0.2229651282
C  C117  1  0.55000000  0.02250000  0.80020000  1.0 -0.1907810532
C  C118  1  0.55000000  0.47750000  0.30020000  1.0 -0.1907810532
C  C119  1  0.59430000  0.99610000  0.82230000  1.0 -0.0734456892
C  C120  1  0.59430000  0.50390000  0.32230000  1.0 -0.0734456892
C  C121  1  0.68110000  0.99880000  0.85320000  1.0 -0.0290863828
C  C122  1  0.68110000  0.50120000  0.35320000  1.0 -0.0290863828
C  C123  1  0.72760000  0.02740000  0.86010000  1.0 -0.0920361758
C  C124  1  0.72760000  0.47260000  0.36010000  1.0 -0.0920361758
C  C125  1  0.68260000  0.05405000  0.84020000  1.0 -0.1622327142
C  C126  1  0.68260000  0.44595000  0.34020000  1.0 -0.1622327142
C  C127  1  0.72930000  0.97050000  0.87750000  1.0 0.5592228627
C  C128  1  0.72930000  0.52950000  0.37750000  1.0 0.5592228627
C  C129  1  0.10760000  0.96260000  0.98210000  1.0 0.2789518839
C  C130  1  0.10760000  0.53740000  0.48210000  1.0 0.2789518839
C  C131  1  0.26960000  0.95100000  0.98370000  1.0 -0.3233562839
C  C132  1  0.26960000  0.54900000  0.48370000  1.0 -0.3233562839
C  C133  1  0.24380000  0.97020000  0.04380000  1.0 -0.3497775142
C  C134  1  0.24380000  0.52980000  0.54380000  1.0 -0.3497775142
C  C135  1  0.85560000  0.95190000  0.99620000  1.0 0.2789518839
C  C136  1  0.85560000  0.54810000  0.49620000  1.0 0.2850942965
C  C137  1  0.98250000  0.95860000  0.06200000  1.0 -0.3309412357
C  C138  1  0.98250000  0.54140000  0.56200000  1.0 -0.3309412357
C  C139  1  0.80860000  0.97370000  0.04750000  1.0 -0.3497775142
C  C140  1  0.80860000  0.52630000  0.54750000  1.0 -0.3427461195
C  C141  1  0.66430000  0.81750000  0.87340000  1.0 0.598137116
C  C142  1  0.66430000  0.68250000  0.37340000  1.0 0.598137116
C  C143  1  0.59660000  0.79058000  0.85340000  1.0 -0.0290863828
C  C144  1  0.59660000  0.70942000  0.35340000  1.0 -0.0290863828
C  C145  1  0.50580000  0.79647000  0.82610000  1.0 -0.0734456892
C  C146  1  0.50580000  0.70353000  0.32610000  1.0 -0.0734456892
C  C147  1  0.44410000  0.77190000  0.80710000  1.0 -0.1979371012
C  C148  1  0.44410000  0.72810000  0.30710000  1.0 -0.1979371012
C  C149  1  0.47290000  0.74081000  0.81560000  1.0 0.2379868632
C  C150  1  0.47290000  0.75919000  0.31560000  1.0 0.2379868632
C  C151  1  0.56540000  0.73490000  0.84390000  1.0 -0.1792423819
C  C152  1  0.56540000  0.76510000  0.34390000  1.0 -0.1792423819
C  C153  1  0.62730000  0.75975000  0.86260000  1.0 -0.0961129621
C  C154  1  0.62730000  0.74025000  0.36260000  1.0 -0.0961129621
C  C155  1  0.41087000  0.68609000  0.80587000  1.0 0.4517167236
C  C156  1  0.41087000  0.81391000  0.30587000  1.0 0.4517167236
C  C157  1  0.35063000  0.66291000  0.77533000  1.0 -0.0204481419
C  C158  1  0.35063000  0.83709000  0.27533000  1.0 -0.0204481419
C  C159  1  0.31990000  0.66835000  0.73500000  1.0 -0.1370041092
C  C160  1  0.31990000  0.83165000  0.23500000  1.0 -0.1370041092
C  C161  1  0.27432000  0.64456000  0.70812000  1.0 -0.0105100175
C  C162  1  0.27432000  0.85544000  0.20812000  1.0 -0.0105100175
C  C163  1  0.25920000  0.61504000  0.72210000  1.0 -0.1370041092
C  C164  1  0.25920000  0.88496000  0.22210000  1.0 -0.1370041092
C  C165  1  0.28701000  0.60979000  0.76241000  1.0 -0.0204481419
C  C166  1  0.28701000  0.89021000  0.26241000  1.0 -0.0204481419
C  C167  1  0.33430000  0.63328000  0.78890000  1.0 -0.1622327142
C  C168  1  0.33430000  0.86672000  0.28890000  1.0 -0.1622327142
C  C169  1  0.24791000  0.65052000  0.66501000  1.0 0.4695819374
C  C170  1  0.24791000  0.84948000  0.16501000  1.0 0.4695819374
C  C171  1  0.16098000  0.62824000  0.59918000  1.0 0.2308411093
C  C172  1  0.16098000  0.87176000  0.09918000  1.0 0.2308411093
C  C173  1  0.06430000  0.62422000  0.57410000  1.0 -0.1907810532
C  C174  1  0.06430000  0.87578000  0.07410000  1.0 -0.1907810532
C  C175  1  0.04030000  0.62130000  0.53360000  1.0 -0.0734456892
C  C176  1  0.04030000  0.87870000  0.03360000  1.0 -0.0779586173
C  C177  1  0.11236000  0.62238000  0.51836000  1.0 -0.0513817114
C  C178  1  0.11236000  0.87762000  0.01836000  1.0 -0.0513817114
C  C179  1  0.21020000  0.62570000  0.54390000  1.0 -0.0920361758
C  C180  1  0.21020000  0.87430000  0.04390000  1.0 -0.0920361758
C  C181  1  0.23430000  0.62870000  0.58420000  1.0 -0.1792423819
C  C182  1  0.23430000  0.87130000  0.08420000  1.0 -0.1792423819
C  C183  1  0.08660000  0.62003000  0.47520000  1.0 0.5887757893
C  C184  1  0.08660000  0.87997000  0.97520000  1.0 0.5887757893
C  C185  1  0.26480000  0.57701000  0.77320000  1.0 0.4517167236
C  C186  1  0.26480000  0.92299000  0.27320000  1.0 0.4517167236
C  C187  1  0.25599000  0.54392000  0.82749000  1.0 0.2308411093
C  C188  1  0.25599000  0.95608000  0.32749000  1.0 0.2308411093
C  C189  1  0.20890000  0.51807000  0.80530000  1.0 -0.1979371012
C  C190  1  0.20890000  0.98193000  0.30530000  1.0 -0.1979371012
C  C191  1  0.19550000  0.49111000  0.82410000  1.0 -0.0779586173
C  C192  1  0.19550000  0.00889000  0.32410000  1.0 -0.0779586173
C  C193  1  0.22500000  0.48921000  0.86460000  1.0 -0.0385560452
C  C194  1  0.22500000  0.01079000  0.36460000  1.0 -0.0385560452
C  C195  1  0.27020000  0.51533000  0.88700000  1.0 -0.0734456892
C  C196  1  0.27020000  0.98467000  0.38700000  1.0 -0.0734456892
C  C197  1  0.28690000  0.54235000  0.86860000  1.0 -0.2163166398
C  C198  1  0.28690000  0.95765000  0.36860000  1.0 -0.2163166398
C  C199  1  0.20510000  0.45990000  0.88340000  1.0 0.5488334503
C  C200  1  0.20510000  0.04010000  0.38340000  1.0 0.5488334503
C  C201  1  0.92470000  0.79790000  0.98920000  1.0 0.2734304483
C  C202  1  0.92470000  0.70210000  0.48920000  1.0 0.2734304483
C  C203  1  0.08260000  0.79150000  0.04290000  1.0 -0.3233562839
C  C204  1  0.08260000  0.70850000  0.54290000  1.0 -0.3233562839
C  C205  1  0.92900000  0.76770000  0.04570000  1.0 -0.3427461195
C  C206  1  0.92900000  0.73230000  0.54570000  1.0 -0.3427461195
C  C207  1  0.75180000  0.87860000  0.97120000  1.0 0.5592228627
C  C208  1  0.75180000  0.62140000  0.47120000  1.0 0.5592228627
C  C209  1  0.75400000  0.87770000  0.01310000  1.0 -0.0204481419
C  C210  1  0.75400000  0.62230000  0.51310000  1.0 -0.0204481419
C  C211  1  0.70230000  0.89840000  0.02550000  1.0 -0.0920361758
C  C212  1  0.70230000  0.60160000  0.52550000  1.0 -0.0920361758
C  C213  1  0.70570000  0.89670000  0.06470000  1.0 -0.1712159746
C  C214  1  0.70570000  0.60330000  0.56470000  1.0 -0.1712159746
C  C215  1  0.75830000  0.87420000  0.08880000  1.0 0.2229651282
C  C216  1  0.75830000  0.62580000  0.58880000  1.0 0.2229651282
C  C217  1  0.80150000  0.85110000  0.07430000  1.0 -0.1979371012
C  C218  1  0.80150000  0.64890000  0.57430000  1.0 -0.1979371012
C  C219  1  0.80090000  0.85360000  0.03690000  1.0 -0.0920361758
C  C220  1  0.80090000  0.64640000  0.53690000  1.0 -0.0920361758
C  C221  1  0.75640000  0.89039000  0.15310000  1.0 0.4517167236
C  C222  1  0.75640000  0.60961000  0.65310000  1.0 0.4517167236
C  C223  1  0.77010000  0.87795000  0.19310000  1.0 -0.0204481419
C  C224  1  0.77010000  0.62205000  0.69310000  1.0 -0.0204481419
C  C225  1  0.78640000  0.84662000  0.20380000  1.0 -0.1370041092
C  C226  1  0.78640000  0.65338000  0.70380000  1.0 -0.1370041092
C  C227  1  0.80490000  0.83714000  0.24250000  1.0 -0.0105100175
C  C228  1  0.80490000  0.66286000  0.74250000  1.0 -0.0105100175
C  C229  1  0.80880000  0.85952000  0.27070000  1.0 -0.1339076019
C  C230  1  0.80880000  0.64048000  0.77070000  1.0 -0.1339076019
C  C231  1  0.78860000  0.89121000  0.25990000  1.0 -0.0290863828
C  C232  1  0.78860000  0.60879000  0.75990000  1.0 -0.0290863828
C  C233  1  0.77150000  0.90028000  0.22150000  1.0 -0.1622327142
C  C234  1  0.77150000  0.59972000  0.72150000  1.0 -0.1622327142
C  C235  1  0.82940000  0.80287000  0.25170000  1.0 0.4695819374
C  C236  1  0.82940000  0.69713000  0.75170000  1.0 0.4695819374
C  C237  1  0.86730000  0.76209000  0.30370000  1.0 0.2308411093
C  C238  1  0.86730000  0.73791000  0.80370000  1.0 0.2308411093
C  C239  1  0.91480000  0.74140000  0.28730000  1.0 -0.1622327142
C  C240  1  0.91480000  0.75860000  0.78730000  1.0 -0.1622327142
C  C241  1  0.94990000  0.71290000  0.30580000  1.0 -0.0920361758
C  C242  1  0.94990000  0.78710000  0.80580000  1.0 -0.0920361758
C  C243  1  0.94190000  0.70469000  0.33980000  1.0 -0.0105100175
C  C244  1  0.94190000  0.79531000  0.83980000  1.0 -0.0105100175
C  C245  1  0.89350000  0.72460000  0.35490000  1.0 -0.0961129621
C  C246  1  0.89350000  0.77540000  0.85490000  1.0 -0.0961129621
C  C247  1  0.85610000  0.75330000  0.33610000  1.0 -0.1712159746
C  C248  1  0.85610000  0.74670000  0.83610000  1.0 -0.1712159746
C  C249  1  0.98650000  0.67400000  0.35980000  1.0 0.5714535172
C  C250  1  0.98650000  0.82600000  0.85980000  1.0 0.5714535172
C  C251  1  0.78750000  0.91255000  0.29250000  1.0 0.4517167236
C  C252  1  0.78750000  0.58745000  0.79250000  1.0 0.4517167236
C  C253  1  0.73520000  0.96490000  0.30760000  1.0 0.2379868632
C  C254  1  0.73520000  0.53510000  0.80760000  1.0 0.2379868632
C  C255  1  0.69880000  0.99359000  0.29030000  1.0 -0.2144133543
C  C256  1  0.69880000  0.50641000  0.79030000  1.0 -0.2144133543
C  C257  1  0.68870000  0.01831000  0.31430000  1.0 -0.0734456892
C  C258  1  0.68870000  0.48169000  0.81430000  1.0 -0.0734456892
C  C259  1  0.71480000  0.01419000  0.35400000  1.0 -0.0513817114
C  C260  1  0.71480000  0.48581000  0.85400000  1.0 -0.0513817114
C  C261  1  0.75020000  0.98537000  0.37070000  1.0 -0.0779586173
C  C262  1  0.75020000  0.51463000  0.87070000  1.0 -0.0779586173
C  C263  1  0.75470000  0.95976000  0.34690000  1.0 -0.1907810532
C  C264  1  0.75470000  0.54024000  0.84690000  1.0 -0.1907810532
C  C265  1  0.71280000  0.04155000  0.38020000  1.0 0.5592228627
C  C266  1  0.71280000  0.45845000  0.88020000  1.0 0.5592228627
C  C267  1  0.94190000  0.06426000  0.13040000  1.0 0.5787020828
C  C268  1  0.94190000  0.43574000  0.63040000  1.0 0.5787020828
C  C269  1  0.95240000  0.03131000  0.14570000  1.0 -0.0385560452
C  C270  1  0.95240000  0.46869000  0.64570000  1.0 -0.0385560452
C  C271  1  0.87530000  0.01720000  0.15150000  1.0 -0.0779586173
C  C272  1  0.87530000  0.48280000  0.65150000  1.0 -0.0779586173
C  C273  1  0.88310000  0.98601000  0.16570000  1.0 -0.1979371012
C  C274  1  0.88310000  0.51399000  0.66570000  1.0 -0.1979371012
C  C275  1  0.97090000  0.97067000  0.17610000  1.0 0.2308411093
C  C276  1  0.97090000  0.52933000  0.67610000  1.0 0.2308411093
C  C277  1  0.05030000  0.98433000  0.17090000  1.0 -0.1792423819
C  C278  1  0.05030000  0.51567000  0.67090000  1.0 -0.1792423819
C  C279  1  0.04060000  0.01516000  0.15580000  1.0 -0.0779586173
C  C280  1  0.04060000  0.48484000  0.65580000  1.0 -0.0779586173
C  C281  1  0.01890000  0.91481000  0.18120000  1.0 0.4587467785
C  C282  1  0.01890000  0.58519000  0.68120000  1.0 0.4587467785
C  C283  1  0.02171000  0.88435000  0.20291000  1.0 -0.0105100175
C  C284  1  0.02171000  0.61565000  0.70291000  1.0 -0.0105100175
C  C285  1  0.03361000  0.88318000  0.24251000  1.0 -0.1792423819
C  C286  1  0.03361000  0.61682000  0.74251000  1.0 -0.1792423819
C  C287  1  0.04363000  0.85439000  0.26203000  1.0 -0.0105100175
C  C288  1  0.04363000  0.64561000  0.76203000  1.0 -0.0105100175
C  C289  1  0.03859000  0.82648000  0.24059000  1.0 -0.1370041092
C  C290  1  0.03859000  0.67352000  0.74059000  1.0 -0.1370041092
C  C291  1  0.02578000  0.82766000  0.20138000  1.0 -0.0105100175
C  C292  1  0.02578000  0.67234000  0.70138000  1.0 -0.0105100175
C  C293  1  0.01653000  0.85653000  0.18223000  1.0 -0.1370041092
C  C294  1  0.01653000  0.64347000  0.68223000  1.0 -0.1370041092
C  C295  1  0.02470000  0.79813000  0.17810000  1.0 0.4587467785
C  C296  1  0.02470000  0.70187000  0.67810000  1.0 0.4587467785
C  C297  1  0.95651000  0.74391000  0.16661000  1.0 0.2308411093
C  C298  1  0.95651000  0.75609000  0.66666667  1.0 0.2308411093
C  C299  1  0.88380000  0.72539000  0.17150000  1.0 -0.1979371012
C  C300  1  0.88380000  0.77461000  0.67150000  1.0 -0.1979371012
C  C301  1  0.86160000  0.69569000  0.15440000  1.0 -0.0779586173
C  C302  1  0.86160000  0.80431000  0.65440000  1.0 -0.0779586173
C  C303  1  0.91520000  0.68374000  0.13270000  1.0 -0.0204481419
C  C304  1  0.91520000  0.81626000  0.63270000  1.0 -0.0204481419
C  C305  1  0.98800000  0.70204000  0.12840000  1.0 -0.0920361758
C  C306  1  0.98800000  0.79796000  0.62840000  1.0 -0.0920361758
C  C307  1  0.00890000  0.73208000  0.14510000  1.0 -0.1792423819
C  C308  1  0.00890000  0.76792000  0.64510000  1.0 -0.1792423819
C  C309  1  0.89293000  0.65125000  0.11513000  1.0 0.5787020828
C  C310  1  0.89293000  0.84875000  0.61513000  1.0 0.5787020828
C  C311  1  0.05780000  0.85080000  0.30440000  1.0 0.4517167236
C  C312  1  0.05780000  0.64920000  0.80440000  1.0 0.4517167236
C  C313  1  0.06345000  0.87778000  0.36465000  1.0 0.2458157669
C  C314  1  0.06345000  0.62222000  0.86465000  1.0 0.2458157669
C  C315  1  0.12000000  0.90193000  0.38770000  1.0 -0.1979371012
C  C316  1  0.12000000  0.59807000  0.88770000  1.0 -0.1979371012
C  C317  1  0.13360000  0.90461000  0.42710000  1.0 -0.0779586173
C  C318  1  0.13360000  0.59539000  0.92710000  1.0 -0.0779586173
C  C319  1  0.09140000  0.88264000  0.44420000  1.0 -0.0385560452
C  C320  1  0.09140000  0.61736000  0.94420000  1.0 -0.0385560452
C  C321  1  0.03360000  0.85883000  0.42060000  1.0 -0.0920361758
C  C322  1  0.03360000  0.64117000  0.92060000  1.0 -0.0920361758
C  C323  1  0.02120000  0.85567000  0.38130000  1.0 -0.1622327142
C  C324  1  0.02120000  0.64433000  0.88130000  1.0 -0.1622327142
C  C325  1  0.10890000  0.88476000  0.48730000  1.0 0.598137116
C  C326  1  0.10890000  0.61524000  0.98730000  1.0 0.598137116
C  C327  1  0.06880000  0.93180000  0.59770000  1.0 0.5300243105
C  C328  1  0.06880000  0.56820000  0.09770000  1.0 0.5300243105
C  C329  1  0.92290000  0.81080000  0.49590000  1.0 0.2789518839
C  C330  1  0.92290000  0.68920000  0.99590000  1.0 0.2734304483
C  C331  1  0.75920000  0.79830000  0.46310000  1.0 -0.3309412357
C  C332  1  0.75920000  0.70170000  0.96310000  1.0 -0.3309412357
C  C333  1  0.89760000  0.77790000  0.43970000  1.0 -0.3427461195
C  C334  1  0.89760000  0.72210000  0.93970000  1.0 -0.3427461195
C  C335  1  0.22160000  0.83397000  0.59670000  1.0 0.598137116
C  C336  1  0.22160000  0.66603000  0.09670000  1.0 0.598137116
C  C337  1  0.27840000  0.80537000  0.61730000  1.0 -0.0385560452
C  C338  1  0.27840000  0.69463000  0.11730000  1.0 -0.0385560452
C  C339  1  0.37730000  0.80739000  0.63970000  1.0 -0.0920361758
C  C340  1  0.37730000  0.69261000  0.13970000  1.0 -0.0920361758
C  C341  1  0.42940000  0.78108000  0.65900000  1.0 -0.1792423819
C  C342  1  0.42940000  0.71892000  0.15900000  1.0 -0.1792423819
C  C343  1  0.38100000  0.75210000  0.65600000  1.0 0.2379868632
C  C344  1  0.38100000  0.74790000  0.15600000  1.0 0.2379868632
C  C345  1  0.28210000  0.74999000  0.63350000  1.0 -0.1907810532
C  C346  1  0.28210000  0.75001000  0.13350000  1.0 -0.1907810532
C  C347  1  0.23068000  0.77647000  0.61428000  1.0 -0.0920361758
C  C348  1  0.23068000  0.72353000  0.11428000  1.0 -0.0920361758
C  C349  1  0.52050000  0.72144000  0.70320000  1.0 0.4587467785
C  C350  1  0.52050000  0.77856000  0.20320000  1.0 0.4587467785
C  C351  1  0.54192000  0.68911000  0.72192000  1.0 -0.0105100175
C  C352  1  0.54192000  0.81089000  0.22192000  1.0 -0.0105100175
C  C353  1  0.59422000  0.68764000  0.76242000  1.0 -0.1339076019
C  C354  1  0.59422000  0.81236000  0.26242000  1.0 -0.1339076019
C  C355  1  0.60817000  0.65848000  0.78107000  1.0 -0.0105100175
C  C356  1  0.60817000  0.84152000  0.28107000  1.0 -0.0105100175
C  C357  1  0.56760000  0.63086000  0.76010000  1.0 -0.1979371012
C  C358  1  0.56760000  0.86914000  0.26010000  1.0 -0.1979371012
C  C359  1  0.51940000  0.63259000  0.71930000  1.0 -0.0105100175
C  C360  1  0.51940000  0.86741000  0.21930000  1.0 -0.0105100175
C  C361  1  0.50683000  0.66199000  0.70053000  1.0 -0.1339076019
C  C362  1  0.50683000  0.83801000  0.20053000  1.0 -0.1339076019
C  C363  1  0.66860000  0.65691000  0.82480000  1.0 0.4587467785
C  C364  1  0.66860000  0.84309000  0.32480000  1.0 0.4587467785
C  C365  1  0.67530000  0.63030000  0.88560000  1.0 0.2229651282
C  C366  1  0.67530000  0.86970000  0.38560000  1.0 0.2229651282
C  C367  1  0.77530000  0.62533000  0.90480000  1.0 -0.1712159746
C  C368  1  0.77530000  0.87467000  0.40480000  1.0 -0.1712159746
C  C369  1  0.81150000  0.61739000  0.94460000  1.0 -0.0920361758
C  C370  1  0.81150000  0.88261000  0.44460000  1.0 -0.0920361758
C  C371  1  0.75010000  0.61453000  0.96510000  1.0 -0.0290863828
C  C372  1  0.75010000  0.88547000  0.46510000  1.0 -0.0290863828
C  C373  1  0.64960000  0.61930000  0.94530000  1.0 -0.0779586173
C  C374  1  0.64960000  0.88070000  0.44530000  1.0 -0.0779586173
C  C375  1  0.61360000  0.62740000  0.90570000  1.0 -0.1979371012
C  C376  1  0.61360000  0.87260000  0.40570000  1.0 -0.1979371012
C  C377  1  0.78980000  0.60646000  0.00810000  1.0 0.5787020828
C  C378  1  0.78980000  0.89354000  0.50810000  1.0 0.5787020828
C  C379  1  0.47440000  0.60452000  0.69370000  1.0 0.4587467785
C  C380  1  0.47440000  0.89548000  0.19370000  1.0 0.4587467785
C  C381  1  0.40920000  0.55117000  0.68940000  1.0 0.2229651282
C  C382  1  0.40920000  0.94883000  0.18940000  1.0 0.2308411093
C  C383  1  0.45000000  0.52250000  0.69980000  1.0 -0.1907810532
C  C384  1  0.45000000  0.97750000  0.19980000  1.0 -0.1907810532
C  C385  1  0.40570000  0.49610000  0.67770000  1.0 -0.0734456892
C  C386  1  0.40570000  0.00390000  0.17770000  1.0 -0.0734456892
C  C387  1  0.31890000  0.49880000  0.64680000  1.0 -0.0290863828
C  C388  1  0.31890000  0.00120000  0.14680000  1.0 -0.0290863828
C  C389  1  0.27240000  0.52740000  0.63990000  1.0 -0.0920361758
C  C390  1  0.27240000  0.97260000  0.13990000  1.0 -0.0920361758
C  C391  1  0.31740000  0.55405000  0.65980000  1.0 -0.1622327142
C  C392  1  0.31740000  0.94595000  0.15980000  1.0 -0.1622327142
C  C393  1  0.27070000  0.47050000  0.62250000  1.0 0.5592228627
C  C394  1  0.27070000  0.02950000  0.12250000  1.0 0.5592228627
C  C395  1  0.89240000  0.46260000  0.51790000  1.0 0.2789518839
C  C396  1  0.89240000  0.03740000  0.01790000  1.0 0.2789518839
C  C397  1  0.73040000  0.45100000  0.51630000  1.0 -0.3233562839
C  C398  1  0.73040000  0.04900000  0.01630000  1.0 -0.3233562839
C  C399  1  0.75620000  0.47020000  0.45620000  1.0 -0.3497775142
C  C400  1  0.75620000  0.02980000  0.95620000  1.0 -0.3497775142
C  C401  1  0.14440000  0.45190000  0.50380000  1.0 0.2789518839
C  C402  1  0.14440000  0.04810000  0.00380000  1.0 0.2850942965
C  C403  1  0.01750000  0.45860000  0.43800000  1.0 -0.3309412357
C  C404  1  0.01750000  0.04140000  0.93800000  1.0 -0.3309412357
C  C405  1  0.19140000  0.47370000  0.45250000  1.0 -0.3427461195
C  C406  1  0.19140000  0.02630000  0.95250000  1.0 -0.3427461195
C  C407  1  0.33570000  0.31750000  0.62660000  1.0 0.598137116
C  C408  1  0.33570000  0.18250000  0.12660000  1.0 0.598137116
C  C409  1  0.40340000  0.29058000  0.64660000  1.0 -0.0290863828
C  C410  1  0.40340000  0.20942000  0.14660000  1.0 -0.0290863828
C  C411  1  0.49420000  0.29647000  0.67390000  1.0 -0.0734456892
C  C412  1  0.49420000  0.20353000  0.17390000  1.0 -0.0734456892
C  C413  1  0.55590000  0.27190000  0.69290000  1.0 -0.1979371012
C  C414  1  0.55590000  0.22810000  0.19290000  1.0 -0.1979371012
C  C415  1  0.52710000  0.24081000  0.68440000  1.0 0.2379868632
C  C416  1  0.52710000  0.25919000  0.18440000  1.0 0.2379868632
C  C417  1  0.43460000  0.23490000  0.65610000  1.0 -0.1792423819
C  C418  1  0.43460000  0.26510000  0.15610000  1.0 -0.1792423819
C  C419  1  0.37270000  0.25975000  0.63740000  1.0 -0.0961129621
C  C420  1  0.37270000  0.24025000  0.13740000  1.0 -0.0961129621
C  C421  1  0.58913000  0.18609000  0.69413000  1.0 0.4517167236
C  C422  1  0.58913000  0.31391000  0.19413000  1.0 0.4517167236
C  C423  1  0.64937000  0.16291000  0.72467000  1.0 -0.0204481419
C  C424  1  0.64937000  0.33709000  0.22467000  1.0 -0.0204481419
C  C425  1  0.68010000  0.16835000  0.76500000  1.0 -0.1370041092
C  C426  1  0.68010000  0.33165000  0.26500000  1.0 -0.1370041092
C  C427  1  0.72568000  0.14456000  0.79188000  1.0 -0.0105100175
C  C428  1  0.72568000  0.35544000  0.29188000  1.0 -0.0105100175
C  C429  1  0.74080000  0.11504000  0.77790000  1.0 -0.1370041092
C  C430  1  0.74080000  0.38496000  0.27790000  1.0 -0.1370041092
C  C431  1  0.71299000  0.10979000  0.73759000  1.0 -0.0204481419
C  C432  1  0.71299000  0.39021000  0.23759000  1.0 -0.0204481419
C  C433  1  0.66570000  0.13328000  0.71110000  1.0 -0.1622327142
C  C434  1  0.66570000  0.36672000  0.21110000  1.0 -0.1712159746
C  C435  1  0.75209000  0.15052000  0.83499000  1.0 0.4695819374
C  C436  1  0.75209000  0.34948000  0.33499000  1.0 0.4695819374
C  C437  1  0.83902000  0.12824000  0.90082000  1.0 0.2308411093
C  C438  1  0.83902000  0.37176000  0.40082000  1.0 0.2308411093
C  C439  1  0.93570000  0.12422000  0.92590000  1.0 -0.1907810532
C  C440  1  0.93570000  0.37578000  0.42590000  1.0 -0.1907810532
C  C441  1  0.95970000  0.12130000  0.96640000  1.0 -0.0734456892
C  C442  1  0.95970000  0.37870000  0.46640000  1.0 -0.0779586173
C  C443  1  0.88764000  0.12238000  0.98164000  1.0 -0.0513817114
C  C444  1  0.88764000  0.37762000  0.48164000  1.0 -0.0513817114
C  C445  1  0.78980000  0.12570000  0.95610000  1.0 -0.0920361758
C  C446  1  0.78980000  0.37430000  0.45610000  1.0 -0.0920361758
C  C447  1  0.76570000  0.12870000  0.91580000  1.0 -0.1792423819
C  C448  1  0.76570000  0.37130000  0.41580000  1.0 -0.1792423819
C  C449  1  0.91340000  0.12003000  0.02480000  1.0 0.5887757893
C  C450  1  0.91340000  0.37997000  0.52480000  1.0 0.5887757893
C  C451  1  0.73520000  0.07701000  0.72680000  1.0 0.4517167236
C  C452  1  0.73520000  0.42299000  0.22680000  1.0 0.4517167236
C  C453  1  0.74401000  0.04392000  0.67251000  1.0 0.2308411093
C  C454  1  0.74401000  0.45608000  0.17251000  1.0 0.2308411093
C  C455  1  0.79110000  0.01807000  0.69470000  1.0 -0.1979371012
C  C456  1  0.79110000  0.48193000  0.19470000  1.0 -0.1979371012
C  C457  1  0.80450000  0.99111000  0.67590000  1.0 -0.0779586173
C  C458  1  0.80450000  0.50889000  0.17590000  1.0 -0.0779586173
C  C459  1  0.77500000  0.98921000  0.63540000  1.0 -0.0385560452
C  C460  1  0.77500000  0.51079000  0.13540000  1.0 -0.0385560452
C  C461  1  0.72980000  0.01533000  0.61300000  1.0 -0.0734456892
C  C462  1  0.72980000  0.48467000  0.11300000  1.0 -0.0734456892
C  C463  1  0.71310000  0.04235000  0.63140000  1.0 -0.2144133543
C  C464  1  0.71310000  0.45765000  0.13140000  1.0 -0.2163166398
C  C465  1  0.79490000  0.95990000  0.61660000  1.0 0.5488334503
C  C466  1  0.79490000  0.54010000  0.11660000  1.0 0.5488334503
C  C467  1  0.07530000  0.29790000  0.51080000  1.0 0.2734304483
C  C468  1  0.07530000  0.20210000  0.01080000  1.0 0.2734304483
C  C469  1  0.91740000  0.29150000  0.45710000  1.0 -0.3233562839
C  C470  1  0.91740000  0.20850000  0.95710000  1.0 -0.3233562839
C  C471  1  0.07100000  0.26770000  0.45430000  1.0 -0.3427461195
C  C472  1  0.07100000  0.23230000  0.95430000  1.0 -0.3427461195
C  C473  1  0.24820000  0.37860000  0.52880000  1.0 0.5592228627
C  C474  1  0.24820000  0.12140000  0.02880000  1.0 0.5592228627
C  C475  1  0.24600000  0.37770000  0.48690000  1.0 -0.0204481419
C  C476  1  0.24600000  0.12230000  0.98690000  1.0 -0.0204481419
C  C477  1  0.29770000  0.39840000  0.47450000  1.0 -0.0920361758
C  C478  1  0.29770000  0.10160000  0.97450000  1.0 -0.0920361758
C  C479  1  0.29430000  0.39670000  0.43530000  1.0 -0.1712159746
C  C480  1  0.29430000  0.10330000  0.93530000  1.0 -0.1712159746
C  C481  1  0.24170000  0.37420000  0.41120000  1.0 0.2229651282
C  C482  1  0.24170000  0.12580000  0.91120000  1.0 0.2229651282
C  C483  1  0.19850000  0.35110000  0.42570000  1.0 -0.1979371012
C  C484  1  0.19850000  0.14890000  0.92570000  1.0 -0.1979371012
C  C485  1  0.19910000  0.35360000  0.46310000  1.0 -0.0920361758
C  C486  1  0.19910000  0.14640000  0.96310000  1.0 -0.0920361758
C  C487  1  0.24360000  0.39039000  0.34690000  1.0 0.4517167236
C  C488  1  0.24360000  0.10961000  0.84690000  1.0 0.4517167236
C  C489  1  0.22990000  0.37795000  0.30690000  1.0 -0.0204481419
C  C490  1  0.22990000  0.12205000  0.80690000  1.0 -0.0204481419
C  C491  1  0.21360000  0.34662000  0.29620000  1.0 -0.1370041092
C  C492  1  0.21360000  0.15338000  0.79620000  1.0 -0.1370041092
C  C493  1  0.19510000  0.33714000  0.25750000  1.0 -0.0105100175
C  C494  1  0.19510000  0.16286000  0.75750000  1.0 -0.0105100175
C  C495  1  0.19120000  0.35952000  0.22930000  1.0 -0.1339076019
C  C496  1  0.19120000  0.14048000  0.72930000  1.0 -0.1339076019
C  C497  1  0.21140000  0.39121000  0.24010000  1.0 -0.0290863828
C  C498  1  0.21140000  0.10879000  0.74010000  1.0 -0.0290863828
C  C499  1  0.22850000  0.40028000  0.27850000  1.0 -0.1622327142
C  C500  1  0.22850000  0.09972000  0.77850000  1.0 -0.1622327142
C  C501  1  0.17060000  0.30287000  0.24830000  1.0 0.4695819374
C  C502  1  0.17060000  0.19713000  0.74830000  1.0 0.4695819374
C  C503  1  0.13270000  0.26209000  0.19630000  1.0 0.2308411093
C  C504  1  0.13270000  0.23791000  0.69630000  1.0 0.2308411093
C  C505  1  0.08520000  0.24140000  0.21270000  1.0 -0.1622327142
C  C506  1  0.08520000  0.25860000  0.71270000  1.0 -0.1622327142
C  C507  1  0.05010000  0.21290000  0.19420000  1.0 -0.0920361758
C  C508  1  0.05010000  0.28710000  0.69420000  1.0 -0.0920361758
C  C509  1  0.05810000  0.20469000  0.16020000  1.0 -0.0105100175
C  C510  1  0.05810000  0.29531000  0.66020000  1.0 -0.0105100175
C  C511  1  0.10650000  0.22460000  0.14510000  1.0 -0.0961129621
C  C512  1  0.10650000  0.27540000  0.64510000  1.0 -0.0920361758
C  C513  1  0.14390000  0.25330000  0.16390000  1.0 -0.1712159746
C  C514  1  0.14390000  0.24670000  0.66390000  1.0 -0.1712159746
C  C515  1  0.01350000  0.17400000  0.14020000  1.0 0.5714535172
C  C516  1  0.01350000  0.32600000  0.64020000  1.0 0.5714535172
C  C517  1  0.21250000  0.41255000  0.20750000  1.0 0.4517167236
C  C518  1  0.21250000  0.08745000  0.70750000  1.0 0.4517167236
C  C519  1  0.26480000  0.46490000  0.19240000  1.0 0.2379868632
C  C520  1  0.26480000  0.03510000  0.69240000  1.0 0.2379868632
C  C521  1  0.30120000  0.49359000  0.20970000  1.0 -0.2144133543
C  C522  1  0.30120000  0.00641000  0.70970000  1.0 -0.2144133543
C  C523  1  0.31130000  0.51831000  0.18570000  1.0 -0.0734456892
C  C524  1  0.31130000  0.98169000  0.68570000  1.0 -0.0734456892
C  C525  1  0.28520000  0.51419000  0.14600000  1.0 -0.0513817114
C  C526  1  0.28520000  0.98581000  0.64600000  1.0 -0.0513817114
C  C527  1  0.24980000  0.48537000  0.12930000  1.0 -0.0779586173
C  C528  1  0.24980000  0.01463000  0.62930000  1.0 -0.0779586173
C  C529  1  0.24530000  0.45976000  0.15310000  1.0 -0.1907810532
C  C530  1  0.24530000  0.04024000  0.65310000  1.0 -0.1907810532
C  C531  1  0.28720000  0.54155000  0.11980000  1.0 0.5592228627
C  C532  1  0.28720000  0.95845000  0.61980000  1.0 0.5592228627
N  N1  1  0.01992000  0.43972000  0.30712000  1.0 -0.3706813136
N  N2  1  0.01992000  0.06028000  0.80712000  1.0 -0.3706813136
N  N3  1  0.02639000  0.27359000  0.31519000  1.0 -0.3604563338
N  N4  1  0.02639000  0.22641000  0.81519000  1.0 -0.3604563338
N  N5  1  0.95031000  0.37697000  0.17631000  1.0 -0.3899122868
N  N6  1  0.95031000  0.12303000  0.67631000  1.0 -0.3899122868
N  N7  1  0.14050000  0.29430000  0.03420000  1.0 0.0071155094
N  N8  1  0.14050000  0.20570000  0.53420000  1.0 0.0071155094
N  N9  1  0.57170000  0.22426000  0.82460000  1.0 -0.3706813136
N  N10  1  0.57170000  0.27574000  0.32460000  1.0 -0.3706813136
N  N11  1  0.36483000  0.13640000  0.65523000  1.0 -0.3497775142
N  N12  1  0.36483000  0.36360000  0.15523000  1.0 -0.3604563338
N  N13  1  0.54241000  0.07857000  0.78901000  1.0 -0.3761879909
N  N14  1  0.54241000  0.42143000  0.28901000  1.0 -0.3706813136
N  N15  1  0.20500000  0.96380000  0.00180000  1.0 0.0071155094
N  N16  1  0.20500000  0.53620000  0.50180000  1.0 0.0071155094
N  N17  1  0.88200000  0.96070000  0.03400000  1.0 0.0179954776
N  N18  1  0.88200000  0.53930000  0.53400000  1.0 0.0179954776
N  N19  1  0.40988000  0.71662000  0.79368000  1.0 -0.3706813136
N  N20  1  0.40988000  0.78338000  0.29368000  1.0 -0.3706813136
N  N21  1  0.18434000  0.62987000  0.64024000  1.0 -0.3761879909
N  N22  1  0.18434000  0.87013000  0.14024000  1.0 -0.3761879909
N  N23  1  0.27472000  0.57231000  0.81132000  1.0 -0.3706813136
N  N24  1  0.27472000  0.92769000  0.31132000  1.0 -0.3706813136
N  N25  1  0.97740000  0.78640000  0.02510000  1.0 0.0179954776
N  N26  1  0.97740000  0.71360000  0.52510000  1.0 0.0179954776
N  N27  1  0.75883000  0.86898000  0.12663000  1.0 -0.3497775142
N  N28  1  0.75883000  0.63102000  0.62663000  1.0 -0.3497775142
N  N29  1  0.83287000  0.79244000  0.28707000  1.0 -0.3604563338
N  N30  1  0.83287000  0.70756000  0.78707000  1.0 -0.3604563338
N  N31  1  0.74554000  0.94140000  0.28194000  1.0 -0.3761879909
N  N32  1  0.74554000  0.55860000  0.78194000  1.0 -0.3761879909
N  N33  1  0.98008000  0.93972000  0.19288000  1.0 -0.3706813136
N  N34  1  0.98008000  0.56028000  0.69288000  1.0 -0.3706813136
N  N35  1  0.97361000  0.77359000  0.18481000  1.0 -0.3604563338
N  N36  1  0.97361000  0.72641000  0.68481000  1.0 -0.3604563338
N  N37  1  0.04969000  0.87697000  0.32369000  1.0 -0.3899122868
N  N38  1  0.04969000  0.62303000  0.82369000  1.0 -0.3899122868
N  N39  1  0.85950000  0.79430000  0.46580000  1.0 0.0071155094
N  N40  1  0.85950000  0.70570000  0.96580000  1.0 0.004421927
N  N41  1  0.42830000  0.72426000  0.67540000  1.0 -0.3706813136
N  N42  1  0.42830000  0.77574000  0.17540000  1.0 -0.3706813136
N  N43  1  0.63517000  0.63640000  0.84477000  1.0 -0.3604563338
N  N44  1  0.63517000  0.86360000  0.34477000  1.0 -0.3604563338
N  N45  1  0.45759000  0.57857000  0.71099000  1.0 -0.3761879909
N  N46  1  0.45759000  0.92143000  0.21099000  1.0 -0.3761879909
N  N47  1  0.79500000  0.46380000  0.49820000  1.0 0.0071155094
N  N48  1  0.79500000  0.03620000  0.99820000  1.0 0.0071155094
N  N49  1  0.11800000  0.46070000  0.46600000  1.0 0.0179954776
N  N50  1  0.11800000  0.03930000  0.96600000  1.0 0.0179954776
N  N51  1  0.59012000  0.21662000  0.70632000  1.0 -0.3706813136
N  N52  1  0.59012000  0.28338000  0.20632000  1.0 -0.3706813136
N  N53  1  0.81566000  0.12987000  0.85976000  1.0 -0.3761879909
N  N54  1  0.81566000  0.37013000  0.35976000  1.0 -0.3761879909
N  N55  1  0.72528000  0.07231000  0.68868000  1.0 -0.3706813136
N  N56  1  0.72528000  0.42769000  0.18868000  1.0 -0.3706813136
N  N57  1  0.02260000  0.28640000  0.47490000  1.0 0.0179954776
N  N58  1  0.02260000  0.21360000  0.97490000  1.0 0.0179954776
N  N59  1  0.24117000  0.36898000  0.37337000  1.0 -0.3497775142
N  N60  1  0.24117000  0.13102000  0.87337000  1.0 -0.3497775142
N  N61  1  0.16713000  0.29244000  0.21293000  1.0 -0.3604563338
N  N62  1  0.16713000  0.20756000  0.71293000  1.0 -0.3604563338
N  N63  1  0.25446000  0.44140000  0.21806000  1.0 -0.3761879909
N  N64  1  0.25446000  0.05860000  0.71806000  1.0 -0.3761879909
O  O1  1  0.13870000  0.57878000  0.37620000  1.0 -0.5529117708
O  O2  1  0.13870000  0.92122000  0.87620000  1.0 -0.5529117708
O  O3  1  0.98794000  0.57799000  0.37504000  1.0 -0.5529117708
O  O4  1  0.98794000  0.92201000  0.87504000  1.0 -0.5579730813
O  O5  1  0.94920000  0.41584000  0.34530000  1.0 -0.4799942782
O  O6  1  0.94920000  0.08416000  0.84530000  1.0 -0.4799942782
O  O7  1  0.93130000  0.29726000  0.34420000  1.0 -0.4694389497
O  O8  1  0.93130000  0.20274000  0.84420000  1.0 -0.4694389497
O  O9  1  0.04690000  0.13845000  0.39760000  1.0 -0.597087785
O  O10  1  0.04690000  0.36155000  0.89760000  1.0 -0.597087785
O  O11  1  0.18142000  0.13719000  0.38472000  1.0 -0.5189171155
O  O12  1  0.18142000  0.36281000  0.88472000  1.0 -0.5189171155
O  O13  1  0.92583000  0.32484000  0.18013000  1.0 -0.4485106145
O  O14  1  0.92583000  0.17516000  0.68013000  1.0 -0.4485106145
O  O15  1  0.82709000  0.40435000  0.99209000  1.0 -0.5710392688
O  O16  1  0.82709000  0.09565000  0.49209000  1.0 -0.5710392688
O  O17  1  0.94477000  0.36803000  0.00057000  1.0 -0.5930967395
O  O18  1  0.94477000  0.13197000  0.50057000  1.0 -0.5930967395
O  O19  1  0.60650000  0.40306000  0.93180000  1.0 -0.7403492873
O  O20  1  0.60650000  0.09694000  0.43180000  1.0 -0.7403492873
O  O21  1  0.90578000  0.40928000  0.91868000  1.0 -0.5529117708
O  O22  1  0.90578000  0.09072000  0.41868000  1.0 -0.5529117708
O  O23  1  0.00570000  0.43509000  0.89570000  1.0 -0.4406567528
O  O24  1  0.00570000  0.06491000  0.39570000  1.0 -0.4406567528
O  O25  1  0.09340000  0.32545000  0.97800000  1.0 -0.4406567528
O  O26  1  0.09340000  0.17455000  0.47800000  1.0 -0.4406567528
O  O27  1  0.87048000  0.33122000  0.91798000  1.0 -0.578308532
O  O28  1  0.87048000  0.16878000  0.41798000  1.0 -0.578308532
O  O29  1  0.72958000  0.35824000  0.90358000  1.0 -0.5710392688
O  O30  1  0.72958000  0.14176000  0.40358000  1.0 -0.5710392688
O  O31  1  0.41911000  0.24265000  0.78611000  1.0 -0.4567091261
O  O32  1  0.41911000  0.25735000  0.28611000  1.0 -0.4567091261
O  O33  1  0.25848000  0.17334000  0.66038000  1.0 -0.4799942782
O  O34  1  0.25848000  0.32666000  0.16038000  1.0 -0.4799942782
O  O35  1  0.26806000  0.10429000  0.47426000  1.0 -0.5189171155
O  O36  1  0.26806000  0.39571000  0.97426000  1.0 -0.5189171155
O  O37  1  0.11964000  0.10047000  0.47474000  1.0 -0.5930967395
O  O38  1  0.11964000  0.39953000  0.97474000  1.0 -0.597087785
O  O39  1  0.54912000  0.10630000  0.84252000  1.0 -0.4694389497
O  O40  1  0.54912000  0.39370000  0.34252000  1.0 -0.4694389497
O  O41  1  0.81920000  0.97040000  0.89420000  1.0 -0.5304332618
O  O42  1  0.81920000  0.52960000  0.39420000  1.0 -0.5304332618
O  O43  1  0.67770000  0.94871000  0.88090000  1.0 -0.5095564667
O  O44  1  0.67770000  0.55129000  0.38090000  1.0 -0.5095564667
O  O45  1  0.50650000  0.90360000  0.87440000  1.0 -0.4878162526
O  O46  1  0.50650000  0.59640000  0.37440000  1.0 -0.4799942782
O  O47  1  0.61980000  0.90240000  0.81330000  1.0 -0.4308578913
O  O48  1  0.61980000  0.59760000  0.31330000  1.0 -0.4485106145
O  O49  1  0.82017000  0.88994000  0.88617000  1.0 -0.9113450889
O  O50  1  0.82017000  0.61006000  0.38617000  1.0 -0.9113450889
O  O51  1  0.05910000  0.95620000  0.94640000  1.0 -0.4694389497
O  O52  1  0.05910000  0.54380000  0.44640000  1.0 -0.4694389497
O  O53  1  0.91510000  0.94140000  0.98260000  1.0 -0.4878162526
O  O54  1  0.91510000  0.55860000  0.48260000  1.0 -0.4878162526
O  O55  1  0.62980000  0.84444000  0.86760000  1.0 -0.5189171155
O  O56  1  0.62980000  0.65556000  0.36760000  1.0 -0.5189171155
O  O57  1  0.75155000  0.81088000  0.89375000  1.0 -0.5579730813
O  O58  1  0.75155000  0.68912000  0.39375000  1.0 -0.5579730813
O  O59  1  0.45899000  0.67715000  0.83919000  1.0 -0.4567091261
O  O60  1  0.45899000  0.82285000  0.33919000  1.0 -0.4567091261
O  O61  1  0.28636000  0.67220000  0.65346000  1.0 -0.4878162526
O  O62  1  0.28636000  0.82780000  0.15346000  1.0 -0.4878162526
O  O63  1  0.15651000  0.62182000  0.46301000  1.0 -0.5397282113
O  O64  1  0.15651000  0.87818000  0.96301000  1.0 -0.5397282113
O  O65  1  0.99814000  0.61649000  0.45244000  1.0 -0.5930967395
O  O66  1  0.99814000  0.88351000  0.95244000  1.0 -0.5930967395
O  O67  1  0.23720000  0.65098000  0.40830000  1.0 -0.6608126704
O  O68  1  0.23720000  0.84902000  0.90830000  1.0 -0.6608126704
O  O69  1  0.23800000  0.55673000  0.74810000  1.0 -0.4406567528
O  O70  1  0.23800000  0.94327000  0.24810000  1.0 -0.4406567528
O  O71  1  0.17128000  0.43622000  0.86238000  1.0 -0.5304332618
O  O72  1  0.17128000  0.06378000  0.36238000  1.0 -0.5189171155
O  O73  1  0.22199000  0.45987000  0.91949000  1.0 -0.5397282113
O  O74  1  0.22199000  0.04013000  0.41949000  1.0 -0.5397282113
O  O75  1  0.96360000  0.81191000  0.96900000  1.0 -0.4567091261
O  O76  1  0.96360000  0.68809000  0.46900000  1.0 -0.4567091261
O  O77  1  0.69620000  0.89697000  0.94710000  1.0 -0.5189171155
O  O78  1  0.69620000  0.60303000  0.44710000  1.0 -0.5189171155
O  O79  1  0.80350000  0.86010000  0.96290000  1.0 -0.5189171155
O  O80  1  0.80350000  0.63990000  0.46290000  1.0 -0.5189171155
O  O81  1  0.74840000  0.91864000  0.14630000  1.0 -0.4567091261
O  O82  1  0.74840000  0.58136000  0.64630000  1.0 -0.4567091261
O  O83  1  0.84715000  0.78597000  0.22785000  1.0 -0.4878162526
O  O84  1  0.84715000  0.71403000  0.72785000  1.0 -0.4878162526
O  O85  1  0.03290000  0.65697000  0.34420000  1.0 -0.5189171155
O  O86  1  0.03290000  0.84303000  0.84420000  1.0 -0.5189171155
O  O87  1  0.98050000  0.66655000  0.39100000  1.0 -0.5304332618
O  O88  1  0.98050000  0.83345000  0.89100000  1.0 -0.5304332618
O  O89  1  0.82347000  0.90324000  0.32677000  1.0 -0.4485106145
O  O90  1  0.82347000  0.59676000  0.82677000  1.0 -0.4485106145
O  O91  1  0.74532000  0.03807000  0.41712000  1.0 -0.5710392688
O  O92  1  0.74532000  0.46193000  0.91712000  1.0 -0.5710392688
O  O93  1  0.68399000  0.06810000  0.36489000  1.0 -0.5579730813
O  O94  1  0.68399000  0.43190000  0.86489000  1.0 -0.5579730813
O  O95  1  0.86130000  0.07878000  0.12380000  1.0 -0.5529117708
O  O96  1  0.86130000  0.42122000  0.62380000  1.0 -0.5529117708
O  O97  1  0.01206000  0.07799000  0.12496000  1.0 -0.5529117708
O  O98  1  0.01206000  0.42201000  0.62496000  1.0 -0.5579730813
O  O99  1  0.05080000  0.91584000  0.15470000  1.0 -0.4799942782
O  O100  1  0.05080000  0.58416000  0.65470000  1.0 -0.4799942782
O  O101  1  0.06870000  0.79726000  0.15580000  1.0 -0.4694389497
O  O102  1  0.06870000  0.70274000  0.65580000  1.0 -0.4694389497
O  O103  1  0.95310000  0.63845000  0.10240000  1.0 -0.597087785
O  O104  1  0.95310000  0.86155000  0.60240000  1.0 -0.597087785
O  O105  1  0.81858000  0.63719000  0.11528000  1.0 -0.5189171155
O  O106  1  0.81858000  0.86281000  0.61528000  1.0 -0.5189171155
O  O107  1  0.07417000  0.82484000  0.31987000  1.0 -0.4485106145
O  O108  1  0.07417000  0.67516000  0.81987000  1.0 -0.4485106145
O  O109  1  0.17291000  0.90435000  0.50791000  1.0 -0.5710392688
O  O110  1  0.17291000  0.59565000  0.00791000  1.0 -0.5710392688
O  O111  1  0.05523000  0.86803000  0.49943000  1.0 -0.5930967395
O  O112  1  0.05523000  0.63197000  0.99943000  1.0 -0.5930967395
O  O113  1  0.39350000  0.90306000  0.56820000  1.0 -0.7403492873
O  O114  1  0.39350000  0.59694000  0.06820000  1.0 -0.7403492873
O  O115  1  0.09422000  0.90928000  0.58132000  1.0 -0.5529117708
O  O116  1  0.09422000  0.59072000  0.08132000  1.0 -0.5529117708
O  O117  1  0.99430000  0.93509000  0.60430000  1.0 -0.4406567528
O  O118  1  0.99430000  0.56491000  0.10430000  1.0 -0.4406567528
O  O119  1  0.90660000  0.82545000  0.52200000  1.0 -0.4406567528
O  O120  1  0.90660000  0.67455000  0.02200000  1.0 -0.4406567528
O  O121  1  0.12952000  0.83122000  0.58202000  1.0 -0.578308532
O  O122  1  0.12952000  0.66878000  0.08202000  1.0 -0.578308532
O  O123  1  0.27042000  0.85824000  0.59642000  1.0 -0.5710392688
O  O124  1  0.27042000  0.64176000  0.09642000  1.0 -0.5710392688
O  O125  1  0.58089000  0.74265000  0.71389000  1.0 -0.4567091261
O  O126  1  0.58089000  0.75735000  0.21389000  1.0 -0.4567091261
O  O127  1  0.74152000  0.67334000  0.83962000  1.0 -0.4799942782
O  O128  1  0.74152000  0.82666000  0.33962000  1.0 -0.4799942782
O  O129  1  0.73194000  0.60429000  0.02574000  1.0 -0.5189171155
O  O130  1  0.73194000  0.89571000  0.52574000  1.0 -0.5189171155
O  O131  1  0.88036000  0.60047000  0.02526000  1.0 -0.597087785
O  O132  1  0.88036000  0.89953000  0.52526000  1.0 -0.5930967395
O  O133  1  0.45088000  0.60630000  0.65748000  1.0 -0.4694389497
O  O134  1  0.45088000  0.89370000  0.15748000  1.0 -0.4694389497
O  O135  1  0.18080000  0.47040000  0.60580000  1.0 -0.5304332618
O  O136  1  0.18080000  0.02960000  0.10580000  1.0 -0.5304332618
O  O137  1  0.32230000  0.44871000  0.61910000  1.0 -0.5095564667
O  O138  1  0.32230000  0.05129000  0.11910000  1.0 -0.5095564667
O  O139  1  0.49350000  0.40360000  0.62560000  1.0 -0.4694389497
O  O140  1  0.49350000  0.09640000  0.12560000  1.0 -0.4694389497
O  O141  1  0.38020000  0.40240000  0.68670000  1.0 -0.4485106145
O  O142  1  0.38020000  0.09760000  0.18670000  1.0 -0.4406567528
O  O143  1  0.17983000  0.38994000  0.61383000  1.0 -0.9113450889
O  O144  1  0.17983000  0.11006000  0.11383000  1.0 -0.9113450889
O  O145  1  0.94090000  0.45620000  0.55360000  1.0 -0.4694389497
O  O146  1  0.94090000  0.04380000  0.05360000  1.0 -0.4694389497
O  O147  1  0.08490000  0.44140000  0.51740000  1.0 -0.4878162526
O  O148  1  0.08490000  0.05860000  0.01740000  1.0 -0.4878162526
O  O149  1  0.37020000  0.34444000  0.63240000  1.0 -0.5189171155
O  O150  1  0.37020000  0.15556000  0.13240000  1.0 -0.5189171155
O  O151  1  0.24845000  0.31088000  0.60625000  1.0 -0.5579730813
O  O152  1  0.24845000  0.18912000  0.10625000  1.0 -0.5579730813
O  O153  1  0.54101000  0.17715000  0.66081000  1.0 -0.4567091261
O  O154  1  0.54101000  0.32285000  0.16081000  1.0 -0.4567091261
O  O155  1  0.71364000  0.17220000  0.84654000  1.0 -0.4878162526
O  O156  1  0.71364000  0.32780000  0.34654000  1.0 -0.4878162526
O  O157  1  0.84349000  0.12182000  0.03699000  1.0 -0.5397282113
O  O158  1  0.84349000  0.37818000  0.53699000  1.0 -0.5397282113
O  O159  1  0.00186000  0.11649000  0.04756000  1.0 -0.5930967395
O  O160  1  0.00186000  0.38351000  0.54756000  1.0 -0.5930967395
O  O161  1  0.76280000  0.15098000  0.09170000  1.0 -0.6608126704
O  O162  1  0.76280000  0.34902000  0.59170000  1.0 -0.6608126704
O  O163  1  0.76200000  0.05673000  0.75190000  1.0 -0.4406567528
O  O164  1  0.76200000  0.44327000  0.25190000  1.0 -0.4406567528
O  O165  1  0.82872000  0.93622000  0.63762000  1.0 -0.5304332618
O  O166  1  0.82872000  0.56378000  0.13762000  1.0 -0.5304332618
O  O167  1  0.77801000  0.95987000  0.58051000  1.0 -0.5397282113
O  O168  1  0.77801000  0.54013000  0.08051000  1.0 -0.5397282113
O  O169  1  0.03640000  0.31191000  0.53100000  1.0 -0.4567091261
O  O170  1  0.03640000  0.18809000  0.03100000  1.0 -0.4567091261
O  O171  1  0.30380000  0.39697000  0.55290000  1.0 -0.5189171155
O  O172  1  0.30380000  0.10303000  0.05290000  1.0 -0.5189171155
O  O173  1  0.19650000  0.36010000  0.53710000  1.0 -0.5189171155
O  O174  1  0.19650000  0.13990000  0.03710000  1.0 -0.5189171155
O  O175  1  0.25160000  0.41864000  0.35370000  1.0 -0.4567091261
O  O176  1  0.25160000  0.08136000  0.85370000  1.0 -0.4567091261
O  O177  1  0.15285000  0.28597000  0.27215000  1.0 -0.4878162526
O  O178  1  0.15285000  0.21403000  0.77215000  1.0 -0.4878162526
O  O179  1  0.96710000  0.15697000  0.15580000  1.0 -0.5304332618
O  O180  1  0.96710000  0.34303000  0.65580000  1.0 -0.5189171155
O  O181  1  0.01950000  0.16655000  0.10900000  1.0 -0.5304332618
O  O182  1  0.01950000  0.33345000  0.60900000  1.0 -0.5304332618
O  O183  1  0.17653000  0.40324000  0.17323000  1.0 -0.4485106145
O  O184  1  0.17653000  0.09676000  0.67323000  1.0 -0.4485106145
O  O185  1  0.25468000  0.53807000  0.08288000  1.0 -0.5710392688
O  O186  1  0.25468000  0.96193000  0.58288000  1.0 -0.5710392688
O  O187  1  0.31601000  0.56810000  0.13511000  1.0 -0.5579730813
O  O188  1  0.31601000  0.93190000  0.63511000  1.0 -0.5579730813
