# DDEC6 charges by PACMAN v1.1 (https://github.com/mtap-research/PACMAN-charge/)
data_CIMLAP_ASR_pacman
_symmetry_space_group_name_H-M   'P 1'
_cell_length_a   13.94750000
_cell_length_b   43.31340000
_cell_length_c   35.30220000
_cell_angle_alpha   90.00000000
_cell_angle_beta   108.74000000
_cell_angle_gamma   90.00000000
_symmetry_Int_Tables_number   1
_chemical_formula_structural   Cd8H75C124N12O41
_chemical_formula_sum   'Cd32 H300 C496 N48 O164'
_cell_volume   20195.94016351
_cell_formula_units_Z   4
loop_
 _symmetry_equiv_pos_site_id
 _symmetry_equiv_pos_as_xyz
  1  'x, y, z'
loop_
 _atom_site_type_symbol
 _atom_site_label
 _atom_site_symmetry_multiplicity
 _atom_site_fract_x
 _atom_site_fract_y
 _atom_site_fract_z
 _atom_site_occupancy
 _atom_site_charge
Cd  Cd1  1  0.78606000  0.40159000  0.93781000  1.0 1.0521124354
Cd  Cd2  1  0.78606000  0.09841000  0.43781000  1.0 1.0521124354
Cd  Cd3  1  0.02479000  0.36029000  0.95288000  1.0 1.0976056209
Cd  Cd4  1  0.02479000  0.13971000  0.45288000  1.0 1.0944972387
Cd  Cd5  1  0.18061000  0.40051000  0.90529000  1.0 1.0089487186
Cd  Cd6  1  0.18061000  0.09949000  0.40529000  1.0 1.0089487186
Cd  Cd7  1  0.85544000  0.91881000  0.90698000  1.0 1.0263693681
Cd  Cd8  1  0.85544000  0.58119000  0.40698000  1.0 1.0263693681
Cd  Cd9  1  0.62023000  0.88779000  0.82709000  1.0 0.6904256692
Cd  Cd10  1  0.62023000  0.61221000  0.32709000  1.0 0.6981252184
Cd  Cd11  1  0.80802000  0.84110000  0.90760000  1.0 0.9809358916
Cd  Cd12  1  0.80802000  0.65890000  0.40760000  1.0 0.9809358916
Cd  Cd13  1  0.04604000  0.86461000  0.87833000  1.0 1.0239625326
Cd  Cd14  1  0.04604000  0.63539000  0.37833000  1.0 1.0239625326
Cd  Cd15  1  0.60454000  0.89086000  0.86449000  1.0 0.4966779104
Cd  Cd16  1  0.60454000  0.60914000  0.36449000  1.0 0.4966779104
Cd  Cd17  1  0.21394000  0.90159000  0.56219000  1.0 1.0521124354
Cd  Cd18  1  0.21394000  0.59841000  0.06219000  1.0 1.0521124354
Cd  Cd19  1  0.97521000  0.86029000  0.54712000  1.0 1.0944972387
Cd  Cd20  1  0.97521000  0.63971000  0.04712000  1.0 1.0944972387
Cd  Cd21  1  0.81939000  0.90051000  0.59471000  1.0 1.0089487186
Cd  Cd22  1  0.81939000  0.59949000  0.09471000  1.0 1.0089487186
Cd  Cd23  1  0.14456000  0.41881000  0.59302000  1.0 1.0239625326
Cd  Cd24  1  0.14456000  0.08119000  0.09302000  1.0 1.0239625326
Cd  Cd25  1  0.37977000  0.38779000  0.67291000  1.0 0.6904256692
Cd  Cd26  1  0.37977000  0.11221000  0.17291000  1.0 0.6904256692
Cd  Cd27  1  0.19198000  0.34110000  0.59240000  1.0 0.9809358916
Cd  Cd28  1  0.19198000  0.15890000  0.09240000  1.0 0.9809358916
Cd  Cd29  1  0.95396000  0.36461000  0.62167000  1.0 1.0239625326
Cd  Cd30  1  0.95396000  0.13539000  0.12167000  1.0 1.0239625326
Cd  Cd31  1  0.39546000  0.39086000  0.63551000  1.0 0.4927157214
Cd  Cd32  1  0.39546000  0.10914000  0.13551000  1.0 0.4927157214
H  H1  1  0.10811000  0.05589000  0.81316000  1.0 0.2801290894
H  H2  1  0.10811000  0.44411000  0.31316000  1.0 0.2801290894
H  H3  1  0.01400000  0.09748000  0.70331000  1.0 0.2801290894
H  H4  1  0.01400000  0.40252000  0.20331000  1.0 0.2801290894
H  H5  1  0.12118000  0.21070000  0.81603000  1.0 0.2801290894
H  H6  1  0.12118000  0.28930000  0.31603000  1.0 0.2801290894
H  H7  1  0.26027000  0.58435000  0.81866000  1.0 0.271898325
H  H8  1  0.26027000  0.91565000  0.31866000  1.0 0.271898325
H  H9  1  0.12944000  0.61493000  0.63824000  1.0 0.2801290894
H  H10  1  0.12944000  0.88507000  0.13824000  1.0 0.2801290894
H  H11  1  0.28634000  0.72050000  0.76603000  1.0 0.271898325
H  H12  1  0.28634000  0.77950000  0.26603000  1.0 0.271898325
H  H13  1  0.76239000  0.68840000  0.79418000  1.0 0.2801290894
H  H14  1  0.76239000  0.81160000  0.29418000  1.0 0.2801290894
H  H15  1  0.66225000  0.63815000  0.61908000  1.0 0.2801290894
H  H16  1  0.66225000  0.86185000  0.11908000  1.0 0.2801290894
H  H17  1  0.70834000  0.54689000  0.76005000  1.0 0.271898325
H  H18  1  0.70834000  0.95311000  0.26005000  1.0 0.271898325
H  H19  1  0.63997000  0.20628000  0.83735000  1.0 0.2801290894
H  H20  1  0.63997000  0.29372000  0.33735000  1.0 0.2801290894
H  H21  1  0.54278000  0.08134000  0.75508000  1.0 0.271898325
H  H22  1  0.54278000  0.41866000  0.25508000  1.0 0.271898325
H  H23  1  0.48845000  0.14238000  0.65919000  1.0 0.289985591
H  H24  1  0.48845000  0.35762000  0.15919000  1.0 0.289985591
H  H25  1  0.19700000  0.96026000  0.86606000  1.0 0.1120668135
H  H26  1  0.19700000  0.53974000  0.36606000  1.0 0.1120668135
H  H27  1  0.20842000  0.01261000  0.85250000  1.0 0.137356345
H  H28  1  0.20842000  0.48739000  0.35250000  1.0 0.137356345
H  H29  1  0.90719000  0.02188000  0.82950000  1.0 0.137356345
H  H30  1  0.90719000  0.47812000  0.32950000  1.0 0.137356345
H  H31  1  0.89667000  0.97004000  0.84482000  1.0 0.1120668135
H  H32  1  0.89667000  0.52996000  0.34482000  1.0 0.1120668135
H  H33  1  0.02093000  0.08912000  0.76187000  1.0 0.1120668135
H  H34  1  0.02093000  0.41088000  0.26187000  1.0 0.1120668135
H  H35  1  0.01586000  0.18264000  0.76591000  1.0 0.1202978746
H  H36  1  0.01586000  0.31736000  0.26591000  1.0 0.1202978746
H  H37  1  0.04925000  0.13322000  0.86605000  1.0 0.1202978746
H  H38  1  0.04925000  0.36678000  0.36605000  1.0 0.1202978746
H  H39  1  0.91146000  0.07520000  0.63856000  1.0 0.1202978746
H  H40  1  0.91146000  0.42480000  0.13856000  1.0 0.1202978746
H  H41  1  0.88590000  0.07428000  0.56986000  1.0 0.1202978746
H  H42  1  0.88590000  0.42572000  0.06986000  1.0 0.1202978746
H  H43  1  0.04405000  0.15316000  0.57876000  1.0 0.1289627945
H  H44  1  0.04405000  0.34684000  0.07876000  1.0 0.1289627945
H  H45  1  0.06880000  0.15539000  0.64760000  1.0 0.1289627945
H  H46  1  0.06880000  0.34461000  0.14760000  1.0 0.1289627945
H  H47  1  0.21863000  0.25434000  0.82724000  1.0 0.137356345
H  H48  1  0.21863000  0.24566000  0.32724000  1.0 0.137356345
H  H49  1  0.24020000  0.30568000  0.84680000  1.0 0.1289627945
H  H50  1  0.24020000  0.19432000  0.34680000  1.0 0.1289627945
H  H51  1  0.01199000  0.29731000  0.89374000  1.0 0.1202978746
H  H52  1  0.01199000  0.20269000  0.39374000  1.0 0.1202978746
H  H53  1  0.98758000  0.24645000  0.87286000  1.0 0.1289627945
H  H54  1  0.98758000  0.25355000  0.37286000  1.0 0.1289627945
H  H55  1  0.19825000  0.46623000  0.79834000  1.0 0.1289627945
H  H56  1  0.19825000  0.03377000  0.29834000  1.0 0.1289627945
H  H57  1  0.19931000  0.51364000  0.76685000  1.0 0.137356345
H  H58  1  0.19931000  0.98636000  0.26685000  1.0 0.137356345
H  H59  1  0.26833000  0.55586000  0.87439000  1.0 0.1202978746
H  H60  1  0.26833000  0.94414000  0.37439000  1.0 0.1202978746
H  H61  1  0.26531000  0.50893000  0.90504000  1.0 0.1202978746
H  H62  1  0.26531000  0.99107000  0.40504000  1.0 0.1202978746
H  H63  1  0.19118000  0.59898000  0.69244000  1.0 0.1120668135
H  H64  1  0.19118000  0.90102000  0.19244000  1.0 0.1120668135
H  H65  1  0.26191000  0.68888000  0.71766000  1.0 0.1120668135
H  H66  1  0.26191000  0.81112000  0.21766000  1.0 0.1120668135
H  H67  1  0.28845000  0.62847000  0.80825000  1.0 0.1120668135
H  H68  1  0.28845000  0.87153000  0.30825000  1.0 0.1120668135
H  H69  1  0.49844000  0.71460000  0.85152000  1.0 0.1289627945
H  H70  1  0.49844000  0.78540000  0.35152000  1.0 0.1289627945
H  H71  1  0.60767000  0.75491000  0.87901000  1.0 0.1120668135
H  H72  1  0.60767000  0.74509000  0.37901000  1.0 0.1120668135
H  H73  1  0.39573000  0.81420000  0.82402000  1.0 0.1034777364
H  H74  1  0.39573000  0.68580000  0.32402000  1.0 0.1034777364
H  H75  1  0.29124000  0.77274000  0.79215000  1.0 0.1202978746
H  H76  1  0.29124000  0.72726000  0.29215000  1.0 0.1202978746
H  H77  1  0.99790000  0.60768000  0.57642000  1.0 0.1289627945
H  H78  1  0.99790000  0.89232000  0.07642000  1.0 0.1289627945
H  H79  1  0.95208000  0.60810000  0.50645000  1.0 0.1120668135
H  H80  1  0.95208000  0.89190000  0.00645000  1.0 0.1120668135
H  H81  1  0.19802000  0.65860000  0.51345000  1.0 0.1202978746
H  H82  1  0.19802000  0.84140000  0.01345000  1.0 0.1202978746
H  H83  1  0.24538000  0.65874000  0.58364000  1.0 0.1289627945
H  H84  1  0.24538000  0.84126000  0.08364000  1.0 0.1289627945
H  H85  1  0.89291000  0.42936000  0.87664000  1.0 0.1120668135
H  H86  1  0.89291000  0.07064000  0.37664000  1.0 0.1120668135
H  H87  1  0.55856000  0.97896000  0.77570000  1.0 0.1202978746
H  H88  1  0.55856000  0.52104000  0.27570000  1.0 0.1120668135
H  H89  1  0.50736000  0.02804000  0.75089000  1.0 0.1202978746
H  H90  1  0.50736000  0.47196000  0.25089000  1.0 0.1202978746
H  H91  1  0.70256000  0.06532000  0.85062000  1.0 0.137356345
H  H92  1  0.70256000  0.43468000  0.35062000  1.0 0.137356345
H  H93  1  0.75384000  0.01598000  0.87521000  1.0 0.1289627945
H  H94  1  0.75384000  0.48402000  0.37521000  1.0 0.1289627945
H  H95  1  0.47755000  0.11697000  0.72055000  1.0 0.1120668135
H  H96  1  0.47755000  0.38303000  0.22055000  1.0 0.1120668135
H  H97  1  0.42694000  0.20912000  0.72348000  1.0 0.1202978746
H  H98  1  0.42694000  0.29088000  0.22348000  1.0 0.1202978746
H  H99  1  0.56212000  0.16290000  0.82645000  1.0 0.1202978746
H  H100  1  0.56212000  0.33710000  0.32645000  1.0 0.1202978746
H  H101  1  0.24199000  0.12864000  0.61081000  1.0 0.1289627945
H  H102  1  0.24199000  0.37136000  0.11081000  1.0 0.1289627945
H  H103  1  0.17307000  0.11480000  0.54302000  1.0 0.1202978746
H  H104  1  0.17307000  0.38520000  0.04302000  1.0 0.1202978746
H  H105  1  0.43544000  0.13668000  0.52515000  1.0 0.1202978746
H  H106  1  0.43544000  0.36332000  0.02515000  1.0 0.1202978746
H  H107  1  0.50402000  0.15186000  0.59214000  1.0 0.137356345
H  H108  1  0.50402000  0.34814000  0.09214000  1.0 0.137356345
H  H109  1  0.52723000  0.27898000  0.83489000  1.0 0.137356345
H  H110  1  0.52723000  0.22102000  0.33489000  1.0 0.1289627945
H  H111  1  0.61002000  0.32164000  0.87098000  1.0 0.1202978746
H  H112  1  0.61002000  0.17836000  0.37098000  1.0 0.1202978746
H  H113  1  0.86669000  0.27282000  0.91191000  1.0 0.1202978746
H  H114  1  0.86669000  0.22718000  0.41191000  1.0 0.1202978746
H  H115  1  0.78616000  0.22942000  0.87772000  1.0 0.137356345
H  H116  1  0.78616000  0.27058000  0.37772000  1.0 0.137356345
H  H117  1  0.67358000  0.45627000  0.81416000  1.0 0.1202978746
H  H118  1  0.67358000  0.04373000  0.31416000  1.0 0.1202978746
H  H119  1  0.66607000  0.49672000  0.77035000  1.0 0.1202978746
H  H120  1  0.66607000  0.00328000  0.27035000  1.0 0.1202978746
H  H121  1  0.77492000  0.55499000  0.86417000  1.0 0.137356345
H  H122  1  0.77492000  0.94501000  0.36417000  1.0 0.137356345
H  H123  1  0.78766000  0.51288000  0.90770000  1.0 0.1289627945
H  H124  1  0.78766000  0.98712000  0.40770000  1.0 0.1289627945
H  H125  1  0.70286000  0.57162000  0.71142000  1.0 0.1120668135
H  H126  1  0.70286000  0.92838000  0.21142000  1.0 0.1120668135
H  H127  1  0.72189000  0.65894000  0.67368000  1.0 0.1120668135
H  H128  1  0.72189000  0.84106000  0.17368000  1.0 0.1120668135
H  H129  1  0.76427000  0.64224000  0.79090000  1.0 0.1120668135
H  H130  1  0.76427000  0.85776000  0.29090000  1.0 0.1120668135
H  H131  1  0.75418000  0.72900000  0.83556000  1.0 0.137356345
H  H132  1  0.75418000  0.77100000  0.33556000  1.0 0.137356345
H  H133  1  0.80748000  0.77719000  0.86211000  1.0 0.1120668135
H  H134  1  0.80748000  0.72281000  0.36211000  1.0 0.1120668135
H  H135  1  0.92035000  0.79278000  0.77369000  1.0 0.1289627945
H  H136  1  0.92035000  0.70722000  0.27369000  1.0 0.1289627945
H  H137  1  0.87971000  0.74301000  0.75126000  1.0 0.1289627945
H  H138  1  0.87971000  0.75699000  0.25126000  1.0 0.1289627945
H  H139  1  0.77006000  0.57310000  0.58874000  1.0 0.1289627945
H  H140  1  0.77006000  0.92690000  0.08874000  1.0 0.1289627945
H  H141  1  0.79511000  0.56931000  0.52642000  1.0 0.1202978746
H  H142  1  0.79511000  0.93069000  0.02642000  1.0 0.1202978746
H  H143  1  0.65022000  0.64956000  0.49225000  1.0 0.1202978746
H  H144  1  0.65022000  0.85044000  0.99225000  1.0 0.1202978746
H  H145  1  0.62898000  0.65456000  0.55498000  1.0 0.1289627945
H  H146  1  0.62898000  0.84544000  0.05498000  1.0 0.1289627945
H  H147  1  0.48712000  0.80341000  0.78158000  1.0 0.1120668135
H  H148  1  0.48712000  0.69659000  0.28158000  1.0 0.1120668135
H  H149  1  0.37615000  0.76235000  0.75406000  1.0 0.1120668135
H  H150  1  0.37615000  0.73765000  0.25406000  1.0 0.1120668135
H  H151  1  0.89189000  0.55589000  0.68684000  1.0 0.2801290894
H  H152  1  0.89189000  0.94411000  0.18684000  1.0 0.2801290894
H  H153  1  0.98600000  0.59748000  0.79669000  1.0 0.2801290894
H  H154  1  0.98600000  0.90252000  0.29669000  1.0 0.2801290894
H  H155  1  0.87882000  0.71070000  0.68397000  1.0 0.2801290894
H  H156  1  0.87882000  0.78930000  0.18397000  1.0 0.2801290894
H  H157  1  0.73973000  0.08435000  0.68134000  1.0 0.271898325
H  H158  1  0.73973000  0.41565000  0.18134000  1.0 0.271898325
H  H159  1  0.87056000  0.11493000  0.86176000  1.0 0.2801290894
H  H160  1  0.87056000  0.38507000  0.36176000  1.0 0.2801290894
H  H161  1  0.71366000  0.22050000  0.73397000  1.0 0.271898325
H  H162  1  0.71366000  0.27950000  0.23397000  1.0 0.271898325
H  H163  1  0.23761000  0.18840000  0.70582000  1.0 0.2801290894
H  H164  1  0.23761000  0.31160000  0.20582000  1.0 0.2801290894
H  H165  1  0.33775000  0.13815000  0.88092000  1.0 0.2801290894
H  H166  1  0.33775000  0.36185000  0.38092000  1.0 0.2801290894
H  H167  1  0.29166000  0.04689000  0.73995000  1.0 0.271898325
H  H168  1  0.29166000  0.45311000  0.23995000  1.0 0.271898325
H  H169  1  0.36003000  0.70628000  0.66265000  1.0 0.2801290894
H  H170  1  0.36003000  0.79372000  0.16265000  1.0 0.2801290894
H  H171  1  0.45722000  0.58134000  0.74492000  1.0 0.271898325
H  H172  1  0.45722000  0.91866000  0.24492000  1.0 0.271898325
H  H173  1  0.51155000  0.64238000  0.84081000  1.0 0.289985591
H  H174  1  0.51155000  0.85762000  0.34081000  1.0 0.289985591
H  H175  1  0.80300000  0.46026000  0.63394000  1.0 0.1120668135
H  H176  1  0.80300000  0.03974000  0.13394000  1.0 0.1120668135
H  H177  1  0.79158000  0.51261000  0.64750000  1.0 0.137356345
H  H178  1  0.79158000  0.98739000  0.14750000  1.0 0.137356345
H  H179  1  0.09281000  0.52188000  0.67050000  1.0 0.137356345
H  H180  1  0.09281000  0.97812000  0.17050000  1.0 0.137356345
H  H181  1  0.10333000  0.47004000  0.65518000  1.0 0.1120668135
H  H182  1  0.10333000  0.02996000  0.15518000  1.0 0.1120668135
H  H183  1  0.97907000  0.58912000  0.73813000  1.0 0.1120668135
H  H184  1  0.97907000  0.91088000  0.23813000  1.0 0.1120668135
H  H185  1  0.98414000  0.68264000  0.73409000  1.0 0.1202978746
H  H186  1  0.98414000  0.81736000  0.23409000  1.0 0.1202978746
H  H187  1  0.95075000  0.63322000  0.63395000  1.0 0.1202978746
H  H188  1  0.95075000  0.86678000  0.13395000  1.0 0.1202978746
H  H189  1  0.08854000  0.57520000  0.86144000  1.0 0.1202978746
H  H190  1  0.08854000  0.92480000  0.36144000  1.0 0.1202978746
H  H191  1  0.11410000  0.57428000  0.93014000  1.0 0.1202978746
H  H192  1  0.11410000  0.92572000  0.43014000  1.0 0.1202978746
H  H193  1  0.95595000  0.65316000  0.92124000  1.0 0.1289627945
H  H194  1  0.95595000  0.84684000  0.42124000  1.0 0.1289627945
H  H195  1  0.93120000  0.65539000  0.85240000  1.0 0.1289627945
H  H196  1  0.93120000  0.84461000  0.35240000  1.0 0.1289627945
H  H197  1  0.78137000  0.75434000  0.67276000  1.0 0.1289627945
H  H198  1  0.78137000  0.74566000  0.17276000  1.0 0.1289627945
H  H199  1  0.75980000  0.80568000  0.65320000  1.0 0.1289627945
H  H200  1  0.75980000  0.69432000  0.15320000  1.0 0.1289627945
H  H201  1  0.98801000  0.79731000  0.60626000  1.0 0.1202978746
H  H202  1  0.98801000  0.70269000  0.10626000  1.0 0.1202978746
H  H203  1  0.01242000  0.74645000  0.62714000  1.0 0.1202978746
H  H204  1  0.01242000  0.75355000  0.12714000  1.0 0.1289627945
H  H205  1  0.80175000  0.96623000  0.70166000  1.0 0.1289627945
H  H206  1  0.80175000  0.53377000  0.20166000  1.0 0.1289627945
H  H207  1  0.80069000  0.01364000  0.73315000  1.0 0.137356345
H  H208  1  0.80069000  0.48636000  0.23315000  1.0 0.137356345
H  H209  1  0.73167000  0.05586000  0.62561000  1.0 0.1202978746
H  H210  1  0.73167000  0.44414000  0.12561000  1.0 0.1202978746
H  H211  1  0.73469000  0.00893000  0.59496000  1.0 0.1202978746
H  H212  1  0.73469000  0.49107000  0.09496000  1.0 0.1202978746
H  H213  1  0.80882000  0.09898000  0.80756000  1.0 0.1120668135
H  H214  1  0.80882000  0.40102000  0.30756000  1.0 0.1120668135
H  H215  1  0.73809000  0.18888000  0.78234000  1.0 0.1120668135
H  H216  1  0.73809000  0.31112000  0.28234000  1.0 0.1120668135
H  H217  1  0.71155000  0.12847000  0.69175000  1.0 0.1120668135
H  H218  1  0.71155000  0.37153000  0.19175000  1.0 0.1120668135
H  H219  1  0.50156000  0.21460000  0.64848000  1.0 0.1289627945
H  H220  1  0.50156000  0.28540000  0.14848000  1.0 0.1289627945
H  H221  1  0.39233000  0.25491000  0.62099000  1.0 0.1120668135
H  H222  1  0.39233000  0.24509000  0.12099000  1.0 0.1120668135
H  H223  1  0.60427000  0.31420000  0.67598000  1.0 0.1034777364
H  H224  1  0.60427000  0.18580000  0.17598000  1.0 0.1034777364
H  H225  1  0.70876000  0.27274000  0.70785000  1.0 0.1202978746
H  H226  1  0.70876000  0.22726000  0.20785000  1.0 0.1202978746
H  H227  1  0.00210000  0.10768000  0.92358000  1.0 0.1289627945
H  H228  1  0.00210000  0.39232000  0.42358000  1.0 0.1289627945
H  H229  1  0.04792000  0.10810000  0.99355000  1.0 0.1120668135
H  H230  1  0.04792000  0.39190000  0.49355000  1.0 0.1120668135
H  H231  1  0.80198000  0.15860000  0.98655000  1.0 0.1202978746
H  H232  1  0.80198000  0.34140000  0.48655000  1.0 0.1202978746
H  H233  1  0.75462000  0.15874000  0.91636000  1.0 0.1289627945
H  H234  1  0.75462000  0.34126000  0.41636000  1.0 0.1289627945
H  H235  1  0.10709000  0.92936000  0.62336000  1.0 0.1120668135
H  H236  1  0.10709000  0.57064000  0.12336000  1.0 0.1120668135
H  H237  1  0.44144000  0.47896000  0.72430000  1.0 0.1120668135
H  H238  1  0.44144000  0.02104000  0.22430000  1.0 0.1120668135
H  H239  1  0.49264000  0.52804000  0.74911000  1.0 0.1202978746
H  H240  1  0.49264000  0.97196000  0.24911000  1.0 0.1202978746
H  H241  1  0.29744000  0.56532000  0.64938000  1.0 0.137356345
H  H242  1  0.29744000  0.93468000  0.14938000  1.0 0.137356345
H  H243  1  0.24616000  0.51598000  0.62479000  1.0 0.1289627945
H  H244  1  0.24616000  0.98402000  0.12479000  1.0 0.1289627945
H  H245  1  0.52245000  0.61697000  0.77945000  1.0 0.1120668135
H  H246  1  0.52245000  0.88303000  0.27945000  1.0 0.1120668135
H  H247  1  0.57306000  0.70912000  0.77652000  1.0 0.1202978746
H  H248  1  0.57306000  0.79088000  0.27652000  1.0 0.1202978746
H  H249  1  0.43788000  0.66290000  0.67355000  1.0 0.1202978746
H  H250  1  0.43788000  0.83710000  0.17355000  1.0 0.1202978746
H  H251  1  0.75801000  0.62864000  0.88919000  1.0 0.1289627945
H  H252  1  0.75801000  0.87136000  0.38919000  1.0 0.1289627945
H  H253  1  0.82693000  0.61480000  0.95698000  1.0 0.1202978746
H  H254  1  0.82693000  0.88520000  0.45698000  1.0 0.1202978746
H  H255  1  0.56456000  0.63668000  0.97485000  1.0 0.1202978746
H  H256  1  0.56456000  0.86332000  0.47485000  1.0 0.1202978746
H  H257  1  0.49598000  0.65186000  0.90786000  1.0 0.137356345
H  H258  1  0.49598000  0.84814000  0.40786000  1.0 0.137356345
H  H259  1  0.47277000  0.77898000  0.66511000  1.0 0.1289627945
H  H260  1  0.47277000  0.72102000  0.16511000  1.0 0.1289627945
H  H261  1  0.38998000  0.82164000  0.62902000  1.0 0.1202978746
H  H262  1  0.38998000  0.67836000  0.12902000  1.0 0.1202978746
H  H263  1  0.13331000  0.77282000  0.58809000  1.0 0.1202978746
H  H264  1  0.13331000  0.72718000  0.08809000  1.0 0.1202978746
H  H265  1  0.21384000  0.72942000  0.62228000  1.0 0.137356345
H  H266  1  0.21384000  0.77058000  0.12228000  1.0 0.137356345
H  H267  1  0.32642000  0.95627000  0.68584000  1.0 0.1202978746
H  H268  1  0.32642000  0.54373000  0.18584000  1.0 0.1289627945
H  H269  1  0.33393000  0.99672000  0.72965000  1.0 0.1202978746
H  H270  1  0.33393000  0.50328000  0.22965000  1.0 0.1202978746
H  H271  1  0.22508000  0.05499000  0.63583000  1.0 0.137356345
H  H272  1  0.22508000  0.44501000  0.13583000  1.0 0.137356345
H  H273  1  0.21234000  0.01288000  0.59230000  1.0 0.1289627945
H  H274  1  0.21234000  0.48712000  0.09230000  1.0 0.1289627945
H  H275  1  0.29714000  0.07162000  0.78858000  1.0 0.1120668135
H  H276  1  0.29714000  0.42838000  0.28858000  1.0 0.1120668135
H  H277  1  0.27811000  0.15894000  0.82632000  1.0 0.1120668135
H  H278  1  0.27811000  0.34106000  0.32632000  1.0 0.1120668135
H  H279  1  0.23573000  0.14224000  0.70910000  1.0 0.1120668135
H  H280  1  0.23573000  0.35776000  0.20910000  1.0 0.1120668135
H  H281  1  0.24582000  0.22900000  0.66444000  1.0 0.1289627945
H  H282  1  0.24582000  0.27100000  0.16444000  1.0 0.1289627945
H  H283  1  0.19252000  0.27719000  0.63789000  1.0 0.1120668135
H  H284  1  0.19252000  0.22281000  0.13789000  1.0 0.1120668135
H  H285  1  0.07965000  0.29278000  0.72631000  1.0 0.1289627945
H  H286  1  0.07965000  0.20722000  0.22631000  1.0 0.1289627945
H  H287  1  0.12029000  0.24301000  0.74874000  1.0 0.1289627945
H  H288  1  0.12029000  0.25699000  0.24874000  1.0 0.1289627945
H  H289  1  0.22994000  0.07310000  0.91126000  1.0 0.1289627945
H  H290  1  0.22994000  0.42690000  0.41126000  1.0 0.1289627945
H  H291  1  0.20489000  0.06931000  0.97358000  1.0 0.1202978746
H  H292  1  0.20489000  0.43069000  0.47358000  1.0 0.1202978746
H  H293  1  0.34978000  0.14956000  0.00775000  1.0 0.1202978746
H  H294  1  0.34978000  0.35044000  0.50775000  1.0 0.1202978746
H  H295  1  0.37102000  0.15456000  0.94502000  1.0 0.1289627945
H  H296  1  0.37102000  0.34544000  0.44502000  1.0 0.1289627945
H  H297  1  0.51288000  0.30341000  0.71842000  1.0 0.1120668135
H  H298  1  0.51288000  0.19659000  0.21842000  1.0 0.1120668135
H  H299  1  0.62385000  0.26235000  0.74594000  1.0 0.1120668135
H  H300  1  0.62385000  0.23765000  0.24594000  1.0 0.1120668135
C  C1  1  0.91720000  0.81920000  0.84070000  1.0 0.5675135306
C  C2  1  0.91720000  0.68080000  0.34070000  1.0 0.5675135306
C  C3  1  0.03780000  0.92643000  0.86400000  1.0 0.5675135306
C  C4  1  0.03780000  0.57357000  0.36400000  1.0 0.5675135306
C  C5  1  0.04340000  0.95996000  0.85580000  1.0 -0.0407839767
C  C6  1  0.04340000  0.54004000  0.35580000  1.0 -0.0407839767
C  C7  1  0.13800000  0.97280000  0.85860000  1.0 -0.0698805564
C  C8  1  0.13800000  0.52720000  0.35860000  1.0 -0.0698805564
C  C9  1  0.14470000  0.00366000  0.85040000  1.0 -0.1910502359
C  C10  1  0.14470000  0.49634000  0.35040000  1.0 -0.1910502359
C  C11  1  0.05790000  0.02154000  0.83920000  1.0 0.2314864094
C  C12  1  0.05790000  0.47846000  0.33920000  1.0 0.2314864094
C  C13  1  0.96620000  0.00933000  0.83700000  1.0 -0.1722513617
C  C14  1  0.96620000  0.49067000  0.33700000  1.0 -0.1722513617
C  C15  1  0.96030000  0.97851000  0.84580000  1.0 -0.0872436413
C  C16  1  0.96030000  0.52149000  0.34580000  1.0 -0.0811209313
C  C17  1  0.01980000  0.07733000  0.83640000  1.0 0.4693157398
C  C18  1  0.01980000  0.42267000  0.33640000  1.0 0.4693157398
C  C19  1  0.03150000  0.10703000  0.81630000  1.0 -0.0104596477
C  C20  1  0.03150000  0.39297000  0.31630000  1.0 -0.0104596477
C  C21  1  0.02290000  0.10780000  0.77620000  1.0 -0.1910502359
C  C22  1  0.02290000  0.39220000  0.27620000  1.0 -0.1910502359
C  C23  1  0.01710000  0.13653000  0.75670000  1.0 -0.0195074247
C  C24  1  0.01710000  0.36347000  0.25670000  1.0 -0.0195074247
C  C25  1  0.02230000  0.16319000  0.77890000  1.0 -0.1402874449
C  C26  1  0.02230000  0.33681000  0.27890000  1.0 -0.1402874449
C  C27  1  0.03680000  0.16238000  0.81980000  1.0 -0.0195074247
C  C28  1  0.03680000  0.33762000  0.31980000  1.0 -0.0195074247
C  C29  1  0.04056000  0.13415000  0.83826000  1.0 -0.1402874449
C  C30  1  0.04056000  0.36585000  0.33826000  1.0 -0.1402874449
C  C31  1  0.03970000  0.19100000  0.84360000  1.0 0.4509134812
C  C32  1  0.03970000  0.30900000  0.34360000  1.0 0.4509134812
C  C33  1  0.00190000  0.14084000  0.71330000  1.0 0.4509134812
C  C34  1  0.00190000  0.35916000  0.21330000  1.0 0.4509134812
C  C35  1  0.99160000  0.11561000  0.64950000  1.0 0.2461531213
C  C36  1  0.99160000  0.38439000  0.14950000  1.0 0.2461531213
C  C37  1  0.93750000  0.09130000  0.62640000  1.0 -0.2202806013
C  C38  1  0.93750000  0.40870000  0.12640000  1.0 -0.2202806013
C  C39  1  0.92230000  0.09086000  0.58560000  1.0 -0.0811209313
C  C40  1  0.92230000  0.40914000  0.08560000  1.0 -0.0811209313
C  C41  1  0.95950000  0.11426000  0.56760000  1.0 -0.0407839767
C  C42  1  0.95950000  0.38574000  0.06760000  1.0 -0.0407839767
C  C43  1  0.01560000  0.13763000  0.59090000  1.0 -0.0811209313
C  C44  1  0.01560000  0.36237000  0.09090000  1.0 -0.0811209313
C  C45  1  0.03140000  0.13890000  0.63190000  1.0 -0.1783248199
C  C46  1  0.03140000  0.36110000  0.13190000  1.0 -0.1783248199
C  C47  1  0.93600000  0.11476000  0.52260000  1.0 0.6026608697
C  C48  1  0.93600000  0.38524000  0.02260000  1.0 0.6026608697
C  C49  1  0.10220000  0.24514000  0.84830000  1.0 0.2461531213
C  C50  1  0.10220000  0.25486000  0.34830000  1.0 0.2461531213
C  C51  1  0.17620000  0.26319000  0.84070000  1.0 -0.1910502359
C  C52  1  0.17620000  0.23681000  0.34070000  1.0 -0.1910502359
C  C53  1  0.18910000  0.29367000  0.85220000  1.0 -0.0811209313
C  C54  1  0.18910000  0.20633000  0.35220000  1.0 -0.0811209313
C  C55  1  0.12650000  0.30689000  0.87180000  1.0 -0.0294554788
C  C56  1  0.12650000  0.19311000  0.37180000  1.0 -0.0294554788
C  C57  1  0.05330000  0.28862000  0.87970000  1.0 -0.0872436413
C  C58  1  0.05330000  0.21138000  0.37970000  1.0 -0.0872436413
C  C59  1  0.03950000  0.25836000  0.86790000  1.0 -0.1783248199
C  C60  1  0.03950000  0.24164000  0.36790000  1.0 -0.1783248199
C  C61  1  0.13970000  0.34003000  0.88350000  1.0 0.5775980106
C  C62  1  0.13970000  0.15997000  0.38350000  1.0 0.5775980106
C  C63  1  0.22150000  0.45220000  0.87350000  1.0 0.5397288552
C  C64  1  0.22150000  0.04780000  0.37350000  1.0 0.5397288552
C  C65  1  0.22960000  0.48266000  0.85470000  1.0 -0.0407839767
C  C66  1  0.22960000  0.01734000  0.35470000  1.0 -0.0407839767
C  C67  1  0.21170000  0.48458000  0.81390000  1.0 -0.0811209313
C  C68  1  0.21170000  0.01542000  0.31390000  1.0 -0.0811209313
C  C69  1  0.21300000  0.51282000  0.79500000  1.0 -0.2022485141
C  C70  1  0.21300000  0.98718000  0.29500000  1.0 -0.2022485141
C  C71  1  0.23430000  0.53970000  0.81760000  1.0 0.2314864094
C  C72  1  0.23430000  0.96030000  0.31760000  1.0 0.2314864094
C  C73  1  0.25350000  0.53762000  0.85860000  1.0 -0.2202806013
C  C74  1  0.25350000  0.96238000  0.35860000  1.0 -0.2202806013
C  C75  1  0.25150000  0.50971000  0.87690000  1.0 -0.0698805564
C  C76  1  0.25150000  0.99029000  0.37690000  1.0 -0.0698805564
C  C77  1  0.21870000  0.57619000  0.76250000  1.0 0.4429815164
C  C78  1  0.21870000  0.92381000  0.26250000  1.0 0.4429815164
C  C79  1  0.23480000  0.60898000  0.75290000  1.0 -0.0294554788
C  C80  1  0.23480000  0.89102000  0.25290000  1.0 -0.0195074247
C  C81  1  0.21280000  0.61517000  0.71140000  1.0 -0.1502384791
C  C82  1  0.21280000  0.88483000  0.21140000  1.0 -0.1502384791
C  C83  1  0.22313000  0.64478000  0.69893000  1.0 -0.0028813062
C  C84  1  0.22313000  0.85522000  0.19893000  1.0 -0.0028813062
C  C85  1  0.25650000  0.66845000  0.72660000  1.0 -0.1502384791
C  C86  1  0.25650000  0.83155000  0.22660000  1.0 -0.1502384791
C  C87  1  0.28170000  0.66231000  0.76700000  1.0 -0.0104596477
C  C88  1  0.28170000  0.83769000  0.26700000  1.0 -0.0104596477
C  C89  1  0.27100000  0.63254000  0.78040000  1.0 -0.1722513617
C  C90  1  0.27100000  0.86746000  0.28040000  1.0 -0.1722513617
C  C91  1  0.33340000  0.68521000  0.79880000  1.0 0.4509134812
C  C92  1  0.33340000  0.81479000  0.29880000  1.0 0.4509134812
C  C93  1  0.40030000  0.73832000  0.80920000  1.0 0.2094715139
C  C94  1  0.40030000  0.76168000  0.30920000  1.0 0.2094715139
C  C95  1  0.48300000  0.73462000  0.84020000  1.0 -0.1910502359
C  C96  1  0.48300000  0.76538000  0.34020000  1.0 -0.1910502359
C  C97  1  0.54860000  0.75886000  0.85700000  1.0 -0.133772085
C  C98  1  0.54860000  0.74114000  0.35700000  1.0 -0.133772085
C  C99  1  0.53070000  0.78620000  0.84320000  1.0 0.0383612192
C  C100  1  0.53070000  0.71380000  0.34320000  1.0 0.0383612192
C  C101  1  0.42150000  0.79390000  0.82410000  1.0 -0.1013540053
C  C102  1  0.42150000  0.70610000  0.32410000  1.0 -0.1013540053
C  C103  1  0.36070000  0.76920000  0.80640000  1.0 -0.0872436413
C  C104  1  0.36070000  0.73080000  0.30640000  1.0 -0.0872436413
C  C105  1  0.20660000  0.65188000  0.65560000  1.0 0.4693157398
C  C106  1  0.20660000  0.84812000  0.15560000  1.0 0.4693157398
C  C107  1  0.12570000  0.63295000  0.58620000  1.0 0.2393690398
C  C108  1  0.12570000  0.86705000  0.08620000  1.0 0.2393690398
C  C109  1  0.03920000  0.61808000  0.56370000  1.0 -0.1910502359
C  C110  1  0.03920000  0.88192000  0.06370000  1.0 -0.1910502359
C  C111  1  0.01210000  0.61831000  0.52200000  1.0 -0.0811209313
C  C112  1  0.01210000  0.88169000  0.02200000  1.0 -0.0811209313
C  C113  1  0.07050000  0.63296000  0.50360000  1.0 -0.0407839767
C  C114  1  0.07050000  0.86704000  0.00360000  1.0 -0.0407839767
C  C115  1  0.15730000  0.64810000  0.52640000  1.0 -0.0872436413
C  C116  1  0.15730000  0.85190000  0.02640000  1.0 -0.0872436413
C  C117  1  0.18590000  0.64830000  0.56810000  1.0 -0.1783248199
C  C118  1  0.18590000  0.85170000  0.06810000  1.0 -0.1783248199
C  C119  1  0.04340000  0.63261000  0.45900000  1.0 0.5924215964
C  C120  1  0.04340000  0.86739000  0.95900000  1.0 0.5924215964
C  C121  1  0.94970000  0.41770000  0.89220000  1.0 0.519811993
C  C122  1  0.94970000  0.08230000  0.39220000  1.0 0.519811993
C  C123  1  0.68540000  0.96090000  0.84680000  1.0 0.4693157398
C  C124  1  0.68540000  0.53910000  0.34680000  1.0 0.4612424987
C  C125  1  0.65660000  0.99260000  0.82950000  1.0 -0.0407839767
C  C126  1  0.65660000  0.50740000  0.32950000  1.0 -0.0407839767
C  C127  1  0.58610000  0.99660000  0.79150000  1.0 -0.0872436413
C  C128  1  0.58610000  0.50340000  0.29150000  1.0 -0.0872436413
C  C129  1  0.55610000  0.02560000  0.77660000  1.0 -0.2101767712
C  C130  1  0.55610000  0.47440000  0.27660000  1.0 -0.2101767712
C  C131  1  0.59720000  0.05106000  0.79930000  1.0 0.2393690398
C  C132  1  0.59720000  0.44894000  0.29930000  1.0 0.2393690398
C  C133  1  0.67180000  0.04766000  0.83570000  1.0 -0.1722513617
C  C134  1  0.67180000  0.45234000  0.33570000  1.0 -0.1722513617
C  C135  1  0.70150000  0.01832000  0.85030000  1.0 -0.0811209313
C  C136  1  0.70150000  0.48168000  0.35030000  1.0 -0.0811209313
C  C137  1  0.56210000  0.10674000  0.80200000  1.0 0.4509134812
C  C138  1  0.56210000  0.39326000  0.30200000  1.0 0.4509134812
C  C139  1  0.52470000  0.13525000  0.77720000  1.0 -0.0104596477
C  C140  1  0.52470000  0.36475000  0.27720000  1.0 -0.0104596477
C  C141  1  0.48120000  0.13547000  0.73540000  1.0 -0.1910502359
C  C142  1  0.48120000  0.36453000  0.23540000  1.0 -0.1910502359
C  C143  1  0.44361000  0.16291000  0.71591000  1.0 -0.0195074247
C  C144  1  0.44361000  0.33709000  0.21591000  1.0 -0.0195074247
C  C145  1  0.45340000  0.19052000  0.73710000  1.0 -0.1402874449
C  C146  1  0.45340000  0.30948000  0.23710000  1.0 -0.1402874449
C  C147  1  0.50220000  0.19076000  0.77830000  1.0 -0.0195074247
C  C148  1  0.50220000  0.30924000  0.27830000  1.0 -0.0195074247
C  C149  1  0.53380000  0.16299000  0.79810000  1.0 -0.1402874449
C  C150  1  0.53380000  0.33701000  0.29810000  1.0 -0.1402874449
C  C151  1  0.38217000  0.16241000  0.67277000  1.0 0.4612424987
C  C152  1  0.38217000  0.33759000  0.17277000  1.0 0.4612424987
C  C153  1  0.37970000  0.14145000  0.60710000  1.0 0.2314864094
C  C154  1  0.37970000  0.35855000  0.10710000  1.0 0.2314864094
C  C155  1  0.28110000  0.13043000  0.59330000  1.0 -0.1783248199
C  C156  1  0.28110000  0.36957000  0.09330000  1.0 -0.1783248199
C  C157  1  0.24090000  0.12201000  0.55310000  1.0 -0.0872436413
C  C158  1  0.24090000  0.37799000  0.05310000  1.0 -0.0872436413
C  C159  1  0.29840000  0.12401000  0.52760000  1.0 -0.0407839767
C  C160  1  0.29840000  0.37599000  0.02760000  1.0 -0.0407839767
C  C161  1  0.39560000  0.13510000  0.54240000  1.0 -0.0698805564
C  C162  1  0.39560000  0.36490000  0.04240000  1.0 -0.0698805564
C  C163  1  0.43690000  0.14400000  0.58230000  1.0 -0.2022485141
C  C164  1  0.43690000  0.35600000  0.08230000  1.0 -0.2022485141
C  C165  1  0.25470000  0.11492000  0.48480000  1.0 0.5775980106
C  C166  1  0.25470000  0.38508000  0.98480000  1.0 0.5775980106
C  C167  1  0.51920000  0.22143000  0.79910000  1.0 0.4509134812
C  C168  1  0.51920000  0.27857000  0.29910000  1.0 0.4509134812
C  C169  1  0.64890000  0.25009000  0.85230000  1.0 0.2393690398
C  C170  1  0.64890000  0.24991000  0.35230000  1.0 0.2393690398
C  C171  1  0.59670000  0.27756000  0.85060000  1.0 -0.1910502359
C  C172  1  0.59670000  0.22244000  0.35060000  1.0 -0.1910502359
C  C173  1  0.64670000  0.30302000  0.87190000  1.0 -0.0811209313
C  C174  1  0.64670000  0.19698000  0.37190000  1.0 -0.0811209313
C  C175  1  0.74740000  0.30217000  0.89440000  1.0 -0.0614271729
C  C176  1  0.74740000  0.19783000  0.39440000  1.0 -0.0614271729
C  C177  1  0.79740000  0.27418000  0.89610000  1.0 -0.0811209313
C  C178  1  0.79740000  0.22582000  0.39610000  1.0 -0.0811209313
C  C179  1  0.75000000  0.24826000  0.87570000  1.0 -0.1910502359
C  C180  1  0.75000000  0.25174000  0.37570000  1.0 -0.1910502359
C  C181  1  0.80270000  0.33017000  0.91510000  1.0 0.6026608697
C  C182  1  0.80270000  0.16983000  0.41510000  1.0 0.6026608697
C  C183  1  0.74240000  0.45340000  0.89270000  1.0 0.5397288552
C  C184  1  0.74240000  0.04660000  0.39270000  1.0 0.5397288552
C  C185  1  0.73320000  0.48054000  0.86520000  1.0 -0.0530767688
C  C186  1  0.73320000  0.01946000  0.36520000  1.0 -0.0530767688
C  C187  1  0.69610000  0.47621000  0.82450000  1.0 -0.0811209313
C  C188  1  0.69610000  0.02379000  0.32450000  1.0 -0.0811209313
C  C189  1  0.69070000  0.50018000  0.79840000  1.0 -0.2101767712
C  C190  1  0.69070000  0.99982000  0.29840000  1.0 -0.2101767712
C  C191  1  0.72200000  0.52983000  0.81340000  1.0 0.2314864094
C  C192  1  0.72200000  0.97017000  0.31340000  1.0 0.2314864094
C  C193  1  0.75600000  0.53490000  0.85380000  1.0 -0.2022485141
C  C194  1  0.75600000  0.96510000  0.35380000  1.0 -0.2022485141
C  C195  1  0.76240000  0.50970000  0.87960000  1.0 -0.0811209313
C  C196  1  0.76240000  0.99030000  0.37960000  1.0 -0.0811209313
C  C197  1  0.73190000  0.58370000  0.79160000  1.0 0.4509134812
C  C198  1  0.73190000  0.91630000  0.29160000  1.0 0.4509134812
C  C199  1  0.73120000  0.60357000  0.75670000  1.0 -0.0294554788
C  C200  1  0.73120000  0.89643000  0.25670000  1.0 -0.0294554788
C  C201  1  0.71330000  0.59301000  0.71730000  1.0 -0.1783248199
C  C202  1  0.71330000  0.90699000  0.21730000  1.0 -0.1783248199
C  C203  1  0.71070000  0.61348000  0.68720000  1.0 -0.0104596477
C  C204  1  0.71070000  0.88652000  0.18720000  1.0 -0.0104596477
C  C205  1  0.72550000  0.64491000  0.69480000  1.0 -0.1502384791
C  C206  1  0.72550000  0.85509000  0.19480000  1.0 -0.1502384791
C  C207  1  0.74560000  0.65552000  0.73400000  1.0 -0.0028813062
C  C208  1  0.74560000  0.84448000  0.23400000  1.0 -0.0028813062
C  C209  1  0.74920000  0.63485000  0.76430000  1.0 -0.133772085
C  C210  1  0.74920000  0.86515000  0.26430000  1.0 -0.133772085
C  C211  1  0.76970000  0.68949000  0.74100000  1.0 0.4612424987
C  C212  1  0.76970000  0.81051000  0.24100000  1.0 0.4612424987
C  C213  1  0.80750000  0.73130000  0.79020000  1.0 0.2314864094
C  C214  1  0.80750000  0.76870000  0.29020000  1.0 0.2314864094
C  C215  1  0.79000000  0.74180000  0.82280000  1.0 -0.1783248199
C  C216  1  0.79000000  0.75820000  0.32280000  1.0 -0.1783248199
C  C217  1  0.82200000  0.77060000  0.83890000  1.0 -0.0811209313
C  C218  1  0.82200000  0.72940000  0.33890000  1.0 -0.0811209313
C  C219  1  0.87300000  0.78930000  0.82210000  1.0 -0.0294554788
C  C220  1  0.87300000  0.71070000  0.32210000  1.0 -0.0294554788
C  C221  1  0.88940000  0.77940000  0.78760000  1.0 -0.0811209313
C  C222  1  0.88940000  0.72060000  0.28760000  1.0 -0.0811209313
C  C223  1  0.86140000  0.75030000  0.77340000  1.0 -0.1783248199
C  C224  1  0.86140000  0.74970000  0.27340000  1.0 -0.1783248199
C  C225  1  0.70460000  0.59984000  0.64730000  1.0 0.4509134812
C  C226  1  0.70460000  0.90016000  0.14730000  1.0 0.4509134812
C  C227  1  0.69830000  0.61421000  0.57800000  1.0 0.2314864094
C  C228  1  0.69830000  0.88579000  0.07800000  1.0 0.2314864094
C  C229  1  0.74650000  0.58902000  0.56950000  1.0 -0.1910502359
C  C230  1  0.74650000  0.91098000  0.06950000  1.0 -0.1910502359
C  C231  1  0.76100000  0.58680000  0.53210000  1.0 -0.0811209313
C  C232  1  0.76100000  0.91320000  0.03210000  1.0 -0.0811209313
C  C233  1  0.72730000  0.60925000  0.50370000  1.0 -0.0614271729
C  C234  1  0.72730000  0.89075000  0.00370000  1.0 -0.0614271729
C  C235  1  0.67630000  0.63420000  0.51200000  1.0 -0.0614271729
C  C236  1  0.67630000  0.86580000  0.01200000  1.0 -0.0698805564
C  C237  1  0.66270000  0.63700000  0.54920000  1.0 -0.2101767712
C  C238  1  0.66270000  0.86300000  0.04920000  1.0 -0.2101767712
C  C239  1  0.74940000  0.60730000  0.46540000  1.0 0.5775980106
C  C240  1  0.74940000  0.89270000  0.96540000  1.0 0.5775980106
C  C241  1  0.61930000  0.81160000  0.85310000  1.0 0.289985591
C  C242  1  0.61930000  0.68840000  0.35310000  1.0 0.289985591
C  C243  1  0.58540000  0.81440000  0.86540000  1.0 0.2801290894
C  C244  1  0.58540000  0.68560000  0.36540000  1.0 0.2801290894
C  C245  1  0.47680000  0.78710000  0.79780000  1.0 -0.0614271729
C  C246  1  0.47680000  0.71290000  0.29780000  1.0 -0.0614271729
C  C247  1  0.41230000  0.76310000  0.78190000  1.0 -0.1125123748
C  C248  1  0.41230000  0.73690000  0.28190000  1.0 -0.1125123748
C  C249  1  0.08280000  0.31920000  0.65930000  1.0 0.5675135306
C  C250  1  0.08280000  0.18080000  0.15930000  1.0 0.5675135306
C  C251  1  0.96220000  0.42643000  0.63600000  1.0 0.5675135306
C  C252  1  0.96220000  0.07357000  0.13600000  1.0 0.5675135306
C  C253  1  0.95660000  0.45996000  0.64420000  1.0 -0.0407839767
C  C254  1  0.95660000  0.04004000  0.14420000  1.0 -0.0407839767
C  C255  1  0.86200000  0.47280000  0.64140000  1.0 -0.0698805564
C  C256  1  0.86200000  0.02720000  0.14140000  1.0 -0.0698805564
C  C257  1  0.85530000  0.50366000  0.64960000  1.0 -0.1910502359
C  C258  1  0.85530000  0.99634000  0.14960000  1.0 -0.1910502359
C  C259  1  0.94210000  0.52154000  0.66080000  1.0 0.2314864094
C  C260  1  0.94210000  0.97846000  0.16080000  1.0 0.2314864094
C  C261  1  0.03380000  0.50933000  0.66300000  1.0 -0.1722513617
C  C262  1  0.03380000  0.99067000  0.16300000  1.0 -0.1722513617
C  C263  1  0.03970000  0.47851000  0.65420000  1.0 -0.0872436413
C  C264  1  0.03970000  0.02149000  0.15420000  1.0 -0.0872436413
C  C265  1  0.98020000  0.57733000  0.66360000  1.0 0.4693157398
C  C266  1  0.98020000  0.92267000  0.16360000  1.0 0.4693157398
C  C267  1  0.96850000  0.60703000  0.68370000  1.0 -0.0104596477
C  C268  1  0.96850000  0.89297000  0.18370000  1.0 -0.0104596477
C  C269  1  0.97710000  0.60780000  0.72380000  1.0 -0.1910502359
C  C270  1  0.97710000  0.89220000  0.22380000  1.0 -0.1910502359
C  C271  1  0.98290000  0.63653000  0.74330000  1.0 -0.0195074247
C  C272  1  0.98290000  0.86347000  0.24330000  1.0 -0.0195074247
C  C273  1  0.97770000  0.66319000  0.72110000  1.0 -0.1402874449
C  C274  1  0.97770000  0.83681000  0.22110000  1.0 -0.1402874449
C  C275  1  0.96320000  0.66238000  0.68020000  1.0 -0.0195074247
C  C276  1  0.96320000  0.83762000  0.18020000  1.0 -0.0195074247
C  C277  1  0.95944000  0.63415000  0.66174000  1.0 -0.133772085
C  C278  1  0.95944000  0.86585000  0.16174000  1.0 -0.1402874449
C  C279  1  0.96030000  0.69100000  0.65640000  1.0 0.4509134812
C  C280  1  0.96030000  0.80900000  0.15640000  1.0 0.4509134812
C  C281  1  0.99810000  0.64084000  0.78670000  1.0 0.4509134812
C  C282  1  0.99810000  0.85916000  0.28670000  1.0 0.4509134812
C  C283  1  0.00840000  0.61561000  0.85050000  1.0 0.2461531213
C  C284  1  0.00840000  0.88439000  0.35050000  1.0 0.2461531213
C  C285  1  0.06250000  0.59130000  0.87360000  1.0 -0.2202806013
C  C286  1  0.06250000  0.90870000  0.37360000  1.0 -0.2202806013
C  C287  1  0.07770000  0.59086000  0.91440000  1.0 -0.0811209313
C  C288  1  0.07770000  0.90914000  0.41440000  1.0 -0.0811209313
C  C289  1  0.04050000  0.61426000  0.93240000  1.0 -0.0407839767
C  C290  1  0.04050000  0.88574000  0.43240000  1.0 -0.0407839767
C  C291  1  0.98440000  0.63763000  0.90910000  1.0 -0.0811209313
C  C292  1  0.98440000  0.86237000  0.40910000  1.0 -0.0811209313
C  C293  1  0.96860000  0.63890000  0.86810000  1.0 -0.1783248199
C  C294  1  0.96860000  0.86110000  0.36810000  1.0 -0.1783248199
C  C295  1  0.06400000  0.61476000  0.97740000  1.0 0.6026608697
C  C296  1  0.06400000  0.88524000  0.47740000  1.0 0.6026608697
C  C297  1  0.89780000  0.74514000  0.65170000  1.0 0.2461531213
C  C298  1  0.89780000  0.75486000  0.15170000  1.0 0.2461531213
C  C299  1  0.82380000  0.76319000  0.65930000  1.0 -0.1910502359
C  C300  1  0.82380000  0.73681000  0.15930000  1.0 -0.1910502359
C  C301  1  0.81090000  0.79367000  0.64780000  1.0 -0.0811209313
C  C302  1  0.81090000  0.70633000  0.14780000  1.0 -0.0811209313
C  C303  1  0.87350000  0.80689000  0.62820000  1.0 -0.0294554788
C  C304  1  0.87350000  0.69311000  0.12820000  1.0 -0.0294554788
C  C305  1  0.94670000  0.78862000  0.62030000  1.0 -0.0872436413
C  C306  1  0.94670000  0.71138000  0.12030000  1.0 -0.0872436413
C  C307  1  0.96050000  0.75836000  0.63210000  1.0 -0.1783248199
C  C308  1  0.96050000  0.74164000  0.13210000  1.0 -0.1783248199
C  C309  1  0.86030000  0.84003000  0.61650000  1.0 0.5775980106
C  C310  1  0.86030000  0.65997000  0.11650000  1.0 0.5775980106
C  C311  1  0.77850000  0.95220000  0.62650000  1.0 0.5397288552
C  C312  1  0.77850000  0.54780000  0.12650000  1.0 0.5397288552
C  C313  1  0.77040000  0.98266000  0.64530000  1.0 -0.0407839767
C  C314  1  0.77040000  0.51734000  0.14530000  1.0 -0.0407839767
C  C315  1  0.78830000  0.98458000  0.68610000  1.0 -0.0811209313
C  C316  1  0.78830000  0.51542000  0.18610000  1.0 -0.0811209313
C  C317  1  0.78700000  0.01282000  0.70500000  1.0 -0.2022485141
C  C318  1  0.78700000  0.48718000  0.20500000  1.0 -0.2101767712
C  C319  1  0.76570000  0.03970000  0.68240000  1.0 0.2314864094
C  C320  1  0.76570000  0.46030000  0.18240000  1.0 0.2314864094
C  C321  1  0.74650000  0.03762000  0.64140000  1.0 -0.2202806013
C  C322  1  0.74650000  0.46238000  0.14140000  1.0 -0.2202806013
C  C323  1  0.74850000  0.00971000  0.62310000  1.0 -0.0698805564
C  C324  1  0.74850000  0.49029000  0.12310000  1.0 -0.0698805564
C  C325  1  0.78130000  0.07619000  0.73750000  1.0 0.4429815164
C  C326  1  0.78130000  0.42381000  0.23750000  1.0 0.4429815164
C  C327  1  0.76520000  0.10898000  0.74710000  1.0 -0.0294554788
C  C328  1  0.76520000  0.39102000  0.24710000  1.0 -0.0195074247
C  C329  1  0.78720000  0.11517000  0.78860000  1.0 -0.1502384791
C  C330  1  0.78720000  0.38483000  0.28860000  1.0 -0.1502384791
C  C331  1  0.77687000  0.14478000  0.80107000  1.0 -0.0028813062
C  C332  1  0.77687000  0.35522000  0.30107000  1.0 -0.0028813062
C  C333  1  0.74350000  0.16845000  0.77340000  1.0 -0.1502384791
C  C334  1  0.74350000  0.33155000  0.27340000  1.0 -0.1502384791
C  C335  1  0.71830000  0.16231000  0.73300000  1.0 -0.0104596477
C  C336  1  0.71830000  0.33769000  0.23300000  1.0 -0.0104596477
C  C337  1  0.72900000  0.13254000  0.71960000  1.0 -0.1722513617
C  C338  1  0.72900000  0.36746000  0.21960000  1.0 -0.1783248199
C  C339  1  0.66666667  0.18521000  0.70120000  1.0 0.4509134812
C  C340  1  0.66666667  0.31479000  0.20120000  1.0 0.4509134812
C  C341  1  0.59970000  0.23832000  0.69080000  1.0 0.2094715139
C  C342  1  0.59970000  0.26168000  0.19080000  1.0 0.2094715139
C  C343  1  0.51700000  0.23462000  0.65980000  1.0 -0.1910502359
C  C344  1  0.51700000  0.26538000  0.15980000  1.0 -0.1910502359
C  C345  1  0.45140000  0.25886000  0.64300000  1.0 -0.133772085
C  C346  1  0.45140000  0.24114000  0.14300000  1.0 -0.133772085
C  C347  1  0.46930000  0.28620000  0.65680000  1.0 0.0383612192
C  C348  1  0.46930000  0.21380000  0.15680000  1.0 0.0383612192
C  C349  1  0.57850000  0.29390000  0.67590000  1.0 -0.1013540053
C  C350  1  0.57850000  0.20610000  0.17590000  1.0 -0.1013540053
C  C351  1  0.63930000  0.26920000  0.69360000  1.0 -0.0872436413
C  C352  1  0.63930000  0.23080000  0.19360000  1.0 -0.0872436413
C  C353  1  0.79340000  0.15188000  0.84440000  1.0 0.4693157398
C  C354  1  0.79340000  0.34812000  0.34440000  1.0 0.4693157398
C  C355  1  0.87430000  0.13295000  0.91380000  1.0 0.2393690398
C  C356  1  0.87430000  0.36705000  0.41380000  1.0 0.2393690398
C  C357  1  0.96080000  0.11808000  0.93630000  1.0 -0.1910502359
C  C358  1  0.96080000  0.38192000  0.43630000  1.0 -0.1910502359
C  C359  1  0.98790000  0.11831000  0.97800000  1.0 -0.0811209313
C  C360  1  0.98790000  0.38169000  0.47800000  1.0 -0.0811209313
C  C361  1  0.92950000  0.13296000  0.99640000  1.0 -0.0407839767
C  C362  1  0.92950000  0.36704000  0.49640000  1.0 -0.0407839767
C  C363  1  0.84270000  0.14810000  0.97360000  1.0 -0.0872436413
C  C364  1  0.84270000  0.35190000  0.47360000  1.0 -0.0872436413
C  C365  1  0.81410000  0.14830000  0.93190000  1.0 -0.1783248199
C  C366  1  0.81410000  0.35170000  0.43190000  1.0 -0.1783248199
C  C367  1  0.95660000  0.13261000  0.04100000  1.0 0.5924215964
C  C368  1  0.95660000  0.36739000  0.54100000  1.0 0.5924215964
C  C369  1  0.05030000  0.91770000  0.60780000  1.0 0.519811993
C  C370  1  0.05030000  0.58230000  0.10780000  1.0 0.519811993
C  C371  1  0.31460000  0.46090000  0.65320000  1.0 0.4693157398
C  C372  1  0.31460000  0.03910000  0.15320000  1.0 0.4693157398
C  C373  1  0.34340000  0.49260000  0.67050000  1.0 -0.0407839767
C  C374  1  0.34340000  0.00740000  0.17050000  1.0 -0.0407839767
C  C375  1  0.41390000  0.49660000  0.70850000  1.0 -0.0872436413
C  C376  1  0.41390000  0.00340000  0.20850000  1.0 -0.0872436413
C  C377  1  0.44390000  0.52560000  0.72340000  1.0 -0.2101767712
C  C378  1  0.44390000  0.97440000  0.22340000  1.0 -0.2101767712
C  C379  1  0.40280000  0.55106000  0.70070000  1.0 0.2393690398
C  C380  1  0.40280000  0.94894000  0.20070000  1.0 0.2393690398
C  C381  1  0.32820000  0.54766000  0.66430000  1.0 -0.1722513617
C  C382  1  0.32820000  0.95234000  0.16430000  1.0 -0.1722513617
C  C383  1  0.29850000  0.51832000  0.64970000  1.0 -0.0811209313
C  C384  1  0.29850000  0.98168000  0.14970000  1.0 -0.0811209313
C  C385  1  0.43790000  0.60674000  0.69800000  1.0 0.4509134812
C  C386  1  0.43790000  0.89326000  0.19800000  1.0 0.4509134812
C  C387  1  0.47530000  0.63525000  0.72280000  1.0 -0.0104596477
C  C388  1  0.47530000  0.86475000  0.22280000  1.0 -0.0104596477
C  C389  1  0.51880000  0.63547000  0.76460000  1.0 -0.1910502359
C  C390  1  0.51880000  0.86453000  0.26460000  1.0 -0.1910502359
C  C391  1  0.55639000  0.66291000  0.78409000  1.0 -0.0195074247
C  C392  1  0.55639000  0.83709000  0.28409000  1.0 -0.0195074247
C  C393  1  0.54660000  0.69052000  0.76290000  1.0 -0.1402874449
C  C394  1  0.54660000  0.80948000  0.26290000  1.0 -0.1402874449
C  C395  1  0.49780000  0.69076000  0.72170000  1.0 -0.0195074247
C  C396  1  0.49780000  0.80924000  0.22170000  1.0 -0.0195074247
C  C397  1  0.46620000  0.66299000  0.70190000  1.0 -0.1402874449
C  C398  1  0.46620000  0.83701000  0.20190000  1.0 -0.1402874449
C  C399  1  0.61783000  0.66241000  0.82723000  1.0 0.4612424987
C  C400  1  0.61783000  0.83759000  0.32723000  1.0 0.4612424987
C  C401  1  0.62030000  0.64145000  0.89290000  1.0 0.2314864094
C  C402  1  0.62030000  0.85855000  0.39290000  1.0 0.2314864094
C  C403  1  0.71890000  0.63043000  0.90670000  1.0 -0.1783248199
C  C404  1  0.71890000  0.86957000  0.40670000  1.0 -0.1783248199
C  C405  1  0.75910000  0.62201000  0.94690000  1.0 -0.0872436413
C  C406  1  0.75910000  0.87799000  0.44690000  1.0 -0.0872436413
C  C407  1  0.70160000  0.62401000  0.97240000  1.0 -0.0407839767
C  C408  1  0.70160000  0.87599000  0.47240000  1.0 -0.0407839767
C  C409  1  0.60440000  0.63510000  0.95760000  1.0 -0.0698805564
C  C410  1  0.60440000  0.86490000  0.45760000  1.0 -0.0698805564
C  C411  1  0.56310000  0.64400000  0.91770000  1.0 -0.2022485141
C  C412  1  0.56310000  0.85600000  0.41770000  1.0 -0.2022485141
C  C413  1  0.74530000  0.61492000  0.01520000  1.0 0.5775980106
C  C414  1  0.74530000  0.88508000  0.51520000  1.0 0.5775980106
C  C415  1  0.48080000  0.72143000  0.70090000  1.0 0.4509134812
C  C416  1  0.48080000  0.77857000  0.20090000  1.0 0.4509134812
C  C417  1  0.35110000  0.75009000  0.64770000  1.0 0.2393690398
C  C418  1  0.35110000  0.74991000  0.14770000  1.0 0.2393690398
C  C419  1  0.40330000  0.77756000  0.64940000  1.0 -0.1910502359
C  C420  1  0.40330000  0.72244000  0.14940000  1.0 -0.1910502359
C  C421  1  0.35330000  0.80302000  0.62810000  1.0 -0.0811209313
C  C422  1  0.35330000  0.69698000  0.12810000  1.0 -0.0811209313
C  C423  1  0.25260000  0.80217000  0.60560000  1.0 -0.0614271729
C  C424  1  0.25260000  0.69783000  0.10560000  1.0 -0.0614271729
C  C425  1  0.20260000  0.77418000  0.60390000  1.0 -0.0811209313
C  C426  1  0.20260000  0.72582000  0.10390000  1.0 -0.0811209313
C  C427  1  0.25000000  0.74826000  0.62430000  1.0 -0.1910502359
C  C428  1  0.25000000  0.75174000  0.12430000  1.0 -0.1910502359
C  C429  1  0.19730000  0.83017000  0.58490000  1.0 0.6026608697
C  C430  1  0.19730000  0.66983000  0.08490000  1.0 0.6026608697
C  C431  1  0.25760000  0.95340000  0.60730000  1.0 0.5397288552
C  C432  1  0.25760000  0.54660000  0.10730000  1.0 0.5397288552
C  C433  1  0.26680000  0.98054000  0.63480000  1.0 -0.0530767688
C  C434  1  0.26680000  0.51946000  0.13480000  1.0 -0.0530767688
C  C435  1  0.30390000  0.97621000  0.67550000  1.0 -0.0811209313
C  C436  1  0.30390000  0.52379000  0.17550000  1.0 -0.0811209313
C  C437  1  0.30930000  0.00018000  0.70160000  1.0 -0.2101767712
C  C438  1  0.30930000  0.49982000  0.20160000  1.0 -0.2101767712
C  C439  1  0.27800000  0.02983000  0.68660000  1.0 0.2314864094
C  C440  1  0.27800000  0.47017000  0.18660000  1.0 0.2314864094
C  C441  1  0.24400000  0.03490000  0.64620000  1.0 -0.2022485141
C  C442  1  0.24400000  0.46510000  0.14620000  1.0 -0.2022485141
C  C443  1  0.23760000  0.00970000  0.62040000  1.0 -0.0811209313
C  C444  1  0.23760000  0.49030000  0.12040000  1.0 -0.0811209313
C  C445  1  0.26810000  0.08370000  0.70840000  1.0 0.4509134812
C  C446  1  0.26810000  0.41630000  0.20840000  1.0 0.4509134812
C  C447  1  0.26880000  0.10357000  0.74330000  1.0 -0.0294554788
C  C448  1  0.26880000  0.39643000  0.24330000  1.0 -0.0294554788
C  C449  1  0.28670000  0.09301000  0.78270000  1.0 -0.1783248199
C  C450  1  0.28670000  0.40699000  0.28270000  1.0 -0.1783248199
C  C451  1  0.28930000  0.11348000  0.81280000  1.0 -0.0104596477
C  C452  1  0.28930000  0.38652000  0.31280000  1.0 -0.0104596477
C  C453  1  0.27450000  0.14491000  0.80520000  1.0 -0.1502384791
C  C454  1  0.27450000  0.35509000  0.30520000  1.0 -0.1502384791
C  C455  1  0.25440000  0.15552000  0.76600000  1.0 -0.0028813062
C  C456  1  0.25440000  0.34448000  0.26600000  1.0 -0.0028813062
C  C457  1  0.25080000  0.13485000  0.73570000  1.0 -0.133772085
C  C458  1  0.25080000  0.36515000  0.23570000  1.0 -0.133772085
C  C459  1  0.23030000  0.18949000  0.75900000  1.0 0.4612424987
C  C460  1  0.23030000  0.31051000  0.25900000  1.0 0.4612424987
C  C461  1  0.19250000  0.23130000  0.70980000  1.0 0.2314864094
C  C462  1  0.19250000  0.26870000  0.20980000  1.0 0.2314864094
C  C463  1  0.21000000  0.24180000  0.67720000  1.0 -0.1783248199
C  C464  1  0.21000000  0.25820000  0.17720000  1.0 -0.1783248199
C  C465  1  0.17800000  0.27060000  0.66110000  1.0 -0.0811209313
C  C466  1  0.17800000  0.22940000  0.16110000  1.0 -0.0811209313
C  C467  1  0.12700000  0.28930000  0.67790000  1.0 -0.0294554788
C  C468  1  0.12700000  0.21070000  0.17790000  1.0 -0.0294554788
C  C469  1  0.11060000  0.27940000  0.71240000  1.0 -0.0811209313
C  C470  1  0.11060000  0.22060000  0.21240000  1.0 -0.0811209313
C  C471  1  0.13860000  0.25030000  0.72660000  1.0 -0.1783248199
C  C472  1  0.13860000  0.24970000  0.22660000  1.0 -0.1783248199
C  C473  1  0.29540000  0.09984000  0.85270000  1.0 0.4509134812
C  C474  1  0.29540000  0.40016000  0.35270000  1.0 0.4509134812
C  C475  1  0.30170000  0.11421000  0.92200000  1.0 0.2314864094
C  C476  1  0.30170000  0.38579000  0.42200000  1.0 0.2314864094
C  C477  1  0.25350000  0.08902000  0.93050000  1.0 -0.1910502359
C  C478  1  0.25350000  0.41098000  0.43050000  1.0 -0.1910502359
C  C479  1  0.23900000  0.08680000  0.96790000  1.0 -0.0811209313
C  C480  1  0.23900000  0.41320000  0.46790000  1.0 -0.0811209313
C  C481  1  0.27270000  0.10925000  0.99630000  1.0 -0.0614271729
C  C482  1  0.27270000  0.39075000  0.49630000  1.0 -0.0614271729
C  C483  1  0.32370000  0.13420000  0.98800000  1.0 -0.0614271729
C  C484  1  0.32370000  0.36580000  0.48800000  1.0 -0.0614271729
C  C485  1  0.33730000  0.13700000  0.95080000  1.0 -0.2101767712
C  C486  1  0.33730000  0.36300000  0.45080000  1.0 -0.2101767712
C  C487  1  0.25060000  0.10730000  0.03460000  1.0 0.5775980106
C  C488  1  0.25060000  0.39270000  0.53460000  1.0 0.5775980106
C  C489  1  0.38070000  0.31160000  0.64690000  1.0 0.289985591
C  C490  1  0.38070000  0.18840000  0.14690000  1.0 0.289985591
C  C491  1  0.41460000  0.31440000  0.63460000  1.0 0.2801290894
C  C492  1  0.41460000  0.18560000  0.13460000  1.0 0.2801290894
C  C493  1  0.52320000  0.28710000  0.70220000  1.0 -0.0614271729
C  C494  1  0.52320000  0.21290000  0.20220000  1.0 -0.0614271729
C  C495  1  0.58770000  0.26310000  0.71810000  1.0 -0.1125123748
C  C496  1  0.58770000  0.23690000  0.21810000  1.0 -0.1125123748
N  N1  1  0.06760000  0.05257000  0.82740000  1.0 -0.3786265092
N  N2  1  0.06760000  0.44743000  0.32740000  1.0 -0.3786265092
N  N3  1  0.00414000  0.11546000  0.69104000  1.0 -0.3996128064
N  N4  1  0.00414000  0.38454000  0.19104000  1.0 -0.3996128064
N  N5  1  0.09103000  0.21490000  0.83383000  1.0 -0.3704053287
N  N6  1  0.09103000  0.28510000  0.33383000  1.0 -0.3704053287
N  N7  1  0.24030000  0.56906000  0.80150000  1.0 -0.3786265092
N  N8  1  0.24030000  0.93094000  0.30150000  1.0 -0.3786265092
N  N9  1  0.15160000  0.63119000  0.62860000  1.0 -0.3704053287
N  N10  1  0.15160000  0.86881000  0.12860000  1.0 -0.3704053287
N  N11  1  0.33320000  0.71491000  0.78830000  1.0 -0.3996128064
N  N12  1  0.33320000  0.78509000  0.28830000  1.0 -0.3996128064
N  N13  1  0.77728000  0.70085000  0.77718000  1.0 -0.3610845604
N  N14  1  0.77728000  0.79915000  0.27718000  1.0 -0.3610845604
N  N15  1  0.68528000  0.61980000  0.61568000  1.0 -0.3786265092
N  N16  1  0.68528000  0.88020000  0.11568000  1.0 -0.3786265092
N  N17  1  0.71933000  0.55309000  0.78483000  1.0 -0.3786265092
N  N18  1  0.71933000  0.94691000  0.28483000  1.0 -0.3786265092
N  N19  1  0.60588000  0.22358000  0.83008000  1.0 -0.3610845604
N  N20  1  0.60588000  0.27642000  0.33008000  1.0 -0.3610845604
N  N21  1  0.56380000  0.08030000  0.78140000  1.0 -0.3927540907
N  N22  1  0.56380000  0.41970000  0.28140000  1.0 -0.3927540907
N  N23  1  0.42503000  0.14818000  0.64833000  1.0 -0.3704053287
N  N24  1  0.42503000  0.35182000  0.14833000  1.0 -0.3704053287
N  N25  1  0.93240000  0.55257000  0.67260000  1.0 -0.3786265092
N  N26  1  0.93240000  0.94743000  0.17260000  1.0 -0.3786265092
N  N27  1  0.99586000  0.61546000  0.80896000  1.0 -0.3996128064
N  N28  1  0.99586000  0.88454000  0.30896000  1.0 -0.3927540907
N  N29  1  0.90897000  0.71490000  0.66617000  1.0 -0.3704053287
N  N30  1  0.90897000  0.78510000  0.16617000  1.0 -0.3704053287
N  N31  1  0.75970000  0.06906000  0.69850000  1.0 -0.3786265092
N  N32  1  0.75970000  0.43094000  0.19850000  1.0 -0.3786265092
N  N33  1  0.84840000  0.13119000  0.87140000  1.0 -0.3704053287
N  N34  1  0.84840000  0.36881000  0.37140000  1.0 -0.3704053287
N  N35  1  0.66680000  0.21491000  0.71170000  1.0 -0.3996128064
N  N36  1  0.66680000  0.28509000  0.21170000  1.0 -0.3996128064
N  N37  1  0.22272000  0.20085000  0.72282000  1.0 -0.3610845604
N  N38  1  0.22272000  0.29915000  0.22282000  1.0 -0.3610845604
N  N39  1  0.31472000  0.11980000  0.88432000  1.0 -0.3786265092
N  N40  1  0.31472000  0.38020000  0.38432000  1.0 -0.3786265092
N  N41  1  0.28067000  0.05309000  0.71517000  1.0 -0.3786265092
N  N42  1  0.28067000  0.44691000  0.21517000  1.0 -0.3786265092
N  N43  1  0.39412000  0.72358000  0.66992000  1.0 -0.3610845604
N  N44  1  0.39412000  0.77642000  0.16992000  1.0 -0.3610845604
N  N45  1  0.43620000  0.58030000  0.71860000  1.0 -0.3927540907
N  N46  1  0.43620000  0.91970000  0.21860000  1.0 -0.3927540907
N  N47  1  0.57497000  0.64818000  0.85167000  1.0 -0.3704053287
N  N48  1  0.57497000  0.85182000  0.35167000  1.0 -0.3704053287
O  O1  1  0.68140000  0.80802000  0.88450000  1.0 -0.3522469947
O  O2  1  0.68140000  0.69198000  0.38450000  1.0 -0.3522469947
O  O3  1  0.10899000  0.64025000  0.44399000  1.0 -0.5196149663
O  O4  1  0.10899000  0.85975000  0.94399000  1.0 -0.5196149663
O  O5  1  0.72310000  0.63068000  0.44140000  1.0 -0.590068375
O  O6  1  0.72310000  0.86932000  0.94140000  1.0 -0.590068375
O  O7  1  0.95317000  0.62431000  0.43817000  1.0 -0.6440795907
O  O8  1  0.95317000  0.87569000  0.93817000  1.0 -0.6440795907
O  O9  1  0.78833000  0.58364000  0.45723000  1.0 -0.5291509063
O  O10  1  0.78833000  0.91636000  0.95723000  1.0 -0.5291509063
O  O11  1  0.77166000  0.88139000  0.86666000  1.0 -0.8997982541
O  O12  1  0.77166000  0.61861000  0.36666000  1.0 -0.8997982541
O  O13  1  0.92208000  0.82538000  0.87528000  1.0 -0.5291509063
O  O14  1  0.92208000  0.67462000  0.37528000  1.0 -0.5196149663
O  O15  1  0.95520000  0.83734000  0.82270000  1.0 -0.4785761652
O  O16  1  0.95520000  0.66266000  0.32270000  1.0 -0.4785761652
O  O17  1  0.11450000  0.90981000  0.86800000  1.0 -0.5291509063
O  O18  1  0.11450000  0.59019000  0.36800000  1.0 -0.5291509063
O  O19  1  0.95775000  0.91425000  0.86515000  1.0 -0.5576372513
O  O20  1  0.95775000  0.58575000  0.36515000  1.0 -0.5576372513
O  O21  1  0.76020000  0.95853000  0.87640000  1.0 -0.4399302477
O  O22  1  0.76020000  0.54147000  0.37640000  1.0 -0.4399302477
O  O23  1  0.64300000  0.93780000  0.82090000  1.0 -0.1783248199
O  O24  1  0.64300000  0.56220000  0.32090000  1.0 -0.1783248199
O  O25  1  0.96824000  0.07643000  0.85844000  1.0 -0.4785761652
O  O26  1  0.96824000  0.42357000  0.35844000  1.0 -0.4785761652
O  O27  1  0.99910000  0.19226000  0.86930000  1.0 -0.4602526773
O  O28  1  0.99910000  0.30774000  0.36930000  1.0 -0.4602526773
O  O29  1  0.99175000  0.16690000  0.69905000  1.0 -0.4528645375
O  O30  1  0.99175000  0.33310000  0.19905000  1.0 -0.4528645375
O  O31  1  0.98957000  0.13311000  0.50957000  1.0 -0.590068375
O  O32  1  0.98957000  0.36689000  0.00957000  1.0 -0.590068375
O  O33  1  0.86916000  0.09697000  0.50276000  1.0 -0.5576372513
O  O34  1  0.86916000  0.40303000  0.00276000  1.0 -0.5576372513
O  O35  1  0.07957000  0.35219000  0.89907000  1.0 -0.6015098342
O  O36  1  0.07957000  0.14781000  0.39907000  1.0 -0.6015098342
O  O37  1  0.20640000  0.35549000  0.87610000  1.0 -0.4942771891
O  O38  1  0.20640000  0.14451000  0.37610000  1.0 -0.4942771891
O  O39  1  0.02250000  0.42090000  0.88260000  1.0 -0.3996128064
O  O40  1  0.02250000  0.07910000  0.38260000  1.0 -0.3996128064
O  O41  1  0.93251000  0.40137000  0.91991000  1.0 -0.590068375
O  O42  1  0.93251000  0.09863000  0.41991000  1.0 -0.590068375
O  O43  1  0.20290000  0.42881000  0.85280000  1.0 -0.5196149663
O  O44  1  0.20290000  0.07119000  0.35280000  1.0 -0.5196149663
O  O45  1  0.23300000  0.45211000  0.91060000  1.0 -0.551626713
O  O46  1  0.23300000  0.04789000  0.41060000  1.0 -0.551626713
O  O47  1  0.18556000  0.55747000  0.73556000  1.0 -0.4528645375
O  O48  1  0.18556000  0.94253000  0.23556000  1.0 -0.4528645375
O  O49  1  0.37985000  0.67606000  0.83305000  1.0 -0.5106531927
O  O50  1  0.37985000  0.82394000  0.33305000  1.0 -0.5106531927
O  O51  1  0.24460000  0.67538000  0.64610000  1.0 -0.5106531927
O  O52  1  0.24460000  0.82462000  0.14610000  1.0 -0.5106531927
O  O53  1  0.72024000  0.57237000  0.64444000  1.0 -0.4785761652
O  O54  1  0.72024000  0.92763000  0.14444000  1.0 -0.4785761652
O  O55  1  0.78285000  0.70534000  0.71405000  1.0 -0.497420137
O  O56  1  0.78285000  0.79466000  0.21405000  1.0 -0.497420137
O  O57  1  0.74351000  0.59559000  0.82361000  1.0 -0.4399302477
O  O58  1  0.74351000  0.90441000  0.32361000  1.0 -0.4399302477
O  O59  1  0.78640000  0.45716000  0.92960000  1.0 -0.551626713
O  O60  1  0.78640000  0.04284000  0.42960000  1.0 -0.551626713
O  O61  1  0.71050000  0.42756000  0.87820000  1.0 -0.551626713
O  O62  1  0.71050000  0.07244000  0.37820000  1.0 -0.5576372513
O  O63  1  0.75000000  0.35381000  0.91560000  1.0 -0.5797341415
O  O64  1  0.75000000  0.14619000  0.41560000  1.0 -0.5797341415
O  O65  1  0.89699000  0.32771000  0.92969000  1.0 -0.5695068636
O  O66  1  0.89699000  0.17229000  0.42969000  1.0 -0.5695068636
O  O67  1  0.45927000  0.24263000  0.78717000  1.0 -0.4602526773
O  O68  1  0.45927000  0.25737000  0.28717000  1.0 -0.4602526773
O  O69  1  0.29661000  0.17345000  0.66131000  1.0 -0.4785761652
O  O70  1  0.29661000  0.32655000  0.16131000  1.0 -0.4785761652
O  O71  1  0.31123000  0.11446000  0.46343000  1.0 -0.5106531927
O  O72  1  0.31123000  0.38554000  0.96343000  1.0 -0.5106531927
O  O73  1  0.16200000  0.10682000  0.47120000  1.0 -0.6099683293
O  O74  1  0.16200000  0.39318000  0.97120000  1.0 -0.6099683293
O  O75  1  0.59141000  0.10840000  0.83851000  1.0 -0.4602526773
O  O76  1  0.59141000  0.39160000  0.33851000  1.0 -0.4602526773
O  O77  1  0.60140000  0.83600000  0.82880000  1.0 -0.2502801346
O  O78  1  0.60140000  0.66400000  0.32880000  1.0 -0.2502801346
O  O79  1  0.55650000  0.84170000  0.85940000  1.0 -0.2446895489
O  O80  1  0.55650000  0.65830000  0.35940000  1.0 -0.2502801346
O  O81  1  0.61610000  0.94060000  0.84580000  1.0 -0.1584428498
O  O82  1  0.61610000  0.55940000  0.34580000  1.0 -0.1584428498
O  O83  1  0.31860000  0.30802000  0.61550000  1.0 -0.3522469947
O  O84  1  0.31860000  0.19198000  0.11550000  1.0 -0.3522469947
O  O85  1  0.89101000  0.14025000  0.05601000  1.0 -0.5196149663
O  O86  1  0.89101000  0.35975000  0.55601000  1.0 -0.5196149663
O  O87  1  0.27690000  0.13068000  0.05860000  1.0 -0.590068375
O  O88  1  0.27690000  0.36932000  0.55860000  1.0 -0.590068375
O  O89  1  0.04683000  0.12431000  0.06183000  1.0 -0.6440795907
O  O90  1  0.04683000  0.37569000  0.56183000  1.0 -0.6440795907
O  O91  1  0.21167000  0.08364000  0.04277000  1.0 -0.5291509063
O  O92  1  0.21167000  0.41636000  0.54277000  1.0 -0.5291509063
O  O93  1  0.22834000  0.38139000  0.63334000  1.0 -0.8997982541
O  O94  1  0.22834000  0.11861000  0.13334000  1.0 -0.8997982541
O  O95  1  0.07792000  0.32538000  0.62472000  1.0 -0.5291509063
O  O96  1  0.07792000  0.17462000  0.12472000  1.0 -0.5291509063
O  O97  1  0.04480000  0.33734000  0.67730000  1.0 -0.4785761652
O  O98  1  0.04480000  0.16266000  0.17730000  1.0 -0.4785761652
O  O99  1  0.88550000  0.40981000  0.63200000  1.0 -0.5291509063
O  O100  1  0.88550000  0.09019000  0.13200000  1.0 -0.5291509063
O  O101  1  0.04225000  0.41425000  0.63485000  1.0 -0.5576372513
O  O102  1  0.04225000  0.08575000  0.13485000  1.0 -0.5576372513
O  O103  1  0.23980000  0.45853000  0.62360000  1.0 -0.4399302477
O  O104  1  0.23980000  0.04147000  0.12360000  1.0 -0.4399302477
O  O105  1  0.35700000  0.43780000  0.67910000  1.0 -0.1783248199
O  O106  1  0.35700000  0.06220000  0.17910000  1.0 -0.1783248199
O  O107  1  0.03176000  0.57643000  0.64156000  1.0 -0.4785761652
O  O108  1  0.03176000  0.92357000  0.14156000  1.0 -0.4785761652
O  O109  1  0.00090000  0.69226000  0.63070000  1.0 -0.4602526773
O  O110  1  0.00090000  0.80774000  0.13070000  1.0 -0.4602526773
O  O111  1  0.00825000  0.66690000  0.80095000  1.0 -0.4528645375
O  O112  1  0.00825000  0.83310000  0.30095000  1.0 -0.4528645375
O  O113  1  0.01043000  0.63311000  0.99043000  1.0 -0.590068375
O  O114  1  0.01043000  0.86689000  0.49043000  1.0 -0.590068375
O  O115  1  0.13084000  0.59697000  0.99724000  1.0 -0.5576372513
O  O116  1  0.13084000  0.90303000  0.49724000  1.0 -0.5576372513
O  O117  1  0.92043000  0.85219000  0.60093000  1.0 -0.6015098342
O  O118  1  0.92043000  0.64781000  0.10093000  1.0 -0.6015098342
O  O119  1  0.79360000  0.85549000  0.62390000  1.0 -0.497420137
O  O120  1  0.79360000  0.64451000  0.12390000  1.0 -0.497420137
O  O121  1  0.97750000  0.92090000  0.61740000  1.0 -0.3996128064
O  O122  1  0.97750000  0.57910000  0.11740000  1.0 -0.3996128064
O  O123  1  0.06749000  0.90137000  0.58009000  1.0 -0.590068375
O  O124  1  0.06749000  0.59863000  0.08009000  1.0 -0.590068375
O  O125  1  0.79710000  0.92881000  0.64720000  1.0 -0.5196149663
O  O126  1  0.79710000  0.57119000  0.14720000  1.0 -0.5196149663
O  O127  1  0.76700000  0.95211000  0.58940000  1.0 -0.551626713
O  O128  1  0.76700000  0.54789000  0.08940000  1.0 -0.551626713
O  O129  1  0.81444000  0.05747000  0.76444000  1.0 -0.4528645375
O  O130  1  0.81444000  0.44253000  0.26444000  1.0 -0.4528645375
O  O131  1  0.62015000  0.17606000  0.66695000  1.0 -0.5106531927
O  O132  1  0.62015000  0.32394000  0.16695000  1.0 -0.5106531927
O  O133  1  0.75540000  0.17538000  0.85390000  1.0 -0.5106531927
O  O134  1  0.75540000  0.32462000  0.35390000  1.0 -0.5106531927
O  O135  1  0.27976000  0.07237000  0.85556000  1.0 -0.4785761652
O  O136  1  0.27976000  0.42763000  0.35556000  1.0 -0.4785761652
O  O137  1  0.21715000  0.20534000  0.78595000  1.0 -0.497420137
O  O138  1  0.21715000  0.29466000  0.28595000  1.0 -0.497420137
O  O139  1  0.25649000  0.09559000  0.67639000  1.0 -0.4399302477
O  O140  1  0.25649000  0.40441000  0.17639000  1.0 -0.4399302477
O  O141  1  0.21360000  0.95716000  0.57040000  1.0 -0.551626713
O  O142  1  0.21360000  0.54284000  0.07040000  1.0 -0.551626713
O  O143  1  0.28950000  0.92756000  0.62180000  1.0 -0.551626713
O  O144  1  0.28950000  0.57244000  0.12180000  1.0 -0.5576372513
O  O145  1  0.25000000  0.85381000  0.58440000  1.0 -0.5797341415
O  O146  1  0.25000000  0.64619000  0.08440000  1.0 -0.5797341415
O  O147  1  0.10301000  0.82771000  0.57031000  1.0 -0.5695068636
O  O148  1  0.10301000  0.67229000  0.07031000  1.0 -0.5695068636
O  O149  1  0.54073000  0.74263000  0.71283000  1.0 -0.4602526773
O  O150  1  0.54073000  0.75737000  0.21283000  1.0 -0.4602526773
O  O151  1  0.70339000  0.67345000  0.83869000  1.0 -0.4785761652
O  O152  1  0.70339000  0.82655000  0.33869000  1.0 -0.4785761652
O  O153  1  0.68877000  0.61446000  0.03657000  1.0 -0.5106531927
O  O154  1  0.68877000  0.88554000  0.53657000  1.0 -0.5106531927
O  O155  1  0.83800000  0.60682000  0.02880000  1.0 -0.6099683293
O  O156  1  0.83800000  0.89318000  0.52880000  1.0 -0.6099683293
O  O157  1  0.40859000  0.60840000  0.66149000  1.0 -0.4602526773
O  O158  1  0.40859000  0.89160000  0.16149000  1.0 -0.4602526773
O  O159  1  0.39860000  0.33600000  0.67120000  1.0 -0.2502801346
O  O160  1  0.39860000  0.16400000  0.17120000  1.0 -0.2502801346
O  O161  1  0.44350000  0.34170000  0.64060000  1.0 -0.2502801346
O  O162  1  0.44350000  0.15830000  0.14060000  1.0 -0.2502801346
O  O163  1  0.38390000  0.44060000  0.65420000  1.0 -0.1584428498
O  O164  1  0.38390000  0.05940000  0.15420000  1.0 -0.1584428498
