# DDEC6 charges by PACMAN v1.1 (https://github.com/mtap-research/PACMAN-charge/)
data_CIMLET_ASR_pacman
_symmetry_space_group_name_H-M   'P 1'
_cell_length_a   14.52210000
_cell_length_b   42.77540000
_cell_length_c   36.12250000
_cell_angle_alpha   90.00000000
_cell_angle_beta   110.23100000
_cell_angle_gamma   90.00000000
_symmetry_Int_Tables_number   1
_chemical_formula_structural   Cd8H73C121(N3O10)4
_chemical_formula_sum   'Cd32 H292 C484 N48 O160'
_cell_volume   21054.54322243
_cell_formula_units_Z   4
loop_
 _symmetry_equiv_pos_site_id
 _symmetry_equiv_pos_as_xyz
  1  'x, y, z'
loop_
 _atom_site_type_symbol
 _atom_site_label
 _atom_site_symmetry_multiplicity
 _atom_site_fract_x
 _atom_site_fract_y
 _atom_site_fract_z
 _atom_site_occupancy
 _atom_site_charge
Cd  Cd1  1  0.32362000  0.34148000  0.91568000  1.0 1.0607760183
Cd  Cd2  1  0.32362000  0.15852000  0.41568000  1.0 1.0607760183
Cd  Cd3  1  0.37029000  0.42081000  0.91593000  1.0 1.0607760183
Cd  Cd4  1  0.37029000  0.07919000  0.41593000  1.0 1.0607760183
Cd  Cd5  1  0.12378000  0.39148000  0.87685000  1.0 0.5056966774
Cd  Cd6  1  0.12378000  0.10852000  0.37685000  1.0 0.5056966774
Cd  Cd7  1  0.50579000  0.86163000  0.95309000  1.0 1.0994973712
Cd  Cd8  1  0.50579000  0.63837000  0.45309000  1.0 1.0994973712
Cd  Cd9  1  0.55525000  0.13325000  0.38909000  1.0 1.0341179006
Cd  Cd10  1  0.55525000  0.36675000  0.88909000  1.0 1.0341179006
Cd  Cd11  1  0.65904000  0.90288000  0.91076000  1.0 1.0132169656
Cd  Cd12  1  0.65904000  0.59712000  0.41076000  1.0 1.0132169656
Cd  Cd13  1  0.27519000  0.90339000  0.93617000  1.0 1.051740431
Cd  Cd14  1  0.27519000  0.59661000  0.43617000  1.0 1.051740431
Cd  Cd15  1  0.13208000  0.38757000  0.84308000  1.0 0.7429678473
Cd  Cd16  1  0.13208000  0.11243000  0.34308000  1.0 0.7429678473
Cd  Cd17  1  0.67638000  0.84148000  0.58432000  1.0 1.0607760183
Cd  Cd18  1  0.67638000  0.65852000  0.08432000  1.0 1.0607760183
Cd  Cd19  1  0.62971000  0.92081000  0.58407000  1.0 1.0607760183
Cd  Cd20  1  0.62971000  0.57919000  0.08407000  1.0 1.0607760183
Cd  Cd21  1  0.87622000  0.89148000  0.62315000  1.0 0.5006084673
Cd  Cd22  1  0.87622000  0.60852000  0.12315000  1.0 0.5056966774
Cd  Cd23  1  0.49421000  0.36163000  0.54691000  1.0 1.0994973712
Cd  Cd24  1  0.49421000  0.13837000  0.04691000  1.0 1.0994973712
Cd  Cd25  1  0.44475000  0.63325000  0.11091000  1.0 1.0341179006
Cd  Cd26  1  0.44475000  0.86675000  0.61091000  1.0 1.0341179006
Cd  Cd27  1  0.34096000  0.40288000  0.58924000  1.0 1.0132169656
Cd  Cd28  1  0.34096000  0.09712000  0.08924000  1.0 1.0132169656
Cd  Cd29  1  0.72481000  0.40339000  0.56383000  1.0 1.051740431
Cd  Cd30  1  0.72481000  0.09661000  0.06383000  1.0 1.051740431
Cd  Cd31  1  0.86792000  0.88757000  0.65692000  1.0 0.7468812697
Cd  Cd32  1  0.86792000  0.61243000  0.15692000  1.0 0.7429678473
H  H1  1  0.64080000  0.11452000  0.64500000  1.0 0.2807774782
H  H2  1  0.64080000  0.38548000  0.14500000  1.0 0.2807774782
H  H3  1  0.57004000  0.94445000  0.30200000  1.0 0.2883745812
H  H4  1  0.57004000  0.55555000  0.80200000  1.0 0.2883745812
H  H5  1  0.13662000  0.70691000  0.83211000  1.0 0.2807774782
H  H6  1  0.13662000  0.79309000  0.33211000  1.0 0.2807774782
H  H7  1  0.82182000  0.21922000  0.76973000  1.0 0.2807774782
H  H8  1  0.82182000  0.28078000  0.26973000  1.0 0.2807774782
H  H9  1  0.77603000  0.08410000  0.82265000  1.0 0.2807774782
H  H10  1  0.77603000  0.41590000  0.32265000  1.0 0.2807774782
H  H11  1  0.59264000  0.78522000  0.30844000  1.0 0.2807774782
H  H12  1  0.59264000  0.71478000  0.80844000  1.0 0.2807774782
H  H13  1  0.03217000  0.57737000  0.76152000  1.0 0.2807774782
H  H14  1  0.03217000  0.92263000  0.26152000  1.0 0.2807774782
H  H15  1  0.20133000  0.35850000  0.12415000  1.0 0.2807774782
H  H16  1  0.20133000  0.14150000  0.62415000  1.0 0.2807774782
H  H17  1  0.49551000  0.90195000  0.19885000  1.0 0.2807774782
H  H18  1  0.49551000  0.59805000  0.69885000  1.0 0.2807774782
H  H19  1  0.22345000  0.45238000  0.25849000  1.0 0.2807774782
H  H20  1  0.22345000  0.04762000  0.75849000  1.0 0.2807774782
H  H21  1  0.96100000  0.63333000  0.66385000  1.0 0.2883745812
H  H22  1  0.96100000  0.86667000  0.16385000  1.0 0.2883745812
H  H23  1  0.26860000  0.30894000  0.29263000  1.0 0.2807774782
H  H24  1  0.26860000  0.19106000  0.79263000  1.0 0.2807774782
H  H25  1  0.27523000  0.72966000  0.87365000  1.0 0.1376451121
H  H26  1  0.27523000  0.77034000  0.37365000  1.0 0.1376451121
H  H27  1  0.05999000  0.66360000  0.82586000  1.0 0.1195494195
H  H28  1  0.05999000  0.83640000  0.32586000  1.0 0.1195494195
H  H29  1  0.38809000  0.93704000  0.88595000  1.0 0.1124131967
H  H30  1  0.38809000  0.56296000  0.38595000  1.0 0.1124131967
H  H31  1  0.49535000  0.90951000  0.25437000  1.0 0.1124131967
H  H32  1  0.49535000  0.59049000  0.75437000  1.0 0.1124131967
H  H33  1  0.46804000  0.75280000  0.36658000  1.0 0.1281228115
H  H34  1  0.46804000  0.74720000  0.86658000  1.0 0.1281228115
H  H35  1  0.32358000  0.22408000  0.36894000  1.0 0.1195494195
H  H36  1  0.32358000  0.27592000  0.86894000  1.0 0.1195494195
H  H37  1  0.78812000  0.18800000  0.72355000  1.0 0.1195494195
H  H38  1  0.78812000  0.31200000  0.22355000  1.0 0.1195494195
H  H39  1  0.26509000  0.27118000  0.33755000  1.0 0.1376451121
H  H40  1  0.26509000  0.22882000  0.83755000  1.0 0.1376451121
H  H41  1  0.78656000  0.05672000  0.87839000  1.0 0.1195494195
H  H42  1  0.78656000  0.44328000  0.37839000  1.0 0.1195494195
H  H43  1  0.71294000  0.68997000  0.34825000  1.0 0.1195494195
H  H44  1  0.71294000  0.81003000  0.84825000  1.0 0.1195494195
H  H45  1  0.52864000  0.84836000  0.07667000  1.0 0.1281228115
H  H46  1  0.52864000  0.65164000  0.57667000  1.0 0.1281228115
H  H47  1  0.28505000  0.44443000  0.36151000  1.0 0.146244143
H  H48  1  0.28505000  0.05557000  0.86151000  1.0 0.146244143
H  H49  1  0.70789000  0.09755000  0.69870000  1.0 0.1195494195
H  H50  1  0.70789000  0.40245000  0.19870000  1.0 0.1195494195
H  H51  1  0.45243000  0.11229000  0.51533000  1.0 0.1124131967
H  H52  1  0.45243000  0.38771000  0.01533000  1.0 0.1124131967
H  H53  1  0.02754000  0.78102000  0.82809000  1.0 0.1376451121
H  H54  1  0.02754000  0.71898000  0.32809000  1.0 0.1376451121
H  H55  1  0.37396000  0.24969000  0.25197000  1.0 0.1281228115
H  H56  1  0.37396000  0.25031000  0.75197000  1.0 0.1281228115
H  H57  1  0.70046000  0.01219000  0.77293000  1.0 0.146244143
H  H58  1  0.70046000  0.48781000  0.27293000  1.0 0.146244143
H  H59  1  0.42945000  0.20190000  0.28321000  1.0 0.1195494195
H  H60  1  0.42945000  0.29810000  0.78321000  1.0 0.1195494195
H  H61  1  0.50176000  0.81479000  0.25888000  1.0 0.1195494195
H  H62  1  0.50176000  0.68521000  0.75888000  1.0 0.1195494195
H  H63  1  0.95951000  0.61287000  0.72521000  1.0 0.1195494195
H  H64  1  0.95951000  0.88713000  0.22521000  1.0 0.1195494195
H  H65  1  0.14397000  0.25210000  0.87936000  1.0 0.1281228115
H  H66  1  0.14397000  0.24790000  0.37936000  1.0 0.1281228115
H  H67  1  0.49024000  0.70128000  0.38995000  1.0 0.1195494195
H  H68  1  0.49024000  0.79872000  0.88995000  1.0 0.1195494195
H  H69  1  0.81987000  0.12629000  0.81240000  1.0 0.1195494195
H  H70  1  0.81987000  0.37371000  0.31240000  1.0 0.1195494195
H  H71  1  0.35835000  0.92489000  0.06656000  1.0 0.1281228115
H  H72  1  0.35835000  0.57511000  0.56656000  1.0 0.1281228115
H  H73  1  0.91288000  0.62769000  0.53226000  1.0 0.1195494195
H  H74  1  0.91288000  0.87231000  0.03226000  1.0 0.1195494195
H  H75  1  0.27733000  0.52048000  0.87949000  1.0 0.1281228115
H  H76  1  0.27733000  0.97952000  0.37949000  1.0 0.1281228115
H  H77  1  0.64891000  0.61607000  0.54417000  1.0 0.1195494195
H  H78  1  0.64891000  0.88393000  0.04417000  1.0 0.1195494195
H  H79  1  0.83500000  0.27274000  0.78846000  1.0 0.1281228115
H  H80  1  0.83500000  0.22726000  0.28846000  1.0 0.1281228115
H  H81  1  0.27818000  0.35582000  0.29073000  1.0 0.1195494195
H  H82  1  0.27818000  0.14418000  0.79073000  1.0 0.1195494195
H  H83  1  0.91370000  0.70686000  0.72266000  1.0 0.1281228115
H  H84  1  0.91370000  0.79314000  0.22266000  1.0 0.1281228115
H  H85  1  0.68397000  0.98409000  0.34878000  1.0 0.1376451121
H  H86  1  0.68397000  0.51591000  0.84878000  1.0 0.1376451121
H  H87  1  0.68346000  0.03589000  0.36959000  1.0 0.1124131967
H  H88  1  0.68346000  0.46411000  0.86959000  1.0 0.1124131967
H  H89  1  0.68261000  0.96612000  0.80477000  1.0 0.1281228115
H  H90  1  0.68261000  0.53388000  0.30477000  1.0 0.1281228115
H  H91  1  0.52562000  0.86471000  0.35695000  1.0 0.1195494195
H  H92  1  0.52562000  0.63529000  0.85695000  1.0 0.1195494195
H  H93  1  0.75658000  0.15411000  0.59050000  1.0 0.1376451121
H  H94  1  0.75658000  0.34589000  0.09050000  1.0 0.1376451121
H  H95  1  0.03964000  0.21118000  0.85022000  1.0 0.1281228115
H  H96  1  0.03964000  0.28882000  0.35022000  1.0 0.1281228115
H  H97  1  0.17069000  0.50199000  0.26777000  1.0 0.1281228115
H  H98  1  0.17069000  0.99801000  0.76777000  1.0 0.1281228115
H  H99  1  0.93893000  0.31400000  0.81957000  1.0 0.1281228115
H  H100  1  0.93893000  0.18600000  0.31957000  1.0 0.1281228115
H  H101  1  0.55682000  0.84610000  0.14429000  1.0 0.1376451121
H  H102  1  0.55682000  0.65390000  0.64429000  1.0 0.1376451121
H  H103  1  0.10737000  0.82369000  0.86570000  1.0 0.1195494195
H  H104  1  0.10737000  0.67631000  0.36570000  1.0 0.1195494195
H  H105  1  0.28374000  0.48576000  0.40329000  1.0 0.1281228115
H  H106  1  0.28374000  0.01424000  0.90329000  1.0 0.1281228115
H  H107  1  0.35620000  0.77309000  0.90976000  1.0 0.1195494195
H  H108  1  0.35620000  0.72691000  0.40976000  1.0 0.1195494195
H  H109  1  0.16594000  0.54235000  0.30978000  1.0 0.1281228115
H  H110  1  0.16594000  0.95765000  0.80978000  1.0 0.1281228115
H  H111  1  0.30927000  0.42332000  0.09525000  1.0 0.1281228115
H  H112  1  0.30927000  0.07668000  0.59525000  1.0 0.1281228115
H  H113  1  0.70667000  0.15377000  0.52165000  1.0 0.1195494195
H  H114  1  0.70667000  0.34623000  0.02165000  1.0 0.1195494195
H  H115  1  0.32372000  0.42819000  0.03332000  1.0 0.1281228115
H  H116  1  0.32372000  0.07181000  0.53332000  1.0 0.1281228115
H  H117  1  0.03193000  0.47740000  0.81166000  1.0 0.1281228115
H  H118  1  0.03193000  0.02260000  0.31166000  1.0 0.1281228115
H  H119  1  0.17132000  0.34836000  0.99792000  1.0 0.1281228115
H  H120  1  0.17132000  0.15164000  0.49792000  1.0 0.1281228115
H  H121  1  0.15590000  0.34309000  0.05924000  1.0 0.1281228115
H  H122  1  0.15590000  0.15691000  0.55924000  1.0 0.1281228115
H  H123  1  0.71718000  0.62820000  0.61150000  1.0 0.1281228115
H  H124  1  0.71718000  0.87180000  0.11150000  1.0 0.1281228115
H  H125  1  0.98323000  0.63986000  0.59947000  1.0 0.1376451121
H  H126  1  0.98323000  0.86014000  0.09947000  1.0 0.1376451121
H  H127  1  0.50303000  0.11127000  0.58374000  1.0 0.1281228115
H  H128  1  0.50303000  0.38873000  0.08374000  1.0 0.1281228115
H  H129  1  0.39324000  0.03005000  0.34911000  1.0 0.1281228115
H  H130  1  0.39324000  0.46995000  0.84911000  1.0 0.1281228115
H  H131  1  0.97957000  0.52371000  0.77571000  1.0 0.1195494195
H  H132  1  0.97957000  0.97629000  0.27571000  1.0 0.1195494195
H  H133  1  0.39153000  0.97857000  0.32580000  1.0 0.1376451121
H  H134  1  0.39153000  0.52143000  0.82580000  1.0 0.1376451121
H  H135  1  0.21989000  0.56775000  0.84762000  1.0 0.1281228115
H  H136  1  0.21989000  0.93225000  0.34762000  1.0 0.1281228115
H  H137  1  0.69158000  0.74107000  0.32473000  1.0 0.1376451121
H  H138  1  0.69158000  0.75893000  0.82473000  1.0 0.1376451121
H  H139  1  0.23155000  0.42741000  0.21283000  1.0 0.1195494195
H  H140  1  0.23155000  0.07259000  0.71283000  1.0 0.1195494195
H  H141  1  0.76416000  0.01097000  0.90903000  1.0 0.1281228115
H  H142  1  0.76416000  0.48903000  0.40903000  1.0 0.1281228115
H  H143  1  0.38745000  0.92288000  0.13444000  1.0 0.1195494195
H  H144  1  0.38745000  0.57712000  0.63444000  1.0 0.1195494195
H  H145  1  0.24911000  0.33829000  0.17710000  1.0 0.1195494195
H  H146  1  0.24911000  0.16171000  0.67710000  1.0 0.1195494195
H  H147  1  0.35920000  0.61452000  0.85500000  1.0 0.2807774782
H  H148  1  0.35920000  0.88548000  0.35500000  1.0 0.2807774782
H  H149  1  0.42996000  0.44445000  0.19800000  1.0 0.2883745812
H  H150  1  0.42996000  0.05555000  0.69800000  1.0 0.2883745812
H  H151  1  0.86338000  0.20691000  0.66789000  1.0 0.2807774782
H  H152  1  0.86338000  0.29309000  0.16789000  1.0 0.2807774782
H  H153  1  0.17818000  0.71922000  0.73027000  1.0 0.2807774782
H  H154  1  0.17818000  0.78078000  0.23027000  1.0 0.2807774782
H  H155  1  0.22397000  0.58410000  0.67735000  1.0 0.2807774782
H  H156  1  0.22397000  0.91590000  0.17735000  1.0 0.2807774782
H  H157  1  0.40736000  0.28522000  0.19156000  1.0 0.2807774782
H  H158  1  0.40736000  0.21478000  0.69156000  1.0 0.2807774782
H  H159  1  0.96783000  0.07737000  0.73848000  1.0 0.2807774782
H  H160  1  0.96783000  0.42263000  0.23848000  1.0 0.2807774782
H  H161  1  0.79867000  0.85850000  0.37585000  1.0 0.2807774782
H  H162  1  0.79867000  0.64150000  0.87585000  1.0 0.2807774782
H  H163  1  0.50449000  0.40195000  0.30115000  1.0 0.2807774782
H  H164  1  0.50449000  0.09805000  0.80115000  1.0 0.2807774782
H  H165  1  0.77655000  0.95238000  0.24151000  1.0 0.2807774782
H  H166  1  0.77655000  0.54762000  0.74151000  1.0 0.2807774782
H  H167  1  0.03900000  0.13333000  0.83615000  1.0 0.2883745812
H  H168  1  0.03900000  0.36667000  0.33615000  1.0 0.2883745812
H  H169  1  0.73140000  0.80894000  0.20737000  1.0 0.2807774782
H  H170  1  0.73140000  0.69106000  0.70737000  1.0 0.2807774782
H  H171  1  0.72477000  0.22966000  0.62635000  1.0 0.1376451121
H  H172  1  0.72477000  0.27034000  0.12635000  1.0 0.1376451121
H  H173  1  0.94001000  0.16360000  0.67414000  1.0 0.1195494195
H  H174  1  0.94001000  0.33640000  0.17414000  1.0 0.1195494195
H  H175  1  0.61191000  0.43704000  0.61405000  1.0 0.1124131967
H  H176  1  0.61191000  0.06296000  0.11405000  1.0 0.1124131967
H  H177  1  0.50465000  0.40951000  0.24563000  1.0 0.1124131967
H  H178  1  0.50465000  0.09049000  0.74563000  1.0 0.1124131967
H  H179  1  0.53196000  0.25280000  0.13342000  1.0 0.1281228115
H  H180  1  0.53196000  0.24720000  0.63342000  1.0 0.1281228115
H  H181  1  0.67642000  0.72408000  0.13106000  1.0 0.1195494195
H  H182  1  0.67642000  0.77592000  0.63106000  1.0 0.1195494195
H  H183  1  0.21188000  0.68800000  0.77645000  1.0 0.1195494195
H  H184  1  0.21188000  0.81200000  0.27645000  1.0 0.1195494195
H  H185  1  0.73491000  0.77118000  0.16245000  1.0 0.1376451121
H  H186  1  0.73491000  0.72882000  0.66245000  1.0 0.1376451121
H  H187  1  0.21344000  0.55672000  0.62161000  1.0 0.1195494195
H  H188  1  0.21344000  0.94328000  0.12161000  1.0 0.1195494195
H  H189  1  0.28706000  0.18997000  0.15175000  1.0 0.1195494195
H  H190  1  0.28706000  0.31003000  0.65175000  1.0 0.1195494195
H  H191  1  0.47136000  0.34836000  0.42333000  1.0 0.1281228115
H  H192  1  0.47136000  0.15164000  0.92333000  1.0 0.1281228115
H  H193  1  0.71495000  0.94443000  0.13849000  1.0 0.146244143
H  H194  1  0.71495000  0.55557000  0.63849000  1.0 0.146244143
H  H195  1  0.29211000  0.59755000  0.80130000  1.0 0.1195494195
H  H196  1  0.29211000  0.90245000  0.30130000  1.0 0.1195494195
H  H197  1  0.54757000  0.61229000  0.98467000  1.0 0.1124131967
H  H198  1  0.54757000  0.88771000  0.48467000  1.0 0.1124131967
H  H199  1  0.97246000  0.28102000  0.67191000  1.0 0.1376451121
H  H200  1  0.97246000  0.21898000  0.17191000  1.0 0.1376451121
H  H201  1  0.62604000  0.74969000  0.24803000  1.0 0.1281228115
H  H202  1  0.62604000  0.75031000  0.74803000  1.0 0.1281228115
H  H203  1  0.29954000  0.51219000  0.72707000  1.0 0.146244143
H  H204  1  0.29954000  0.98781000  0.22707000  1.0 0.146244143
H  H205  1  0.57055000  0.70190000  0.21679000  1.0 0.1195494195
H  H206  1  0.57055000  0.79810000  0.71679000  1.0 0.1195494195
H  H207  1  0.49824000  0.31479000  0.24112000  1.0 0.1195494195
H  H208  1  0.49824000  0.18521000  0.74112000  1.0 0.1195494195
H  H209  1  0.04049000  0.11287000  0.77479000  1.0 0.1195494195
H  H210  1  0.04049000  0.38713000  0.27479000  1.0 0.1195494195
H  H211  1  0.85603000  0.75210000  0.62064000  1.0 0.1281228115
H  H212  1  0.85603000  0.74790000  0.12064000  1.0 0.1281228115
H  H213  1  0.50976000  0.20128000  0.11005000  1.0 0.1195494195
H  H214  1  0.50976000  0.29872000  0.61005000  1.0 0.1195494195
H  H215  1  0.18013000  0.62629000  0.68760000  1.0 0.1195494195
H  H216  1  0.18013000  0.87371000  0.18760000  1.0 0.1195494195
H  H217  1  0.64165000  0.42489000  0.43344000  1.0 0.1281228115
H  H218  1  0.64165000  0.07511000  0.93344000  1.0 0.1281228115
H  H219  1  0.08712000  0.12769000  0.96774000  1.0 0.1195494195
H  H220  1  0.08712000  0.37231000  0.46774000  1.0 0.1195494195
H  H221  1  0.72267000  0.02048000  0.62051000  1.0 0.1281228115
H  H222  1  0.72267000  0.47952000  0.12051000  1.0 0.1281228115
H  H223  1  0.35109000  0.11607000  0.95583000  1.0 0.1195494195
H  H224  1  0.35109000  0.38393000  0.45583000  1.0 0.1195494195
H  H225  1  0.16500000  0.77274000  0.71154000  1.0 0.1281228115
H  H226  1  0.16500000  0.72726000  0.21154000  1.0 0.1281228115
H  H227  1  0.72182000  0.85582000  0.20927000  1.0 0.1195494195
H  H228  1  0.72182000  0.64418000  0.70927000  1.0 0.1195494195
H  H229  1  0.08630000  0.20686000  0.77734000  1.0 0.1281228115
H  H230  1  0.08630000  0.29314000  0.27734000  1.0 0.1281228115
H  H231  1  0.31603000  0.48409000  0.15122000  1.0 0.1376451121
H  H232  1  0.31603000  0.01591000  0.65122000  1.0 0.1376451121
H  H233  1  0.31654000  0.53589000  0.13041000  1.0 0.1124131967
H  H234  1  0.31654000  0.96411000  0.63041000  1.0 0.1124131967
H  H235  1  0.31739000  0.46612000  0.69523000  1.0 0.1281228115
H  H236  1  0.31739000  0.03388000  0.19523000  1.0 0.1281228115
H  H237  1  0.47438000  0.36471000  0.14305000  1.0 0.1195494195
H  H238  1  0.47438000  0.13529000  0.64305000  1.0 0.1195494195
H  H239  1  0.24342000  0.65411000  0.90950000  1.0 0.1376451121
H  H240  1  0.24342000  0.84589000  0.40950000  1.0 0.1376451121
H  H241  1  0.96036000  0.71118000  0.64978000  1.0 0.1281228115
H  H242  1  0.96036000  0.78882000  0.14978000  1.0 0.1281228115
H  H243  1  0.82931000  0.00199000  0.23223000  1.0 0.1281228115
H  H244  1  0.82931000  0.49801000  0.73223000  1.0 0.1281228115
H  H245  1  0.06107000  0.81400000  0.68043000  1.0 0.1281228115
H  H246  1  0.06107000  0.68600000  0.18043000  1.0 0.1281228115
H  H247  1  0.44318000  0.34610000  0.35571000  1.0 0.1376451121
H  H248  1  0.44318000  0.15390000  0.85571000  1.0 0.1376451121
H  H249  1  0.89263000  0.32369000  0.63430000  1.0 0.1195494195
H  H250  1  0.89263000  0.17631000  0.13430000  1.0 0.1195494195
H  H251  1  0.71626000  0.98576000  0.09671000  1.0 0.1281228115
H  H252  1  0.71626000  0.51424000  0.59671000  1.0 0.1281228115
H  H253  1  0.64380000  0.27309000  0.59024000  1.0 0.1195494195
H  H254  1  0.64380000  0.22691000  0.09024000  1.0 0.1195494195
H  H255  1  0.83406000  0.04235000  0.19022000  1.0 0.1281228115
H  H256  1  0.83406000  0.45765000  0.69022000  1.0 0.1281228115
H  H257  1  0.69073000  0.92332000  0.40475000  1.0 0.1281228115
H  H258  1  0.69073000  0.57668000  0.90475000  1.0 0.1281228115
H  H259  1  0.29333000  0.65377000  0.97835000  1.0 0.1195494195
H  H260  1  0.29333000  0.84623000  0.47835000  1.0 0.1195494195
H  H261  1  0.67628000  0.92819000  0.46668000  1.0 0.1281228115
H  H262  1  0.67628000  0.57181000  0.96668000  1.0 0.1281228115
H  H263  1  0.96807000  0.97740000  0.68834000  1.0 0.1281228115
H  H264  1  0.96807000  0.52260000  0.18834000  1.0 0.1281228115
H  H265  1  0.82868000  0.84836000  0.50208000  1.0 0.1281228115
H  H266  1  0.82868000  0.65164000  0.00208000  1.0 0.1281228115
H  H267  1  0.84410000  0.84309000  0.44076000  1.0 0.1281228115
H  H268  1  0.84410000  0.65691000  0.94076000  1.0 0.1281228115
H  H269  1  0.28282000  0.12820000  0.88850000  1.0 0.1281228115
H  H270  1  0.28282000  0.37180000  0.38850000  1.0 0.1281228115
H  H271  1  0.01677000  0.13986000  0.90053000  1.0 0.1376451121
H  H272  1  0.01677000  0.36014000  0.40053000  1.0 0.1376451121
H  H273  1  0.49697000  0.61127000  0.91626000  1.0 0.1281228115
H  H274  1  0.49697000  0.88873000  0.41626000  1.0 0.1281228115
H  H275  1  0.60676000  0.53005000  0.15089000  1.0 0.1281228115
H  H276  1  0.60676000  0.96995000  0.65089000  1.0 0.1281228115
H  H277  1  0.02043000  0.02371000  0.72429000  1.0 0.1195494195
H  H278  1  0.02043000  0.47629000  0.22429000  1.0 0.1195494195
H  H279  1  0.60847000  0.47857000  0.17420000  1.0 0.1376451121
H  H280  1  0.60847000  0.02143000  0.67420000  1.0 0.1376451121
H  H281  1  0.78011000  0.06775000  0.65238000  1.0 0.1281228115
H  H282  1  0.78011000  0.43225000  0.15238000  1.0 0.1281228115
H  H283  1  0.30842000  0.24107000  0.17527000  1.0 0.1376451121
H  H284  1  0.30842000  0.25893000  0.67527000  1.0 0.1376451121
H  H285  1  0.76845000  0.92741000  0.28717000  1.0 0.1195494195
H  H286  1  0.76845000  0.57259000  0.78717000  1.0 0.1195494195
H  H287  1  0.23584000  0.51097000  0.59097000  1.0 0.1281228115
H  H288  1  0.23584000  0.98903000  0.09097000  1.0 0.1281228115
H  H289  1  0.61255000  0.42288000  0.36556000  1.0 0.1195494195
H  H290  1  0.61255000  0.07712000  0.86556000  1.0 0.1195494195
H  H291  1  0.75089000  0.83829000  0.32290000  1.0 0.1195494195
H  H292  1  0.75089000  0.66171000  0.82290000  1.0 0.1195494195
C  C1  1  0.24122000  0.74891000  0.87162000  1.0 -0.190612819
C  C2  1  0.24122000  0.75109000  0.37162000  1.0 -0.190612819
C  C3  1  0.57720000  0.75183000  0.34290000  1.0 0.2497030864
C  C4  1  0.57720000  0.74817000  0.84290000  1.0 0.2497030864
C  C5  1  0.54640000  0.13150000  0.46810000  1.0 0.6012987035
C  C6  1  0.54640000  0.36850000  0.96810000  1.0 0.6012987035
C  C7  1  0.02798000  0.66266000  0.79808000  1.0 -0.1395793199
C  C8  1  0.02798000  0.83734000  0.29808000  1.0 -0.1395793199
C  C9  1  0.43970000  0.92303000  0.89930000  1.0 0.5267338835
C  C10  1  0.43970000  0.57697000  0.39930000  1.0 0.5267338835
C  C11  1  0.43040000  0.17989000  0.35110000  1.0 0.5816605322
C  C12  1  0.43040000  0.32011000  0.85110000  1.0 0.5816605322
C  C13  1  0.73201000  0.61247000  0.48911000  1.0 0.5816605322
C  C14  1  0.73201000  0.88753000  0.98911000  1.0 0.5816605322
C  C15  1  0.49923000  0.89060000  0.26863000  1.0 -0.190612819
C  C16  1  0.49923000  0.60940000  0.76863000  1.0 -0.190612819
C  C17  1  0.11993000  0.31369000  0.87153000  1.0 0.6012987035
C  C18  1  0.11993000  0.18631000  0.37153000  1.0 0.6012987035
C  C19  1  0.19571000  0.46464000  0.87201000  1.0 0.6012987035
C  C20  1  0.19571000  0.03536000  0.37201000  1.0 0.6012987035
C  C21  1  0.51749000  0.74007000  0.36269000  1.0 -0.18006332
C  C22  1  0.51749000  0.75993000  0.86269000  1.0 -0.18006332
C  C23  1  0.38548000  0.20921000  0.32998000  1.0 -0.0308343074
C  C24  1  0.38548000  0.29079000  0.82998000  1.0 -0.0308343074
C  C25  1  0.33509000  0.22941000  0.34539000  1.0 -0.0706591922
C  C26  1  0.33509000  0.27059000  0.84539000  1.0 -0.0706591922
C  C27  1  0.78138000  0.16739000  0.73208000  1.0 -0.1527088513
C  C28  1  0.78138000  0.33261000  0.23208000  1.0 -0.1527088513
C  C29  1  0.74171000  0.14370000  0.70421000  1.0 -0.0029400579
C  C30  1  0.74171000  0.35630000  0.20421000  1.0 -0.0029400579
C  C31  1  0.30095000  0.25751000  0.32685000  1.0 -0.18006332
C  C32  1  0.30095000  0.24249000  0.82685000  1.0 -0.18006332
C  C33  1  0.51467000  0.83536000  0.31107000  1.0 -0.011388651
C  C34  1  0.51467000  0.66464000  0.81107000  1.0 -0.011388651
C  C35  1  0.76423000  0.03835000  0.86313000  1.0 -0.2185137414
C  C36  1  0.76423000  0.46165000  0.36313000  1.0 -0.2185137414
C  C37  1  0.66321000  0.70266000  0.35201000  1.0 -0.0776713579
C  C38  1  0.66321000  0.79734000  0.85201000  1.0 -0.0776713579
C  C39  1  0.92916000  0.23781000  0.81446000  1.0 0.2399920163
C  C40  1  0.92916000  0.26219000  0.31446000  1.0 0.2399920163
C  C41  1  0.49907000  0.86341000  0.08837000  1.0 -0.0776713579
C  C42  1  0.49907000  0.63659000  0.58837000  1.0 -0.0776713579
C  C43  1  0.31846000  0.26599000  0.29286000  1.0 0.2497030864
C  C44  1  0.31846000  0.23401000  0.79286000  1.0 0.2497030864
C  C45  1  0.26197000  0.46443000  0.35087000  1.0 -0.190612819
C  C46  1  0.26197000  0.03557000  0.85087000  1.0 -0.190612819
C  C47  1  0.73263000  0.11388000  0.71733000  1.0 -0.1395793199
C  C48  1  0.73263000  0.38612000  0.21733000  1.0 -0.1395793199
C  C49  1  0.51477000  0.12054000  0.53057000  1.0 -0.0776713579
C  C50  1  0.51477000  0.37946000  0.03057000  1.0 -0.0776713579
C  C51  1  0.09419000  0.77924000  0.84479000  1.0 -0.190612819
C  C52  1  0.09419000  0.72076000  0.34479000  1.0 -0.190612819
C  C53  1  0.36483000  0.24483000  0.27613000  1.0 -0.190612819
C  C54  1  0.36483000  0.25517000  0.77613000  1.0 -0.190612819
C  C55  1  0.01424000  0.72165000  0.79574000  1.0 0.4533239504
C  C56  1  0.01424000  0.77835000  0.29574000  1.0 0.4533239504
C  C57  1  0.71380000  0.01208000  0.80060000  1.0 -0.1983135029
C  C58  1  0.71380000  0.48792000  0.30060000  1.0 -0.1983135029
C  C59  1  0.39800000  0.21643000  0.29480000  1.0 -0.0776713579
C  C60  1  0.39800000  0.28357000  0.79480000  1.0 -0.0776713579
C  C61  1  0.50402000  0.83440000  0.27152000  1.0 -0.1527088513
C  C62  1  0.50402000  0.66560000  0.77152000  1.0 -0.1527088513
C  C63  1  0.96642000  0.63231000  0.73862000  1.0 -0.18006332
C  C64  1  0.96642000  0.86769000  0.23862000  1.0 -0.18006332
C  C65  1  0.08081000  0.25650000  0.86071000  1.0 -0.0776713579
C  C66  1  0.08081000  0.24350000  0.36071000  1.0 -0.0776713579
C  C67  1  0.75915000  0.10744000  0.75755000  1.0 -0.011388651
C  C68  1  0.75915000  0.39256000  0.25755000  1.0 -0.011388651
C  C69  1  0.53132000  0.70942000  0.37672000  1.0 -0.0858866071
C  C70  1  0.53132000  0.79058000  0.87672000  1.0 -0.0858866071
C  C71  1  0.85674000  0.63538000  0.61134000  1.0 0.2399920163
C  C72  1  0.85674000  0.86462000  0.11134000  1.0 0.2399920163
C  C73  1  0.47295000  0.88417000  0.14555000  1.0 0.2399920163
C  C74  1  0.47295000  0.61583000  0.64555000  1.0 0.2399920163
C  C75  1  0.79968000  0.13073000  0.78498000  1.0 -0.18006332
C  C76  1  0.79968000  0.36927000  0.28498000  1.0 -0.18006332
C  C77  1  0.39821000  0.90876000  0.08211000  1.0 -0.0776713579
C  C78  1  0.39821000  0.59124000  0.58211000  1.0 -0.0776713579
C  C79  1  0.87330000  0.62780000  0.54840000  1.0 -0.0706591922
C  C80  1  0.87330000  0.87220000  0.04840000  1.0 -0.0706591922
C  C81  1  0.41799000  0.88679000  0.02059000  1.0 0.6012987035
C  C82  1  0.41799000  0.61321000  0.52059000  1.0 0.6012987035
C  C83  1  0.28769000  0.30764000  0.24269000  1.0 0.4671483867
C  C84  1  0.28769000  0.19236000  0.74269000  1.0 0.4671483867
C  C85  1  0.09339000  0.55031000  0.80879000  1.0 0.2399920163
C  C86  1  0.09339000  0.94969000  0.30879000  1.0 0.2399920163
C  C87  1  0.22456000  0.51859000  0.36066000  1.0 -0.0406724936
C  C88  1  0.22456000  0.98141000  0.86066000  1.0 -0.0406724936
C  C89  1  0.21488000  0.52122000  0.85918000  1.0 -0.0776713579
C  C90  1  0.21488000  0.97878000  0.35918000  1.0 -0.0776713579
C  C91  1  0.57515000  0.13281000  0.51195000  1.0 -0.0406724936
C  C92  1  0.57515000  0.36719000  0.01195000  1.0 -0.0406724936
C  C93  1  0.26651000  0.34191000  0.23551000  1.0 -0.0029400579
C  C94  1  0.26651000  0.15809000  0.73551000  1.0 -0.0029400579
C  C95  1  0.72001000  0.15149000  0.66141000  1.0 0.4757837586
C  C96  1  0.72001000  0.34851000  0.16141000  1.0 0.4757837586
C  C97  1  0.74330000  0.07398000  0.76800000  1.0 0.4533239504
C  C98  1  0.74330000  0.42602000  0.26800000  1.0 0.4533239504
C  C99  1  0.71678000  0.62092000  0.55548000  1.0 -0.0858866071
C  C100  1  0.71678000  0.87908000  0.05548000  1.0 -0.0858866071
C  C101  1  0.05257000  0.28688000  0.85207000  1.0 -0.0406724936
C  C102  1  0.05257000  0.21312000  0.35207000  1.0 -0.0406724936
C  C103  1  0.89869000  0.26838000  0.80669000  1.0 -0.208796447
C  C104  1  0.89869000  0.23162000  0.30669000  1.0 -0.208796447
C  C105  1  0.26696000  0.36303000  0.26466000  1.0 -0.1395793199
C  C106  1  0.26696000  0.13697000  0.76466000  1.0 -0.1395793199
C  C107  1  0.94109000  0.68842000  0.73689000  1.0 -0.1395793199
C  C108  1  0.94109000  0.81158000  0.23689000  1.0 -0.1395793199
C  C109  1  0.62440000  0.99359000  0.34820000  1.0 -0.190612819
C  C110  1  0.62440000  0.50641000  0.84820000  1.0 -0.190612819
C  C111  1  0.81066000  0.16073000  0.77206000  1.0 -0.011388651
C  C112  1  0.81066000  0.33927000  0.27206000  1.0 -0.011388651
C  C113  1  0.62410000  0.02425000  0.36090000  1.0 -0.0706591922
C  C114  1  0.62410000  0.47575000  0.86090000  1.0 -0.0706591922
C  C115  1  0.49702000  0.92138000  0.32812000  1.0 0.4612463397
C  C116  1  0.49702000  0.57862000  0.82812000  1.0 0.4612463397
C  C117  1  0.25037000  0.41526000  0.28997000  1.0 0.4533239504
C  C118  1  0.25037000  0.08474000  0.78997000  1.0 0.4533239504
C  C119  1  0.50745000  0.89152000  0.30805000  1.0 -0.011388651
C  C120  1  0.50745000  0.60848000  0.80805000  1.0 -0.011388651
C  C121  1  0.70388000  0.95454000  0.87898000  1.0 0.5459891342
C  C122  1  0.70388000  0.54546000  0.37898000  1.0 0.5459891342
C  C123  1  0.49671000  0.86200000  0.25001000  1.0 -0.0029400579
C  C124  1  0.49671000  0.63800000  0.75001000  1.0 -0.0029400579
C  C125  1  0.86710000  0.18343000  0.80360000  1.0 0.4612463397
C  C126  1  0.86710000  0.31657000  0.30360000  1.0 0.4612463397
C  C127  1  0.70270000  0.98474000  0.81970000  1.0 -0.0776713579
C  C128  1  0.70270000  0.51526000  0.31970000  1.0 -0.0776713579
C  C129  1  0.74472000  0.03915000  0.82272000  1.0 0.2318323336
C  C130  1  0.74472000  0.46085000  0.32272000  1.0 0.2318323336
C  C131  1  0.51730000  0.86395000  0.32970000  1.0 -0.1395793199
C  C132  1  0.51730000  0.63605000  0.82970000  1.0 -0.1395793199
C  C133  1  0.63420000  0.13271000  0.59390000  1.0 0.258858972
C  C134  1  0.63420000  0.36729000  0.09390000  1.0 0.258858972
C  C135  1  0.51847000  0.80644000  0.33527000  1.0 0.4533239504
C  C136  1  0.51847000  0.69356000  0.83527000  1.0 0.4533239504
C  C137  1  0.69490000  0.14539000  0.57530000  1.0 -0.18006332
C  C138  1  0.69490000  0.35461000  0.07530000  1.0 -0.18006332
C  C139  1  0.72029000  0.98410000  0.85969000  1.0 -0.0308343074
C  C140  1  0.72029000  0.51590000  0.35969000  1.0 -0.0308343074
C  C141  1  0.01948000  0.23209000  0.84288000  1.0 -0.18006332
C  C142  1  0.01948000  0.26791000  0.34288000  1.0 -0.18006332
C  C143  1  0.60389000  0.69061000  0.37169000  1.0 -0.0308343074
C  C144  1  0.60389000  0.80939000  0.87169000  1.0 -0.0308343074
C  C145  1  0.61783000  0.65760000  0.38613000  1.0 0.5816605322
C  C146  1  0.61783000  0.84240000  0.88613000  1.0 0.5816605322
C  C147  1  0.19375000  0.49854000  0.29545000  1.0 -0.208796447
C  C148  1  0.19375000  0.00146000  0.79545000  1.0 -0.208796447
C  C149  1  0.96040000  0.29301000  0.82530000  1.0 -0.0706591922
C  C150  1  0.96040000  0.20699000  0.32530000  1.0 -0.0706591922
C  C151  1  0.29324000  0.83108000  0.91294000  1.0 0.6054437391
C  C152  1  0.29324000  0.66892000  0.41294000  1.0 0.6012987035
C  C153  1  0.43893000  0.88668000  0.06473000  1.0 -0.0406724936
C  C154  1  0.43893000  0.61332000  0.56473000  1.0 -0.0406724936
C  C155  1  0.22979000  0.54532000  0.38829000  1.0 0.5459891342
C  C156  1  0.22979000  0.95468000  0.88829000  1.0 0.5459891342
C  C157  1  0.51616000  0.86200000  0.12856000  1.0 -0.1664870858
C  C158  1  0.51616000  0.63800000  0.62856000  1.0 -0.1664870858
C  C159  1  0.14218000  0.80470000  0.86698000  1.0 -0.0706591922
C  C160  1  0.14218000  0.69530000  0.36698000  1.0 -0.0706591922
C  C161  1  0.48578000  0.85807000  0.20728000  1.0 0.4533239504
C  C162  1  0.48578000  0.64193000  0.70728000  1.0 0.4533239504
C  C163  1  0.23721000  0.39805000  0.15041000  1.0 0.4533239504
C  C164  1  0.23721000  0.10195000  0.65041000  1.0 0.4533239504
C  C165  1  0.14401000  0.75115000  0.84711000  1.0 0.2399920163
C  C166  1  0.14401000  0.74885000  0.34711000  1.0 0.2399920163
C  C167  1  0.22975000  0.46933000  0.31035000  1.0 0.2399920163
C  C168  1  0.22975000  0.03067000  0.81035000  1.0 0.2399920163
C  C169  1  0.22878000  0.38312000  0.08318000  1.0 0.2497030864
C  C170  1  0.22878000  0.11688000  0.58318000  1.0 0.2497030864
C  C171  1  0.26027000  0.48901000  0.37557000  1.0 -0.0776713579
C  C172  1  0.26027000  0.01099000  0.87557000  1.0 -0.0776713579
C  C173  1  0.28938000  0.77469000  0.89328000  1.0 -0.0776713579
C  C174  1  0.28938000  0.72531000  0.39328000  1.0 -0.0776713579
C  C175  1  0.19125000  0.52259000  0.32055000  1.0 -0.0706591922
C  C176  1  0.19125000  0.97741000  0.82055000  1.0 -0.0706591922
C  C177  1  0.28010000  0.40820000  0.07540000  1.0 -0.190612819
C  C178  1  0.28010000  0.09180000  0.57540000  1.0 -0.190612819
C  C179  1  0.66495000  0.14524000  0.53435000  1.0 -0.0776713579
C  C180  1  0.66495000  0.35476000  0.03435000  1.0 -0.0776713579
C  C181  1  0.99491000  0.68986000  0.77711000  1.0 -0.011388651
C  C182  1  0.99491000  0.81014000  0.27711000  1.0 -0.011388651
C  C183  1  0.28849000  0.41100000  0.03849000  1.0 -0.0776713579
C  C184  1  0.28849000  0.08900000  0.53849000  1.0 -0.0776713579
C  C185  1  0.07114000  0.49571000  0.81874000  1.0 -0.0776713579
C  C186  1  0.07114000  0.00429000  0.31874000  1.0 -0.0776713579
C  C187  1  0.92773000  0.65953000  0.71773000  1.0 -0.0170273731
C  C188  1  0.92773000  0.84047000  0.21773000  1.0 -0.0170273731
C  C189  1  0.24673000  0.38929000  0.00893000  1.0 -0.0496162616
C  C190  1  0.24673000  0.11071000  0.50893000  1.0 -0.0496162616
C  C191  1  0.01493000  0.63378000  0.77893000  1.0 -0.0029400579
C  C192  1  0.01493000  0.86622000  0.27893000  1.0 -0.0029400579
C  C193  1  0.23891000  0.80298000  0.89071000  1.0 -0.0406724936
C  C194  1  0.23891000  0.69702000  0.39071000  1.0 -0.0406724936
C  C195  1  0.19852000  0.36384000  0.01752000  1.0 -0.0706591922
C  C196  1  0.19852000  0.13616000  0.51752000  1.0 -0.0706591922
C  C197  1  0.86464000  0.65822000  0.67504000  1.0 0.4612463397
C  C198  1  0.86464000  0.84178000  0.17504000  1.0 0.4612463397
C  C199  1  0.18933000  0.36067000  0.05393000  1.0 -0.208796447
C  C200  1  0.18933000  0.13933000  0.55393000  1.0 -0.208796447
C  C201  1  0.75690000  0.62816000  0.59540000  1.0 -0.18006332
C  C202  1  0.75690000  0.87184000  0.09540000  1.0 -0.18006332
C  C203  1  0.25740000  0.39257000  0.96930000  1.0 0.5816605322
C  C204  1  0.25740000  0.10743000  0.46930000  1.0 0.5816605322
C  C205  1  0.77474000  0.62070000  0.53204000  1.0 -0.0308343074
C  C206  1  0.77474000  0.87930000  0.03204000  1.0 -0.0308343074
C  C207  1  0.54007000  0.07144000  0.37277000  1.0 0.5816605322
C  C208  1  0.54007000  0.42856000  0.87277000  1.0 0.5816605322
C  C209  1  0.91528000  0.63512000  0.58828000  1.0 -0.208796447
C  C210  1  0.91528000  0.86488000  0.08828000  1.0 -0.208796447
C  C211  1  0.53768000  0.03788000  0.36088000  1.0 -0.0308343074
C  C212  1  0.53768000  0.46212000  0.86088000  1.0 -0.0308343074
C  C213  1  0.05780000  0.60598000  0.80490000  1.0 0.4533239504
C  C214  1  0.05780000  0.89402000  0.30490000  1.0 0.4533239504
C  C215  1  0.54451000  0.12019000  0.57121000  1.0 -0.18006332
C  C216  1  0.54451000  0.37981000  0.07121000  1.0 -0.18006332
C  C217  1  0.45225000  0.02087000  0.34845000  1.0 -0.0776713579
C  C218  1  0.45225000  0.47913000  0.84845000  1.0 -0.0776713579
C  C219  1  0.03900000  0.52346000  0.79770000  1.0 -0.208796447
C  C220  1  0.03900000  0.97654000  0.29770000  1.0 -0.208796447
C  C221  1  0.45090000  0.99018000  0.33480000  1.0 -0.18006332
C  C222  1  0.45090000  0.50982000  0.83480000  1.0 -0.18006332
C  C223  1  0.15928000  0.49478000  0.84968000  1.0 -0.0406724936
C  C224  1  0.15928000  0.00522000  0.34968000  1.0 -0.0406724936
C  C225  1  0.53799000  0.97713000  0.33469000  1.0 0.2399920163
C  C226  1  0.53799000  0.52287000  0.83469000  1.0 0.2399920163
C  C227  1  0.18168000  0.54930000  0.83968000  1.0 -0.1664870858
C  C228  1  0.18168000  0.95070000  0.33968000  1.0 -0.1664870858
C  C229  1  0.25089000  0.39499000  0.25599000  1.0 -0.0170273731
C  C230  1  0.25089000  0.10501000  0.75599000  1.0 -0.0170273731
C  C231  1  0.65031000  0.73301000  0.33791000  1.0 -0.1983135029
C  C232  1  0.65031000  0.76699000  0.83791000  1.0 -0.1983135029
C  C233  1  0.23933000  0.40569000  0.21853000  1.0 -0.18006332
C  C234  1  0.23933000  0.09431000  0.71853000  1.0 -0.18006332
C  C235  1  0.75141000  0.01111000  0.88141000  1.0 -0.0776713579
C  C236  1  0.75141000  0.48889000  0.38141000  1.0 -0.0776713579
C  C237  1  0.41550000  0.90750000  0.12260000  1.0 -0.208796447
C  C238  1  0.41550000  0.59250000  0.62260000  1.0 -0.208796447
C  C239  1  0.23895000  0.38436000  0.18895000  1.0 -0.011388651
C  C240  1  0.23895000  0.11564000  0.68895000  1.0 -0.011388651
C  C241  1  0.25117000  0.35271000  0.19737000  1.0 -0.1527088513
C  C242  1  0.25117000  0.14729000  0.69737000  1.0 -0.1527088513
C  C243  1  0.75878000  0.24891000  0.62838000  1.0 -0.190612819
C  C244  1  0.75878000  0.25109000  0.12838000  1.0 -0.190612819
C  C245  1  0.42280000  0.25183000  0.15710000  1.0 0.2497030864
C  C246  1  0.42280000  0.24817000  0.65710000  1.0 0.2497030864
C  C247  1  0.45360000  0.63150000  0.03190000  1.0 0.6012987035
C  C248  1  0.45360000  0.86850000  0.53190000  1.0 0.6012987035
C  C249  1  0.97202000  0.16266000  0.70192000  1.0 -0.1395793199
C  C250  1  0.97202000  0.33734000  0.20192000  1.0 -0.1395793199
C  C251  1  0.56030000  0.42303000  0.60070000  1.0 0.5267338835
C  C252  1  0.56030000  0.07697000  0.10070000  1.0 0.5267338835
C  C253  1  0.56960000  0.67989000  0.14890000  1.0 0.5816605322
C  C254  1  0.56960000  0.82011000  0.64890000  1.0 0.5816605322
C  C255  1  0.26799000  0.11247000  0.01089000  1.0 0.5816605322
C  C256  1  0.26799000  0.38753000  0.51089000  1.0 0.5816605322
C  C257  1  0.50077000  0.39060000  0.23137000  1.0 -0.190612819
C  C258  1  0.50077000  0.10940000  0.73137000  1.0 -0.190612819
C  C259  1  0.88007000  0.81369000  0.62847000  1.0 0.6012987035
C  C260  1  0.88007000  0.68631000  0.12847000  1.0 0.6012987035
C  C261  1  0.80429000  0.96464000  0.62799000  1.0 0.6012987035
C  C262  1  0.80429000  0.53536000  0.12799000  1.0 0.6012987035
C  C263  1  0.48251000  0.24007000  0.13731000  1.0 -0.18006332
C  C264  1  0.48251000  0.25993000  0.63731000  1.0 -0.18006332
C  C265  1  0.61452000  0.70921000  0.17002000  1.0 -0.0308343074
C  C266  1  0.61452000  0.79079000  0.67002000  1.0 -0.0308343074
C  C267  1  0.66491000  0.72941000  0.15461000  1.0 -0.0706591922
C  C268  1  0.66491000  0.77059000  0.65461000  1.0 -0.0706591922
C  C269  1  0.21862000  0.66739000  0.76792000  1.0 -0.1527088513
C  C270  1  0.21862000  0.83261000  0.26792000  1.0 -0.1527088513
C  C271  1  0.25829000  0.64370000  0.79579000  1.0 -0.0029400579
C  C272  1  0.25829000  0.85630000  0.29579000  1.0 -0.0029400579
C  C273  1  0.69905000  0.75751000  0.17315000  1.0 -0.18006332
C  C274  1  0.69905000  0.74249000  0.67315000  1.0 -0.18006332
C  C275  1  0.48533000  0.33536000  0.18893000  1.0 -0.011388651
C  C276  1  0.48533000  0.16464000  0.68893000  1.0 -0.011388651
C  C277  1  0.23577000  0.53835000  0.63687000  1.0 -0.2185137414
C  C278  1  0.23577000  0.96165000  0.13687000  1.0 -0.2185137414
C  C279  1  0.33679000  0.20266000  0.14799000  1.0 -0.0706591922
C  C280  1  0.33679000  0.29734000  0.64799000  1.0 -0.0776713579
C  C281  1  0.07084000  0.73781000  0.68554000  1.0 0.2399920163
C  C282  1  0.07084000  0.76219000  0.18554000  1.0 0.2399920163
C  C283  1  0.50093000  0.36341000  0.41163000  1.0 -0.0776713579
C  C284  1  0.50093000  0.13659000  0.91163000  1.0 -0.0776713579
C  C285  1  0.68154000  0.76599000  0.20714000  1.0 0.2497030864
C  C286  1  0.68154000  0.73401000  0.70714000  1.0 0.2497030864
C  C287  1  0.73803000  0.96443000  0.14913000  1.0 -0.190612819
C  C288  1  0.73803000  0.53557000  0.64913000  1.0 -0.190612819
C  C289  1  0.26737000  0.61388000  0.78267000  1.0 -0.1395793199
C  C290  1  0.26737000  0.88612000  0.28267000  1.0 -0.1395793199
C  C291  1  0.48523000  0.62054000  0.96943000  1.0 -0.0776713579
C  C292  1  0.48523000  0.87946000  0.46943000  1.0 -0.0776713579
C  C293  1  0.90581000  0.27924000  0.65521000  1.0 -0.190612819
C  C294  1  0.90581000  0.22076000  0.15521000  1.0 -0.190612819
C  C295  1  0.63517000  0.74483000  0.22387000  1.0 -0.190612819
C  C296  1  0.63517000  0.75517000  0.72387000  1.0 -0.190612819
C  C297  1  0.98576000  0.22165000  0.70426000  1.0 0.4533239504
C  C298  1  0.98576000  0.27835000  0.20426000  1.0 0.4533239504
C  C299  1  0.28620000  0.51208000  0.69940000  1.0 -0.1983135029
C  C300  1  0.28620000  0.98792000  0.19940000  1.0 -0.1983135029
C  C301  1  0.60200000  0.71643000  0.20520000  1.0 -0.0776713579
C  C302  1  0.60200000  0.78357000  0.70520000  1.0 -0.0776713579
C  C303  1  0.49598000  0.33440000  0.22848000  1.0 -0.1527088513
C  C304  1  0.49598000  0.16560000  0.72848000  1.0 -0.1527088513
C  C305  1  0.03358000  0.13231000  0.76138000  1.0 -0.18006332
C  C306  1  0.03358000  0.36769000  0.26138000  1.0 -0.18006332
C  C307  1  0.91919000  0.75650000  0.63929000  1.0 -0.0776713579
C  C308  1  0.91919000  0.74350000  0.13929000  1.0 -0.0776713579
C  C309  1  0.24085000  0.60744000  0.74245000  1.0 -0.011388651
C  C310  1  0.24085000  0.89256000  0.24245000  1.0 -0.011388651
C  C311  1  0.46868000  0.20942000  0.12328000  1.0 -0.0858866071
C  C312  1  0.46868000  0.29058000  0.62328000  1.0 -0.0858866071
C  C313  1  0.14326000  0.13538000  0.88866000  1.0 0.2399920163
C  C314  1  0.14326000  0.36462000  0.38866000  1.0 0.2399920163
C  C315  1  0.52705000  0.38417000  0.35445000  1.0 0.2399920163
C  C316  1  0.52705000  0.11583000  0.85445000  1.0 0.2399920163
C  C317  1  0.20032000  0.63073000  0.71502000  1.0 -0.18006332
C  C318  1  0.20032000  0.86927000  0.21502000  1.0 -0.18006332
C  C319  1  0.60179000  0.40876000  0.41789000  1.0 -0.0776713579
C  C320  1  0.60179000  0.09124000  0.91789000  1.0 -0.0776713579
C  C321  1  0.12670000  0.12780000  0.95160000  1.0 -0.0706591922
C  C322  1  0.12670000  0.37220000  0.45160000  1.0 -0.0706591922
C  C323  1  0.58201000  0.38679000  0.47941000  1.0 0.6012987035
C  C324  1  0.58201000  0.11321000  0.97941000  1.0 0.6012987035
C  C325  1  0.71231000  0.80764000  0.25731000  1.0 0.4671483867
C  C326  1  0.71231000  0.69236000  0.75731000  1.0 0.4671483867
C  C327  1  0.90661000  0.05031000  0.69121000  1.0 0.2399920163
C  C328  1  0.90661000  0.44969000  0.19121000  1.0 0.2399920163
C  C329  1  0.77544000  0.01859000  0.13934000  1.0 -0.0406724936
C  C330  1  0.77544000  0.48141000  0.63934000  1.0 -0.0406724936
C  C331  1  0.78512000  0.02122000  0.64082000  1.0 -0.0776713579
C  C332  1  0.78512000  0.47878000  0.14082000  1.0 -0.0776713579
C  C333  1  0.42485000  0.63281000  0.98805000  1.0 -0.0406724936
C  C334  1  0.42485000  0.86719000  0.48805000  1.0 -0.0406724936
C  C335  1  0.73349000  0.84191000  0.26449000  1.0 -0.0029400579
C  C336  1  0.73349000  0.65809000  0.76449000  1.0 -0.0029400579
C  C337  1  0.27999000  0.65149000  0.83859000  1.0 0.4757837586
C  C338  1  0.27999000  0.84851000  0.33859000  1.0 0.4757837586
C  C339  1  0.25670000  0.57398000  0.73200000  1.0 0.4533239504
C  C340  1  0.25670000  0.92602000  0.23200000  1.0 0.4533239504
C  C341  1  0.28322000  0.12092000  0.94452000  1.0 -0.0858866071
C  C342  1  0.28322000  0.37908000  0.44452000  1.0 -0.0858866071
C  C343  1  0.94743000  0.78688000  0.64793000  1.0 -0.0406724936
C  C344  1  0.94743000  0.71312000  0.14793000  1.0 -0.0406724936
C  C345  1  0.10131000  0.76838000  0.69331000  1.0 -0.208796447
C  C346  1  0.10131000  0.73162000  0.19331000  1.0 -0.208796447
C  C347  1  0.73304000  0.86303000  0.23534000  1.0 -0.1395793199
C  C348  1  0.73304000  0.63697000  0.73534000  1.0 -0.1395793199
C  C349  1  0.05891000  0.18842000  0.76311000  1.0 -0.1395793199
C  C350  1  0.05891000  0.31158000  0.26311000  1.0 -0.1395793199
C  C351  1  0.37560000  0.49359000  0.15180000  1.0 -0.190612819
C  C352  1  0.37560000  0.00641000  0.65180000  1.0 -0.1983135029
C  C353  1  0.18934000  0.66073000  0.72794000  1.0 -0.011388651
C  C354  1  0.18934000  0.83927000  0.22794000  1.0 -0.011388651
C  C355  1  0.37590000  0.52425000  0.13910000  1.0 -0.0706591922
C  C356  1  0.37590000  0.97575000  0.63910000  1.0 -0.0706591922
C  C357  1  0.50298000  0.42138000  0.17188000  1.0 0.4612463397
C  C358  1  0.50298000  0.07862000  0.67188000  1.0 0.4612463397
C  C359  1  0.74963000  0.91526000  0.21003000  1.0 0.4533239504
C  C360  1  0.74963000  0.58474000  0.71003000  1.0 0.4533239504
C  C361  1  0.49255000  0.39152000  0.19195000  1.0 -0.011388651
C  C362  1  0.49255000  0.10848000  0.69195000  1.0 -0.011388651
C  C363  1  0.29612000  0.45454000  0.62102000  1.0 0.5459891342
C  C364  1  0.29612000  0.04546000  0.12102000  1.0 0.5459891342
C  C365  1  0.50329000  0.36200000  0.24999000  1.0 -0.0029400579
C  C366  1  0.50329000  0.13800000  0.74999000  1.0 -0.0029400579
C  C367  1  0.13290000  0.68343000  0.69640000  1.0 0.4612463397
C  C368  1  0.13290000  0.81657000  0.19640000  1.0 0.4612463397
C  C369  1  0.29730000  0.48474000  0.68030000  1.0 -0.0776713579
C  C370  1  0.29730000  0.01526000  0.18030000  1.0 -0.0776713579
C  C371  1  0.25528000  0.53915000  0.67728000  1.0 0.2318323336
C  C372  1  0.25528000  0.96085000  0.17728000  1.0 0.2318323336
C  C373  1  0.48270000  0.36395000  0.17030000  1.0 -0.1395793199
C  C374  1  0.48270000  0.13605000  0.67030000  1.0 -0.1395793199
C  C375  1  0.36580000  0.63271000  0.90610000  1.0 0.258858972
C  C376  1  0.36580000  0.86729000  0.40610000  1.0 0.258858972
C  C377  1  0.48153000  0.30644000  0.16473000  1.0 0.4533239504
C  C378  1  0.48153000  0.19356000  0.66473000  1.0 0.4533239504
C  C379  1  0.30510000  0.64539000  0.92470000  1.0 -0.18006332
C  C380  1  0.30510000  0.85461000  0.42470000  1.0 -0.18006332
C  C381  1  0.27971000  0.48410000  0.64031000  1.0 -0.0308343074
C  C382  1  0.27971000  0.01590000  0.14031000  1.0 -0.0308343074
C  C383  1  0.98052000  0.73209000  0.65712000  1.0 -0.18006332
C  C384  1  0.98052000  0.76791000  0.15712000  1.0 -0.18006332
C  C385  1  0.39611000  0.19061000  0.12831000  1.0 -0.0308343074
C  C386  1  0.39611000  0.30939000  0.62831000  1.0 -0.0308343074
C  C387  1  0.38217000  0.15760000  0.11387000  1.0 0.5816605322
C  C388  1  0.38217000  0.34240000  0.61387000  1.0 0.5816605322
C  C389  1  0.80625000  0.99854000  0.20455000  1.0 -0.208796447
C  C390  1  0.80625000  0.50146000  0.70455000  1.0 -0.208796447
C  C391  1  0.03960000  0.79301000  0.67470000  1.0 -0.0706591922
C  C392  1  0.03960000  0.70699000  0.17470000  1.0 -0.0706591922
C  C393  1  0.70676000  0.33108000  0.58706000  1.0 0.6012987035
C  C394  1  0.70676000  0.16892000  0.08706000  1.0 0.6012987035
C  C395  1  0.56107000  0.38668000  0.43527000  1.0 -0.0406724936
C  C396  1  0.56107000  0.11332000  0.93527000  1.0 -0.0406724936
C  C397  1  0.77021000  0.04532000  0.11171000  1.0 0.5459891342
C  C398  1  0.77021000  0.45468000  0.61171000  1.0 0.5459891342
C  C399  1  0.48384000  0.36200000  0.37144000  1.0 -0.1664870858
C  C400  1  0.48384000  0.13800000  0.87144000  1.0 -0.1664870858
C  C401  1  0.85782000  0.30470000  0.63302000  1.0 -0.0706591922
C  C402  1  0.85782000  0.19530000  0.13302000  1.0 -0.0706591922
C  C403  1  0.51422000  0.35807000  0.29272000  1.0 0.4533239504
C  C404  1  0.51422000  0.14193000  0.79272000  1.0 0.4533239504
C  C405  1  0.76279000  0.89805000  0.34959000  1.0 0.4533239504
C  C406  1  0.76279000  0.60195000  0.84959000  1.0 0.4533239504
C  C407  1  0.85599000  0.25115000  0.65289000  1.0 0.2399920163
C  C408  1  0.85599000  0.24885000  0.15289000  1.0 0.2399920163
C  C409  1  0.77025000  0.96933000  0.18965000  1.0 0.2399920163
C  C410  1  0.77025000  0.53067000  0.68965000  1.0 0.2399920163
C  C411  1  0.77122000  0.88312000  0.41682000  1.0 0.2497030864
C  C412  1  0.77122000  0.61688000  0.91682000  1.0 0.2497030864
C  C413  1  0.73973000  0.98901000  0.12443000  1.0 -0.0776713579
C  C414  1  0.73973000  0.51099000  0.62443000  1.0 -0.0776713579
C  C415  1  0.71062000  0.27469000  0.60672000  1.0 -0.0776713579
C  C416  1  0.71062000  0.22531000  0.10672000  1.0 -0.0776713579
C  C417  1  0.80875000  0.02259000  0.17945000  1.0 -0.0706591922
C  C418  1  0.80875000  0.47741000  0.67945000  1.0 -0.0706591922
C  C419  1  0.71990000  0.90820000  0.42460000  1.0 -0.190612819
C  C420  1  0.71990000  0.59180000  0.92460000  1.0 -0.190612819
C  C421  1  0.33505000  0.64524000  0.96565000  1.0 -0.0776713579
C  C422  1  0.33505000  0.85476000  0.46565000  1.0 -0.0776713579
C  C423  1  0.00509000  0.18986000  0.72289000  1.0 -0.011388651
C  C424  1  0.00509000  0.31014000  0.22289000  1.0 -0.011388651
C  C425  1  0.71151000  0.91100000  0.46151000  1.0 -0.0776713579
C  C426  1  0.71151000  0.58900000  0.96151000  1.0 -0.0776713579
C  C427  1  0.92886000  0.99571000  0.68126000  1.0 -0.0776713579
C  C428  1  0.92886000  0.50429000  0.18126000  1.0 -0.0776713579
C  C429  1  0.07227000  0.15953000  0.78227000  1.0 -0.0170273731
C  C430  1  0.07227000  0.34047000  0.28227000  1.0 -0.0170273731
C  C431  1  0.75327000  0.88929000  0.49107000  1.0 -0.0496162616
C  C432  1  0.75327000  0.61071000  0.99107000  1.0 -0.0496162616
C  C433  1  0.98507000  0.13378000  0.72107000  1.0 -0.0029400579
C  C434  1  0.98507000  0.36622000  0.22107000  1.0 -0.0029400579
C  C435  1  0.76109000  0.30298000  0.60929000  1.0 -0.0406724936
C  C436  1  0.76109000  0.19702000  0.10929000  1.0 -0.0406724936
C  C437  1  0.80148000  0.86384000  0.48248000  1.0 -0.0706591922
C  C438  1  0.80148000  0.63616000  0.98248000  1.0 -0.0706591922
C  C439  1  0.13536000  0.15822000  0.82496000  1.0 0.4612463397
C  C440  1  0.13536000  0.34178000  0.32496000  1.0 0.4612463397
C  C441  1  0.81067000  0.86067000  0.44607000  1.0 -0.208796447
C  C442  1  0.81067000  0.63933000  0.94607000  1.0 -0.208796447
C  C443  1  0.24310000  0.12816000  0.90460000  1.0 -0.18006332
C  C444  1  0.24310000  0.37184000  0.40460000  1.0 -0.18006332
C  C445  1  0.74260000  0.89257000  0.53070000  1.0 0.5816605322
C  C446  1  0.74260000  0.60743000  0.03070000  1.0 0.5816605322
C  C447  1  0.22526000  0.12070000  0.96796000  1.0 -0.0308343074
C  C448  1  0.22526000  0.37930000  0.46796000  1.0 -0.0308343074
C  C449  1  0.45993000  0.57144000  0.12723000  1.0 0.5816605322
C  C450  1  0.45993000  0.92856000  0.62723000  1.0 0.5816605322
C  C451  1  0.08472000  0.13512000  0.91172000  1.0 -0.208796447
C  C452  1  0.08472000  0.36488000  0.41172000  1.0 -0.208796447
C  C453  1  0.46232000  0.53788000  0.13912000  1.0 -0.0406724936
C  C454  1  0.46232000  0.96212000  0.63912000  1.0 -0.0308343074
C  C455  1  0.94220000  0.10598000  0.69510000  1.0 0.4533239504
C  C456  1  0.94220000  0.39402000  0.19510000  1.0 0.4533239504
C  C457  1  0.45549000  0.62019000  0.92879000  1.0 -0.18006332
C  C458  1  0.45549000  0.87981000  0.42879000  1.0 -0.18006332
C  C459  1  0.54775000  0.52087000  0.15155000  1.0 -0.0706591922
C  C460  1  0.54775000  0.97913000  0.65155000  1.0 -0.0776713579
C  C461  1  0.96100000  0.02346000  0.70230000  1.0 -0.208796447
C  C462  1  0.96100000  0.47654000  0.20230000  1.0 -0.208796447
C  C463  1  0.54910000  0.49018000  0.16520000  1.0 -0.18006332
C  C464  1  0.54910000  0.00982000  0.66520000  1.0 -0.18006332
C  C465  1  0.84072000  0.99478000  0.65032000  1.0 -0.0406724936
C  C466  1  0.84072000  0.50522000  0.15032000  1.0 -0.0406724936
C  C467  1  0.46201000  0.47713000  0.16531000  1.0 0.2399920163
C  C468  1  0.46201000  0.02287000  0.66531000  1.0 0.2399920163
C  C469  1  0.81832000  0.04930000  0.66032000  1.0 -0.1664870858
C  C470  1  0.81832000  0.45070000  0.16032000  1.0 -0.1664870858
C  C471  1  0.74911000  0.89499000  0.24401000  1.0 -0.0170273731
C  C472  1  0.74911000  0.60501000  0.74401000  1.0 -0.0170273731
C  C473  1  0.34969000  0.23301000  0.16209000  1.0 -0.1983135029
C  C474  1  0.34969000  0.26699000  0.66209000  1.0 -0.1983135029
C  C475  1  0.76067000  0.90569000  0.28147000  1.0 -0.18006332
C  C476  1  0.76067000  0.59431000  0.78147000  1.0 -0.18006332
C  C477  1  0.24859000  0.51111000  0.61859000  1.0 -0.0776713579
C  C478  1  0.24859000  0.98889000  0.11859000  1.0 -0.0776713579
C  C479  1  0.58450000  0.40750000  0.37740000  1.0 -0.208796447
C  C480  1  0.58450000  0.09250000  0.87740000  1.0 -0.208796447
C  C481  1  0.76105000  0.88436000  0.31105000  1.0 -0.011388651
C  C482  1  0.76105000  0.61564000  0.81105000  1.0 -0.011388651
C  C483  1  0.74883000  0.85271000  0.30263000  1.0 -0.1527088513
C  C484  1  0.74883000  0.64729000  0.80263000  1.0 -0.1527088513
N  N1  1  0.66240000  0.13067000  0.63530000  1.0 -0.3695225211
N  N2  1  0.66240000  0.36933000  0.13530000  1.0 -0.3695225211
N  N3  1  0.53927000  0.94680000  0.31897000  1.0 -0.3695225211
N  N4  1  0.53927000  0.55320000  0.81897000  1.0 -0.3695225211
N  N5  1  0.10191000  0.72420000  0.82551000  1.0 -0.3625780858
N  N6  1  0.10191000  0.77580000  0.32551000  1.0 -0.3625780858
N  N7  1  0.86582000  0.21388000  0.79252000  1.0 -0.3695225211
N  N8  1  0.86582000  0.28612000  0.29252000  1.0 -0.3695225211
N  N9  1  0.75727000  0.06822000  0.80627000  1.0 -0.3781406145
N  N10  1  0.75727000  0.43178000  0.30627000  1.0 -0.3781406145
N  N11  1  0.56582000  0.78193000  0.32652000  1.0 -0.3695225211
N  N12  1  0.56582000  0.71807000  0.82652000  1.0 -0.3695225211
N  N13  1  0.05674000  0.57831000  0.78744000  1.0 -0.3781406145
N  N14  1  0.05674000  0.92169000  0.28744000  1.0 -0.3781406145
N  N15  1  0.21999000  0.37740000  0.12019000  1.0 -0.3695225211
N  N16  1  0.21999000  0.12260000  0.62019000  1.0 -0.3695225211
N  N17  1  0.48630000  0.88390000  0.18640000  1.0 -0.3781406145
N  N18  1  0.48630000  0.61610000  0.68640000  1.0 -0.3781406145
N  N19  1  0.23334000  0.44605000  0.28274000  1.0 -0.3781406145
N  N20  1  0.23334000  0.05395000  0.78274000  1.0 -0.3781406145
N  N21  1  0.90226000  0.64140000  0.65226000  1.0 -0.3695225211
N  N22  1  0.90226000  0.85860000  0.15226000  1.0 -0.3695225211
N  N23  1  0.28856000  0.29626000  0.27776000  1.0 -0.3625780858
N  N24  1  0.28856000  0.20374000  0.77776000  1.0 -0.3625780858
N  N25  1  0.33760000  0.63067000  0.86470000  1.0 -0.3695225211
N  N26  1  0.33760000  0.86933000  0.36470000  1.0 -0.3695225211
N  N27  1  0.46073000  0.44680000  0.18103000  1.0 -0.3695225211
N  N28  1  0.46073000  0.05320000  0.68103000  1.0 -0.3695225211
N  N29  1  0.89809000  0.22420000  0.67449000  1.0 -0.3625780858
N  N30  1  0.89809000  0.27580000  0.17449000  1.0 -0.3625780858
N  N31  1  0.13418000  0.71388000  0.70748000  1.0 -0.3695225211
N  N32  1  0.13418000  0.78612000  0.20748000  1.0 -0.3695225211
N  N33  1  0.24273000  0.56822000  0.69373000  1.0 -0.3781406145
N  N34  1  0.24273000  0.93178000  0.19373000  1.0 -0.3781406145
N  N35  1  0.43418000  0.28193000  0.17348000  1.0 -0.3695225211
N  N36  1  0.43418000  0.21807000  0.67348000  1.0 -0.3695225211
N  N37  1  0.94326000  0.07831000  0.71256000  1.0 -0.3781406145
N  N38  1  0.94326000  0.42169000  0.21256000  1.0 -0.3781406145
N  N39  1  0.78001000  0.87740000  0.37981000  1.0 -0.3695225211
N  N40  1  0.78001000  0.62260000  0.87981000  1.0 -0.3695225211
N  N41  1  0.51370000  0.38390000  0.31360000  1.0 -0.3781406145
N  N42  1  0.51370000  0.11610000  0.81360000  1.0 -0.3781406145
N  N43  1  0.76666000  0.94605000  0.21726000  1.0 -0.3781406145
N  N44  1  0.76666000  0.55395000  0.71726000  1.0 -0.3781406145
N  N45  1  0.09774000  0.14140000  0.84774000  1.0 -0.3695225211
N  N46  1  0.09774000  0.35860000  0.34774000  1.0 -0.3695225211
N  N47  1  0.71144000  0.79626000  0.22224000  1.0 -0.3625780858
N  N48  1  0.71144000  0.70374000  0.72224000  1.0 -0.3625780858
O  O1  1  0.26967000  0.54163000  0.42467000  1.0 -0.5531578826
O  O2  1  0.26967000  0.95837000  0.92467000  1.0 -0.5531578826
O  O3  1  0.19928000  0.57187000  0.37338000  1.0 -0.5591435581
O  O4  1  0.19928000  0.92813000  0.87338000  1.0 -0.5591435581
O  O5  1  0.45682000  0.12453000  0.44752000  1.0 -0.6490270861
O  O6  1  0.45682000  0.37547000  0.94752000  1.0 -0.6490270861
O  O7  1  0.22556000  0.37049000  0.94476000  1.0 -0.5591435581
O  O8  1  0.22556000  0.12951000  0.44476000  1.0 -0.5591435581
O  O9  1  0.43137000  0.17530000  0.38557000  1.0 -0.571193518
O  O10  1  0.43137000  0.32470000  0.88557000  1.0 -0.571193518
O  O11  1  0.30598000  0.29144000  0.21798000  1.0 -0.4909894049
O  O12  1  0.30598000  0.20856000  0.71798000  1.0 -0.4909894049
O  O13  1  0.20543000  0.30687000  0.89243000  1.0 -0.5300017931
O  O14  1  0.20543000  0.19313000  0.39243000  1.0 -0.5300017931
O  O15  1  0.47305000  0.16160000  0.33535000  1.0 -0.5154477723
O  O16  1  0.47305000  0.33840000  0.83535000  1.0 -0.5154477723
O  O17  1  0.08334000  0.34066000  0.86564000  1.0 -0.4909894049
O  O18  1  0.08334000  0.15934000  0.36564000  1.0 -0.4909894049
O  O19  1  0.26306000  0.40347000  0.32206000  1.0 -0.4417346634
O  O20  1  0.26306000  0.09653000  0.82206000  1.0 -0.4417346634
O  O21  1  0.68685000  0.64224000  0.38255000  1.0 -0.5010942958
O  O22  1  0.68685000  0.85776000  0.88255000  1.0 -0.5010942958
O  O23  1  0.25509000  0.42565000  0.14819000  1.0 -0.4688682052
O  O24  1  0.25509000  0.07435000  0.64819000  1.0 -0.4688682052
O  O25  1  0.61629000  0.08706000  0.37829000  1.0 -0.5300017931
O  O26  1  0.61629000  0.41294000  0.87829000  1.0 -0.5300017931
O  O27  1  0.09352000  0.60943000  0.84072000  1.0 -0.4502603598
O  O28  1  0.09352000  0.89057000  0.34072000  1.0 -0.4502603598
O  O29  1  0.24276000  0.85523000  0.91256000  1.0 -0.576984442
O  O30  1  0.24276000  0.64477000  0.41256000  1.0 -0.576984442
O  O31  1  0.48106000  0.80623000  0.36066000  1.0 -0.4502603598
O  O32  1  0.48106000  0.69377000  0.86066000  1.0 -0.4502603598
O  O33  1  0.95506000  0.74280000  0.78406000  1.0 -0.4502603598
O  O34  1  0.95506000  0.75720000  0.28406000  1.0 -0.4502603598
O  O35  1  0.42007000  0.90411000  0.92217000  1.0 -0.5531578826
O  O36  1  0.42007000  0.59589000  0.42217000  1.0 -0.5531578826
O  O37  1  0.46906000  0.86933000  0.00816000  1.0 -0.571193518
O  O38  1  0.46906000  0.63067000  0.50816000  1.0 -0.571193518
O  O39  1  0.38462000  0.82818000  0.92962000  1.0 -0.571193518
O  O40  1  0.38462000  0.67182000  0.42962000  1.0 -0.571193518
O  O41  1  0.51254000  0.92615000  0.89164000  1.0 -0.4161695607
O  O42  1  0.51254000  0.57385000  0.39164000  1.0 -0.4161695607
O  O43  1  0.78528000  0.67193000  0.66292000  1.0 -0.4812751666
O  O44  1  0.78528000  0.82807000  0.16292000  1.0 -0.4812751666
O  O45  1  0.78615000  0.61185000  0.46855000  1.0 -0.5119429149
O  O46  1  0.78615000  0.88815000  0.96855000  1.0 -0.5119429149
O  O47  1  0.64063000  0.60562000  0.47443000  1.0 -0.6150688894
O  O48  1  0.64063000  0.89438000  0.97443000  1.0 -0.6150688894
O  O49  1  0.91431000  0.17395000  0.83661000  1.0 -0.4688682052
O  O50  1  0.91431000  0.32605000  0.33661000  1.0 -0.4688682052
O  O51  1  0.27821000  0.38355000  0.87671000  1.0 -0.9321002729
O  O52  1  0.27821000  0.11645000  0.37671000  1.0 -0.9321002729
O  O53  1  0.28517000  0.46294000  0.89017000  1.0 -0.5300017931
O  O54  1  0.28517000  0.03706000  0.39017000  1.0 -0.5300017931
O  O55  1  0.29590000  0.41674000  0.96240000  1.0 -0.5300017931
O  O56  1  0.29590000  0.08326000  0.46240000  1.0 -0.5300017931
O  O57  1  0.01135000  0.39619000  0.81425000  1.0 -0.6126854189
O  O58  1  0.01135000  0.10381000  0.31425000  1.0 -0.6126854189
O  O59  1  0.46341000  0.08401000  0.37551000  1.0 -0.576984442
O  O60  1  0.46341000  0.41599000  0.87551000  1.0 -0.576984442
O  O61  1  0.71684000  0.05449000  0.74184000  1.0 -0.4502603598
O  O62  1  0.71684000  0.44551000  0.24184000  1.0 -0.4502603598
O  O63  1  0.45252000  0.92192000  0.35126000  1.0 -0.4688682052
O  O64  1  0.45252000  0.57808000  0.85126000  1.0 -0.4688682052
O  O65  1  0.67670000  0.93041000  0.85840000  1.0 -0.5300017931
O  O66  1  0.67670000  0.56959000  0.35840000  1.0 -0.5300017931
O  O67  1  0.71664000  0.95479000  0.91494000  1.0 -0.5372872717
O  O68  1  0.71664000  0.54521000  0.41494000  1.0 -0.5372872717
O  O69  1  0.55753000  0.64597000  0.40033000  1.0 -0.6043903597
O  O70  1  0.55753000  0.85403000  0.90033000  1.0 -0.6043903597
O  O71  1  0.75374000  0.17502000  0.65184000  1.0 -0.4812751666
O  O72  1  0.75374000  0.32498000  0.15184000  1.0 -0.4812751666
O  O73  1  0.47638000  0.83184000  0.19278000  1.0 -0.4502603598
O  O74  1  0.47638000  0.66816000  0.69278000  1.0 -0.4502603598
O  O75  1  0.60980000  0.13761000  0.45330000  1.0 -0.5119429149
O  O76  1  0.60980000  0.36239000  0.95330000  1.0 -0.5119429149
O  O77  1  0.35035000  0.90438000  0.00065000  1.0 -0.5591435581
O  O78  1  0.35035000  0.59562000  0.50065000  1.0 -0.5591435581
O  O79  1  0.13426000  0.44383000  0.87026000  1.0 -0.5010942958
O  O80  1  0.13426000  0.05617000  0.37026000  1.0 -0.5010942958
O  O81  1  0.73033000  0.04163000  0.07533000  1.0 -0.5531578826
O  O82  1  0.73033000  0.45837000  0.57533000  1.0 -0.5531578826
O  O83  1  0.80072000  0.07187000  0.12662000  1.0 -0.5591435581
O  O84  1  0.80072000  0.42813000  0.62662000  1.0 -0.5591435581
O  O85  1  0.54318000  0.62453000  0.05248000  1.0 -0.6490270861
O  O86  1  0.54318000  0.87547000  0.55248000  1.0 -0.6490270861
O  O87  1  0.77444000  0.87049000  0.55524000  1.0 -0.5531578826
O  O88  1  0.77444000  0.62951000  0.05524000  1.0 -0.5591435581
O  O89  1  0.56863000  0.67530000  0.11443000  1.0 -0.571193518
O  O90  1  0.56863000  0.82470000  0.61443000  1.0 -0.571193518
O  O91  1  0.69402000  0.79144000  0.28202000  1.0 -0.4909894049
O  O92  1  0.69402000  0.70856000  0.78202000  1.0 -0.4909894049
O  O93  1  0.79457000  0.80687000  0.60757000  1.0 -0.5300017931
O  O94  1  0.79457000  0.69313000  0.10757000  1.0 -0.5300017931
O  O95  1  0.52695000  0.66160000  0.16465000  1.0 -0.5154477723
O  O96  1  0.52695000  0.83840000  0.66465000  1.0 -0.5154477723
O  O97  1  0.91666000  0.84066000  0.63436000  1.0 -0.4909894049
O  O98  1  0.91666000  0.65934000  0.13436000  1.0 -0.4909894049
O  O99  1  0.73694000  0.90347000  0.17794000  1.0 -0.4417346634
O  O100  1  0.73694000  0.59653000  0.67794000  1.0 -0.4417346634
O  O101  1  0.31315000  0.14224000  0.11745000  1.0 -0.5010942958
O  O102  1  0.31315000  0.35776000  0.61745000  1.0 -0.5010942958
O  O103  1  0.74491000  0.92565000  0.35181000  1.0 -0.4688682052
O  O104  1  0.74491000  0.57435000  0.85181000  1.0 -0.4688682052
O  O105  1  0.38371000  0.58706000  0.12171000  1.0 -0.5300017931
O  O106  1  0.38371000  0.91294000  0.62171000  1.0 -0.5300017931
O  O107  1  0.90648000  0.10943000  0.65928000  1.0 -0.4502603598
O  O108  1  0.90648000  0.39057000  0.15928000  1.0 -0.4502603598
O  O109  1  0.75724000  0.35523000  0.58744000  1.0 -0.576984442
O  O110  1  0.75724000  0.14477000  0.08744000  1.0 -0.576984442
O  O111  1  0.51894000  0.30623000  0.13934000  1.0 -0.4502603598
O  O112  1  0.51894000  0.19377000  0.63934000  1.0 -0.4502603598
O  O113  1  0.04494000  0.24280000  0.71594000  1.0 -0.4502603598
O  O114  1  0.04494000  0.25720000  0.21594000  1.0 -0.4502603598
O  O115  1  0.57993000  0.40411000  0.57783000  1.0 -0.5531578826
O  O116  1  0.57993000  0.09589000  0.07783000  1.0 -0.5531578826
O  O117  1  0.53094000  0.36933000  0.49184000  1.0 -0.571193518
O  O118  1  0.53094000  0.13067000  0.99184000  1.0 -0.571193518
O  O119  1  0.61538000  0.32818000  0.57038000  1.0 -0.571193518
O  O120  1  0.61538000  0.17182000  0.07038000  1.0 -0.571193518
O  O121  1  0.48746000  0.42615000  0.60836000  1.0 -0.4161695607
O  O122  1  0.48746000  0.07385000  0.10836000  1.0 -0.4161695607
O  O123  1  0.21472000  0.17193000  0.83708000  1.0 -0.4812751666
O  O124  1  0.21472000  0.32807000  0.33708000  1.0 -0.4812751666
O  O125  1  0.21385000  0.11185000  0.03145000  1.0 -0.5119429149
O  O126  1  0.21385000  0.38815000  0.53145000  1.0 -0.5119429149
O  O127  1  0.35937000  0.10562000  0.02557000  1.0 -0.6150688894
O  O128  1  0.35937000  0.39438000  0.52557000  1.0 -0.6150688894
O  O129  1  0.08569000  0.67395000  0.66339000  1.0 -0.4688682052
O  O130  1  0.08569000  0.82605000  0.16339000  1.0 -0.4688682052
O  O131  1  0.72179000  0.88355000  0.62329000  1.0 -0.9321002729
O  O132  1  0.72179000  0.61645000  0.12329000  1.0 -0.9321002729
O  O133  1  0.71483000  0.96294000  0.60983000  1.0 -0.5300017931
O  O134  1  0.71483000  0.53706000  0.10983000  1.0 -0.5300017931
O  O135  1  0.70410000  0.91674000  0.53760000  1.0 -0.5300017931
O  O136  1  0.70410000  0.58326000  0.03760000  1.0 -0.5300017931
O  O137  1  0.98865000  0.89619000  0.68575000  1.0 -0.6126854189
O  O138  1  0.98865000  0.60381000  0.18575000  1.0 -0.6126854189
O  O139  1  0.53659000  0.58401000  0.12449000  1.0 -0.576984442
O  O140  1  0.53659000  0.91599000  0.62449000  1.0 -0.576984442
O  O141  1  0.28316000  0.55449000  0.75816000  1.0 -0.4502603598
O  O142  1  0.28316000  0.94551000  0.25816000  1.0 -0.4502603598
O  O143  1  0.54748000  0.42192000  0.14874000  1.0 -0.4688682052
O  O144  1  0.54748000  0.07808000  0.64874000  1.0 -0.4688682052
O  O145  1  0.32330000  0.43041000  0.64160000  1.0 -0.5300017931
O  O146  1  0.32330000  0.06959000  0.14160000  1.0 -0.5300017931
O  O147  1  0.28336000  0.45479000  0.58506000  1.0 -0.5372872717
O  O148  1  0.28336000  0.04521000  0.08506000  1.0 -0.5372872717
O  O149  1  0.44247000  0.14597000  0.09967000  1.0 -0.6043903597
O  O150  1  0.44247000  0.35403000  0.59967000  1.0 -0.6043903597
O  O151  1  0.24626000  0.67502000  0.84816000  1.0 -0.4812751666
O  O152  1  0.24626000  0.82498000  0.34816000  1.0 -0.4812751666
O  O153  1  0.52362000  0.33184000  0.30722000  1.0 -0.4502603598
O  O154  1  0.52362000  0.16816000  0.80722000  1.0 -0.4502603598
O  O155  1  0.39020000  0.63761000  0.04670000  1.0 -0.5119429149
O  O156  1  0.39020000  0.86239000  0.54670000  1.0 -0.5119429149
O  O157  1  0.64965000  0.40438000  0.49935000  1.0 -0.5591435581
O  O158  1  0.64965000  0.09562000  0.99935000  1.0 -0.5591435581
O  O159  1  0.86574000  0.94383000  0.62974000  1.0 -0.5010942958
O  O160  1  0.86574000  0.55617000  0.12974000  1.0 -0.5010942958
