# DDEC6 charges by PACMAN v1.1 (https://github.com/mtap-research/PACMAN-charge/)
data_CIMNUL_FSR_pacman
_symmetry_space_group_name_H-M   'P 1'
_cell_length_a   14.68690000
_cell_length_b   42.84320000
_cell_length_c   36.16090000
_cell_angle_alpha   90.00000000
_cell_angle_beta   110.81500000
_cell_angle_gamma   90.00000000
_symmetry_Int_Tables_number   1
_chemical_formula_structural   Cd8H87C127N14O45
_chemical_formula_sum   'Cd32 H348 C508 N56 O180'
_cell_volume   21268.58982093
_cell_formula_units_Z   4
loop_
 _symmetry_equiv_pos_site_id
 _symmetry_equiv_pos_as_xyz
  1  'x, y, z'
loop_
 _atom_site_type_symbol
 _atom_site_label
 _atom_site_symmetry_multiplicity
 _atom_site_fract_x
 _atom_site_fract_y
 _atom_site_fract_z
 _atom_site_occupancy
 _atom_site_charge
Cd  Cd1  1  0.00031000  0.13847000  0.45028000  1.0 1.0817309677
Cd  Cd2  1  0.00031000  0.36153000  0.95028000  1.0 1.0817309677
Cd  Cd3  1  0.76822000  0.09797000  0.42937000  1.0 1.1108665227
Cd  Cd4  1  0.76822000  0.40203000  0.92937000  1.0 1.1010543663
Cd  Cd5  1  0.15695000  0.09707000  0.40980000  1.0 1.0093491136
Cd  Cd6  1  0.15695000  0.40293000  0.90980000  1.0 1.0093491136
Cd  Cd7  1  0.87006000  0.57754000  0.41697000  1.0 1.0716150163
Cd  Cd8  1  0.87006000  0.92246000  0.91697000  1.0 1.0625880717
Cd  Cd9  1  0.82772000  0.65731000  0.41721000  1.0 1.0716150163
Cd  Cd10  1  0.82772000  0.84269000  0.91721000  1.0 1.0716150163
Cd  Cd11  1  0.05865000  0.87015000  0.88946000  1.0 1.0716150163
Cd  Cd12  1  0.05865000  0.62985000  0.38946000  1.0 1.0716150163
Cd  Cd13  1  0.63060000  0.60896000  0.37437000  1.0 0.6347126721
Cd  Cd14  1  0.63060000  0.89104000  0.87437000  1.0 0.6363686679
Cd  Cd15  1  0.62941000  0.61193000  0.34261000  1.0 0.4688725317
Cd  Cd16  1  0.62941000  0.88807000  0.84261000  1.0 0.4688725317
Cd  Cd17  1  0.99969000  0.63847000  0.04972000  1.0 1.0817309677
Cd  Cd18  1  0.99969000  0.86153000  0.54972000  1.0 1.0817309677
Cd  Cd19  1  0.23178000  0.59797000  0.07063000  1.0 1.1010543663
Cd  Cd20  1  0.23178000  0.90203000  0.57063000  1.0 1.1010543663
Cd  Cd21  1  0.84305000  0.59707000  0.09020000  1.0 1.0093491136
Cd  Cd22  1  0.84305000  0.90293000  0.59020000  1.0 1.0093491136
Cd  Cd23  1  0.12994000  0.07754000  0.08303000  1.0 1.0625880717
Cd  Cd24  1  0.12994000  0.42246000  0.58303000  1.0 1.0716150163
Cd  Cd25  1  0.17228000  0.15731000  0.08279000  1.0 1.0716150163
Cd  Cd26  1  0.17228000  0.34269000  0.58279000  1.0 1.0716150163
Cd  Cd27  1  0.94135000  0.37015000  0.61054000  1.0 1.0716150163
Cd  Cd28  1  0.94135000  0.12985000  0.11054000  1.0 1.0716150163
Cd  Cd29  1  0.36940000  0.10896000  0.12563000  1.0 0.6347126721
Cd  Cd30  1  0.36940000  0.39104000  0.62563000  1.0 0.6347126721
Cd  Cd31  1  0.37059000  0.11193000  0.15739000  1.0 0.4599358112
Cd  Cd32  1  0.37059000  0.38807000  0.65739000  1.0 0.4688725317
H  H1  1  0.28706000  0.91653000  0.32369000  1.0 0.2821743677
H  H2  1  0.28706000  0.58347000  0.82369000  1.0 0.2821743677
H  H3  1  0.15194000  0.88795000  0.14671000  1.0 0.2821743677
H  H4  1  0.15194000  0.61205000  0.64671000  1.0 0.2821743677
H  H5  1  0.62603000  0.29454000  0.32907000  1.0 0.2890989355
H  H6  1  0.62603000  0.20546000  0.82907000  1.0 0.2890989355
H  H7  1  0.72641000  0.54909000  0.75864000  1.0 0.2738627552
H  H8  1  0.72641000  0.95091000  0.25864000  1.0 0.2738627552
H  H9  1  0.06984000  0.21631000  0.80167000  1.0 0.2821743677
H  H10  1  0.06984000  0.28369000  0.30167000  1.0 0.2821743677
H  H11  1  0.03893000  0.05742000  0.79035000  1.0 0.2890989355
H  H12  1  0.03893000  0.44258000  0.29035000  1.0 0.2890989355
H  H13  1  0.33979000  0.78320000  0.26993000  1.0 0.2821743677
H  H14  1  0.33979000  0.71680000  0.76993000  1.0 0.2821743677
H  H15  1  0.51838000  0.42261000  0.26217000  1.0 0.2821743677
H  H16  1  0.51838000  0.07739000  0.76217000  1.0 0.2821743677
H  H17  1  0.22567000  0.90509000  0.20042000  1.0 0.1210971211
H  H18  1  0.22567000  0.59491000  0.70042000  1.0 0.1127221508
H  H19  1  0.97780000  0.10071000  0.69263000  1.0 0.2821743677
H  H20  1  0.97780000  0.39929000  0.19263000  1.0 0.2821743677
H  H21  1  0.43720000  0.38940000  0.22718000  1.0 0.1127221508
H  H22  1  0.43720000  0.11060000  0.72718000  1.0 0.1127221508
H  H23  1  0.78953000  0.68954000  0.79771000  1.0 0.2821743677
H  H24  1  0.78953000  0.81046000  0.29771000  1.0 0.2821743677
H  H25  1  0.43822000  0.37310000  0.16591000  1.0 0.2890989355
H  H26  1  0.43822000  0.12690000  0.66591000  1.0 0.2890989355
H  H27  1  0.30687000  0.81471000  0.22311000  1.0 0.1210971211
H  H28  1  0.30687000  0.68529000  0.72311000  1.0 0.1210971211
H  H29  1  0.96275000  0.24823000  0.86509000  1.0 0.1299099399
H  H30  1  0.96275000  0.25177000  0.36509000  1.0 0.1299099399
H  H31  1  0.97330000  0.18758000  0.75178000  1.0 0.1210971211
H  H32  1  0.97330000  0.31242000  0.25178000  1.0 0.1210971211
H  H33  1  0.54057000  0.33769000  0.32628000  1.0 0.1299099399
H  H34  1  0.54057000  0.16231000  0.82628000  1.0 0.1299099399
H  H35  1  0.72950000  0.64316000  0.62840000  1.0 0.2821743677
H  H36  1  0.72950000  0.85684000  0.12840000  1.0 0.2821743677
H  H37  1  0.00209000  0.13708000  0.84973000  1.0 0.1210971211
H  H38  1  0.00209000  0.36292000  0.34973000  1.0 0.1210971211
H  H39  1  0.77662000  0.66225000  0.68265000  1.0 0.1210971211
H  H40  1  0.77662000  0.83775000  0.18265000  1.0 0.1210971211
H  H41  1  0.99295000  0.29987000  0.89047000  1.0 0.1299099399
H  H42  1  0.99295000  0.20013000  0.39047000  1.0 0.1299099399
H  H43  1  0.20002000  0.98784000  0.27499000  1.0 0.1395773559
H  H44  1  0.20002000  0.51216000  0.77499000  1.0 0.1395773559
H  H45  1  0.95932000  0.88850000  0.01648000  1.0 0.1127221508
H  H46  1  0.95932000  0.61150000  0.51648000  1.0 0.1127221508
H  H47  1  0.74928000  0.57337000  0.71474000  1.0 0.1210971211
H  H48  1  0.74928000  0.92663000  0.21474000  1.0 0.1210971211
H  H49  1  0.76610000  0.27274000  0.37124000  1.0 0.1395773559
H  H50  1  0.76610000  0.22726000  0.87124000  1.0 0.1395773559
H  H51  1  0.80156000  0.64313000  0.79502000  1.0 0.1210971211
H  H52  1  0.80156000  0.85687000  0.29502000  1.0 0.1210971211
H  H53  1  0.00902000  0.88818000  0.08500000  1.0 0.1299099399
H  H54  1  0.00902000  0.61182000  0.58500000  1.0 0.1299099399
H  H55  1  0.13285000  0.38658000  0.04286000  1.0 0.1210971211
H  H56  1  0.13285000  0.11342000  0.54286000  1.0 0.1210971211
H  H57  1  0.19913000  0.37655000  0.11091000  1.0 0.1299099399
H  H58  1  0.19913000  0.12345000  0.61091000  1.0 0.1299099399
H  H59  1  0.85068000  0.22930000  0.40433000  1.0 0.1210971211
H  H60  1  0.85068000  0.27070000  0.90433000  1.0 0.1210971211
H  H61  1  0.39857000  0.29539000  0.22160000  1.0 0.1299099399
H  H62  1  0.39857000  0.20461000  0.72160000  1.0 0.1299099399
H  H63  1  0.30296000  0.94402000  0.38045000  1.0 0.1299099399
H  H64  1  0.30296000  0.55598000  0.88045000  1.0 0.1299099399
H  H65  1  0.27131000  0.98812000  0.41062000  1.0 0.1299099399
H  H66  1  0.27131000  0.51188000  0.91062000  1.0 0.1299099399
H  H67  1  0.88829000  0.97234000  0.84921000  1.0 0.1210971211
H  H68  1  0.88829000  0.52766000  0.34921000  1.0 0.1210971211
H  H69  1  0.87997000  0.02344000  0.82463000  1.0 0.1299099399
H  H70  1  0.87997000  0.47656000  0.32463000  1.0 0.1299099399
H  H71  1  0.83684000  0.07815000  0.55917000  1.0 0.1299099399
H  H72  1  0.83684000  0.42185000  0.05917000  1.0 0.1299099399
H  H73  1  0.97233000  0.09298000  0.74700000  1.0 0.1127221508
H  H74  1  0.97233000  0.40702000  0.24700000  1.0 0.1127221508
H  H75  1  0.34179000  0.87545000  0.31324000  1.0 0.1210971211
H  H76  1  0.34179000  0.62455000  0.81324000  1.0 0.1210971211
H  H77  1  0.18029000  0.03251000  0.30701000  1.0 0.1299099399
H  H78  1  0.18029000  0.46749000  0.80701000  1.0 0.1299099399
H  H79  1  0.77518000  0.55606000  0.86004000  1.0 0.1395773559
H  H80  1  0.77518000  0.94394000  0.36004000  1.0 0.1395773559
H  H81  1  0.01459000  0.15198000  0.57160000  1.0 0.1127221508
H  H82  1  0.01459000  0.34802000  0.07160000  1.0 0.1127221508
H  H83  1  0.68409000  0.49868000  0.76654000  1.0 0.1210971211
H  H84  1  0.68409000  0.00132000  0.26654000  1.0 0.1210971211
H  H85  1  0.27397000  0.85671000  0.09156000  1.0 0.1299099399
H  H86  1  0.27397000  0.64329000  0.59156000  1.0 0.1299099399
H  H87  1  0.55295000  0.78839000  0.35335000  1.0 0.1299099399
H  H88  1  0.55295000  0.71161000  0.85335000  1.0 0.1299099399
H  H89  1  0.03614000  0.15546000  0.63878000  1.0 0.1299099399
H  H90  1  0.03614000  0.34454000  0.13878000  1.0 0.1299099399
H  H91  1  0.65089000  0.74623000  0.38184000  1.0 0.1210971211
H  H92  1  0.65089000  0.75377000  0.88184000  1.0 0.1210971211
H  H93  1  0.86419000  0.07977000  0.62730000  1.0 0.1210971211
H  H94  1  0.86419000  0.42023000  0.12730000  1.0 0.1210971211
H  H95  1  0.52685000  0.21879000  0.32151000  1.0 0.1395773559
H  H96  1  0.52685000  0.28121000  0.82151000  1.0 0.1395773559
H  H97  1  0.61465000  0.17578000  0.35587000  1.0 0.1299099399
H  H98  1  0.61465000  0.32422000  0.85587000  1.0 0.1299099399
H  H99  1  0.67372000  0.45756000  0.80650000  1.0 0.1299099399
H  H100  1  0.67372000  0.04244000  0.30650000  1.0 0.1299099399
H  H101  1  0.19380000  0.31105000  0.83952000  1.0 0.1299099399
H  H102  1  0.19380000  0.18895000  0.33952000  1.0 0.1299099399
H  H103  1  0.77777000  0.51305000  0.90217000  1.0 0.1299099399
H  H104  1  0.77777000  0.98695000  0.40217000  1.0 0.1299099399
H  H105  1  0.39994000  0.37942000  0.03554000  1.0 0.1299099399
H  H106  1  0.39994000  0.12058000  0.53554000  1.0 0.1299099399
H  H107  1  0.16698000  0.26094000  0.81532000  1.0 0.1395773559
H  H108  1  0.16698000  0.23906000  0.31532000  1.0 0.1395773559
H  H109  1  0.76794000  0.73053000  0.83723000  1.0 0.1299099399
H  H110  1  0.76794000  0.76947000  0.33723000  1.0 0.1299099399
H  H111  1  0.22149000  0.85691000  0.02241000  1.0 0.1210971211
H  H112  1  0.22149000  0.64309000  0.52241000  1.0 0.1210971211
H  H113  1  0.82654000  0.77699000  0.86999000  1.0 0.1210971211
H  H114  1  0.82654000  0.72301000  0.36999000  1.0 0.1210971211
H  H115  1  0.70158000  0.43173000  0.35060000  1.0 0.1299099399
H  H116  1  0.70158000  0.06827000  0.85060000  1.0 0.1299099399
H  H117  1  0.82082000  0.57043000  0.53362000  1.0 0.1127221508
H  H118  1  0.82082000  0.92957000  0.03362000  1.0 0.1127221508
H  H119  1  0.46488000  0.36652000  0.10279000  1.0 0.1395773559
H  H120  1  0.46488000  0.13348000  0.60279000  1.0 0.1395773559
H  H121  1  0.76709000  0.47871000  0.37822000  1.0 0.1210971211
H  H122  1  0.76709000  0.02129000  0.87822000  1.0 0.1210971211
H  H123  1  0.80797000  0.57520000  0.59490000  1.0 0.1395773559
H  H124  1  0.80797000  0.92480000  0.09490000  1.0 0.1395773559
H  H125  1  0.88612000  0.06315000  0.38252000  1.0 0.099356158
H  H126  1  0.88612000  0.43685000  0.88252000  1.0 0.099356158
H  H127  1  0.36468000  0.73042000  0.27801000  1.0 0.1299099399
H  H128  1  0.36468000  0.76958000  0.77801000  1.0 0.1395773559
H  H129  1  0.16507000  0.96564000  0.85486000  1.0 0.1210971211
H  H130  1  0.16507000  0.53436000  0.35486000  1.0 0.1210971211
H  H131  1  0.47633000  0.47818000  0.27160000  1.0 0.1210971211
H  H132  1  0.47633000  0.02182000  0.77160000  1.0 0.1210971211
H  H133  1  0.16133000  0.01669000  0.83350000  1.0 0.1395773559
H  H134  1  0.16133000  0.48331000  0.33350000  1.0 0.1395773559
H  H135  1  0.53354000  0.52340000  0.30836000  1.0 0.1299099399
H  H136  1  0.53354000  0.97660000  0.80836000  1.0 0.1299099399
H  H137  1  0.89324000  0.53734000  0.48915000  1.0 0.099356158
H  H138  1  0.89324000  0.96266000  0.98915000  1.0 0.099356158
H  H139  1  0.45306000  0.68812000  0.31174000  1.0 0.1299099399
H  H140  1  0.45306000  0.81188000  0.81174000  1.0 0.1299099399
H  H141  1  0.92708000  0.74349000  0.76850000  1.0 0.1299099399
H  H142  1  0.92708000  0.75651000  0.26850000  1.0 0.1299099399
H  H143  1  0.68458000  0.65260000  0.50048000  1.0 0.1299099399
H  H144  1  0.68458000  0.84740000  0.00048000  1.0 0.1299099399
H  H145  1  0.67986000  0.65769000  0.56311000  1.0 0.1299099399
H  H146  1  0.67986000  0.84231000  0.06311000  1.0 0.1299099399
H  H147  1  0.98088000  0.79202000  0.79987000  1.0 0.1210971211
H  H148  1  0.98088000  0.70798000  0.29987000  1.0 0.1210971211
H  H149  1  0.03177000  0.50435000  0.57111000  1.0 0.1466247146
H  H150  1  0.03177000  0.99565000  0.07111000  1.0 0.1466247146
H  H151  1  0.02429000  0.53969000  0.58407000  1.0 0.1466247146
H  H152  1  0.02429000  0.96031000  0.08407000  1.0 0.1466247146
H  H153  1  0.93011000  0.52252000  0.55416000  1.0 0.1395773559
H  H154  1  0.93011000  0.97748000  0.05416000  1.0 0.1395773559
H  H155  1  0.13902000  0.55900000  0.52435000  1.0 0.1395773559
H  H156  1  0.13902000  0.94100000  0.02435000  1.0 0.1395773559
H  H157  1  0.15890000  0.54540000  0.56774000  1.0 0.1299099399
H  H158  1  0.15890000  0.95460000  0.06774000  1.0 0.1299099399
H  H159  1  0.15963000  0.52254000  0.53285000  1.0 0.1395773559
H  H160  1  0.15963000  0.97746000  0.03285000  1.0 0.1395773559
H  H161  1  0.01011000  0.19541000  0.50262000  1.0 0.1127221508
H  H162  1  0.01011000  0.30459000  0.00262000  1.0 0.1127221508
H  H163  1  0.04406000  0.22172000  0.56297000  1.0 0.1395773559
H  H164  1  0.04406000  0.27828000  0.06297000  1.0 0.1395773559
H  H165  1  0.15100000  0.21579000  0.59457000  1.0 0.1395773559
H  H166  1  0.15100000  0.28421000  0.09457000  1.0 0.1395773559
H  H167  1  0.12859000  0.24674000  0.56805000  1.0 0.1466247146
H  H168  1  0.12859000  0.25326000  0.06805000  1.0 0.1466247146
H  H169  1  0.27521000  0.22097000  0.54277000  1.0 0.1395773559
H  H170  1  0.27521000  0.27903000  0.04277000  1.0 0.1395773559
H  H171  1  0.27248000  0.20032000  0.57924000  1.0 0.1299099399
H  H172  1  0.27248000  0.29968000  0.07924000  1.0 0.1299099399
H  H173  1  0.25641000  0.18417000  0.53748000  1.0 0.1395773559
H  H174  1  0.25641000  0.31583000  0.03748000  1.0 0.1395773559
H  H175  1  0.71294000  0.41653000  0.17631000  1.0 0.2821743677
H  H176  1  0.71294000  0.08347000  0.67631000  1.0 0.2821743677
H  H177  1  0.84806000  0.38795000  0.35329000  1.0 0.2821743677
H  H178  1  0.84806000  0.11205000  0.85329000  1.0 0.2821743677
H  H179  1  0.37397000  0.79454000  0.17093000  1.0 0.2890989355
H  H180  1  0.37397000  0.70546000  0.67093000  1.0 0.2890989355
H  H181  1  0.27359000  0.04909000  0.74136000  1.0 0.2738627552
H  H182  1  0.27359000  0.45091000  0.24136000  1.0 0.2738627552
H  H183  1  0.93016000  0.71631000  0.69833000  1.0 0.2821743677
H  H184  1  0.93016000  0.78369000  0.19833000  1.0 0.2821743677
H  H185  1  0.96107000  0.55742000  0.70965000  1.0 0.2890989355
H  H186  1  0.96107000  0.94258000  0.20965000  1.0 0.2890989355
H  H187  1  0.66021000  0.28320000  0.23007000  1.0 0.2821743677
H  H188  1  0.66021000  0.21680000  0.73007000  1.0 0.2821743677
H  H189  1  0.48162000  0.92261000  0.23783000  1.0 0.2821743677
H  H190  1  0.48162000  0.57739000  0.73783000  1.0 0.2821743677
H  H191  1  0.77433000  0.40509000  0.29958000  1.0 0.1127221508
H  H192  1  0.77433000  0.09491000  0.79958000  1.0 0.1210971211
H  H193  1  0.02220000  0.60071000  0.80737000  1.0 0.2821743677
H  H194  1  0.02220000  0.89929000  0.30737000  1.0 0.2821743677
H  H195  1  0.56280000  0.88940000  0.27282000  1.0 0.1127221508
H  H196  1  0.56280000  0.61060000  0.77282000  1.0 0.1127221508
H  H197  1  0.21047000  0.18954000  0.70229000  1.0 0.2821743677
H  H198  1  0.21047000  0.31046000  0.20229000  1.0 0.2821743677
H  H199  1  0.56178000  0.87310000  0.33409000  1.0 0.2890989355
H  H200  1  0.56178000  0.62690000  0.83409000  1.0 0.2890989355
H  H201  1  0.69313000  0.31471000  0.27689000  1.0 0.1210971211
H  H202  1  0.69313000  0.18529000  0.77689000  1.0 0.1210971211
H  H203  1  0.03725000  0.74823000  0.63491000  1.0 0.1299099399
H  H204  1  0.03725000  0.75177000  0.13491000  1.0 0.1299099399
H  H205  1  0.02670000  0.68758000  0.74822000  1.0 0.1210971211
H  H206  1  0.02670000  0.81242000  0.24822000  1.0 0.1210971211
H  H207  1  0.45943000  0.83769000  0.17372000  1.0 0.1299099399
H  H208  1  0.45943000  0.66231000  0.67372000  1.0 0.1299099399
H  H209  1  0.27050000  0.14316000  0.87160000  1.0 0.2821743677
H  H210  1  0.27050000  0.35684000  0.37160000  1.0 0.2821743677
H  H211  1  0.99791000  0.63708000  0.65027000  1.0 0.1210971211
H  H212  1  0.99791000  0.86292000  0.15027000  1.0 0.1210971211
H  H213  1  0.22338000  0.16225000  0.81735000  1.0 0.1210971211
H  H214  1  0.22338000  0.33775000  0.31735000  1.0 0.1210971211
H  H215  1  0.00705000  0.79987000  0.60953000  1.0 0.1299099399
H  H216  1  0.00705000  0.70013000  0.10953000  1.0 0.1299099399
H  H217  1  0.79998000  0.48784000  0.22501000  1.0 0.1395773559
H  H218  1  0.79998000  0.01216000  0.72501000  1.0 0.1395773559
H  H219  1  0.04068000  0.38850000  0.48352000  1.0 0.1127221508
H  H220  1  0.04068000  0.11150000  0.98352000  1.0 0.1127221508
H  H221  1  0.25072000  0.07337000  0.78526000  1.0 0.1210971211
H  H222  1  0.25072000  0.42663000  0.28526000  1.0 0.1210971211
H  H223  1  0.23390000  0.77274000  0.12876000  1.0 0.1395773559
H  H224  1  0.23390000  0.72726000  0.62876000  1.0 0.1395773559
H  H225  1  0.19844000  0.14313000  0.70498000  1.0 0.1210971211
H  H226  1  0.19844000  0.35687000  0.20498000  1.0 0.1210971211
H  H227  1  0.99098000  0.38818000  0.41500000  1.0 0.1299099399
H  H228  1  0.99098000  0.11182000  0.91500000  1.0 0.1299099399
H  H229  1  0.86715000  0.88658000  0.45714000  1.0 0.1210971211
H  H230  1  0.86715000  0.61342000  0.95714000  1.0 0.1210971211
H  H231  1  0.80087000  0.87655000  0.38909000  1.0 0.1299099399
H  H232  1  0.80087000  0.62345000  0.88909000  1.0 0.1299099399
H  H233  1  0.14932000  0.72930000  0.09567000  1.0 0.1210971211
H  H234  1  0.14932000  0.77070000  0.59567000  1.0 0.1210971211
H  H235  1  0.60143000  0.79539000  0.27840000  1.0 0.1299099399
H  H236  1  0.60143000  0.70461000  0.77840000  1.0 0.1299099399
H  H237  1  0.69704000  0.44402000  0.11955000  1.0 0.1299099399
H  H238  1  0.69704000  0.05598000  0.61955000  1.0 0.1299099399
H  H239  1  0.72869000  0.48812000  0.08938000  1.0 0.1299099399
H  H240  1  0.72869000  0.01188000  0.58938000  1.0 0.1299099399
H  H241  1  0.11171000  0.47234000  0.65079000  1.0 0.1210971211
H  H242  1  0.11171000  0.02766000  0.15079000  1.0 0.1210971211
H  H243  1  0.12003000  0.52344000  0.67537000  1.0 0.1299099399
H  H244  1  0.12003000  0.97656000  0.17537000  1.0 0.1299099399
H  H245  1  0.16316000  0.57815000  0.94083000  1.0 0.1299099399
H  H246  1  0.16316000  0.92185000  0.44083000  1.0 0.1299099399
H  H247  1  0.02767000  0.59298000  0.75300000  1.0 0.1127221508
H  H248  1  0.02767000  0.90702000  0.25300000  1.0 0.1127221508
H  H249  1  0.65821000  0.37545000  0.18676000  1.0 0.1210971211
H  H250  1  0.65821000  0.12455000  0.68676000  1.0 0.1210971211
H  H251  1  0.81971000  0.53251000  0.19299000  1.0 0.1299099399
H  H252  1  0.81971000  0.96749000  0.69299000  1.0 0.1299099399
H  H253  1  0.22482000  0.05606000  0.63996000  1.0 0.1395773559
H  H254  1  0.22482000  0.44394000  0.13996000  1.0 0.1395773559
H  H255  1  0.98541000  0.65198000  0.92840000  1.0 0.1127221508
H  H256  1  0.98541000  0.84802000  0.42840000  1.0 0.1127221508
H  H257  1  0.31591000  0.99868000  0.73346000  1.0 0.1210971211
H  H258  1  0.31591000  0.50132000  0.23346000  1.0 0.1210971211
H  H259  1  0.72603000  0.35671000  0.40844000  1.0 0.1299099399
H  H260  1  0.72603000  0.14329000  0.90844000  1.0 0.1299099399
H  H261  1  0.44705000  0.28839000  0.14665000  1.0 0.1299099399
H  H262  1  0.44705000  0.21161000  0.64665000  1.0 0.1299099399
H  H263  1  0.96386000  0.65546000  0.86122000  1.0 0.1299099399
H  H264  1  0.96386000  0.84454000  0.36122000  1.0 0.1299099399
H  H265  1  0.34911000  0.24623000  0.11816000  1.0 0.1210971211
H  H266  1  0.34911000  0.25377000  0.61816000  1.0 0.1210971211
H  H267  1  0.13581000  0.57977000  0.87270000  1.0 0.1210971211
H  H268  1  0.13581000  0.92023000  0.37270000  1.0 0.1210971211
H  H269  1  0.47315000  0.71879000  0.17849000  1.0 0.1395773559
H  H270  1  0.47315000  0.78121000  0.67849000  1.0 0.1395773559
H  H271  1  0.38535000  0.67578000  0.14413000  1.0 0.1299099399
H  H272  1  0.38535000  0.82422000  0.64413000  1.0 0.1299099399
H  H273  1  0.32628000  0.95756000  0.69350000  1.0 0.1299099399
H  H274  1  0.32628000  0.54244000  0.19350000  1.0 0.1299099399
H  H275  1  0.80620000  0.81105000  0.66048000  1.0 0.1299099399
H  H276  1  0.80620000  0.68895000  0.16048000  1.0 0.1299099399
H  H277  1  0.22223000  0.01305000  0.59783000  1.0 0.1299099399
H  H278  1  0.22223000  0.48695000  0.09783000  1.0 0.1299099399
H  H279  1  0.60006000  0.87942000  0.46446000  1.0 0.1299099399
H  H280  1  0.60006000  0.62058000  0.96446000  1.0 0.1299099399
H  H281  1  0.83302000  0.76094000  0.68468000  1.0 0.1395773559
H  H282  1  0.83302000  0.73906000  0.18468000  1.0 0.1395773559
H  H283  1  0.23206000  0.23053000  0.66277000  1.0 0.1299099399
H  H284  1  0.23206000  0.26947000  0.16277000  1.0 0.1299099399
H  H285  1  0.77851000  0.35691000  0.47759000  1.0 0.1210971211
H  H286  1  0.77851000  0.14309000  0.97759000  1.0 0.1210971211
H  H287  1  0.17346000  0.27699000  0.63001000  1.0 0.1210971211
H  H288  1  0.17346000  0.22301000  0.13001000  1.0 0.1210971211
H  H289  1  0.29842000  0.93173000  0.14940000  1.0 0.1299099399
H  H290  1  0.29842000  0.56827000  0.64940000  1.0 0.1299099399
H  H291  1  0.17918000  0.07043000  0.96638000  1.0 0.1127221508
H  H292  1  0.17918000  0.42957000  0.46638000  1.0 0.1127221508
H  H293  1  0.53512000  0.86652000  0.39721000  1.0 0.1395773559
H  H294  1  0.53512000  0.63348000  0.89721000  1.0 0.1395773559
H  H295  1  0.23291000  0.97871000  0.12178000  1.0 0.1210971211
H  H296  1  0.23291000  0.52129000  0.62178000  1.0 0.1210971211
H  H297  1  0.19203000  0.07520000  0.90510000  1.0 0.1395773559
H  H298  1  0.19203000  0.42480000  0.40510000  1.0 0.1395773559
H  H299  1  0.11388000  0.56315000  0.11748000  1.0 0.099356158
H  H300  1  0.11388000  0.93685000  0.61748000  1.0 0.099356158
H  H301  1  0.63532000  0.23042000  0.22199000  1.0 0.1299099399
H  H302  1  0.63532000  0.26958000  0.72199000  1.0 0.1299099399
H  H303  1  0.83493000  0.46564000  0.64514000  1.0 0.1210971211
H  H304  1  0.83493000  0.03436000  0.14514000  1.0 0.1210971211
H  H305  1  0.52367000  0.97818000  0.22840000  1.0 0.1210971211
H  H306  1  0.52367000  0.52182000  0.72840000  1.0 0.1210971211
H  H307  1  0.83867000  0.51669000  0.66650000  1.0 0.1395773559
H  H308  1  0.83867000  0.98331000  0.16650000  1.0 0.1395773559
H  H309  1  0.46646000  0.02340000  0.19164000  1.0 0.1299099399
H  H310  1  0.46646000  0.47660000  0.69164000  1.0 0.1299099399
H  H311  1  0.10676000  0.03734000  0.01085000  1.0 0.099356158
H  H312  1  0.10676000  0.46266000  0.51085000  1.0 0.099356158
H  H313  1  0.54694000  0.18812000  0.18826000  1.0 0.1299099399
H  H314  1  0.54694000  0.31188000  0.68826000  1.0 0.1299099399
H  H315  1  0.07292000  0.24349000  0.73150000  1.0 0.1299099399
H  H316  1  0.07292000  0.25651000  0.23150000  1.0 0.1299099399
H  H317  1  0.31542000  0.15260000  0.99952000  1.0 0.1299099399
H  H318  1  0.31542000  0.34740000  0.49952000  1.0 0.1299099399
H  H319  1  0.32014000  0.15769000  0.93689000  1.0 0.1299099399
H  H320  1  0.32014000  0.34231000  0.43689000  1.0 0.1299099399
H  H321  1  0.01912000  0.29202000  0.70013000  1.0 0.1210971211
H  H322  1  0.01912000  0.20798000  0.20013000  1.0 0.1210971211
H  H323  1  0.96823000  0.00435000  0.92889000  1.0 0.1395773559
H  H324  1  0.96823000  0.49565000  0.42889000  1.0 0.1466247146
H  H325  1  0.97571000  0.03969000  0.91593000  1.0 0.1466247146
H  H326  1  0.97571000  0.46031000  0.41593000  1.0 0.1466247146
H  H327  1  0.06989000  0.02252000  0.94584000  1.0 0.1395773559
H  H328  1  0.06989000  0.47748000  0.44584000  1.0 0.1395773559
H  H329  1  0.86098000  0.05900000  0.97565000  1.0 0.1395773559
H  H330  1  0.86098000  0.44100000  0.47565000  1.0 0.1395773559
H  H331  1  0.84110000  0.04540000  0.93226000  1.0 0.1299099399
H  H332  1  0.84110000  0.45460000  0.43226000  1.0 0.1299099399
H  H333  1  0.84037000  0.02254000  0.96715000  1.0 0.1395773559
H  H334  1  0.84037000  0.47746000  0.46715000  1.0 0.1395773559
H  H335  1  0.98989000  0.69541000  0.99738000  1.0 0.1127221508
H  H336  1  0.98989000  0.80459000  0.49738000  1.0 0.1127221508
H  H337  1  0.95594000  0.72172000  0.93703000  1.0 0.1395773559
H  H338  1  0.95594000  0.77828000  0.43703000  1.0 0.1395773559
H  H339  1  0.84900000  0.71579000  0.90543000  1.0 0.1395773559
H  H340  1  0.84900000  0.78421000  0.40543000  1.0 0.1395773559
H  H341  1  0.87141000  0.74674000  0.93195000  1.0 0.1466247146
H  H342  1  0.87141000  0.75326000  0.43195000  1.0 0.1466247146
H  H343  1  0.72479000  0.72097000  0.95723000  1.0 0.1395773559
H  H344  1  0.72479000  0.77903000  0.45723000  1.0 0.1395773559
H  H345  1  0.72752000  0.70032000  0.92076000  1.0 0.1299099399
H  H346  1  0.72752000  0.79968000  0.42076000  1.0 0.1299099399
H  H347  1  0.74359000  0.68417000  0.96252000  1.0 0.1395773559
H  H348  1  0.74359000  0.81583000  0.46252000  1.0 0.1395773559
C  C1  1  0.25093000  0.88864000  0.21883000  1.0 -0.131496328
C  C2  1  0.25093000  0.61136000  0.71883000  1.0 -0.131496328
C  C3  1  0.27808000  0.89478000  0.25878000  1.0 -0.0194258858
C  C4  1  0.27808000  0.60522000  0.75878000  1.0 -0.0194258858
C  C5  1  0.44580000  0.36964000  0.23990000  1.0 -0.1805580359
C  C6  1  0.44580000  0.13036000  0.73990000  1.0 -0.1805580359
C  C7  1  0.25960000  0.85901000  0.20490000  1.0 -0.0099643472
C  C8  1  0.25960000  0.64099000  0.70490000  1.0 -0.0099643472
C  C9  1  0.14537000  0.87139000  0.09427000  1.0 0.2306659748
C  C10  1  0.14537000  0.62861000  0.59427000  1.0 0.2306659748
C  C11  1  0.38889000  0.81886000  0.30379000  1.0 0.4536040521
C  C12  1  0.38889000  0.68114000  0.80379000  1.0 0.4536040521
C  C13  1  0.25314000  0.96089000  0.32464000  1.0 0.2306659748
C  C14  1  0.25314000  0.53911000  0.82464000  1.0 0.2306659748
C  C15  1  0.23604000  0.85157000  0.16184000  1.0 0.477333395
C  C16  1  0.23604000  0.64843000  0.66184000  1.0 0.477333395
C  C17  1  0.49600000  0.36745000  0.27970000  1.0 0.0024269265
C  C18  1  0.49600000  0.13255000  0.77970000  1.0 0.0024269265
C  C19  1  0.06058000  0.24992000  0.83768000  1.0 0.2306659748
C  C20  1  0.06058000  0.25008000  0.33768000  1.0 0.2306659748
C  C21  1  0.63920000  0.24992000  0.34240000  1.0 0.2306659748
C  C22  1  0.63920000  0.25008000  0.84240000  1.0 0.2306659748
C  C23  1  0.98223000  0.08097000  0.82213000  1.0 0.4599358112
C  C24  1  0.98223000  0.41903000  0.32213000  1.0 0.4599358112
C  C25  1  0.40731000  0.34291000  0.21801000  1.0 -0.0194258858
C  C26  1  0.40731000  0.15709000  0.71801000  1.0 -0.0194258858
C  C27  1  0.26091000  0.92756000  0.26941000  1.0 0.4599358112
C  C28  1  0.26091000  0.57244000  0.76941000  1.0 0.4536040521
C  C29  1  0.30083000  0.83515000  0.23213000  1.0 -0.1484600207
C  C30  1  0.30083000  0.66485000  0.73213000  1.0 -0.1484600207
C  C31  1  0.00989000  0.26093000  0.85989000  1.0 -0.1805580359
C  C32  1  0.00989000  0.23907000  0.35989000  1.0 -0.1805580359
C  C33  1  0.73570000  0.53113000  0.81040000  1.0 0.2306659748
C  C34  1  0.73570000  0.96887000  0.31040000  1.0 0.2306659748
C  C35  1  0.97809000  0.16796000  0.76459000  1.0 -0.1484600207
C  C36  1  0.97809000  0.33204000  0.26459000  1.0 -0.1383847884
C  C37  1  0.50984000  0.33882000  0.29834000  1.0 -0.1383847884
C  C38  1  0.50984000  0.16118000  0.79834000  1.0 -0.1383847884
C  C39  1  0.25950000  0.38397000  0.03250000  1.0 -0.0294368755
C  C40  1  0.25950000  0.11603000  0.53250000  1.0 -0.0294368755
C  C41  1  0.99499000  0.13791000  0.82259000  1.0 -0.131496328
C  C42  1  0.99499000  0.36209000  0.32259000  1.0 -0.131496328
C  C43  1  0.77450000  0.58366000  0.79300000  1.0 0.4536040521
C  C44  1  0.77450000  0.91634000  0.29300000  1.0 0.4536040521
C  C45  1  0.98759000  0.11045000  0.80159000  1.0 -0.0194258858
C  C46  1  0.98759000  0.38955000  0.30159000  1.0 -0.0194258858
C  C47  1  0.77704000  0.64752000  0.70234000  1.0 -0.1484600207
C  C48  1  0.77704000  0.85248000  0.20234000  1.0 -0.1484600207
C  C49  1  0.02849000  0.29182000  0.87519000  1.0 -0.0885897279
C  C50  1  0.02849000  0.20818000  0.37519000  1.0 -0.0885897279
C  C51  1  0.22440000  0.01527000  0.36170000  1.0 -0.0294368755
C  C52  1  0.22440000  0.48473000  0.86170000  1.0 -0.0294368755
C  C53  1  0.74070000  0.19859000  0.38380000  1.0 -0.0393696334
C  C54  1  0.74070000  0.30141000  0.88380000  1.0 -0.0393696334
C  C55  1  0.97112000  0.14036000  0.74292000  1.0 -0.0033350382
C  C56  1  0.97112000  0.35964000  0.24292000  1.0 -0.0033350382
C  C57  1  0.99199000  0.16687000  0.80439000  1.0 -0.0099643472
C  C58  1  0.99199000  0.33313000  0.30439000  1.0 -0.0099643472
C  C59  1  0.21650000  0.98775000  0.30290000  1.0 -0.1890693145
C  C60  1  0.21650000  0.51225000  0.80290000  1.0 -0.1890693145
C  C61  1  0.79561000  0.17033000  0.40541000  1.0 0.6001900791
C  C62  1  0.79561000  0.32967000  0.90541000  1.0 0.6001900791
C  C63  1  0.11666000  0.34257000  0.88436000  1.0 0.5805294824
C  C64  1  0.11666000  0.15743000  0.38436000  1.0 0.5805294824
C  C65  1  0.02358000  0.88196000  0.03168000  1.0 -0.0789584808
C  C66  1  0.02358000  0.61804000  0.53168000  1.0 -0.0789584808
C  C67  1  0.34609000  0.34467000  0.17499000  1.0 0.4688725317
C  C68  1  0.34609000  0.15533000  0.67499000  1.0 0.4688725317
C  C69  1  0.76112000  0.59481000  0.72142000  1.0 -0.1711598598
C  C70  1  0.76112000  0.90519000  0.22142000  1.0 -0.1711598598
C  C71  1  0.77630000  0.60446000  0.75960000  1.0 -0.0194258858
C  C72  1  0.77630000  0.89554000  0.25960000  1.0 -0.0194258858
C  C73  1  0.73480000  0.25297000  0.36760000  1.0 -0.1890693145
C  C74  1  0.73480000  0.24703000  0.86760000  1.0 -0.1890693145
C  C75  1  0.79135000  0.63631000  0.76885000  1.0 -0.1383847884
C  C76  1  0.79135000  0.86369000  0.26885000  1.0 -0.1383847884
C  C77  1  0.05228000  0.88158000  0.07228000  1.0 -0.1805580359
C  C78  1  0.05228000  0.61842000  0.57228000  1.0 -0.1805580359
C  C79  1  0.20079000  0.38287000  0.05509000  1.0 -0.0885897279
C  C80  1  0.20079000  0.11713000  0.55509000  1.0 -0.0885897279
C  C81  1  0.33295000  0.84149000  0.27255000  1.0 -0.0194258858
C  C82  1  0.33295000  0.65851000  0.77255000  1.0 -0.0194258858
C  C83  1  0.23950000  0.37640000  0.09540000  1.0 -0.1711598598
C  C84  1  0.23950000  0.12360000  0.59540000  1.0 -0.1805580359
C  C85  1  0.09660000  0.30992000  0.86820000  1.0 -0.0194258858
C  C86  1  0.09660000  0.19008000  0.36820000  1.0 -0.0194258858
C  C87  1  0.78450000  0.22717000  0.38760000  1.0 -0.0789584808
C  C88  1  0.78450000  0.27283000  0.88760000  1.0 -0.0789584808
C  C89  1  0.21880000  0.39064000  0.98940000  1.0 0.5805294824
C  C90  1  0.21880000  0.10936000  0.48940000  1.0 0.5805294824
C  C91  1  0.79161000  0.65766000  0.74081000  1.0 0.0024269265
C  C92  1  0.79161000  0.84234000  0.24081000  1.0 0.0024269265
C  C93  1  0.08458000  0.87322000  0.01268000  1.0 -0.0294368755
C  C94  1  0.08458000  0.62678000  0.51268000  1.0 -0.0294368755
C  C95  1  0.02740000  0.96441000  0.85540000  1.0 -0.0393696334
C  C96  1  0.02740000  0.53559000  0.35540000  1.0 -0.0393696334
C  C97  1  0.99510000  0.19573000  0.82830000  1.0 0.4536040521
C  C98  1  0.99510000  0.30427000  0.32830000  1.0 0.4536040521
C  C99  1  0.42426000  0.31374000  0.23636000  1.0 -0.131496328
C  C100  1  0.42426000  0.18626000  0.73636000  1.0 -0.131496328
C  C101  1  0.27561000  0.96188000  0.36491000  1.0 -0.2087215972
C  C102  1  0.27561000  0.53812000  0.86491000  1.0 -0.2087215972
C  C103  1  0.50310000  0.27934000  0.29350000  1.0 0.4536040521
C  C104  1  0.50310000  0.22066000  0.79350000  1.0 0.4536040521
C  C105  1  0.25890000  0.98835000  0.38300000  1.0 -0.0789584808
C  C106  1  0.25890000  0.51165000  0.88300000  1.0 -0.0789584808
C  C107  1  0.44770000  0.76386000  0.31350000  1.0 0.2238745822
C  C108  1  0.44770000  0.73614000  0.81350000  1.0 0.2238745822
C  C109  1  0.94400000  0.98133000  0.84590000  1.0 -0.0789584808
C  C110  1  0.94400000  0.51867000  0.34590000  1.0 -0.0789584808
C  C111  1  0.53640000  0.39551000  0.30640000  1.0 0.4599358112
C  C112  1  0.53640000  0.10449000  0.80640000  1.0 0.4599358112
C  C113  1  0.02120000  0.02494000  0.82650000  1.0 0.2386264214
C  C114  1  0.02120000  0.47506000  0.32650000  1.0 0.2386264214
C  C115  1  0.93870000  0.01183000  0.83120000  1.0 -0.1711598598
C  C116  1  0.93870000  0.48817000  0.33120000  1.0 -0.1711598598
C  C117  1  0.87730000  0.09393000  0.57530000  1.0 -0.0789584808
C  C118  1  0.87730000  0.40607000  0.07530000  1.0 -0.0789584808
C  C119  1  0.33690000  0.36990000  0.11240000  1.0 0.2306659748
C  C120  1  0.33690000  0.13010000  0.61240000  1.0 0.2306659748
C  C121  1  0.97640000  0.11175000  0.76150000  1.0 -0.1890693145
C  C122  1  0.97640000  0.38825000  0.26150000  1.0 -0.1890693145
C  C123  1  0.58180000  0.45029000  0.30910000  1.0 0.2306659748
C  C124  1  0.58180000  0.04971000  0.80910000  1.0 0.2306659748
C  C125  1  0.92050000  0.11582000  0.55870000  1.0 -0.0294368755
C  C126  1  0.92050000  0.38418000  0.05870000  1.0 -0.0294368755
C  C127  1  0.47944000  0.31186000  0.27664000  1.0 -0.0099643472
C  C128  1  0.47944000  0.18814000  0.77664000  1.0 -0.0099643472
C  C129  1  0.32077000  0.87126000  0.28567000  1.0 -0.1711598598
C  C130  1  0.32077000  0.62874000  0.78567000  1.0 -0.1711598598
C  C131  1  0.95870000  0.14417000  0.70010000  1.0 0.4536040521
C  C132  1  0.95870000  0.35583000  0.20010000  1.0 0.4536040521
C  C133  1  0.76303000  0.61595000  0.69273000  1.0 -0.0099643472
C  C134  1  0.76303000  0.88405000  0.19273000  1.0 -0.0099643472
C  C135  1  0.20410000  0.01418000  0.32210000  1.0 -0.0789584808
C  C136  1  0.20410000  0.48582000  0.82210000  1.0 -0.0789584808
C  C137  1  0.75810000  0.53578000  0.84920000  1.0 -0.1990146281
C  C138  1  0.75810000  0.96422000  0.34920000  1.0 -0.1990146281
C  C139  1  0.95048000  0.11830000  0.63888000  1.0 0.2386264214
C  C140  1  0.95048000  0.38170000  0.13888000  1.0 0.2386264214
C  C141  1  0.03400000  0.93169000  0.86860000  1.0 0.5805294824
C  C142  1  0.03400000  0.56831000  0.36860000  1.0 0.5805294824
C  C143  1  0.90240000  0.11516000  0.51470000  1.0 0.5888867084
C  C144  1  0.90240000  0.38484000  0.01470000  1.0 0.5888867084
C  C145  1  0.98150000  0.13779000  0.58260000  1.0 -0.0885897279
C  C146  1  0.98150000  0.36221000  0.08260000  1.0 -0.0885897279
C  C147  1  0.20700000  0.04423000  0.38150000  1.0 0.5411891101
C  C148  1  0.20700000  0.45577000  0.88150000  1.0 0.5472836851
C  C149  1  0.72350000  0.48110000  0.85840000  1.0 -0.0595681642
C  C150  1  0.72350000  0.01890000  0.35840000  1.0 -0.0595681642
C  C151  1  0.70270000  0.50179000  0.79430000  1.0 -0.2087215972
C  C152  1  0.70270000  0.99821000  0.29430000  1.0 -0.2087215972
C  C153  1  0.20930000  0.86290000  0.07620000  1.0 -0.1805580359
C  C154  1  0.20930000  0.63710000  0.57620000  1.0 -0.1805580359
C  C155  1  0.81260000  0.69208000  0.74920000  1.0 0.4599358112
C  C156  1  0.81260000  0.80792000  0.24920000  1.0 0.4599358112
C  C157  1  0.53270000  0.76794000  0.34380000  1.0 -0.1805580359
C  C158  1  0.53270000  0.73206000  0.84380000  1.0 -0.1805580359
C  C159  1  0.99570000  0.13965000  0.62270000  1.0 -0.1612232195
C  C160  1  0.99570000  0.36035000  0.12270000  1.0 -0.1612232195
C  C161  1  0.74430000  0.61790000  0.58600000  1.0 0.2238745822
C  C162  1  0.74430000  0.88210000  0.08600000  1.0 0.2238745822
C  C163  1  0.05397000  0.87345000  0.96847000  1.0 0.6001900791
C  C164  1  0.05397000  0.62655000  0.46847000  1.0 0.6001900791
C  C165  1  0.59050000  0.74260000  0.36100000  1.0 -0.0885897279
C  C166  1  0.59050000  0.75740000  0.86100000  1.0 -0.0885897279
C  C167  1  0.84140000  0.73250000  0.79990000  1.0 0.2386264214
C  C168  1  0.84140000  0.76750000  0.29990000  1.0 0.2386264214
C  C169  1  0.89300000  0.09499000  0.61580000  1.0 -0.1990146281
C  C170  1  0.89300000  0.40501000  0.11580000  1.0 -0.1990146281
C  C171  1  0.59300000  0.22106000  0.33820000  1.0 -0.1805580359
C  C172  1  0.59300000  0.27894000  0.83820000  1.0 -0.1805580359
C  C173  1  0.64540000  0.19562000  0.35900000  1.0 -0.0789584808
C  C174  1  0.64540000  0.30438000  0.85900000  1.0 -0.0789584808
C  C175  1  0.69670000  0.47729000  0.81810000  1.0 -0.0735417675
C  C176  1  0.69670000  0.02271000  0.31810000  1.0 -0.0735417675
C  C177  1  0.14740000  0.29826000  0.84510000  1.0 -0.0789584808
C  C178  1  0.14740000  0.20174000  0.34510000  1.0 -0.0789584808
C  C179  1  0.75340000  0.61070000  0.51020000  1.0 -0.0393696334
C  C180  1  0.75340000  0.88930000  0.01020000  1.0 -0.0393696334
C  C181  1  0.56530000  0.71370000  0.34980000  1.0 -0.0294368755
C  C182  1  0.56530000  0.78630000  0.84980000  1.0 -0.0294368755
C  C183  1  0.75530000  0.60319000  0.65290000  1.0 0.4536040521
C  C184  1  0.75530000  0.89681000  0.15290000  1.0 0.4599358112
C  C185  1  0.75620000  0.51010000  0.87430000  1.0 -0.0789584808
C  C186  1  0.75620000  0.98990000  0.37430000  1.0 -0.0789584808
C  C187  1  0.35860000  0.37830000  0.05060000  1.0 -0.0735417675
C  C188  1  0.35860000  0.12170000  0.55060000  1.0 -0.0735417675
C  C189  1  0.13090000  0.26884000  0.83050000  1.0 -0.1805580359
C  C190  1  0.13090000  0.23116000  0.33050000  1.0 -0.1805580359
C  C191  1  0.81180000  0.74282000  0.82940000  1.0 -0.1890693145
C  C192  1  0.81180000  0.75718000  0.32940000  1.0 -0.1890693145
C  C193  1  0.17830000  0.86340000  0.03520000  1.0 -0.0789584808
C  C194  1  0.17830000  0.63660000  0.53520000  1.0 -0.0789584808
C  C195  1  0.84480000  0.77102000  0.84830000  1.0 -0.0735417675
C  C196  1  0.84480000  0.72898000  0.34830000  1.0 -0.0735417675
C  C197  1  0.66780000  0.45060000  0.34070000  1.0 -0.1612232195
C  C198  1  0.66780000  0.04940000  0.84070000  1.0 -0.1612232195
C  C199  1  0.79030000  0.58843000  0.53930000  1.0 -0.0885897279
C  C200  1  0.79030000  0.91157000  0.03930000  1.0 -0.0885897279
C  C201  1  0.72590000  0.45440000  0.88480000  1.0 0.5411891101
C  C202  1  0.72590000  0.04560000  0.38480000  1.0 0.5345092772
C  C203  1  0.39740000  0.37090000  0.09060000  1.0 -0.1890693145
C  C204  1  0.39740000  0.12910000  0.59060000  1.0 -0.1890693145
C  C205  1  0.70460000  0.47850000  0.35800000  1.0 -0.0885897279
C  C206  1  0.70460000  0.02150000  0.85800000  1.0 -0.0885897279
C  C207  1  0.78430000  0.59150000  0.57600000  1.0 -0.1890693145
C  C208  1  0.78430000  0.90850000  0.07600000  1.0 -0.1890693145
C  C209  1  0.93570000  0.07790000  0.39520000  1.0 0.5219381659
C  C210  1  0.93570000  0.42210000  0.89520000  1.0 0.5219381659
C  C211  1  0.65730000  0.50520000  0.34780000  1.0 -0.0294368755
C  C212  1  0.65730000  0.99480000  0.84780000  1.0 -0.0294368755
C  C213  1  0.76340000  0.60760000  0.47060000  1.0 0.5734349249
C  C214  1  0.76340000  0.89240000  0.97060000  1.0 0.5734349249
C  C215  1  0.62980000  0.68610000  0.36950000  1.0 0.5888867084
C  C216  1  0.62980000  0.81390000  0.86950000  1.0 0.5888867084
C  C217  1  0.42180000  0.73380000  0.30060000  1.0 -0.1890693145
C  C218  1  0.42180000  0.76620000  0.80060000  1.0 -0.1890693145
C  C219  1  0.10740000  0.97760000  0.84950000  1.0 -0.0789584808
C  C220  1  0.10740000  0.52240000  0.34950000  1.0 -0.0789584808
C  C221  1  0.53290000  0.47780000  0.29490000  1.0 -0.1990146281
C  C222  1  0.53290000  0.02220000  0.79490000  1.0 -0.1990146281
C  C223  1  0.90220000  0.79020000  0.83640000  1.0 -0.0393696334
C  C224  1  0.90220000  0.70980000  0.33640000  1.0 -0.0393696334
C  C225  1  0.10470000  0.00780000  0.83610000  1.0 -0.1890693145
C  C226  1  0.10470000  0.49220000  0.33610000  1.0 -0.1890693145
C  C227  1  0.69560000  0.53600000  0.36800000  1.0 0.5888867084
C  C228  1  0.69560000  0.96400000  0.86800000  1.0 0.5888867084
C  C229  1  0.56960000  0.50460000  0.31590000  1.0 -0.0885897279
C  C230  1  0.56960000  0.99540000  0.81590000  1.0 -0.0885897279
C  C231  1  0.94210000  0.81940000  0.85680000  1.0 0.5609022288
C  C232  1  0.94210000  0.68060000  0.35680000  1.0 0.5609022288
C  C233  1  0.96000000  0.54070000  0.49300000  1.0 0.2890989355
C  C234  1  0.96000000  0.95930000  0.99300000  1.0 0.2890989355
C  C235  1  0.47580000  0.70870000  0.31930000  1.0 -0.0789584808
C  C236  1  0.47580000  0.79130000  0.81930000  1.0 -0.0789584808
C  C237  1  0.90470000  0.75060000  0.78870000  1.0 -0.1890693145
C  C238  1  0.90470000  0.74940000  0.28870000  1.0 -0.1890693145
C  C239  1  0.71140000  0.63670000  0.51960000  1.0 -0.0595681642
C  C240  1  0.71140000  0.86330000  0.01960000  1.0 -0.0595681642
C  C241  1  0.70870000  0.63950000  0.55710000  1.0 -0.2087215972
C  C242  1  0.70870000  0.86050000  0.05710000  1.0 -0.2087215972
C  C243  1  0.93640000  0.77970000  0.80730000  1.0 -0.0789584808
C  C244  1  0.93640000  0.72030000  0.30730000  1.0 -0.0789584808
C  C245  1  0.00100000  0.52470000  0.56230000  1.0 -0.3510262088
C  C246  1  0.00100000  0.97530000  0.06230000  1.0 -0.3510262088
C  C247  1  0.12920000  0.54110000  0.53930000  1.0 -0.339991966
C  C248  1  0.12920000  0.95890000  0.03930000  1.0 -0.339991966
C  C249  1  0.07780000  0.19290000  0.50780000  1.0 0.3014140933
C  C250  1  0.07780000  0.30710000  0.00780000  1.0 0.3014140933
C  C251  1  0.11390000  0.22450000  0.56850000  1.0 -0.339991966
C  C252  1  0.11390000  0.27550000  0.06850000  1.0 -0.339991966
C  C253  1  0.24460000  0.20300000  0.55050000  1.0 -0.3265302123
C  C254  1  0.24460000  0.29700000  0.05050000  1.0 -0.3265302123
C  C255  1  0.74907000  0.38864000  0.28117000  1.0 -0.131496328
C  C256  1  0.74907000  0.11136000  0.78117000  1.0 -0.131496328
C  C257  1  0.72192000  0.39478000  0.24122000  1.0 -0.0194258858
C  C258  1  0.72192000  0.10522000  0.74122000  1.0 -0.0194258858
C  C259  1  0.55420000  0.86964000  0.26010000  1.0 -0.1805580359
C  C260  1  0.55420000  0.63036000  0.76010000  1.0 -0.1805580359
C  C261  1  0.74040000  0.35901000  0.29510000  1.0 -0.0099643472
C  C262  1  0.74040000  0.14099000  0.79510000  1.0 -0.0099643472
C  C263  1  0.85463000  0.37139000  0.40573000  1.0 0.2306659748
C  C264  1  0.85463000  0.12861000  0.90573000  1.0 0.2306659748
C  C265  1  0.61111000  0.31886000  0.19621000  1.0 0.4536040521
C  C266  1  0.61111000  0.18114000  0.69621000  1.0 0.4536040521
C  C267  1  0.74686000  0.46089000  0.17536000  1.0 0.2306659748
C  C268  1  0.74686000  0.03911000  0.67536000  1.0 0.2306659748
C  C269  1  0.76396000  0.35157000  0.33816000  1.0 0.477333395
C  C270  1  0.76396000  0.14843000  0.83816000  1.0 0.477333395
C  C271  1  0.50400000  0.86745000  0.22030000  1.0 0.0024269265
C  C272  1  0.50400000  0.63255000  0.72030000  1.0 0.0024269265
C  C273  1  0.93942000  0.74992000  0.66232000  1.0 0.2306659748
C  C274  1  0.93942000  0.75008000  0.16232000  1.0 0.2306659748
C  C275  1  0.36080000  0.74992000  0.15760000  1.0 0.2306659748
C  C276  1  0.36080000  0.75008000  0.65760000  1.0 0.2306659748
C  C277  1  0.01777000  0.58097000  0.67787000  1.0 0.4599358112
C  C278  1  0.01777000  0.91903000  0.17787000  1.0 0.4599358112
C  C279  1  0.59269000  0.84291000  0.28199000  1.0 -0.0194258858
C  C280  1  0.59269000  0.65709000  0.78199000  1.0 -0.0194258858
C  C281  1  0.73909000  0.42756000  0.23059000  1.0 0.4536040521
C  C282  1  0.73909000  0.07244000  0.73059000  1.0 0.4536040521
C  C283  1  0.69917000  0.33515000  0.26787000  1.0 -0.1484600207
C  C284  1  0.69917000  0.16485000  0.76787000  1.0 -0.1484600207
C  C285  1  0.99011000  0.76093000  0.64011000  1.0 -0.1805580359
C  C286  1  0.99011000  0.73907000  0.14011000  1.0 -0.1805580359
C  C287  1  0.26430000  0.03113000  0.68960000  1.0 0.2306659748
C  C288  1  0.26430000  0.46887000  0.18960000  1.0 0.2306659748
C  C289  1  0.02191000  0.66796000  0.73541000  1.0 -0.1484600207
C  C290  1  0.02191000  0.83204000  0.23541000  1.0 -0.1484600207
C  C291  1  0.49016000  0.83882000  0.20166000  1.0 -0.1383847884
C  C292  1  0.49016000  0.66118000  0.70166000  1.0 -0.1383847884
C  C293  1  0.74050000  0.88397000  0.46750000  1.0 -0.0294368755
C  C294  1  0.74050000  0.61603000  0.96750000  1.0 -0.0294368755
C  C295  1  0.00501000  0.63791000  0.67741000  1.0 -0.131496328
C  C296  1  0.00501000  0.86209000  0.17741000  1.0 -0.131496328
C  C297  1  0.22550000  0.08366000  0.70700000  1.0 0.4536040521
C  C298  1  0.22550000  0.41634000  0.20700000  1.0 0.4536040521
C  C299  1  0.01241000  0.61045000  0.69841000  1.0 -0.0194258858
C  C300  1  0.01241000  0.88955000  0.19841000  1.0 -0.0194258858
C  C301  1  0.22296000  0.14752000  0.79766000  1.0 -0.1484600207
C  C302  1  0.22296000  0.35248000  0.29766000  1.0 -0.1484600207
C  C303  1  0.97151000  0.79182000  0.62481000  1.0 -0.0885897279
C  C304  1  0.97151000  0.70818000  0.12481000  1.0 -0.0885897279
C  C305  1  0.77560000  0.51527000  0.13830000  1.0 -0.0294368755
C  C306  1  0.77560000  0.98473000  0.63830000  1.0 -0.0294368755
C  C307  1  0.25930000  0.69859000  0.11620000  1.0 -0.0393696334
C  C308  1  0.25930000  0.80141000  0.61620000  1.0 -0.0393696334
C  C309  1  0.02888000  0.64036000  0.75708000  1.0 -0.0033350382
C  C310  1  0.02888000  0.85964000  0.25708000  1.0 -0.0033350382
C  C311  1  0.00801000  0.66687000  0.69561000  1.0 -0.0099643472
C  C312  1  0.00801000  0.83313000  0.19561000  1.0 -0.0099643472
C  C313  1  0.78350000  0.48775000  0.19710000  1.0 -0.1890693145
C  C314  1  0.78350000  0.01225000  0.69710000  1.0 -0.1890693145
C  C315  1  0.20439000  0.67033000  0.09459000  1.0 0.6001900791
C  C316  1  0.20439000  0.82967000  0.59459000  1.0 0.6001900791
C  C317  1  0.88334000  0.84257000  0.61564000  1.0 0.5805294824
C  C318  1  0.88334000  0.65743000  0.11564000  1.0 0.5805294824
C  C319  1  0.97642000  0.38196000  0.46832000  1.0 -0.0789584808
C  C320  1  0.97642000  0.11804000  0.96832000  1.0 -0.0789584808
C  C321  1  0.65391000  0.84467000  0.32501000  1.0 0.4688725317
C  C322  1  0.65391000  0.65533000  0.82501000  1.0 0.4688725317
C  C323  1  0.23888000  0.09481000  0.77858000  1.0 -0.1711598598
C  C324  1  0.23888000  0.40519000  0.27858000  1.0 -0.1711598598
C  C325  1  0.22370000  0.10446000  0.74040000  1.0 -0.0194258858
C  C326  1  0.22370000  0.39554000  0.24040000  1.0 -0.0194258858
C  C327  1  0.26520000  0.75297000  0.13240000  1.0 -0.1890693145
C  C328  1  0.26520000  0.74703000  0.63240000  1.0 -0.1890693145
C  C329  1  0.20865000  0.13631000  0.73115000  1.0 -0.1383847884
C  C330  1  0.20865000  0.36369000  0.23115000  1.0 -0.1383847884
C  C331  1  0.94772000  0.38158000  0.42772000  1.0 -0.1805580359
C  C332  1  0.94772000  0.11842000  0.92772000  1.0 -0.1805580359
C  C333  1  0.79921000  0.88287000  0.44491000  1.0 -0.0885897279
C  C334  1  0.79921000  0.61713000  0.94491000  1.0 -0.0885897279
C  C335  1  0.66705000  0.34149000  0.22745000  1.0 -0.0194258858
C  C336  1  0.66705000  0.15851000  0.72745000  1.0 -0.0194258858
C  C337  1  0.76050000  0.87640000  0.40460000  1.0 -0.1711598598
C  C338  1  0.76050000  0.62360000  0.90460000  1.0 -0.1711598598
C  C339  1  0.90340000  0.80992000  0.63180000  1.0 -0.0194258858
C  C340  1  0.90340000  0.69008000  0.13180000  1.0 -0.0194258858
C  C341  1  0.21550000  0.72717000  0.11240000  1.0 -0.0789584808
C  C342  1  0.21550000  0.77283000  0.61240000  1.0 -0.0789584808
C  C343  1  0.78120000  0.89064000  0.51060000  1.0 0.5805294824
C  C344  1  0.78120000  0.60936000  0.01060000  1.0 0.5805294824
C  C345  1  0.20839000  0.15766000  0.75919000  1.0 0.0024269265
C  C346  1  0.20839000  0.34234000  0.25919000  1.0 0.0024269265
C  C347  1  0.91542000  0.37322000  0.48732000  1.0 -0.0294368755
C  C348  1  0.91542000  0.12678000  0.98732000  1.0 -0.0294368755
C  C349  1  0.97260000  0.46441000  0.64460000  1.0 -0.0393696334
C  C350  1  0.97260000  0.03559000  0.14460000  1.0 -0.0393696334
C  C351  1  0.00490000  0.69573000  0.67170000  1.0 0.4599358112
C  C352  1  0.00490000  0.80427000  0.17170000  1.0 0.4599358112
C  C353  1  0.57574000  0.81374000  0.26364000  1.0 -0.131496328
C  C354  1  0.57574000  0.68626000  0.76364000  1.0 -0.131496328
C  C355  1  0.72439000  0.46188000  0.13509000  1.0 -0.2087215972
C  C356  1  0.72439000  0.03812000  0.63509000  1.0 -0.2087215972
C  C357  1  0.49690000  0.77934000  0.20650000  1.0 0.4536040521
C  C358  1  0.49690000  0.72066000  0.70650000  1.0 0.4536040521
C  C359  1  0.74110000  0.48835000  0.11700000  1.0 -0.0789584808
C  C360  1  0.74110000  0.01165000  0.61700000  1.0 -0.0789584808
C  C361  1  0.55230000  0.26386000  0.18650000  1.0 0.2238745822
C  C362  1  0.55230000  0.23614000  0.68650000  1.0 0.2238745822
C  C363  1  0.05600000  0.48133000  0.65410000  1.0 -0.0789584808
C  C364  1  0.05600000  0.01867000  0.15410000  1.0 -0.0789584808
C  C365  1  0.46360000  0.89551000  0.19360000  1.0 0.4599358112
C  C366  1  0.46360000  0.60449000  0.69360000  1.0 0.4599358112
C  C367  1  0.97880000  0.52494000  0.67350000  1.0 0.2386264214
C  C368  1  0.97880000  0.97506000  0.17350000  1.0 0.2386264214
C  C369  1  0.06130000  0.51183000  0.66880000  1.0 -0.1711598598
C  C370  1  0.06130000  0.98817000  0.16880000  1.0 -0.1805580359
C  C371  1  0.12270000  0.59393000  0.92470000  1.0 -0.0789584808
C  C372  1  0.12270000  0.90607000  0.42470000  1.0 -0.0789584808
C  C373  1  0.66310000  0.86990000  0.38760000  1.0 0.2306659748
C  C374  1  0.66310000  0.63010000  0.88760000  1.0 0.2306659748
C  C375  1  0.02360000  0.61175000  0.73850000  1.0 -0.1890693145
C  C376  1  0.02360000  0.88825000  0.23850000  1.0 -0.1890693145
C  C377  1  0.41820000  0.95029000  0.19090000  1.0 0.2306659748
C  C378  1  0.41820000  0.54971000  0.69090000  1.0 0.2306659748
C  C379  1  0.07950000  0.61582000  0.94130000  1.0 -0.0194258858
C  C380  1  0.07950000  0.88418000  0.44130000  1.0 -0.0294368755
C  C381  1  0.52056000  0.81186000  0.22336000  1.0 -0.0099643472
C  C382  1  0.52056000  0.68814000  0.72336000  1.0 -0.0099643472
C  C383  1  0.67923000  0.37126000  0.21433000  1.0 -0.1711598598
C  C384  1  0.67923000  0.12874000  0.71433000  1.0 -0.1711598598
C  C385  1  0.04130000  0.64417000  0.79990000  1.0 0.4536040521
C  C386  1  0.04130000  0.85583000  0.29990000  1.0 0.4536040521
C  C387  1  0.23697000  0.11595000  0.80727000  1.0 -0.0099643472
C  C388  1  0.23697000  0.38405000  0.30727000  1.0 -0.0099643472
C  C389  1  0.79590000  0.51418000  0.17790000  1.0 -0.0789584808
C  C390  1  0.79590000  0.98582000  0.67790000  1.0 -0.0789584808
C  C391  1  0.24190000  0.03578000  0.65080000  1.0 -0.1990146281
C  C392  1  0.24190000  0.46422000  0.15080000  1.0 -0.1990146281
C  C393  1  0.04952000  0.61830000  0.86112000  1.0 0.2386264214
C  C394  1  0.04952000  0.88170000  0.36112000  1.0 0.2386264214
C  C395  1  0.96600000  0.43169000  0.63140000  1.0 0.5805294824
C  C396  1  0.96600000  0.06831000  0.13140000  1.0 0.5805294824
C  C397  1  0.09760000  0.61516000  0.98530000  1.0 0.5888867084
C  C398  1  0.09760000  0.88484000  0.48530000  1.0 0.5888867084
C  C399  1  0.01850000  0.63779000  0.91740000  1.0 -0.0885897279
C  C400  1  0.01850000  0.86221000  0.41740000  1.0 -0.0885897279
C  C401  1  0.79300000  0.54423000  0.11850000  1.0 0.5411891101
C  C402  1  0.79300000  0.95577000  0.61850000  1.0 0.5411891101
C  C403  1  0.27650000  0.98110000  0.64160000  1.0 -0.0595681642
C  C404  1  0.27650000  0.51890000  0.14160000  1.0 -0.0595681642
C  C405  1  0.29730000  0.00179000  0.70570000  1.0 -0.2087215972
C  C406  1  0.29730000  0.49821000  0.20570000  1.0 -0.2087215972
C  C407  1  0.79070000  0.36290000  0.42380000  1.0 -0.1805580359
C  C408  1  0.79070000  0.13710000  0.92380000  1.0 -0.1805580359
C  C409  1  0.18740000  0.19208000  0.75080000  1.0 0.4599358112
C  C410  1  0.18740000  0.30792000  0.25080000  1.0 0.4599358112
C  C411  1  0.46730000  0.26794000  0.15620000  1.0 -0.1805580359
C  C412  1  0.46730000  0.23206000  0.65620000  1.0 -0.1805580359
C  C413  1  0.00430000  0.63965000  0.87730000  1.0 -0.1612232195
C  C414  1  0.00430000  0.86035000  0.37730000  1.0 -0.1612232195
C  C415  1  0.25570000  0.11790000  0.91400000  1.0 0.2238745822
C  C416  1  0.25570000  0.38210000  0.41400000  1.0 0.2238745822
C  C417  1  0.94603000  0.37345000  0.53153000  1.0 0.6001900791
C  C418  1  0.94603000  0.12655000  0.03153000  1.0 0.6001900791
C  C419  1  0.40950000  0.24260000  0.13900000  1.0 -0.0885897279
C  C420  1  0.40950000  0.25740000  0.63900000  1.0 -0.0885897279
C  C421  1  0.15860000  0.23250000  0.70010000  1.0 0.2386264214
C  C422  1  0.15860000  0.26750000  0.20010000  1.0 0.2386264214
C  C423  1  0.10700000  0.59499000  0.88420000  1.0 -0.1990146281
C  C424  1  0.10700000  0.90501000  0.38420000  1.0 -0.1990146281
C  C425  1  0.40700000  0.72106000  0.16180000  1.0 -0.1805580359
C  C426  1  0.40700000  0.77894000  0.66180000  1.0 -0.1805580359
C  C427  1  0.35460000  0.69562000  0.14100000  1.0 -0.0789584808
C  C428  1  0.35460000  0.80438000  0.64100000  1.0 -0.0789584808
C  C429  1  0.30330000  0.97729000  0.68190000  1.0 -0.0735417675
C  C430  1  0.30330000  0.52271000  0.18190000  1.0 -0.0789584808
C  C431  1  0.85260000  0.79826000  0.65490000  1.0 -0.0789584808
C  C432  1  0.85260000  0.70174000  0.15490000  1.0 -0.0789584808
C  C433  1  0.24660000  0.11070000  0.98980000  1.0 -0.0393696334
C  C434  1  0.24660000  0.38930000  0.48980000  1.0 -0.0393696334
C  C435  1  0.43470000  0.21370000  0.15020000  1.0 -0.0294368755
C  C436  1  0.43470000  0.28630000  0.65020000  1.0 -0.0294368755
C  C437  1  0.24470000  0.10319000  0.84710000  1.0 0.4536040521
C  C438  1  0.24470000  0.39681000  0.34710000  1.0 0.4536040521
C  C439  1  0.24380000  0.01010000  0.62570000  1.0 -0.0789584808
C  C440  1  0.24380000  0.48990000  0.12570000  1.0 -0.0789584808
C  C441  1  0.64140000  0.87830000  0.44940000  1.0 -0.0735417675
C  C442  1  0.64140000  0.62170000  0.94940000  1.0 -0.0735417675
C  C443  1  0.86910000  0.76884000  0.66950000  1.0 -0.1890693145
C  C444  1  0.86910000  0.73116000  0.16950000  1.0 -0.1805580359
C  C445  1  0.18820000  0.24282000  0.67060000  1.0 -0.1890693145
C  C446  1  0.18820000  0.25718000  0.17060000  1.0 -0.1890693145
C  C447  1  0.82170000  0.36340000  0.46480000  1.0 -0.0789584808
C  C448  1  0.82170000  0.13660000  0.96480000  1.0 -0.0789584808
C  C449  1  0.15520000  0.27102000  0.65170000  1.0 -0.0735417675
C  C450  1  0.15520000  0.22898000  0.15170000  1.0 -0.0735417675
C  C451  1  0.33220000  0.95060000  0.15930000  1.0 -0.1612232195
C  C452  1  0.33220000  0.54940000  0.65930000  1.0 -0.1612232195
C  C453  1  0.20970000  0.08843000  0.96070000  1.0 -0.0885897279
C  C454  1  0.20970000  0.41157000  0.46070000  1.0 -0.0885897279
C  C455  1  0.27410000  0.95440000  0.61520000  1.0 0.5411891101
C  C456  1  0.27410000  0.54560000  0.11520000  1.0 0.5345092772
C  C457  1  0.60260000  0.87090000  0.40940000  1.0 -0.1990146281
C  C458  1  0.60260000  0.62910000  0.90940000  1.0 -0.1890693145
C  C459  1  0.29540000  0.97850000  0.14200000  1.0 -0.0885897279
C  C460  1  0.29540000  0.52150000  0.64200000  1.0 -0.0885897279
C  C461  1  0.21570000  0.09150000  0.92400000  1.0 -0.1890693145
C  C462  1  0.21570000  0.40850000  0.42400000  1.0 -0.1890693145
C  C463  1  0.06430000  0.57790000  0.10480000  1.0 0.5219381659
C  C464  1  0.06430000  0.92210000  0.60480000  1.0 0.5219381659
C  C465  1  0.34270000  0.00520000  0.15220000  1.0 -0.0194258858
C  C466  1  0.34270000  0.49480000  0.65220000  1.0 -0.0294368755
C  C467  1  0.23660000  0.10760000  0.02940000  1.0 0.5734349249
C  C468  1  0.23660000  0.39240000  0.52940000  1.0 0.5734349249
C  C469  1  0.37020000  0.18610000  0.13050000  1.0 0.5888867084
C  C470  1  0.37020000  0.31390000  0.63050000  1.0 0.5888867084
C  C471  1  0.57820000  0.23380000  0.19940000  1.0 -0.1890693145
C  C472  1  0.57820000  0.26620000  0.69940000  1.0 -0.1890693145
C  C473  1  0.89260000  0.47760000  0.65050000  1.0 -0.0789584808
C  C474  1  0.89260000  0.02240000  0.15050000  1.0 -0.0789584808
C  C475  1  0.46710000  0.97780000  0.20510000  1.0 -0.1990146281
C  C476  1  0.46710000  0.52220000  0.70510000  1.0 -0.1990146281
C  C477  1  0.09780000  0.29020000  0.66360000  1.0 -0.0393696334
C  C478  1  0.09780000  0.20980000  0.16360000  1.0 -0.0393696334
C  C479  1  0.89530000  0.50780000  0.66390000  1.0 -0.1890693145
C  C480  1  0.89530000  0.99220000  0.16390000  1.0 -0.1890693145
C  C481  1  0.30440000  0.03600000  0.13200000  1.0 0.5888867084
C  C482  1  0.30440000  0.46400000  0.63200000  1.0 0.5805294824
C  C483  1  0.43040000  0.00460000  0.18410000  1.0 -0.0885897279
C  C484  1  0.43040000  0.49540000  0.68410000  1.0 -0.0885897279
C  C485  1  0.05790000  0.31940000  0.64320000  1.0 0.5609022288
C  C486  1  0.05790000  0.18060000  0.14320000  1.0 0.5609022288
C  C487  1  0.04000000  0.04070000  0.00700000  1.0 0.2890989355
C  C488  1  0.04000000  0.45930000  0.50700000  1.0 0.2890989355
C  C489  1  0.52420000  0.20870000  0.18070000  1.0 -0.0789584808
C  C490  1  0.52420000  0.29130000  0.68070000  1.0 -0.0789584808
C  C491  1  0.09530000  0.25060000  0.71130000  1.0 -0.1890693145
C  C492  1  0.09530000  0.24940000  0.21130000  1.0 -0.1890693145
C  C493  1  0.28860000  0.13670000  0.98040000  1.0 -0.0595681642
C  C494  1  0.28860000  0.36330000  0.48040000  1.0 -0.0595681642
C  C495  1  0.29130000  0.13950000  0.94290000  1.0 -0.2087215972
C  C496  1  0.29130000  0.36050000  0.44290000  1.0 -0.2087215972
C  C497  1  0.06360000  0.27970000  0.69270000  1.0 -0.0789584808
C  C498  1  0.06360000  0.22030000  0.19270000  1.0 -0.0789584808
C  C499  1  0.99900000  0.02470000  0.93770000  1.0 -0.3510262088
C  C500  1  0.99900000  0.47530000  0.43770000  1.0 -0.3510262088
C  C501  1  0.87080000  0.04110000  0.96070000  1.0 -0.339991966
C  C502  1  0.87080000  0.45890000  0.46070000  1.0 -0.339991966
C  C503  1  0.92220000  0.69290000  0.99220000  1.0 0.3014140933
C  C504  1  0.92220000  0.80710000  0.49220000  1.0 0.3014140933
C  C505  1  0.88610000  0.72450000  0.93150000  1.0 -0.339991966
C  C506  1  0.88610000  0.77550000  0.43150000  1.0 -0.339991966
C  C507  1  0.75540000  0.70300000  0.94950000  1.0 -0.3265302123
C  C508  1  0.75540000  0.79700000  0.44950000  1.0 -0.3265302123
N  N1  1  0.26937000  0.93267000  0.30767000  1.0 -0.378103542
N  N2  1  0.26937000  0.56733000  0.80767000  1.0 -0.378103542
N  N3  1  0.17477000  0.87260000  0.13637000  1.0 -0.385129744
N  N4  1  0.17477000  0.62740000  0.63637000  1.0 -0.385129744
N  N5  1  0.59294000  0.27704000  0.32224000  1.0 -0.3591327013
N  N6  1  0.59294000  0.22296000  0.82224000  1.0 -0.3591327013
N  N7  1  0.74358000  0.55445000  0.78368000  1.0 -0.378103542
N  N8  1  0.74358000  0.94555000  0.28368000  1.0 -0.3710123706
N  N9  1  0.04463000  0.21974000  0.82003000  1.0 -0.3710123706
N  N10  1  0.04463000  0.28026000  0.32003000  1.0 -0.3710123706
N  N11  1  0.01720000  0.05523000  0.81000000  1.0 -0.3710123706
N  N12  1  0.01720000  0.44477000  0.31000000  1.0 -0.3710123706
N  N13  1  0.38543000  0.78826000  0.29253000  1.0 -0.3710123706
N  N14  1  0.38543000  0.71174000  0.79253000  1.0 -0.3710123706
N  N15  1  0.54120000  0.42223000  0.28820000  1.0 -0.378103542
N  N16  1  0.54120000  0.07777000  0.78820000  1.0 -0.378103542
N  N17  1  0.96447000  0.11855000  0.67977000  1.0 -0.378103542
N  N18  1  0.96447000  0.38145000  0.17977000  1.0 -0.378103542
N  N19  1  0.81114000  0.70244000  0.78374000  1.0 -0.3591327013
N  N20  1  0.81114000  0.79756000  0.28374000  1.0 -0.3591327013
N  N21  1  0.38230000  0.36381000  0.15340000  1.0 -0.3710123706
N  N22  1  0.38230000  0.13619000  0.65340000  1.0 -0.3710123706
N  N23  1  0.74159000  0.62379000  0.62349000  1.0 -0.3591327013
N  N24  1  0.74159000  0.87621000  0.12349000  1.0 -0.3591327013
N  N25  1  0.02570000  0.53560000  0.52910000  1.0 0.0323933868
N  N26  1  0.02570000  0.96440000  0.02910000  1.0 0.0323933868
N  N27  1  0.14060000  0.20830000  0.53850000  1.0 0.0458404629
N  N28  1  0.14060000  0.29170000  0.03850000  1.0 0.0458404629
N  N29  1  0.73063000  0.43267000  0.19233000  1.0 -0.378103542
N  N30  1  0.73063000  0.06733000  0.69233000  1.0 -0.378103542
N  N31  1  0.82523000  0.37260000  0.36363000  1.0 -0.385129744
N  N32  1  0.82523000  0.12740000  0.86363000  1.0 -0.385129744
N  N33  1  0.40706000  0.77704000  0.17776000  1.0 -0.3591327013
N  N34  1  0.40706000  0.72296000  0.67776000  1.0 -0.3591327013
N  N35  1  0.25642000  0.05445000  0.71632000  1.0 -0.378103542
N  N36  1  0.25642000  0.44555000  0.21632000  1.0 -0.3710123706
N  N37  1  0.95537000  0.71974000  0.67997000  1.0 -0.3710123706
N  N38  1  0.95537000  0.78026000  0.17997000  1.0 -0.3710123706
N  N39  1  0.98280000  0.55523000  0.69000000  1.0 -0.3710123706
N  N40  1  0.98280000  0.94477000  0.19000000  1.0 -0.3710123706
N  N41  1  0.61457000  0.28826000  0.20747000  1.0 -0.3710123706
N  N42  1  0.61457000  0.21174000  0.70747000  1.0 -0.3710123706
N  N43  1  0.45880000  0.92223000  0.21180000  1.0 -0.378103542
N  N44  1  0.45880000  0.57777000  0.71180000  1.0 -0.378103542
N  N45  1  0.03553000  0.61855000  0.82023000  1.0 -0.378103542
N  N46  1  0.03553000  0.88145000  0.32023000  1.0 -0.378103542
N  N47  1  0.18886000  0.20244000  0.71626000  1.0 -0.3591327013
N  N48  1  0.18886000  0.29756000  0.21626000  1.0 -0.3591327013
N  N49  1  0.61770000  0.86381000  0.34660000  1.0 -0.3710123706
N  N50  1  0.61770000  0.63619000  0.84660000  1.0 -0.3710123706
N  N51  1  0.25841000  0.12379000  0.87651000  1.0 -0.3591327013
N  N52  1  0.25841000  0.37621000  0.37651000  1.0 -0.3591327013
N  N53  1  0.97430000  0.03560000  0.97090000  1.0 0.0323933868
N  N54  1  0.97430000  0.46440000  0.47090000  1.0 0.0323933868
N  N55  1  0.85940000  0.70830000  0.96150000  1.0 0.0458404629
N  N56  1  0.85940000  0.79170000  0.46150000  1.0 0.0458404629
O  O1  1  0.27177000  0.32955000  0.16127000  1.0 -0.4704636961
O  O2  1  0.27177000  0.17045000  0.66127000  1.0 -0.4704636961
O  O3  1  0.12809000  0.39613000  0.97309000  1.0 -0.5942742468
O  O4  1  0.12809000  0.10387000  0.47309000  1.0 -0.6014259896
O  O5  1  0.26936000  0.82889000  0.15096000  1.0 -0.4704636961
O  O6  1  0.26936000  0.67111000  0.65096000  1.0 -0.4704636961
O  O7  1  0.88527000  0.17378000  0.42297000  1.0 -0.5612087638
O  O8  1  0.88527000  0.32622000  0.92297000  1.0 -0.5612087638
O  O9  1  0.43701000  0.82759000  0.33661000  1.0 -0.4506866413
O  O10  1  0.43701000  0.67241000  0.83661000  1.0 -0.4506866413
O  O11  1  0.91569000  0.09621000  0.41829000  1.0 -0.5612087638
O  O12  1  0.91569000  0.40379000  0.91829000  1.0 -0.5612087638
O  O13  1  0.74851000  0.14594000  0.40461000  1.0 -0.5493217201
O  O14  1  0.74851000  0.35406000  0.90461000  1.0 -0.5493217201
O  O15  1  0.78640000  0.61595000  0.37750000  1.0 -0.8772834779
O  O16  1  0.78640000  0.88405000  0.87750000  1.0 -0.8772834779
O  O17  1  0.06264000  0.35378000  0.90084000  1.0 -0.579015306
O  O18  1  0.06264000  0.14622000  0.40084000  1.0 -0.579015306
O  O19  1  0.94833000  0.08012000  0.84833000  1.0 -0.4704636961
O  O20  1  0.94833000  0.41988000  0.34833000  1.0 -0.4704636961
O  O21  1  0.95490000  0.13231000  0.50280000  1.0 -0.579015306
O  O22  1  0.95490000  0.36769000  0.00280000  1.0 -0.579015306
O  O23  1  0.96389000  0.87850000  0.94799000  1.0 -0.6014259896
O  O24  1  0.96389000  0.62150000  0.44799000  1.0 -0.6053139807
O  O25  1  0.96392000  0.91943000  0.87712000  1.0 -0.5746515037
O  O26  1  0.96392000  0.58057000  0.37712000  1.0 -0.579015306
O  O27  1  0.18255000  0.35811000  0.87945000  1.0 -0.4902602376
O  O28  1  0.18255000  0.14189000  0.37945000  1.0 -0.4902602376
O  O29  1  0.83687000  0.09741000  0.49437000  1.0 -0.5378414632
O  O30  1  0.83687000  0.40259000  0.99437000  1.0 -0.5378414632
O  O31  1  0.27506000  0.39171000  0.97026000  1.0 -0.5097515488
O  O32  1  0.27506000  0.10829000  0.47026000  1.0 -0.5097515488
O  O33  1  0.83136000  0.70871000  0.72546000  1.0 -0.4796586515
O  O34  1  0.83136000  0.79129000  0.22546000  1.0 -0.4796586515
O  O35  1  0.21186000  0.04347000  0.41686000  1.0 -0.5302109263
O  O36  1  0.21186000  0.45653000  0.91686000  1.0 -0.5302109263
O  O37  1  0.69893000  0.42774000  0.86923000  1.0 -0.5493217201
O  O38  1  0.69893000  0.07226000  0.36923000  1.0 -0.5493217201
O  O39  1  0.79928000  0.58373000  0.46338000  1.0 -0.5302109263
O  O40  1  0.79928000  0.91627000  0.96338000  1.0 -0.5302109263
O  O41  1  0.44708000  0.25812000  0.28118000  1.0 -0.4391287424
O  O42  1  0.44708000  0.24188000  0.78118000  1.0 -0.4391287424
O  O43  1  0.76578000  0.57500000  0.64988000  1.0 -0.4704636961
O  O44  1  0.76578000  0.92500000  0.14988000  1.0 -0.4704636961
O  O45  1  0.18510000  0.06859000  0.36170000  1.0 -0.5097515488
O  O46  1  0.18510000  0.43141000  0.86170000  1.0 -0.5097515488
O  O47  1  0.23646000  0.94761000  0.24406000  1.0 -0.4391287424
O  O48  1  0.23646000  0.55239000  0.74406000  1.0 -0.4391287424
O  O49  1  0.00740000  0.07591000  0.38640000  1.0 -0.4319062547
O  O50  1  0.00740000  0.42409000  0.88640000  1.0 -0.4319062547
O  O51  1  0.11596000  0.86834000  0.95326000  1.0 -0.5097515488
O  O52  1  0.11596000  0.63166000  0.45326000  1.0 -0.5097515488
O  O53  1  0.78340000  0.53635000  0.38920000  1.0 -0.5302109263
O  O54  1  0.78340000  0.96365000  0.88920000  1.0 -0.5302109263
O  O55  1  0.56593000  0.39226000  0.34213000  1.0 -0.4391287424
O  O56  1  0.56593000  0.10774000  0.84213000  1.0 -0.4391287424
O  O57  1  0.95460000  0.19674000  0.85190000  1.0 -0.4391287424
O  O58  1  0.95460000  0.30326000  0.35190000  1.0 -0.4391287424
O  O59  1  0.75830000  0.45794000  0.92160000  1.0 -0.5493217201
O  O60  1  0.75830000  0.04206000  0.42160000  1.0 -0.5493217201
O  O61  1  0.71200000  0.69186000  0.39150000  1.0 -0.5097515488
O  O62  1  0.71200000  0.80814000  0.89150000  1.0 -0.5097515488
O  O63  1  0.80040000  0.59427000  0.82610000  1.0 -0.4391287424
O  O64  1  0.80040000  0.90573000  0.32610000  1.0 -0.4391287424
O  O65  1  0.94302000  0.17011000  0.68472000  1.0 -0.4506866413
O  O66  1  0.94302000  0.32989000  0.18472000  1.0 -0.4506866413
O  O67  1  0.10590000  0.91537000  0.87150000  1.0 -0.498160647
O  O68  1  0.10590000  0.58463000  0.37150000  1.0 -0.498160647
O  O69  1  0.58910000  0.65909000  0.36040000  1.0 -0.4506866413
O  O70  1  0.58910000  0.84091000  0.86040000  1.0 -0.4506866413
O  O71  1  0.97990000  0.54940000  0.46430000  1.0 -0.4569864215
O  O72  1  0.97990000  0.95060000  0.96430000  1.0 -0.4569864215
O  O73  1  0.73530000  0.63060000  0.44780000  1.0 -0.5177769305
O  O74  1  0.73530000  0.86940000  0.94780000  1.0 -0.5177769305
O  O75  1  0.62060000  0.10450000  0.43560000  1.0 -0.2257927995
O  O76  1  0.62060000  0.39550000  0.93560000  1.0 -0.2257927995
O  O77  1  0.93360000  0.82645000  0.88680000  1.0 -0.498160647
O  O78  1  0.93360000  0.67355000  0.38680000  1.0 -0.498160647
O  O79  1  0.99070000  0.83712000  0.84220000  1.0 -0.4902602376
O  O80  1  0.99070000  0.66288000  0.34220000  1.0 -0.4902602376
O  O81  1  0.64100000  0.55770000  0.36560000  1.0 -0.4319062547
O  O82  1  0.64100000  0.94230000  0.86560000  1.0 -0.4319062547
O  O83  1  0.51140000  0.59840000  0.39660000  1.0 -0.4796586515
O  O84  1  0.51140000  0.90160000  0.89660000  1.0 -0.4569864215
O  O85  1  0.20500000  0.84740000  0.88980000  1.0 -0.2576687278
O  O86  1  0.20500000  0.65260000  0.38980000  1.0 -0.2476611973
O  O87  1  0.10290000  0.17560000  0.48610000  1.0 -0.4391287424
O  O88  1  0.10290000  0.32440000  0.98610000  1.0 -0.4391287424
O  O89  1  0.90420000  0.68610000  0.47330000  1.0 -0.4249747039
O  O90  1  0.90420000  0.81390000  0.97330000  1.0 -0.4249747039
O  O91  1  0.72823000  0.82955000  0.33873000  1.0 -0.4704636961
O  O92  1  0.72823000  0.67045000  0.83873000  1.0 -0.4704636961
O  O93  1  0.87191000  0.89613000  0.52691000  1.0 -0.5942742468
O  O94  1  0.87191000  0.60387000  0.02691000  1.0 -0.5942742468
O  O95  1  0.73064000  0.32889000  0.34904000  1.0 -0.4704636961
O  O96  1  0.73064000  0.17111000  0.84904000  1.0 -0.4704636961
O  O97  1  0.11473000  0.67378000  0.07703000  1.0 -0.5612087638
O  O98  1  0.11473000  0.82622000  0.57703000  1.0 -0.5612087638
O  O99  1  0.56299000  0.32759000  0.16339000  1.0 -0.4569864215
O  O100  1  0.56299000  0.17241000  0.66339000  1.0 -0.4506866413
O  O101  1  0.08431000  0.59621000  0.08171000  1.0 -0.5612087638
O  O102  1  0.08431000  0.90379000  0.58171000  1.0 -0.5612087638
O  O103  1  0.25149000  0.64594000  0.09539000  1.0 -0.5493217201
O  O104  1  0.25149000  0.85406000  0.59539000  1.0 -0.5493217201
O  O105  1  0.21360000  0.11595000  0.12250000  1.0 -0.8772834779
O  O106  1  0.21360000  0.38405000  0.62250000  1.0 -0.8772834779
O  O107  1  0.93736000  0.85378000  0.59916000  1.0 -0.579015306
O  O108  1  0.93736000  0.64622000  0.09916000  1.0 -0.579015306
O  O109  1  0.05167000  0.58012000  0.65167000  1.0 -0.4704636961
O  O110  1  0.05167000  0.91988000  0.15167000  1.0 -0.4704636961
O  O111  1  0.04510000  0.63231000  0.99720000  1.0 -0.579015306
O  O112  1  0.04510000  0.86769000  0.49720000  1.0 -0.579015306
O  O113  1  0.03611000  0.37850000  0.55201000  1.0 -0.6053139807
O  O114  1  0.03611000  0.12150000  0.05201000  1.0 -0.6014259896
O  O115  1  0.03608000  0.41943000  0.62288000  1.0 -0.579015306
O  O116  1  0.03608000  0.08057000  0.12288000  1.0 -0.579015306
O  O117  1  0.81745000  0.85811000  0.62055000  1.0 -0.4902602376
O  O118  1  0.81745000  0.64189000  0.12055000  1.0 -0.4902602376
O  O119  1  0.16313000  0.59741000  0.00563000  1.0 -0.5378414632
O  O120  1  0.16313000  0.90259000  0.50563000  1.0 -0.5378414632
O  O121  1  0.72494000  0.89171000  0.52974000  1.0 -0.5097515488
O  O122  1  0.72494000  0.60829000  0.02974000  1.0 -0.5097515488
O  O123  1  0.16864000  0.20871000  0.77454000  1.0 -0.4796586515
O  O124  1  0.16864000  0.29129000  0.27454000  1.0 -0.4796586515
O  O125  1  0.78814000  0.54347000  0.08314000  1.0 -0.5302109263
O  O126  1  0.78814000  0.95653000  0.58314000  1.0 -0.5302109263
O  O127  1  0.30107000  0.92774000  0.63077000  1.0 -0.5493217201
O  O128  1  0.30107000  0.57226000  0.13077000  1.0 -0.5493217201
O  O129  1  0.20072000  0.08373000  0.03662000  1.0 -0.5302109263
O  O130  1  0.20072000  0.41627000  0.53662000  1.0 -0.5302109263
O  O131  1  0.55292000  0.75812000  0.21882000  1.0 -0.4391287424
O  O132  1  0.55292000  0.74188000  0.71882000  1.0 -0.4391287424
O  O133  1  0.23422000  0.07500000  0.85012000  1.0 -0.4704636961
O  O134  1  0.23422000  0.42500000  0.35012000  1.0 -0.4704636961
O  O135  1  0.81490000  0.56859000  0.13830000  1.0 -0.5097515488
O  O136  1  0.81490000  0.93141000  0.63830000  1.0 -0.5097515488
O  O137  1  0.76354000  0.44761000  0.25594000  1.0 -0.4391287424
O  O138  1  0.76354000  0.05239000  0.75594000  1.0 -0.4391287424
O  O139  1  0.99260000  0.57591000  0.11360000  1.0 -0.4319062547
O  O140  1  0.99260000  0.92409000  0.61360000  1.0 -0.4319062547
O  O141  1  0.88404000  0.36834000  0.54674000  1.0 -0.5097515488
O  O142  1  0.88404000  0.13166000  0.04674000  1.0 -0.5097515488
O  O143  1  0.21660000  0.03635000  0.11080000  1.0 -0.5302109263
O  O144  1  0.21660000  0.46365000  0.61080000  1.0 -0.5302109263
O  O145  1  0.43407000  0.89226000  0.15787000  1.0 -0.4391287424
O  O146  1  0.43407000  0.60774000  0.65787000  1.0 -0.4391287424
O  O147  1  0.04540000  0.69674000  0.64810000  1.0 -0.4391287424
O  O148  1  0.04540000  0.80326000  0.14810000  1.0 -0.4391287424
O  O149  1  0.24170000  0.95794000  0.57840000  1.0 -0.5493217201
O  O150  1  0.24170000  0.54206000  0.07840000  1.0 -0.5493217201
O  O151  1  0.28800000  0.19186000  0.10850000  1.0 -0.5097515488
O  O152  1  0.28800000  0.30814000  0.60850000  1.0 -0.5097515488
O  O153  1  0.19960000  0.09427000  0.67390000  1.0 -0.4391287424
O  O154  1  0.19960000  0.40573000  0.17390000  1.0 -0.4391287424
O  O155  1  0.05698000  0.67011000  0.81528000  1.0 -0.4506866413
O  O156  1  0.05698000  0.82989000  0.31528000  1.0 -0.4506866413
O  O157  1  0.89410000  0.41537000  0.62850000  1.0 -0.498160647
O  O158  1  0.89410000  0.08463000  0.12850000  1.0 -0.498160647
O  O159  1  0.41090000  0.15909000  0.13960000  1.0 -0.4506866413
O  O160  1  0.41090000  0.34091000  0.63960000  1.0 -0.4506866413
O  O161  1  0.02010000  0.04940000  0.03570000  1.0 -0.4569864215
O  O162  1  0.02010000  0.45060000  0.53570000  1.0 -0.4569864215
O  O163  1  0.26470000  0.13060000  0.05220000  1.0 -0.5177769305
O  O164  1  0.26470000  0.36940000  0.55220000  1.0 -0.5177769305
O  O165  1  0.37940000  0.60450000  0.06440000  1.0 -0.2219597639
O  O166  1  0.37940000  0.89550000  0.56440000  1.0 -0.2257927995
O  O167  1  0.06640000  0.32645000  0.61320000  1.0 -0.498160647
O  O168  1  0.06640000  0.17355000  0.11320000  1.0 -0.498160647
O  O169  1  0.00930000  0.33712000  0.65780000  1.0 -0.4902602376
O  O170  1  0.00930000  0.16288000  0.15780000  1.0 -0.4902602376
O  O171  1  0.35900000  0.05770000  0.13440000  1.0 -0.4319062547
O  O172  1  0.35900000  0.44230000  0.63440000  1.0 -0.4319062547
O  O173  1  0.48860000  0.09840000  0.10340000  1.0 -0.4704636961
O  O174  1  0.48860000  0.40160000  0.60340000  1.0 -0.4569864215
O  O175  1  0.79500000  0.34740000  0.61020000  1.0 -0.2576687278
O  O176  1  0.79500000  0.15260000  0.11020000  1.0 -0.2706966938
O  O177  1  0.89710000  0.67560000  0.01390000  1.0 -0.4391287424
O  O178  1  0.89710000  0.82440000  0.51390000  1.0 -0.4391287424
O  O179  1  0.09580000  0.18610000  0.02670000  1.0 -0.4249747039
O  O180  1  0.09580000  0.31390000  0.52670000  1.0 -0.4391287424
