# DDEC6 charges by PACMAN v1.1 (https://github.com/mtap-research/PACMAN-charge/)
data_CIMNIZ_ASR_pacman
_symmetry_space_group_name_H-M   'P 1'
_cell_length_a   14.75580000
_cell_length_b   42.95100000
_cell_length_c   36.09500000
_cell_angle_alpha   90.00000000
_cell_angle_beta   110.64200000
_cell_angle_gamma   90.00000000
_symmetry_Int_Tables_number   1
_chemical_formula_structural   Cd7H168C194N22O41
_chemical_formula_sum   'Cd28 H672 C776 N88 O164'
_cell_volume   21407.53994509
_cell_formula_units_Z   4
loop_
 _symmetry_equiv_pos_site_id
 _symmetry_equiv_pos_as_xyz
  1  'x, y, z'
loop_
 _atom_site_type_symbol
 _atom_site_label
 _atom_site_symmetry_multiplicity
 _atom_site_fract_x
 _atom_site_fract_y
 _atom_site_fract_z
 _atom_site_occupancy
 _atom_site_charge
Cd  Cd1  1  0.55691000  0.63085000  0.38842000  1.0 0.8810436575
Cd  Cd2  1  0.55691000  0.86915000  0.88842000  1.0 0.8810436575
Cd  Cd3  1  0.14452000  0.88690000  0.83001000  1.0 0.7458262293
Cd  Cd4  1  0.14452000  0.61310000  0.33001000  1.0 0.7458262293
Cd  Cd5  1  0.32585000  0.84172000  0.91303000  1.0 0.960607156
Cd  Cd6  1  0.32585000  0.65828000  0.41303000  1.0 0.960607156
Cd  Cd7  1  0.36147000  0.92222000  0.91438000  1.0 0.9677098839
Cd  Cd8  1  0.36147000  0.57778000  0.41438000  1.0 0.9677098839
Cd  Cd9  1  0.49911000  0.35826000  0.94911000  1.0 0.8996942638
Cd  Cd10  1  0.49911000  0.14174000  0.44911000  1.0 0.8996942638
Cd  Cd11  1  0.27423000  0.40235000  0.92729000  1.0 0.8996942638
Cd  Cd12  1  0.27423000  0.09765000  0.42729000  1.0 0.8996942638
Cd  Cd13  1  0.65506000  0.40080000  0.90625000  1.0 0.8888870327
Cd  Cd14  1  0.65506000  0.09920000  0.40625000  1.0 0.8888870327
Cd  Cd15  1  0.44309000  0.13085000  0.11158000  1.0 0.8810436575
Cd  Cd16  1  0.44309000  0.36915000  0.61158000  1.0 0.8810436575
Cd  Cd17  1  0.85548000  0.38690000  0.66999000  1.0 0.7458262293
Cd  Cd18  1  0.85548000  0.11310000  0.16999000  1.0 0.7458262293
Cd  Cd19  1  0.67415000  0.34172000  0.58697000  1.0 0.960607156
Cd  Cd20  1  0.67415000  0.15828000  0.08697000  1.0 0.960607156
Cd  Cd21  1  0.63853000  0.42222000  0.58562000  1.0 0.9677098839
Cd  Cd22  1  0.63853000  0.07778000  0.08562000  1.0 0.9677098839
Cd  Cd23  1  0.50089000  0.85826000  0.55089000  1.0 0.8996942638
Cd  Cd24  1  0.50089000  0.64174000  0.05089000  1.0 0.8996942638
Cd  Cd25  1  0.72577000  0.90235000  0.57271000  1.0 0.8996942638
Cd  Cd26  1  0.72577000  0.59765000  0.07271000  1.0 0.8996942638
Cd  Cd27  1  0.34494000  0.90080000  0.59375000  1.0 0.8888870327
Cd  Cd28  1  0.34494000  0.59920000  0.09375000  1.0 0.8888870327
H  H1  1  0.65395000  0.61063000  0.64677000  1.0 0.280139831
H  H2  1  0.65395000  0.88937000  0.14677000  1.0 0.280139831
H  H3  1  0.79451000  0.58109000  0.82480000  1.0 0.272186151
H  H4  1  0.79451000  0.91891000  0.32480000  1.0 0.272186151
H  H5  1  0.83439000  0.71565000  0.76757000  1.0 0.2852888851
H  H6  1  0.83439000  0.78435000  0.26757000  1.0 0.2852888851
H  H7  1  0.22364000  0.85640000  0.12763000  1.0 0.280139831
H  H8  1  0.22364000  0.64360000  0.62763000  1.0 0.280139831
H  H9  1  0.22718000  0.94834000  0.25758000  1.0 0.272186151
H  H10  1  0.22718000  0.55166000  0.75758000  1.0 0.272186151
H  H11  1  0.28178000  0.80752000  0.29613000  1.0 0.272186151
H  H12  1  0.28178000  0.69248000  0.79613000  1.0 0.272186151
H  H13  1  0.01326000  0.07838000  0.75570000  1.0 0.272186151
H  H14  1  0.01326000  0.42162000  0.25570000  1.0 0.272186151
H  H15  1  0.94188000  0.13680000  0.66003000  1.0 0.280139831
H  H16  1  0.94188000  0.36320000  0.16003000  1.0 0.280139831
H  H17  1  0.11807000  0.20439000  0.82969000  1.0 0.280139831
H  H18  1  0.11807000  0.29561000  0.32969000  1.0 0.280139831
H  H19  1  0.47130000  0.39993000  0.19074000  1.0 0.272186151
H  H20  1  0.47130000  0.10007000  0.69074000  1.0 0.272186151
H  H21  1  0.53924000  0.44393000  0.28896000  1.0 0.280139831
H  H22  1  0.53924000  0.05607000  0.78896000  1.0 0.280139831
H  H23  1  0.56585000  0.28628000  0.30056000  1.0 0.280139831
H  H24  1  0.56585000  0.21372000  0.80056000  1.0 0.280139831
H  H25  1  0.86011000  0.71407000  0.37212000  1.0 0.130005216
H  H26  1  0.86011000  0.78593000  0.87212000  1.0 0.130005216
H  H27  1  0.70142000  0.63503000  0.34039000  1.0 0.130005216
H  H28  1  0.70142000  0.86497000  0.84039000  1.0 0.130005216
H  H29  1  0.67965000  0.68860000  0.42932000  1.0 0.1120901903
H  H30  1  0.67965000  0.81140000  0.92932000  1.0 0.1120901903
H  H31  1  0.89906000  0.67555000  0.32922000  1.0 0.1388743191
H  H32  1  0.89906000  0.82445000  0.82922000  1.0 0.1388743191
H  H33  1  0.84064000  0.64339000  0.31925000  1.0 0.1388743191
H  H34  1  0.84064000  0.85661000  0.81925000  1.0 0.1388743191
H  H35  1  0.79446000  0.67425000  0.29511000  1.0 0.149985756
H  H36  1  0.79446000  0.82575000  0.79511000  1.0 0.149985756
H  H37  1  0.72566000  0.59362000  0.70084000  1.0 0.1120901903
H  H38  1  0.72566000  0.90638000  0.20084000  1.0 0.1120901903
H  H39  1  0.72883000  0.63157000  0.52278000  1.0 0.130005216
H  H40  1  0.72883000  0.86843000  0.02278000  1.0 0.130005216
H  H41  1  0.78091000  0.62986000  0.59128000  1.0 0.1388743191
H  H42  1  0.78091000  0.87014000  0.09128000  1.0 0.1388743191
H  H43  1  0.50346000  0.62355000  0.58493000  1.0 0.130005216
H  H44  1  0.50346000  0.87645000  0.08493000  1.0 0.130005216
H  H45  1  0.45507000  0.62384000  0.51588000  1.0 0.1204274857
H  H46  1  0.45507000  0.87616000  0.01588000  1.0 0.1204274857
H  H47  1  0.80787000  0.68315000  0.72174000  1.0 0.1120901903
H  H48  1  0.80787000  0.81685000  0.22174000  1.0 0.1120901903
H  H49  1  0.83956000  0.62401000  0.81307000  1.0 0.1204274857
H  H50  1  0.83956000  0.87599000  0.31307000  1.0 0.1204274857
H  H51  1  0.78723000  0.55548000  0.87981000  1.0 0.1204274857
H  H52  1  0.78723000  0.94452000  0.37981000  1.0 0.1204274857
H  H53  1  0.76457000  0.50945000  0.90934000  1.0 0.1204274857
H  H54  1  0.76457000  0.99055000  0.40934000  1.0 0.1204274857
H  H55  1  0.71421000  0.46310000  0.80841000  1.0 0.1388743191
H  H56  1  0.71421000  0.03690000  0.30841000  1.0 0.1388743191
H  H57  1  0.72975000  0.50933000  0.77636000  1.0 0.149985756
H  H58  1  0.72975000  0.99067000  0.27636000  1.0 0.149985756
H  H59  1  0.90584000  0.76016000  0.75670000  1.0 0.130005216
H  H60  1  0.90584000  0.73984000  0.25670000  1.0 0.130005216
H  H61  1  0.00918000  0.80141000  0.78087000  1.0 0.130005216
H  H62  1  0.00918000  0.69859000  0.28087000  1.0 0.130005216
H  H63  1  0.11421000  0.76024000  0.88745000  1.0 0.1204274857
H  H64  1  0.11421000  0.73976000  0.38745000  1.0 0.1204274857
H  H65  1  0.00707000  0.71821000  0.86340000  1.0 0.1388743191
H  H66  1  0.00707000  0.78179000  0.36340000  1.0 0.1388743191
H  H67  1  0.51836000  0.80605000  0.95994000  1.0 0.1120901903
H  H68  1  0.51836000  0.69395000  0.45994000  1.0 0.1120901903
H  H69  1  0.51407000  0.77474000  0.06066000  1.0 0.1388743191
H  H70  1  0.51407000  0.72526000  0.56066000  1.0 0.1388743191
H  H71  1  0.27223000  0.80584000  0.97594000  1.0 0.1004504184
H  H72  1  0.27223000  0.69416000  0.47594000  1.0 0.1004504184
H  H73  1  0.31830000  0.79247000  0.06479000  1.0 0.1388743191
H  H74  1  0.31830000  0.70753000  0.56479000  1.0 0.1388743191
H  H75  1  0.25138000  0.77486000  0.02563000  1.0 0.130005216
H  H76  1  0.25138000  0.72514000  0.52563000  1.0 0.130005216
H  H77  1  0.33639000  0.75643000  0.05855000  1.0 0.1388743191
H  H78  1  0.33639000  0.74357000  0.55855000  1.0 0.1388743191
H  H79  1  0.66076000  0.79041000  0.00671000  1.0 0.1388743191
H  H80  1  0.66076000  0.70959000  0.50671000  1.0 0.1388743191
H  H81  1  0.67180000  0.79444000  0.05218000  1.0 0.149985756
H  H82  1  0.67180000  0.70556000  0.55218000  1.0 0.149985756
H  H83  1  0.65320000  0.76066000  0.03217000  1.0 0.1388743191
H  H84  1  0.65320000  0.73934000  0.53217000  1.0 0.1388743191
H  H85  1  0.30248000  0.93002000  0.02965000  1.0 0.1204274857
H  H86  1  0.30248000  0.56998000  0.52965000  1.0 0.1204274857
H  H87  1  0.29688000  0.92459000  0.09249000  1.0 0.1388743191
H  H88  1  0.29688000  0.57541000  0.59249000  1.0 0.1388743191
H  H89  1  0.19637000  0.83860000  0.06515000  1.0 0.130005216
H  H90  1  0.19637000  0.66140000  0.56515000  1.0 0.130005216
H  H91  1  0.20170000  0.84530000  0.00332000  1.0 0.130005216
H  H92  1  0.20170000  0.65470000  0.50332000  1.0 0.130005216
H  H93  1  0.25819000  0.92509000  0.21665000  1.0 0.1120901903
H  H94  1  0.25819000  0.57491000  0.71665000  1.0 0.1120901903
H  H95  1  0.29771000  0.85432000  0.29478000  1.0 0.1204274857
H  H96  1  0.29771000  0.64568000  0.79478000  1.0 0.1204274857
H  H97  1  0.27674000  0.83597000  0.18232000  1.0 0.1120901903
H  H98  1  0.27674000  0.66403000  0.68232000  1.0 0.1120901903
H  H99  1  0.29637000  0.77175000  0.34366000  1.0 0.130005216
H  H100  1  0.29637000  0.72825000  0.84366000  1.0 0.130005216
H  H101  1  0.35021000  0.72415000  0.37395000  1.0 0.1120901903
H  H102  1  0.35021000  0.77585000  0.87395000  1.0 0.1120901903
H  H103  1  0.35423000  0.69247000  0.27371000  1.0 0.0906056573
H  H104  1  0.35423000  0.80753000  0.77371000  1.0 0.0906056573
H  H105  1  0.30292000  0.74038000  0.24434000  1.0 0.0906056573
H  H106  1  0.30292000  0.75962000  0.74434000  1.0 0.0906056573
H  H107  1  0.17810000  0.99799000  0.26402000  1.0 0.1204274857
H  H108  1  0.17810000  0.50201000  0.76402000  1.0 0.1204274857
H  H109  1  0.17177000  0.04004000  0.30365000  1.0 0.1388743191
H  H110  1  0.17177000  0.45996000  0.80365000  1.0 0.1388743191
H  H111  1  0.29789000  0.98856000  0.40090000  1.0 0.130005216
H  H112  1  0.29789000  0.51144000  0.90090000  1.0 0.130005216
H  H113  1  0.30023000  0.94487000  0.36113000  1.0 0.149985756
H  H114  1  0.30023000  0.55513000  0.86113000  1.0 0.149985756
H  H115  1  0.40487000  0.99118000  0.91016000  1.0 0.1120901903
H  H116  1  0.40487000  0.50882000  0.41016000  1.0 0.1120901903
H  H117  1  0.65440000  0.01923000  0.99226000  1.0 0.149985756
H  H118  1  0.65440000  0.48077000  0.49226000  1.0 0.149985756
H  H119  1  0.55430000  0.93159000  0.98757000  1.0 0.1004504184
H  H120  1  0.55430000  0.56841000  0.48757000  1.0 0.1004504184
H  H121  1  0.68175000  0.96632000  0.05798000  1.0 0.1388743191
H  H122  1  0.68175000  0.53368000  0.55798000  1.0 0.1388743191
H  H123  1  0.71865000  0.94335000  0.03138000  1.0 0.1388743191
H  H124  1  0.71865000  0.55665000  0.53138000  1.0 0.1388743191
H  H125  1  0.75826000  0.97833000  0.03893000  1.0 0.149985756
H  H126  1  0.75826000  0.52167000  0.53893000  1.0 0.149985756
H  H127  1  0.42545000  0.04533000  0.92333000  1.0 0.1388743191
H  H128  1  0.42545000  0.45467000  0.42333000  1.0 0.1388743191
H  H129  1  0.52496000  0.05889000  0.95368000  1.0 0.1388743191
H  H130  1  0.52496000  0.44111000  0.45368000  1.0 0.1388743191
H  H131  1  0.51892000  0.04740000  0.91070000  1.0 0.1591333466
H  H132  1  0.51892000  0.45260000  0.41070000  1.0 0.1591333466
H  H133  1  0.97541000  0.86272000  0.74689000  1.0 0.0906056573
H  H134  1  0.97541000  0.63728000  0.24689000  1.0 0.0906056573
H  H135  1  0.93559000  0.92159000  0.82758000  1.0 0.1120901903
H  H136  1  0.93559000  0.57841000  0.32758000  1.0 0.1120901903
H  H137  1  0.71319000  0.90274000  0.72577000  1.0 0.1204274857
H  H138  1  0.71319000  0.59726000  0.22577000  1.0 0.1204274857
H  H139  1  0.85059000  0.84842000  0.68911000  1.0 0.0704861729
H  H140  1  0.85059000  0.65158000  0.18911000  1.0 0.0704861729
H  H141  1  0.74133000  0.85260000  0.68729000  1.0 0.1120901903
H  H142  1  0.74133000  0.64740000  0.18729000  1.0 0.1120901903
H  H143  1  0.79045000  0.87878000  0.66903000  1.0 0.0794664909
H  H144  1  0.79045000  0.62122000  0.16903000  1.0 0.0794664909
H  H145  1  0.24296000  0.01874000  0.87570000  1.0 0.1204274857
H  H146  1  0.24296000  0.48126000  0.37570000  1.0 0.1204274857
H  H147  1  0.18152000  0.06677000  0.84967000  1.0 0.130005216
H  H148  1  0.18152000  0.43323000  0.34967000  1.0 0.130005216
H  H149  1  0.99512000  0.02412000  0.75394000  1.0 0.1204274857
H  H150  1  0.99512000  0.47588000  0.25394000  1.0 0.1204274857
H  H151  1  0.05644000  0.97550000  0.78072000  1.0 0.1204274857
H  H152  1  0.05644000  0.52450000  0.28072000  1.0 0.1204274857
H  H153  1  0.93624000  0.11346000  0.72091000  1.0 0.1120901903
H  H154  1  0.93624000  0.38654000  0.22091000  1.0 0.1120901903
H  H155  1  0.89326000  0.20645000  0.72226000  1.0 0.130005216
H  H156  1  0.89326000  0.29355000  0.22226000  1.0 0.130005216
H  H157  1  0.03395000  0.16140000  0.82459000  1.0 0.1204274857
H  H158  1  0.03395000  0.33860000  0.32459000  1.0 0.1204274857
H  H159  1  0.96160000  0.14336000  0.59656000  1.0 0.130005216
H  H160  1  0.96160000  0.35664000  0.09656000  1.0 0.130005216
H  H161  1  0.89237000  0.12999000  0.52904000  1.0 0.1204274857
H  H162  1  0.89237000  0.37001000  0.02904000  1.0 0.1204274857
H  H163  1  0.63567000  0.11641000  0.54111000  1.0 0.1204274857
H  H164  1  0.63567000  0.38359000  0.04111000  1.0 0.1204274857
H  H165  1  0.70118000  0.13023000  0.60799000  1.0 0.1388743191
H  H166  1  0.70118000  0.36977000  0.10799000  1.0 0.1388743191
H  H167  1  0.26207000  0.22789000  0.86764000  1.0 0.1388743191
H  H168  1  0.26207000  0.27211000  0.36764000  1.0 0.1388743191
H  H169  1  0.34379000  0.27156000  0.90092000  1.0 0.1204274857
H  H170  1  0.34379000  0.22844000  0.40092000  1.0 0.1204274857
H  H171  1  0.09703000  0.32092000  0.86449000  1.0 0.1388743191
H  H172  1  0.09703000  0.17908000  0.36449000  1.0 0.1388743191
H  H173  1  0.01448000  0.27774000  0.83006000  1.0 0.149985756
H  H174  1  0.01448000  0.22226000  0.33006000  1.0 0.149985756
H  H175  1  0.34268000  0.42252000  0.05801000  1.0 0.130005216
H  H176  1  0.34268000  0.07748000  0.55801000  1.0 0.130005216
H  H177  1  0.36996000  0.42143000  0.12539000  1.0 0.1204274857
H  H178  1  0.36996000  0.07857000  0.62539000  1.0 0.1204274857
H  H179  1  0.53471000  0.34469000  0.13743000  1.0 0.1388743191
H  H180  1  0.53471000  0.15531000  0.63743000  1.0 0.1388743191
H  H181  1  0.51044000  0.34691000  0.07021000  1.0 0.1120901903
H  H182  1  0.51044000  0.15309000  0.57021000  1.0 0.1120901903
H  H183  1  0.46783000  0.40854000  0.24497000  1.0 0.1120901903
H  H184  1  0.46783000  0.09146000  0.74497000  1.0 0.1120901903
H  H185  1  0.49788000  0.36567000  0.34820000  1.0 0.1204274857
H  H186  1  0.49788000  0.13433000  0.84820000  1.0 0.1204274857
H  H187  1  0.47602000  0.31451000  0.25146000  1.0 0.1204274857
H  H188  1  0.47602000  0.18549000  0.75146000  1.0 0.1204274857
H  H189  1  0.66177000  0.48302000  0.33549000  1.0 0.130005216
H  H190  1  0.66177000  0.01698000  0.83549000  1.0 0.130005216
H  H191  1  0.66586000  0.53548000  0.35347000  1.0 0.1204274857
H  H192  1  0.66586000  0.96452000  0.85347000  1.0 0.1204274857
H  H193  1  0.38377000  0.53162000  0.33875000  1.0 0.1120901903
H  H194  1  0.38377000  0.96838000  0.83875000  1.0 0.1120901903
H  H195  1  0.37603000  0.48006000  0.31718000  1.0 0.1388743191
H  H196  1  0.37603000  0.01994000  0.81718000  1.0 0.1388743191
H  H197  1  0.45807000  0.25352000  0.36422000  1.0 0.130005216
H  H198  1  0.45807000  0.24648000  0.86422000  1.0 0.130005216
H  H199  1  0.48740000  0.20317000  0.38873000  1.0 0.1204274857
H  H200  1  0.48740000  0.29683000  0.88873000  1.0 0.1204274857
H  H201  1  0.67991000  0.19073000  0.33457000  1.0 0.130005216
H  H202  1  0.67991000  0.30927000  0.83457000  1.0 0.130005216
H  H203  1  0.66117000  0.24214000  0.31457000  1.0 0.1388743191
H  H204  1  0.66117000  0.25786000  0.81457000  1.0 0.1388743191
H  H205  1  0.13550000  0.45008000  0.94619000  1.0 0.1204274857
H  H206  1  0.13550000  0.04992000  0.44619000  1.0 0.1204274857
H  H207  1  0.88556000  0.41296000  0.94359000  1.0 0.149985756
H  H208  1  0.88556000  0.08704000  0.44359000  1.0 0.149985756
H  H209  1  0.08388000  0.36263000  0.91886000  1.0 0.1204274857
H  H210  1  0.08388000  0.13737000  0.41886000  1.0 0.1204274857
H  H211  1  0.91819000  0.47508000  0.93699000  1.0 0.1388743191
H  H212  1  0.91819000  0.02492000  0.43699000  1.0 0.1388743191
H  H213  1  0.96077000  0.46637000  0.98304000  1.0 0.149985756
H  H214  1  0.96077000  0.03363000  0.48304000  1.0 0.149985756
H  H215  1  0.02848000  0.48299000  0.96274000  1.0 0.1388743191
H  H216  1  0.02848000  0.01701000  0.46274000  1.0 0.1388743191
H  H217  1  0.37170000  0.42123000  0.86393000  1.0 0.130005216
H  H218  1  0.37170000  0.07877000  0.36393000  1.0 0.130005216
H  H219  1  0.70623000  0.31678000  0.98317000  1.0 0.0906056573
H  H220  1  0.70623000  0.18322000  0.48317000  1.0 0.0906056573
H  H221  1  0.69022000  0.26414000  0.07384000  1.0 0.1004504184
H  H222  1  0.69022000  0.23586000  0.57384000  1.0 0.1004504184
H  H223  1  0.45270000  0.31005000  0.00264000  1.0 0.0794664909
H  H224  1  0.45270000  0.18995000  0.50264000  1.0 0.0794664909
H  H225  1  0.50462000  0.28955000  0.08623000  1.0 0.130005216
H  H226  1  0.50462000  0.21045000  0.58623000  1.0 0.130005216
H  H227  1  0.43712000  0.26963000  0.04934000  1.0 0.130005216
H  H228  1  0.43712000  0.23037000  0.54934000  1.0 0.130005216
H  H229  1  0.53284000  0.25439000  0.08034000  1.0 0.1120901903
H  H230  1  0.53284000  0.24561000  0.58034000  1.0 0.1120901903
H  H231  1  0.19374000  0.83778000  0.77291000  1.0 0.0906056573
H  H232  1  0.19374000  0.66222000  0.27291000  1.0 0.0906056573
H  H233  1  0.10409000  0.87469000  0.66251000  1.0 0.1004504184
H  H234  1  0.10409000  0.62531000  0.16251000  1.0 0.1004504184
H  H235  1  0.12065000  0.92904000  0.75647000  1.0 0.1004504184
H  H236  1  0.12065000  0.57096000  0.25647000  1.0 0.1004504184
H  H237  1  0.84602000  0.29862000  0.02393000  1.0 0.0794664909
H  H238  1  0.84602000  0.20138000  0.52393000  1.0 0.0794664909
H  H239  1  0.85759000  0.28855000  0.06805000  1.0 0.0906056573
H  H240  1  0.85759000  0.21145000  0.56805000  1.0 0.0906056573
H  H241  1  0.83495000  0.26283000  0.03390000  1.0 0.0906056573
H  H242  1  0.83495000  0.23717000  0.53390000  1.0 0.0906056573
H  H243  1  0.78059000  0.96000000  0.79157000  1.0 0.1388743191
H  H244  1  0.78059000  0.54000000  0.29157000  1.0 0.1388743191
H  H245  1  0.68794000  0.93767000  0.77632000  1.0 0.149985756
H  H246  1  0.68794000  0.56233000  0.27632000  1.0 0.149985756
H  H247  1  0.76377000  0.93424000  0.82053000  1.0 0.149985756
H  H248  1  0.76377000  0.56576000  0.32053000  1.0 0.149985756
H  H249  1  0.15152000  0.80373000  0.72411000  1.0 0.0794664909
H  H250  1  0.15152000  0.69627000  0.22411000  1.0 0.0794664909
H  H251  1  0.23734000  0.81494000  0.70984000  1.0 0.0906056573
H  H252  1  0.23734000  0.68506000  0.20984000  1.0 0.0906056573
H  H253  1  0.09661000  0.83359000  0.68454000  1.0 0.0704861729
H  H254  1  0.09661000  0.66641000  0.18454000  1.0 0.0704861729
H  H255  1  0.05318000  0.92059000  0.64678000  1.0 0.130005216
H  H256  1  0.05318000  0.57941000  0.14678000  1.0 0.130005216
H  H257  1  0.02970000  0.94455000  0.67614000  1.0 0.0794664909
H  H258  1  0.02970000  0.55545000  0.17614000  1.0 0.0794664909
H  H259  1  0.13639000  0.94300000  0.67430000  1.0 0.0906056573
H  H260  1  0.13639000  0.55700000  0.17430000  1.0 0.0906056573
H  H261  1  0.79622000  0.75318000  0.41390000  1.0 0.1388743191
H  H262  1  0.79622000  0.74682000  0.91390000  1.0 0.1388743191
H  H263  1  0.75703000  0.73709000  0.44532000  1.0 0.130005216
H  H264  1  0.75703000  0.76291000  0.94532000  1.0 0.130005216
H  H265  1  0.86788000  0.73289000  0.44935000  1.0 0.130005216
H  H266  1  0.86788000  0.76711000  0.94935000  1.0 0.130005216
H  H267  1  0.86869000  0.35271000  0.89390000  1.0 0.149985756
H  H268  1  0.86869000  0.14729000  0.39390000  1.0 0.149985756
H  H269  1  0.94929000  0.33497000  0.92938000  1.0 0.1388743191
H  H270  1  0.94929000  0.16503000  0.42938000  1.0 0.1388743191
H  H271  1  0.86739000  0.35502000  0.93796000  1.0 0.149985756
H  H272  1  0.86739000  0.14498000  0.43796000  1.0 0.149985756
H  H273  1  0.94558000  0.86017000  0.77846000  1.0 0.0906056573
H  H274  1  0.94558000  0.63983000  0.27846000  1.0 0.0906056573
H  H275  1  0.88248000  0.88106000  0.66256000  1.0 0.1004504184
H  H276  1  0.88248000  0.61894000  0.16256000  1.0 0.1004504184
H  H277  1  0.10278000  0.92534000  0.74654000  1.0 0.1204274857
H  H278  1  0.10278000  0.57466000  0.24654000  1.0 0.1204274857
H  H279  1  0.69565000  0.32128000  0.94894000  1.0 0.0704861729
H  H280  1  0.69565000  0.17872000  0.44894000  1.0 0.0704861729
H  H281  1  0.79943000  0.26637000  0.04614000  1.0 0.1004504184
H  H282  1  0.79943000  0.23363000  0.54614000  1.0 0.1004504184
H  H283  1  0.53946000  0.30907000  0.02038000  1.0 0.0906056573
H  H284  1  0.53946000  0.19093000  0.52038000  1.0 0.0906056573
H  H285  1  0.69500000  0.28690000  0.09921000  1.0 0.1004504184
H  H286  1  0.69500000  0.21310000  0.59921000  1.0 0.1004504184
H  H287  1  0.58442000  0.27894000  0.07396000  1.0 0.0794664909
H  H288  1  0.58442000  0.22106000  0.57396000  1.0 0.0794664909
H  H289  1  0.66616000  0.25285000  0.08085000  1.0 0.1004504184
H  H290  1  0.66616000  0.24715000  0.58085000  1.0 0.1004504184
H  H291  1  0.86798000  0.30459000  0.97355000  1.0 0.130005216
H  H292  1  0.86798000  0.19541000  0.47355000  1.0 0.130005216
H  H293  1  0.90599000  0.28127000  0.01040000  1.0 0.1004504184
H  H294  1  0.90599000  0.21873000  0.51040000  1.0 0.1004504184
H  H295  1  0.83960000  0.26849000  0.96782000  1.0 0.130005216
H  H296  1  0.83960000  0.23151000  0.46782000  1.0 0.130005216
H  H297  1  0.95636000  0.93967000  0.65567000  1.0 0.1004504184
H  H298  1  0.95636000  0.56033000  0.15567000  1.0 0.1004504184
H  H299  1  0.06062000  0.94602000  0.68853000  1.0 0.0906056573
H  H300  1  0.06062000  0.55398000  0.18853000  1.0 0.0906056573
H  H301  1  0.04784000  0.91958000  0.65583000  1.0 0.1204274857
H  H302  1  0.04784000  0.58042000  0.15583000  1.0 0.1204274857
H  H303  1  0.43576000  0.44894000  0.92364000  1.0 0.1388743191
H  H304  1  0.43576000  0.05106000  0.42364000  1.0 0.1388743191
H  H305  1  0.46611000  0.76285000  0.29209000  1.0 0.1120901903
H  H306  1  0.46611000  0.73715000  0.79209000  1.0 0.1120901903
H  H307  1  0.38892000  0.74399000  0.25696000  1.0 0.0704861729
H  H308  1  0.38892000  0.75601000  0.75696000  1.0 0.0704861729
H  H309  1  0.45040000  0.70400000  0.28555000  1.0 0.0906056573
H  H310  1  0.45040000  0.79600000  0.78555000  1.0 0.0906056573
H  H311  1  0.51522000  0.72299000  0.32387000  1.0 0.1004504184
H  H312  1  0.51522000  0.77701000  0.82387000  1.0 0.1004504184
H  H313  1  0.75618000  0.85511000  0.69597000  1.0 0.1120901903
H  H314  1  0.75618000  0.64489000  0.19597000  1.0 0.1120901903
H  H315  1  0.82412000  0.82981000  0.68618000  1.0 0.0906056573
H  H316  1  0.82412000  0.67019000  0.18618000  1.0 0.0906056573
H  H317  1  0.81884000  0.83160000  0.72966000  1.0 0.0704861729
H  H318  1  0.81884000  0.66840000  0.22966000  1.0 0.0704861729
H  H319  1  0.15711000  0.83877000  0.76137000  1.0 0.0906056573
H  H320  1  0.15711000  0.66123000  0.26137000  1.0 0.0906056573
H  H321  1  0.12898000  0.81276000  0.67872000  1.0 0.0906056573
H  H322  1  0.12898000  0.68724000  0.17872000  1.0 0.0906056573
H  H323  1  0.18115000  0.80814000  0.69492000  1.0 0.0794664909
H  H324  1  0.18115000  0.69186000  0.19492000  1.0 0.0794664909
H  H325  1  0.42481000  0.90098000  0.71266000  1.0 0.1388743191
H  H326  1  0.42481000  0.59902000  0.21266000  1.0 0.1388743191
H  H327  1  0.44397000  0.92578000  0.74770000  1.0 0.130005216
H  H328  1  0.44397000  0.57422000  0.24770000  1.0 0.130005216
H  H329  1  0.48700000  0.89129000  0.75722000  1.0 0.1388743191
H  H330  1  0.48700000  0.60871000  0.25722000  1.0 0.1388743191
H  H331  1  0.31211000  0.86897000  0.69539000  1.0 0.130005216
H  H332  1  0.31211000  0.63103000  0.19539000  1.0 0.130005216
H  H333  1  0.17833000  0.83593000  0.66500000  1.0 0.0906056573
H  H334  1  0.17833000  0.66407000  0.16500000  1.0 0.0906056573
H  H335  1  0.34441000  0.91077000  0.79995000  1.0 0.1204274857
H  H336  1  0.34441000  0.58923000  0.29995000  1.0 0.1204274857
H  H337  1  0.34605000  0.11063000  0.85323000  1.0 0.280139831
H  H338  1  0.34605000  0.38937000  0.35323000  1.0 0.280139831
H  H339  1  0.20549000  0.08109000  0.67520000  1.0 0.272186151
H  H340  1  0.20549000  0.41891000  0.17520000  1.0 0.272186151
H  H341  1  0.16561000  0.21565000  0.73243000  1.0 0.2852888851
H  H342  1  0.16561000  0.28435000  0.23243000  1.0 0.2852888851
H  H343  1  0.77636000  0.35640000  0.37237000  1.0 0.280139831
H  H344  1  0.77636000  0.14360000  0.87237000  1.0 0.280139831
H  H345  1  0.77282000  0.44834000  0.24242000  1.0 0.272186151
H  H346  1  0.77282000  0.05166000  0.74242000  1.0 0.272186151
H  H347  1  0.71822000  0.30752000  0.20387000  1.0 0.272186151
H  H348  1  0.71822000  0.19248000  0.70387000  1.0 0.272186151
H  H349  1  0.98674000  0.57838000  0.74430000  1.0 0.272186151
H  H350  1  0.98674000  0.92162000  0.24430000  1.0 0.272186151
H  H351  1  0.05812000  0.63680000  0.83997000  1.0 0.280139831
H  H352  1  0.05812000  0.86320000  0.33997000  1.0 0.280139831
H  H353  1  0.88193000  0.70439000  0.67031000  1.0 0.280139831
H  H354  1  0.88193000  0.79561000  0.17031000  1.0 0.280139831
H  H355  1  0.52870000  0.89993000  0.30926000  1.0 0.272186151
H  H356  1  0.52870000  0.60007000  0.80926000  1.0 0.272186151
H  H357  1  0.46076000  0.94393000  0.21104000  1.0 0.280139831
H  H358  1  0.46076000  0.55607000  0.71104000  1.0 0.280139831
H  H359  1  0.43415000  0.78628000  0.19944000  1.0 0.280139831
H  H360  1  0.43415000  0.71372000  0.69944000  1.0 0.280139831
H  H361  1  0.13989000  0.21407000  0.12788000  1.0 0.130005216
H  H362  1  0.13989000  0.28593000  0.62788000  1.0 0.130005216
H  H363  1  0.29858000  0.13503000  0.15961000  1.0 0.130005216
H  H364  1  0.29858000  0.36497000  0.65961000  1.0 0.130005216
H  H365  1  0.32035000  0.18860000  0.07068000  1.0 0.1120901903
H  H366  1  0.32035000  0.31140000  0.57068000  1.0 0.1120901903
H  H367  1  0.10094000  0.17555000  0.17078000  1.0 0.1388743191
H  H368  1  0.10094000  0.32445000  0.67078000  1.0 0.1388743191
H  H369  1  0.15936000  0.14339000  0.18075000  1.0 0.1388743191
H  H370  1  0.15936000  0.35661000  0.68075000  1.0 0.1388743191
H  H371  1  0.20554000  0.17425000  0.20489000  1.0 0.149985756
H  H372  1  0.20554000  0.32575000  0.70489000  1.0 0.149985756
H  H373  1  0.27434000  0.09362000  0.79916000  1.0 0.1120901903
H  H374  1  0.27434000  0.40638000  0.29916000  1.0 0.1120901903
H  H375  1  0.27117000  0.13157000  0.97722000  1.0 0.130005216
H  H376  1  0.27117000  0.36843000  0.47722000  1.0 0.130005216
H  H377  1  0.21909000  0.12986000  0.90872000  1.0 0.1388743191
H  H378  1  0.21909000  0.37014000  0.40872000  1.0 0.1388743191
H  H379  1  0.49654000  0.12355000  0.91507000  1.0 0.130005216
H  H380  1  0.49654000  0.37645000  0.41507000  1.0 0.130005216
H  H381  1  0.54493000  0.12384000  0.98412000  1.0 0.1204274857
H  H382  1  0.54493000  0.37616000  0.48412000  1.0 0.1204274857
H  H383  1  0.19213000  0.18315000  0.77826000  1.0 0.1120901903
H  H384  1  0.19213000  0.31685000  0.27826000  1.0 0.1120901903
H  H385  1  0.16044000  0.12401000  0.68693000  1.0 0.1204274857
H  H386  1  0.16044000  0.37599000  0.18693000  1.0 0.1204274857
H  H387  1  0.21277000  0.05548000  0.62019000  1.0 0.1204274857
H  H388  1  0.21277000  0.44452000  0.12019000  1.0 0.1204274857
H  H389  1  0.23543000  0.00945000  0.59066000  1.0 0.1204274857
H  H390  1  0.23543000  0.49055000  0.09066000  1.0 0.1204274857
H  H391  1  0.28579000  0.96310000  0.69159000  1.0 0.1388743191
H  H392  1  0.28579000  0.53690000  0.19159000  1.0 0.1388743191
H  H393  1  0.27025000  0.00933000  0.72364000  1.0 0.149985756
H  H394  1  0.27025000  0.49067000  0.22364000  1.0 0.149985756
H  H395  1  0.09416000  0.26016000  0.74330000  1.0 0.130005216
H  H396  1  0.09416000  0.23984000  0.24330000  1.0 0.130005216
H  H397  1  0.99082000  0.30141000  0.71913000  1.0 0.130005216
H  H398  1  0.99082000  0.19859000  0.21913000  1.0 0.130005216
H  H399  1  0.88579000  0.26024000  0.61255000  1.0 0.1204274857
H  H400  1  0.88579000  0.23976000  0.11255000  1.0 0.1204274857
H  H401  1  0.99293000  0.21821000  0.63660000  1.0 0.1388743191
H  H402  1  0.99293000  0.28179000  0.13660000  1.0 0.1388743191
H  H403  1  0.48164000  0.30605000  0.54006000  1.0 0.1120901903
H  H404  1  0.48164000  0.19395000  0.04006000  1.0 0.1120901903
H  H405  1  0.48593000  0.27474000  0.43934000  1.0 0.1388743191
H  H406  1  0.48593000  0.22526000  0.93934000  1.0 0.1388743191
H  H407  1  0.72777000  0.30584000  0.52406000  1.0 0.1004504184
H  H408  1  0.72777000  0.19416000  0.02406000  1.0 0.1004504184
H  H409  1  0.68170000  0.29247000  0.43521000  1.0 0.1388743191
H  H410  1  0.68170000  0.20753000  0.93521000  1.0 0.1388743191
H  H411  1  0.74862000  0.27486000  0.47437000  1.0 0.130005216
H  H412  1  0.74862000  0.22514000  0.97437000  1.0 0.130005216
H  H413  1  0.66361000  0.25643000  0.44145000  1.0 0.1388743191
H  H414  1  0.66361000  0.24357000  0.94145000  1.0 0.1388743191
H  H415  1  0.33924000  0.29041000  0.49329000  1.0 0.1388743191
H  H416  1  0.33924000  0.20959000  0.99329000  1.0 0.1388743191
H  H417  1  0.32820000  0.29444000  0.44782000  1.0 0.149985756
H  H418  1  0.32820000  0.20556000  0.94782000  1.0 0.149985756
H  H419  1  0.34680000  0.26066000  0.46783000  1.0 0.1388743191
H  H420  1  0.34680000  0.23934000  0.96783000  1.0 0.1388743191
H  H421  1  0.69752000  0.43002000  0.47035000  1.0 0.1204274857
H  H422  1  0.69752000  0.06998000  0.97035000  1.0 0.1204274857
H  H423  1  0.70312000  0.42459000  0.40751000  1.0 0.1388743191
H  H424  1  0.70312000  0.07541000  0.90751000  1.0 0.1388743191
H  H425  1  0.80363000  0.33860000  0.43485000  1.0 0.130005216
H  H426  1  0.80363000  0.16140000  0.93485000  1.0 0.130005216
H  H427  1  0.79830000  0.34530000  0.49668000  1.0 0.130005216
H  H428  1  0.79830000  0.15470000  0.99668000  1.0 0.130005216
H  H429  1  0.74181000  0.42509000  0.28335000  1.0 0.1120901903
H  H430  1  0.74181000  0.07491000  0.78335000  1.0 0.1120901903
H  H431  1  0.70229000  0.35432000  0.20522000  1.0 0.1204274857
H  H432  1  0.70229000  0.14568000  0.70522000  1.0 0.1204274857
H  H433  1  0.72326000  0.33597000  0.31768000  1.0 0.1120901903
H  H434  1  0.72326000  0.16403000  0.81768000  1.0 0.1120901903
H  H435  1  0.70363000  0.27175000  0.15634000  1.0 0.130005216
H  H436  1  0.70363000  0.22825000  0.65634000  1.0 0.130005216
H  H437  1  0.64979000  0.22415000  0.12605000  1.0 0.1120901903
H  H438  1  0.64979000  0.27585000  0.62605000  1.0 0.1120901903
H  H439  1  0.64577000  0.19247000  0.22629000  1.0 0.0906056573
H  H440  1  0.64577000  0.30753000  0.72629000  1.0 0.0906056573
H  H441  1  0.69708000  0.24038000  0.25566000  1.0 0.0906056573
H  H442  1  0.69708000  0.25962000  0.75566000  1.0 0.0906056573
H  H443  1  0.82190000  0.49799000  0.23598000  1.0 0.1204274857
H  H444  1  0.82190000  0.00201000  0.73598000  1.0 0.1204274857
H  H445  1  0.82823000  0.54004000  0.19635000  1.0 0.1388743191
H  H446  1  0.82823000  0.95996000  0.69635000  1.0 0.1388743191
H  H447  1  0.70211000  0.48856000  0.09910000  1.0 0.130005216
H  H448  1  0.70211000  0.01144000  0.59910000  1.0 0.130005216
H  H449  1  0.69977000  0.44487000  0.13887000  1.0 0.149985756
H  H450  1  0.69977000  0.05513000  0.63887000  1.0 0.149985756
H  H451  1  0.59513000  0.49118000  0.58984000  1.0 0.1120901903
H  H452  1  0.59513000  0.00882000  0.08984000  1.0 0.1120901903
H  H453  1  0.34560000  0.51923000  0.50774000  1.0 0.149985756
H  H454  1  0.34560000  0.98077000  0.00774000  1.0 0.149985756
H  H455  1  0.44570000  0.43159000  0.51243000  1.0 0.1004504184
H  H456  1  0.44570000  0.06841000  0.01243000  1.0 0.1004504184
H  H457  1  0.31825000  0.46632000  0.44202000  1.0 0.1388743191
H  H458  1  0.31825000  0.03368000  0.94202000  1.0 0.1388743191
H  H459  1  0.28135000  0.44335000  0.46862000  1.0 0.1388743191
H  H460  1  0.28135000  0.05665000  0.96862000  1.0 0.1388743191
H  H461  1  0.24174000  0.47833000  0.46107000  1.0 0.149985756
H  H462  1  0.24174000  0.02167000  0.96107000  1.0 0.149985756
H  H463  1  0.57455000  0.54533000  0.57667000  1.0 0.1388743191
H  H464  1  0.57455000  0.95467000  0.07667000  1.0 0.1388743191
H  H465  1  0.47504000  0.55889000  0.54632000  1.0 0.1388743191
H  H466  1  0.47504000  0.94111000  0.04632000  1.0 0.1388743191
H  H467  1  0.48108000  0.54740000  0.58930000  1.0 0.1591333466
H  H468  1  0.48108000  0.95260000  0.08930000  1.0 0.1591333466
H  H469  1  0.02459000  0.36272000  0.75311000  1.0 0.0906056573
H  H470  1  0.02459000  0.13728000  0.25311000  1.0 0.0906056573
H  H471  1  0.06441000  0.42159000  0.67242000  1.0 0.1120901903
H  H472  1  0.06441000  0.07841000  0.17242000  1.0 0.1120901903
H  H473  1  0.28681000  0.40274000  0.77423000  1.0 0.1204274857
H  H474  1  0.28681000  0.09726000  0.27423000  1.0 0.1204274857
H  H475  1  0.14941000  0.34842000  0.81089000  1.0 0.0704861729
H  H476  1  0.14941000  0.15158000  0.31089000  1.0 0.0704861729
H  H477  1  0.25867000  0.35260000  0.81271000  1.0 0.1120901903
H  H478  1  0.25867000  0.14740000  0.31271000  1.0 0.1120901903
H  H479  1  0.20955000  0.37878000  0.83097000  1.0 0.0794664909
H  H480  1  0.20955000  0.12122000  0.33097000  1.0 0.0794664909
H  H481  1  0.75704000  0.51874000  0.62430000  1.0 0.1204274857
H  H482  1  0.75704000  0.98126000  0.12430000  1.0 0.1204274857
H  H483  1  0.81848000  0.56677000  0.65033000  1.0 0.130005216
H  H484  1  0.81848000  0.93323000  0.15033000  1.0 0.130005216
H  H485  1  0.00488000  0.52412000  0.74606000  1.0 0.1204274857
H  H486  1  0.00488000  0.97588000  0.24606000  1.0 0.1204274857
H  H487  1  0.94356000  0.47550000  0.71928000  1.0 0.1204274857
H  H488  1  0.94356000  0.02450000  0.21928000  1.0 0.1204274857
H  H489  1  0.06376000  0.61346000  0.77909000  1.0 0.1120901903
H  H490  1  0.06376000  0.88654000  0.27909000  1.0 0.1120901903
H  H491  1  0.10674000  0.70645000  0.77774000  1.0 0.130005216
H  H492  1  0.10674000  0.79355000  0.27774000  1.0 0.130005216
H  H493  1  0.96605000  0.66140000  0.67541000  1.0 0.1204274857
H  H494  1  0.96605000  0.83860000  0.17541000  1.0 0.1204274857
H  H495  1  0.03840000  0.64336000  0.90344000  1.0 0.130005216
H  H496  1  0.03840000  0.85664000  0.40344000  1.0 0.130005216
H  H497  1  0.10763000  0.62999000  0.97096000  1.0 0.1204274857
H  H498  1  0.10763000  0.87001000  0.47096000  1.0 0.1204274857
H  H499  1  0.36433000  0.61641000  0.95889000  1.0 0.1204274857
H  H500  1  0.36433000  0.88359000  0.45889000  1.0 0.1204274857
H  H501  1  0.29882000  0.63023000  0.89201000  1.0 0.1388743191
H  H502  1  0.29882000  0.86977000  0.39201000  1.0 0.1388743191
H  H503  1  0.73793000  0.72789000  0.63236000  1.0 0.1388743191
H  H504  1  0.73793000  0.77211000  0.13236000  1.0 0.1388743191
H  H505  1  0.65621000  0.77156000  0.59908000  1.0 0.1204274857
H  H506  1  0.65621000  0.72844000  0.09908000  1.0 0.1204274857
H  H507  1  0.90297000  0.82092000  0.63551000  1.0 0.1388743191
H  H508  1  0.90297000  0.67908000  0.13551000  1.0 0.1388743191
H  H509  1  0.98552000  0.77774000  0.66994000  1.0 0.149985756
H  H510  1  0.98552000  0.72226000  0.16994000  1.0 0.149985756
H  H511  1  0.65732000  0.92252000  0.44199000  1.0 0.1204274857
H  H512  1  0.65732000  0.57748000  0.94199000  1.0 0.130005216
H  H513  1  0.63004000  0.92143000  0.37461000  1.0 0.1204274857
H  H514  1  0.63004000  0.57857000  0.87461000  1.0 0.1204274857
H  H515  1  0.46529000  0.84469000  0.36257000  1.0 0.1388743191
H  H516  1  0.46529000  0.65531000  0.86257000  1.0 0.1388743191
H  H517  1  0.48956000  0.84691000  0.42979000  1.0 0.1120901903
H  H518  1  0.48956000  0.65309000  0.92979000  1.0 0.1120901903
H  H519  1  0.53217000  0.90854000  0.25503000  1.0 0.1120901903
H  H520  1  0.53217000  0.59146000  0.75503000  1.0 0.1120901903
H  H521  1  0.50212000  0.86567000  0.15180000  1.0 0.1204274857
H  H522  1  0.50212000  0.63433000  0.65180000  1.0 0.1204274857
H  H523  1  0.52398000  0.81451000  0.24854000  1.0 0.1204274857
H  H524  1  0.52398000  0.68549000  0.74854000  1.0 0.1204274857
H  H525  1  0.33823000  0.98302000  0.16451000  1.0 0.130005216
H  H526  1  0.33823000  0.51698000  0.66451000  1.0 0.130005216
H  H527  1  0.33414000  0.03548000  0.14653000  1.0 0.1204274857
H  H528  1  0.33414000  0.46452000  0.64653000  1.0 0.1204274857
H  H529  1  0.61623000  0.03162000  0.16125000  1.0 0.1120901903
H  H530  1  0.61623000  0.46838000  0.66125000  1.0 0.1120901903
H  H531  1  0.62397000  0.98006000  0.18282000  1.0 0.1388743191
H  H532  1  0.62397000  0.51994000  0.68282000  1.0 0.1388743191
H  H533  1  0.54193000  0.75352000  0.13578000  1.0 0.130005216
H  H534  1  0.54193000  0.74648000  0.63578000  1.0 0.130005216
H  H535  1  0.51260000  0.70317000  0.11127000  1.0 0.1204274857
H  H536  1  0.51260000  0.79683000  0.61127000  1.0 0.1204274857
H  H537  1  0.32009000  0.69073000  0.16543000  1.0 0.130005216
H  H538  1  0.32009000  0.80927000  0.66543000  1.0 0.130005216
H  H539  1  0.33883000  0.74214000  0.18543000  1.0 0.1388743191
H  H540  1  0.33883000  0.75786000  0.68543000  1.0 0.1388743191
H  H541  1  0.86450000  0.95008000  0.55381000  1.0 0.1204274857
H  H542  1  0.86450000  0.54992000  0.05381000  1.0 0.1204274857
H  H543  1  0.11444000  0.91296000  0.55641000  1.0 0.149985756
H  H544  1  0.11444000  0.58704000  0.05641000  1.0 0.149985756
H  H545  1  0.91612000  0.86263000  0.58114000  1.0 0.1204274857
H  H546  1  0.91612000  0.63737000  0.08114000  1.0 0.1204274857
H  H547  1  0.08181000  0.97508000  0.56301000  1.0 0.1388743191
H  H548  1  0.08181000  0.52492000  0.06301000  1.0 0.1388743191
H  H549  1  0.03923000  0.96637000  0.51696000  1.0 0.149985756
H  H550  1  0.03923000  0.53363000  0.01696000  1.0 0.149985756
H  H551  1  0.97152000  0.98299000  0.53726000  1.0 0.1388743191
H  H552  1  0.97152000  0.51701000  0.03726000  1.0 0.1388743191
H  H553  1  0.62830000  0.92123000  0.63607000  1.0 0.130005216
H  H554  1  0.62830000  0.57877000  0.13607000  1.0 0.130005216
H  H555  1  0.29377000  0.81678000  0.51683000  1.0 0.0906056573
H  H556  1  0.29377000  0.68322000  0.01683000  1.0 0.0906056573
H  H557  1  0.30978000  0.76414000  0.42616000  1.0 0.1004504184
H  H558  1  0.30978000  0.73586000  0.92616000  1.0 0.1004504184
H  H559  1  0.54730000  0.81005000  0.49736000  1.0 0.0794664909
H  H560  1  0.54730000  0.68995000  0.99736000  1.0 0.0794664909
H  H561  1  0.49538000  0.78955000  0.41377000  1.0 0.130005216
H  H562  1  0.49538000  0.71045000  0.91377000  1.0 0.130005216
H  H563  1  0.56288000  0.76963000  0.45066000  1.0 0.130005216
H  H564  1  0.56288000  0.73037000  0.95066000  1.0 0.130005216
H  H565  1  0.46716000  0.75439000  0.41966000  1.0 0.1120901903
H  H566  1  0.46716000  0.74561000  0.91966000  1.0 0.1120901903
H  H567  1  0.80626000  0.33778000  0.72709000  1.0 0.0906056573
H  H568  1  0.80626000  0.16222000  0.22709000  1.0 0.0906056573
H  H569  1  0.89591000  0.37469000  0.83749000  1.0 0.1004504184
H  H570  1  0.89591000  0.12531000  0.33749000  1.0 0.1004504184
H  H571  1  0.87935000  0.42904000  0.74353000  1.0 0.1004504184
H  H572  1  0.87935000  0.07096000  0.24353000  1.0 0.1004504184
H  H573  1  0.15398000  0.79862000  0.47607000  1.0 0.0794664909
H  H574  1  0.15398000  0.70138000  0.97607000  1.0 0.0794664909
H  H575  1  0.14241000  0.78855000  0.43195000  1.0 0.0906056573
H  H576  1  0.14241000  0.71145000  0.93195000  1.0 0.0906056573
H  H577  1  0.16505000  0.76283000  0.46610000  1.0 0.0906056573
H  H578  1  0.16505000  0.73717000  0.96610000  1.0 0.0906056573
H  H579  1  0.21941000  0.46000000  0.70843000  1.0 0.1388743191
H  H580  1  0.21941000  0.04000000  0.20843000  1.0 0.1388743191
H  H581  1  0.31206000  0.43767000  0.72368000  1.0 0.149985756
H  H582  1  0.31206000  0.06233000  0.22368000  1.0 0.149985756
H  H583  1  0.23623000  0.43424000  0.67947000  1.0 0.149985756
H  H584  1  0.23623000  0.06576000  0.17947000  1.0 0.149985756
H  H585  1  0.84848000  0.30373000  0.77589000  1.0 0.0794664909
H  H586  1  0.84848000  0.19627000  0.27589000  1.0 0.0794664909
H  H587  1  0.76266000  0.31494000  0.79016000  1.0 0.0906056573
H  H588  1  0.76266000  0.18506000  0.29016000  1.0 0.0906056573
H  H589  1  0.90339000  0.33359000  0.81546000  1.0 0.0704861729
H  H590  1  0.90339000  0.16641000  0.31546000  1.0 0.0704861729
H  H591  1  0.94682000  0.42059000  0.85322000  1.0 0.130005216
H  H592  1  0.94682000  0.07941000  0.35322000  1.0 0.130005216
H  H593  1  0.97030000  0.44455000  0.82386000  1.0 0.0794664909
H  H594  1  0.97030000  0.05545000  0.32386000  1.0 0.0794664909
H  H595  1  0.86361000  0.44300000  0.82570000  1.0 0.0906056573
H  H596  1  0.86361000  0.05700000  0.32570000  1.0 0.0906056573
H  H597  1  0.20378000  0.25318000  0.08610000  1.0 0.1388743191
H  H598  1  0.20378000  0.24682000  0.58610000  1.0 0.1388743191
H  H599  1  0.24297000  0.23709000  0.05468000  1.0 0.130005216
H  H600  1  0.24297000  0.26291000  0.55468000  1.0 0.130005216
H  H601  1  0.13212000  0.23289000  0.05065000  1.0 0.130005216
H  H602  1  0.13212000  0.26711000  0.55065000  1.0 0.130005216
H  H603  1  0.13131000  0.85271000  0.60610000  1.0 0.149985756
H  H604  1  0.13131000  0.64729000  0.10610000  1.0 0.149985756
H  H605  1  0.05071000  0.83497000  0.57062000  1.0 0.1388743191
H  H606  1  0.05071000  0.66503000  0.07062000  1.0 0.1388743191
H  H607  1  0.13261000  0.85502000  0.56204000  1.0 0.149985756
H  H608  1  0.13261000  0.64498000  0.06204000  1.0 0.149985756
H  H609  1  0.05442000  0.36017000  0.72154000  1.0 0.0906056573
H  H610  1  0.05442000  0.13983000  0.22154000  1.0 0.0906056573
H  H611  1  0.11752000  0.38106000  0.83744000  1.0 0.1004504184
H  H612  1  0.11752000  0.11894000  0.33744000  1.0 0.1004504184
H  H613  1  0.89722000  0.42534000  0.75346000  1.0 0.1204274857
H  H614  1  0.89722000  0.07466000  0.25346000  1.0 0.1204274857
H  H615  1  0.30435000  0.82128000  0.55106000  1.0 0.0704861729
H  H616  1  0.30435000  0.67872000  0.05106000  1.0 0.0704861729
H  H617  1  0.20057000  0.76637000  0.45386000  1.0 0.1004504184
H  H618  1  0.20057000  0.73363000  0.95386000  1.0 0.1004504184
H  H619  1  0.46054000  0.80907000  0.47962000  1.0 0.0906056573
H  H620  1  0.46054000  0.69093000  0.97962000  1.0 0.0906056573
H  H621  1  0.30500000  0.78690000  0.40079000  1.0 0.1004504184
H  H622  1  0.30500000  0.71310000  0.90079000  1.0 0.1004504184
H  H623  1  0.41558000  0.77894000  0.42604000  1.0 0.0794664909
H  H624  1  0.41558000  0.72106000  0.92604000  1.0 0.0794664909
H  H625  1  0.33384000  0.75285000  0.41915000  1.0 0.1004504184
H  H626  1  0.33384000  0.74715000  0.91915000  1.0 0.1004504184
H  H627  1  0.13202000  0.80459000  0.52645000  1.0 0.130005216
H  H628  1  0.13202000  0.69541000  0.02645000  1.0 0.130005216
H  H629  1  0.09401000  0.78127000  0.48960000  1.0 0.1004504184
H  H630  1  0.09401000  0.71873000  0.98960000  1.0 0.1004504184
H  H631  1  0.16040000  0.76849000  0.53218000  1.0 0.130005216
H  H632  1  0.16040000  0.73151000  0.03218000  1.0 0.130005216
H  H633  1  0.04364000  0.43967000  0.84433000  1.0 0.1004504184
H  H634  1  0.04364000  0.06033000  0.34433000  1.0 0.1004504184
H  H635  1  0.93938000  0.44602000  0.81147000  1.0 0.0906056573
H  H636  1  0.93938000  0.05398000  0.31147000  1.0 0.0906056573
H  H637  1  0.95216000  0.41958000  0.84417000  1.0 0.1204274857
H  H638  1  0.95216000  0.08042000  0.34417000  1.0 0.1204274857
H  H639  1  0.56424000  0.94894000  0.57636000  1.0 0.1388743191
H  H640  1  0.56424000  0.55106000  0.07636000  1.0 0.1388743191
H  H641  1  0.53389000  0.26285000  0.20791000  1.0 0.1120901903
H  H642  1  0.53389000  0.23715000  0.70791000  1.0 0.1120901903
H  H643  1  0.61108000  0.24399000  0.24304000  1.0 0.0704861729
H  H644  1  0.61108000  0.25601000  0.74304000  1.0 0.0704861729
H  H645  1  0.54960000  0.20400000  0.21445000  1.0 0.0906056573
H  H646  1  0.54960000  0.29600000  0.71445000  1.0 0.0906056573
H  H647  1  0.48478000  0.22299000  0.17613000  1.0 0.1004504184
H  H648  1  0.48478000  0.27701000  0.67613000  1.0 0.1004504184
H  H649  1  0.24382000  0.35511000  0.80403000  1.0 0.1120901903
H  H650  1  0.24382000  0.14489000  0.30403000  1.0 0.1120901903
H  H651  1  0.17588000  0.32981000  0.81382000  1.0 0.0906056573
H  H652  1  0.17588000  0.17019000  0.31382000  1.0 0.0906056573
H  H653  1  0.18116000  0.33160000  0.77034000  1.0 0.0704861729
H  H654  1  0.18116000  0.16840000  0.27034000  1.0 0.0704861729
H  H655  1  0.84289000  0.33877000  0.73863000  1.0 0.0906056573
H  H656  1  0.84289000  0.16123000  0.23863000  1.0 0.0906056573
H  H657  1  0.87102000  0.31276000  0.82128000  1.0 0.0906056573
H  H658  1  0.87102000  0.18724000  0.32128000  1.0 0.0906056573
H  H659  1  0.81885000  0.30814000  0.80508000  1.0 0.0794664909
H  H660  1  0.81885000  0.19186000  0.30508000  1.0 0.0794664909
H  H661  1  0.57519000  0.40098000  0.78734000  1.0 0.1388743191
H  H662  1  0.57519000  0.09902000  0.28734000  1.0 0.1388743191
H  H663  1  0.55603000  0.42578000  0.75230000  1.0 0.130005216
H  H664  1  0.55603000  0.07422000  0.25230000  1.0 0.130005216
H  H665  1  0.51300000  0.39129000  0.74278000  1.0 0.1388743191
H  H666  1  0.51300000  0.10871000  0.24278000  1.0 0.1388743191
H  H667  1  0.68789000  0.36897000  0.80461000  1.0 0.130005216
H  H668  1  0.68789000  0.13103000  0.30461000  1.0 0.130005216
H  H669  1  0.82167000  0.33593000  0.83500000  1.0 0.0906056573
H  H670  1  0.82167000  0.16407000  0.33500000  1.0 0.0906056573
H  H671  1  0.65559000  0.41077000  0.70005000  1.0 0.1204274857
H  H672  1  0.65559000  0.08923000  0.20005000  1.0 0.1204274857
C  C1  1  0.99430000  0.21989000  0.79620000  1.0 0.4510908033
C  C2  1  0.99430000  0.28011000  0.29620000  1.0 0.4510908033
C  C3  1  0.60920000  0.15949000  0.38080000  1.0 0.5350836365
C  C4  1  0.60920000  0.34051000  0.88080000  1.0 0.5350836365
C  C5  1  0.81420000  0.69990000  0.37560000  1.0 -0.2111430101
C  C6  1  0.81420000  0.80010000  0.87560000  1.0 -0.2111430101
C  C7  1  0.78710000  0.67370000  0.35170000  1.0 0.1659401132
C  C8  1  0.78710000  0.82630000  0.85170000  1.0 0.1659401132
C  C9  1  0.71990000  0.65300000  0.35670000  1.0 -0.0491579133
C  C10  1  0.71990000  0.84700000  0.85670000  1.0 -0.0491579133
C  C11  1  0.70700000  0.68480000  0.40950000  1.0 -0.0588099427
C  C12  1  0.70700000  0.81520000  0.90950000  1.0 -0.0588099427
C  C13  1  0.77420000  0.70550000  0.40450000  1.0 0.1591333466
C  C14  1  0.77420000  0.79450000  0.90450000  1.0 0.1591333466
C  C15  1  0.83460000  0.66600000  0.32100000  1.0 -0.4801033347
C  C16  1  0.83460000  0.83400000  0.82100000  1.0 -0.4715560398
C  C17  1  0.75160000  0.61007000  0.71910000  1.0 -0.130508002
C  C18  1  0.75160000  0.88993000  0.21910000  1.0 -0.130508002
C  C19  1  0.42920000  0.67690000  0.35010000  1.0 0.5202120392
C  C20  1  0.42920000  0.82310000  0.85010000  1.0 0.5202120392
C  C21  1  0.55380000  0.62737000  0.46830000  1.0 0.5673836915
C  C22  1  0.55380000  0.87263000  0.96830000  1.0 0.5673836915
C  C23  1  0.58600000  0.62813000  0.51290000  1.0 -0.0491579133
C  C24  1  0.58600000  0.87187000  0.01290000  1.0 -0.0491579133
C  C25  1  0.68260000  0.62990000  0.53550000  1.0 -0.0991299762
C  C26  1  0.68260000  0.87010000  0.03550000  1.0 -0.0991299762
C  C27  1  0.71360000  0.62920000  0.57610000  1.0 -0.1699456813
C  C28  1  0.71360000  0.87080000  0.07610000  1.0 -0.1699456813
C  C29  1  0.64730000  0.62766000  0.59480000  1.0 0.230202861
C  C30  1  0.64730000  0.87234000  0.09480000  1.0 0.230202861
C  C31  1  0.55030000  0.62530000  0.57250000  1.0 -0.1786472687
C  C32  1  0.55030000  0.87470000  0.07250000  1.0 -0.1786472687
C  C33  1  0.52190000  0.62560000  0.53130000  1.0 -0.0991299762
C  C34  1  0.52190000  0.87440000  0.03130000  1.0 -0.0991299762
C  C35  1  0.73770000  0.64618000  0.66150000  1.0 0.4701245649
C  C36  1  0.73770000  0.85382000  0.16150000  1.0 0.4701245649
C  C37  1  0.76150000  0.63924000  0.70480000  1.0 -0.0028170826
C  C38  1  0.76150000  0.86076000  0.20480000  1.0 -0.0028170826
C  C39  1  0.80100000  0.66296000  0.73120000  1.0 -0.1496816592
C  C40  1  0.80100000  0.83704000  0.23120000  1.0 -0.1496816592
C  C41  1  0.83120000  0.65733000  0.77220000  1.0 -0.0206429086
C  C42  1  0.83120000  0.84267000  0.27220000  1.0 -0.0206429086
C  C43  1  0.81920000  0.62786000  0.78540000  1.0 -0.1699456813
C  C44  1  0.81920000  0.87214000  0.28540000  1.0 -0.1699456813
C  C45  1  0.77850000  0.60403000  0.75930000  1.0 -0.0288244584
C  C46  1  0.77850000  0.89597000  0.25930000  1.0 -0.0288244584
C  C47  1  0.76150000  0.57160000  0.77000000  1.0 0.4443934897
C  C48  1  0.76150000  0.92840000  0.27000000  1.0 0.4443934897
C  C49  1  0.76140000  0.53690000  0.82440000  1.0 0.230202861
C  C50  1  0.76140000  0.96310000  0.32440000  1.0 0.230202861
C  C51  1  0.77120000  0.53680000  0.86470000  1.0 -0.2111430101
C  C52  1  0.77120000  0.96320000  0.36470000  1.0 -0.2111430101
C  C53  1  0.75720000  0.50930000  0.88210000  1.0 -0.0921662614
C  C54  1  0.75720000  0.99070000  0.38210000  1.0 -0.0921662614
C  C55  1  0.73300000  0.48200000  0.86120000  1.0 -0.0288244584
C  C56  1  0.73300000  0.01800000  0.36120000  1.0 -0.0288244584
C  C57  1  0.72670000  0.48210000  0.82280000  1.0 -0.0921662614
C  C58  1  0.72670000  0.01790000  0.32280000  1.0 -0.0921662614
C  C59  1  0.73820000  0.50970000  0.80370000  1.0 -0.1992859873
C  C60  1  0.73820000  0.99030000  0.30370000  1.0 -0.1992859873
C  C61  1  0.71550000  0.45260000  0.88030000  1.0 0.5295799522
C  C62  1  0.71550000  0.04740000  0.38030000  1.0 0.5295799522
C  C63  1  0.88550000  0.68102000  0.80200000  1.0 0.4510908033
C  C64  1  0.88550000  0.81898000  0.30200000  1.0 0.4510908033
C  C65  1  0.94650000  0.73543000  0.80730000  1.0 0.217943792
C  C66  1  0.94650000  0.76457000  0.30730000  1.0 0.217943792
C  C67  1  0.94810000  0.76006000  0.78360000  1.0 -0.1910536095
C  C68  1  0.94810000  0.73994000  0.28360000  1.0 -0.1910536095
C  C69  1  0.00940000  0.78450000  0.79780000  1.0 -0.1079459357
C  C70  1  0.00940000  0.71550000  0.29780000  1.0 -0.1079459357
C  C71  1  0.07220000  0.78492000  0.83690000  1.0 -0.0206429086
C  C72  1  0.07220000  0.71508000  0.33690000  1.0 -0.0206429086
C  C73  1  0.07110000  0.76030000  0.86070000  1.0 -0.130508002
C  C74  1  0.07110000  0.73970000  0.36070000  1.0 -0.130508002
C  C75  1  0.00780000  0.73510000  0.84650000  1.0 -0.1992859873
C  C76  1  0.00780000  0.76490000  0.34650000  1.0 -0.1992859873
C  C77  1  0.13950000  0.81180000  0.85230000  1.0 0.5572258977
C  C78  1  0.13950000  0.68820000  0.35230000  1.0 0.5572258977
C  C79  1  0.48190000  0.80180000  0.97640000  1.0 -0.0206429086
C  C80  1  0.48190000  0.69820000  0.47640000  1.0 -0.0206429086
C  C81  1  0.52860000  0.78790000  0.01530000  1.0 0.1204274857
C  C82  1  0.52860000  0.71210000  0.51530000  1.0 0.1204274857
C  C83  1  0.48050000  0.78230000  0.03470000  1.0 -0.1699456813
C  C84  1  0.48050000  0.71770000  0.53470000  1.0 -0.1699456813
C  C85  1  0.38650000  0.78540000  0.02460000  1.0 0.057671164
C  C86  1  0.38650000  0.71460000  0.52460000  1.0 0.057671164
C  C87  1  0.33950000  0.80120000  0.98540000  1.0 -0.0395016766
C  C88  1  0.33950000  0.69880000  0.48540000  1.0 -0.0395016766
C  C89  1  0.31700000  0.77650000  0.04520000  1.0 -0.4600605116
C  C90  1  0.31700000  0.72350000  0.54520000  1.0 -0.4600605116
C  C91  1  0.63860000  0.78290000  0.02770000  1.0 -0.4421026383
C  C92  1  0.63860000  0.71710000  0.52770000  1.0 -0.4421026383
C  C93  1  0.26930000  0.89090000  0.97120000  1.0 0.5812154336
C  C94  1  0.26930000  0.60910000  0.47120000  1.0 0.5812154336
C  C95  1  0.25540000  0.88780000  0.01050000  1.0 -0.0288244584
C  C96  1  0.25540000  0.61220000  0.51050000  1.0 -0.0288244584
C  C97  1  0.28090000  0.91090000  0.03680000  1.0 -0.1079459357
C  C98  1  0.28090000  0.58910000  0.53680000  1.0 -0.1079459357
C  C99  1  0.27670000  0.90770000  0.07440000  1.0 -0.1786472687
C  C100  1  0.27670000  0.59230000  0.57440000  1.0 -0.1786472687
C  C101  1  0.24520000  0.88160000  0.08610000  1.0 0.230202861
C  C102  1  0.24520000  0.61840000  0.58610000  1.0 0.230202861
C  C103  1  0.21820000  0.85790000  0.05840000  1.0 -0.1910536095
C  C104  1  0.21820000  0.64210000  0.55840000  1.0 -0.1910536095
C  C105  1  0.22280000  0.86190000  0.02180000  1.0 -0.0991299762
C  C106  1  0.22280000  0.63810000  0.52180000  1.0 -0.0991299762
C  C107  1  0.26200000  0.89561000  0.15400000  1.0 0.4510908033
C  C108  1  0.26200000  0.60439000  0.65400000  1.0 0.4510908033
C  C109  1  0.26690000  0.88225000  0.19300000  1.0 -0.0206429086
C  C110  1  0.26690000  0.61775000  0.69300000  1.0 -0.0206429086
C  C111  1  0.26590000  0.90348000  0.22250000  1.0 -0.1786472687
C  C112  1  0.26590000  0.59652000  0.72250000  1.0 -0.1786472687
C  C113  1  0.27610000  0.89314000  0.25990000  1.0 -0.0206429086
C  C114  1  0.27610000  0.60686000  0.75990000  1.0 -0.0288244584
C  C115  1  0.28980000  0.86138000  0.26890000  1.0 -0.1200377129
C  C116  1  0.28980000  0.63862000  0.76890000  1.0 -0.1200377129
C  C117  1  0.29180000  0.84034000  0.24040000  1.0 -0.0028170826
C  C118  1  0.29180000  0.65966000  0.74040000  1.0 -0.0028170826
C  C119  1  0.27820000  0.85063000  0.20220000  1.0 -0.1496816592
C  C120  1  0.27820000  0.64937000  0.70220000  1.0 -0.1496816592
C  C121  1  0.30940000  0.80623000  0.24770000  1.0 0.4701245649
C  C122  1  0.30940000  0.69377000  0.74770000  1.0 0.4701245649
C  C123  1  0.32540000  0.76406000  0.29600000  1.0 0.217943792
C  C124  1  0.32540000  0.73594000  0.79600000  1.0 0.217943792
C  C125  1  0.32120000  0.75680000  0.33030000  1.0 -0.2422980022
C  C126  1  0.32120000  0.74320000  0.83030000  1.0 -0.2422980022
C  C127  1  0.35180000  0.72800000  0.34830000  1.0 -0.1786472687
C  C128  1  0.35180000  0.77200000  0.84830000  1.0 -0.1786472687
C  C129  1  0.38270000  0.70610000  0.32990000  1.0 0.0019641083
C  C130  1  0.38270000  0.79390000  0.82990000  1.0 0.0019641083
C  C131  1  0.35370000  0.70990000  0.28980000  1.0 -0.0705122202
C  C132  1  0.35370000  0.79010000  0.78980000  1.0 -0.0705122202
C  C133  1  0.32410000  0.73830000  0.27230000  1.0 -0.1200377129
C  C134  1  0.32410000  0.76170000  0.77230000  1.0 -0.1200377129
C  C135  1  0.27380000  0.91425000  0.29300000  1.0 0.4443934897
C  C136  1  0.27380000  0.58575000  0.79300000  1.0 0.4443934897
C  C137  1  0.24240000  0.96745000  0.30930000  1.0 0.230202861
C  C138  1  0.24240000  0.53255000  0.80930000  1.0 0.230202861
C  C139  1  0.20260000  0.99590000  0.29200000  1.0 -0.2111430101
C  C140  1  0.20260000  0.50410000  0.79200000  1.0 -0.2111430101
C  C141  1  0.19910000  0.02090000  0.31550000  1.0 -0.0921662614
C  C142  1  0.19910000  0.47910000  0.81550000  1.0 -0.0921662614
C  C143  1  0.23520000  0.01810000  0.35620000  1.0 -0.0288244584
C  C144  1  0.23520000  0.48190000  0.85620000  1.0 -0.0288244584
C  C145  1  0.27290000  0.99040000  0.37290000  1.0 -0.0921662614
C  C146  1  0.27290000  0.50960000  0.87290000  1.0 -0.0921662614
C  C147  1  0.27560000  0.96430000  0.34920000  1.0 -0.1992859873
C  C148  1  0.27560000  0.53570000  0.84920000  1.0 -0.1910536095
C  C149  1  0.23670000  0.04630000  0.38160000  1.0 0.5143124906
C  C150  1  0.23670000  0.45370000  0.88160000  1.0 0.5143124906
C  C151  1  0.46090000  0.98700000  0.93270000  1.0 -0.0705122202
C  C152  1  0.46090000  0.51300000  0.43270000  1.0 -0.0705122202
C  C153  1  0.52570000  0.01130000  0.94880000  1.0 0.1591333466
C  C154  1  0.52570000  0.48870000  0.44880000  1.0 0.1591333466
C  C155  1  0.60610000  0.00380000  0.98130000  1.0 -0.1992859873
C  C156  1  0.60610000  0.49620000  0.48130000  1.0 -0.1992859873
C  C157  1  0.61780000  0.97570000  0.99760000  1.0 0.1591333466
C  C158  1  0.61780000  0.52430000  0.49760000  1.0 0.1591333466
C  C159  1  0.54560000  0.95220000  0.97730000  1.0 0.0410144206
C  C160  1  0.54560000  0.54780000  0.47730000  1.0 0.0410144206
C  C161  1  0.70180000  0.96490000  0.03490000  1.0 -0.4600605116
C  C162  1  0.70180000  0.53510000  0.53490000  1.0 -0.4518305374
C  C163  1  0.49610000  0.04350000  0.93270000  1.0 -0.4801033347
C  C164  1  0.49610000  0.45650000  0.43270000  1.0 -0.4801033347
C  C165  1  0.93460000  0.87610000  0.75500000  1.0 -0.0106015967
C  C166  1  0.93460000  0.62390000  0.25500000  1.0 -0.0106015967
C  C167  1  0.91090000  0.91110000  0.80290000  1.0 -0.2111430101
C  C168  1  0.91090000  0.58890000  0.30290000  1.0 -0.2111430101
C  C169  1  0.81490000  0.91530000  0.77850000  1.0 0.130005216
C  C170  1  0.81490000  0.58470000  0.27850000  1.0 0.130005216
C  C171  1  0.77880000  0.89990000  0.74240000  1.0 -0.2720549555
C  C172  1  0.77880000  0.60010000  0.24240000  1.0 -0.2720549555
C  C173  1  0.83860000  0.88030000  0.73060000  1.0 0.0794664909
C  C174  1  0.83860000  0.61970000  0.23060000  1.0 0.0794664909
C  C175  1  0.80240000  0.86350000  0.69040000  1.0 -0.1699456813
C  C176  1  0.80240000  0.63650000  0.19040000  1.0 -0.1699456813
C  C177  1  0.19600000  0.96180000  0.84780000  1.0 0.4775388984
C  C178  1  0.19600000  0.53820000  0.34780000  1.0 0.4775388984
C  C179  1  0.15760000  0.99270000  0.83150000  1.0 -0.0395016766
C  C180  1  0.15760000  0.50730000  0.33150000  1.0 -0.0395016766
C  C181  1  0.19180000  0.01960000  0.85080000  1.0 -0.0824407192
C  C182  1  0.19180000  0.48040000  0.35080000  1.0 -0.0824407192
C  C183  1  0.15530000  0.04830000  0.83560000  1.0 -0.1699456813
C  C184  1  0.15530000  0.45170000  0.33560000  1.0 -0.1699456813
C  C185  1  0.08040000  0.04980000  0.79980000  1.0 0.230202861
C  C186  1  0.08040000  0.45020000  0.29980000  1.0 0.230202861
C  C187  1  0.04520000  0.02300000  0.77920000  1.0 -0.1910536095
C  C188  1  0.04520000  0.47700000  0.27920000  1.0 -0.1910536095
C  C189  1  0.08220000  0.99410000  0.79480000  1.0 -0.0991299762
C  C190  1  0.08220000  0.50590000  0.29480000  1.0 -0.0991299762
C  C191  1  0.03220000  0.10450000  0.80080000  1.0 0.4510908033
C  C192  1  0.03220000  0.39550000  0.30080000  1.0 0.4510908033
C  C193  1  0.99260000  0.13276000  0.77610000  1.0 -0.0106015967
C  C194  1  0.99260000  0.36724000  0.27610000  1.0 -0.0106015967
C  C195  1  0.94400000  0.13241000  0.73530000  1.0 -0.1910536095
C  C196  1  0.94400000  0.36759000  0.23530000  1.0 -0.1910536095
C  C197  1  0.90690000  0.16007000  0.71570000  1.0 -0.0028170826
C  C198  1  0.90690000  0.33993000  0.21570000  1.0 -0.0028170826
C  C199  1  0.92040000  0.18786000  0.73590000  1.0 -0.130508002
C  C200  1  0.92040000  0.31214000  0.23590000  1.0 -0.130508002
C  C201  1  0.97360000  0.18885000  0.77610000  1.0 -0.0206429086
C  C202  1  0.97360000  0.31115000  0.27610000  1.0 -0.0206429086
C  C203  1  0.00460000  0.16114000  0.79660000  1.0 -0.1496816592
C  C204  1  0.00460000  0.33886000  0.29660000  1.0 -0.1496816592
C  C205  1  0.84460000  0.15970000  0.67250000  1.0 0.4595027639
C  C206  1  0.84460000  0.34030000  0.17250000  1.0 0.4595027639
C  C207  1  0.83720000  0.13800000  0.60830000  1.0 0.217943792
C  C208  1  0.83720000  0.36200000  0.10830000  1.0 0.217943792
C  C209  1  0.89500000  0.13800000  0.58540000  1.0 -0.1992859873
C  C210  1  0.89500000  0.36200000  0.08540000  1.0 -0.1992859873
C  C211  1  0.85360000  0.12970000  0.54520000  1.0 -0.0921662614
C  C212  1  0.85360000  0.37030000  0.04520000  1.0 -0.0921662614
C  C213  1  0.75940000  0.12151000  0.52920000  1.0 -0.0288244584
C  C214  1  0.75940000  0.37849000  0.02920000  1.0 -0.0288244584
C  C215  1  0.70220000  0.12186000  0.55250000  1.0 -0.1496816592
C  C216  1  0.70220000  0.37814000  0.05250000  1.0 -0.1496816592
C  C217  1  0.74080000  0.13009000  0.59220000  1.0 -0.2111430101
C  C218  1  0.74080000  0.36991000  0.09220000  1.0 -0.2111430101
C  C219  1  0.71560000  0.11351000  0.48580000  1.0 0.5498185007
C  C220  1  0.71560000  0.38649000  0.98580000  1.0 0.5498185007
C  C221  1  0.13020000  0.24907000  0.84450000  1.0 0.217943792
C  C222  1  0.13020000  0.25093000  0.34450000  1.0 0.217943792
C  C223  1  0.22840000  0.24696000  0.86630000  1.0 -0.1910536095
C  C224  1  0.22840000  0.25304000  0.36630000  1.0 -0.1910536095
C  C225  1  0.27650000  0.27303000  0.88600000  1.0 -0.0991299762
C  C226  1  0.27650000  0.22697000  0.38600000  1.0 -0.0991299762
C  C227  1  0.23060000  0.30090000  0.88490000  1.0 -0.0395016766
C  C228  1  0.23060000  0.19910000  0.38490000  1.0 -0.0395016766
C  C229  1  0.13130000  0.30220000  0.86450000  1.0 -0.1200377129
C  C230  1  0.13130000  0.19780000  0.36450000  1.0 -0.1200377129
C  C231  1  0.08220000  0.27650000  0.84430000  1.0 -0.1910536095
C  C232  1  0.08220000  0.22350000  0.34430000  1.0 -0.1910536095
C  C233  1  0.28630000  0.32916000  0.90530000  1.0 0.5673836915
C  C234  1  0.28630000  0.17084000  0.40530000  1.0 0.5673836915
C  C235  1  0.40640000  0.38470000  0.01360000  1.0 0.5812154336
C  C236  1  0.40640000  0.11530000  0.51360000  1.0 0.5812154336
C  C237  1  0.42100000  0.38450000  0.05700000  1.0 -0.0288244584
C  C238  1  0.42100000  0.11550000  0.55700000  1.0 -0.0288244584
C  C239  1  0.38130000  0.40640000  0.07390000  1.0 -0.0824407192
C  C240  1  0.38130000  0.09360000  0.57390000  1.0 -0.0824407192
C  C241  1  0.39640000  0.40560000  0.11390000  1.0 -0.1992859873
C  C242  1  0.39640000  0.09440000  0.61390000  1.0 -0.1992859873
C  C243  1  0.44990000  0.38180000  0.13740000  1.0 0.230202861
C  C244  1  0.44990000  0.11820000  0.63740000  1.0 0.230202861
C  C245  1  0.49430000  0.36040000  0.12130000  1.0 -0.1586887093
C  C246  1  0.49430000  0.13960000  0.62130000  1.0 -0.1586887093
C  C247  1  0.47970000  0.36180000  0.08130000  1.0 -0.1079459357
C  C248  1  0.47970000  0.13820000  0.58130000  1.0 -0.1079459357
C  C249  1  0.46000000  0.35680000  0.19900000  1.0 0.4443934897
C  C250  1  0.46000000  0.14320000  0.69900000  1.0 0.4443934897
C  C251  1  0.47260000  0.36118000  0.24200000  1.0 -0.0028170826
C  C252  1  0.47260000  0.13882000  0.74200000  1.0 -0.0028170826
C  C253  1  0.47410000  0.38993000  0.25990000  1.0 -0.1992859873
C  C254  1  0.47410000  0.11007000  0.75990000  1.0 -0.1992859873
C  C255  1  0.48470000  0.39138000  0.29990000  1.0 -0.0206429086
C  C256  1  0.48470000  0.10862000  0.79990000  1.0 -0.0206429086
C  C257  1  0.49150000  0.36442000  0.32110000  1.0 -0.130508002
C  C258  1  0.49150000  0.13558000  0.82110000  1.0 -0.130508002
C  C259  1  0.48910000  0.33523000  0.30390000  1.0 -0.0206429086
C  C260  1  0.48910000  0.16477000  0.80390000  1.0 -0.0206429086
C  C261  1  0.47880000  0.33416000  0.26390000  1.0 -0.1448384376
C  C262  1  0.47880000  0.16584000  0.76390000  1.0 -0.1448384376
C  C263  1  0.47910000  0.42122000  0.31970000  1.0 0.4595027639
C  C264  1  0.47910000  0.07878000  0.81970000  1.0 0.4595027639
C  C265  1  0.60430000  0.49320000  0.33520000  1.0 -0.1992859873
C  C266  1  0.60430000  0.00680000  0.83520000  1.0 -0.1992859873
C  C267  1  0.60720000  0.52400000  0.34700000  1.0 -0.0921662614
C  C268  1  0.60720000  0.97600000  0.84700000  1.0 -0.0921662614
C  C269  1  0.52510000  0.53827000  0.34940000  1.0 -0.0491579133
C  C270  1  0.52510000  0.96173000  0.84940000  1.0 -0.0491579133
C  C271  1  0.44080000  0.52190000  0.33790000  1.0 -0.0921662614
C  C272  1  0.44080000  0.97810000  0.83790000  1.0 -0.0921662614
C  C273  1  0.43550000  0.49117000  0.32480000  1.0 -0.1786472687
C  C274  1  0.43550000  0.00883000  0.82480000  1.0 -0.1786472687
C  C275  1  0.51730000  0.47732000  0.32310000  1.0 0.230202861
C  C276  1  0.51730000  0.02268000  0.82310000  1.0 0.230202861
C  C277  1  0.53110000  0.57080000  0.36270000  1.0 0.5498185007
C  C278  1  0.53110000  0.92920000  0.86270000  1.0 0.5498185007
C  C279  1  0.49390000  0.30675000  0.32840000  1.0 0.4510908033
C  C280  1  0.49390000  0.19325000  0.82840000  1.0 0.4510908033
C  C281  1  0.55530000  0.25251000  0.33560000  1.0 0.230202861
C  C282  1  0.55530000  0.24749000  0.83560000  1.0 0.230202861
C  C283  1  0.50440000  0.24090000  0.35850000  1.0 -0.1786472687
C  C284  1  0.50440000  0.25910000  0.85850000  1.0 -0.1786472687
C  C285  1  0.52190000  0.21100000  0.37290000  1.0 -0.1079459357
C  C286  1  0.52190000  0.28900000  0.87290000  1.0 -0.1079459357
C  C287  1  0.58820000  0.19208000  0.36490000  1.0 -0.0206429086
C  C288  1  0.58820000  0.30792000  0.86490000  1.0 -0.0288244584
C  C289  1  0.63660000  0.20370000  0.34170000  1.0 -0.0991299762
C  C290  1  0.63660000  0.29630000  0.84170000  1.0 -0.0991299762
C  C291  1  0.62290000  0.23390000  0.32860000  1.0 -0.1992859873
C  C292  1  0.62290000  0.26610000  0.82860000  1.0 -0.1992859873
C  C293  1  0.09510000  0.43230000  0.94330000  1.0 -0.0588099427
C  C294  1  0.09510000  0.06770000  0.44330000  1.0 -0.0588099427
C  C295  1  0.00740000  0.43560000  0.94840000  1.0 0.1388743191
C  C296  1  0.00740000  0.06440000  0.44840000  1.0 0.1388743191
C  C297  1  0.94720000  0.41100000  0.94100000  1.0 -0.1910536095
C  C298  1  0.94720000  0.08900000  0.44100000  1.0 -0.1910536095
C  C299  1  0.97500000  0.38290000  0.92970000  1.0 0.130005216
C  C300  1  0.97500000  0.11710000  0.42970000  1.0 0.130005216
C  C301  1  0.06440000  0.38180000  0.92690000  1.0 -0.0028170826
C  C302  1  0.06440000  0.11820000  0.42690000  1.0 -0.0028170826
C  C303  1  0.97570000  0.46800000  0.95870000  1.0 -0.4421026383
C  C304  1  0.97570000  0.03200000  0.45870000  1.0 -0.4421026383
C  C305  1  0.42880000  0.41310000  0.88320000  1.0 0.251216553
C  C306  1  0.42880000  0.08690000  0.38320000  1.0 0.251216553
C  C307  1  0.66980000  0.30870000  0.99810000  1.0 0.0489545121
C  C308  1  0.66980000  0.19130000  0.49810000  1.0 0.0489545121
C  C309  1  0.71360000  0.28920000  0.03010000  1.0 0.0069731731
C  C310  1  0.71360000  0.21080000  0.53010000  1.0 0.0069731731
C  C311  1  0.66020000  0.27750000  0.05190000  1.0 -0.0395016766
C  C312  1  0.66020000  0.22250000  0.55190000  1.0 -0.0395016766
C  C313  1  0.56300000  0.28520000  0.04170000  1.0 0.0019641083
C  C314  1  0.56300000  0.21480000  0.54170000  1.0 0.0019641083
C  C315  1  0.51910000  0.30470000  0.00960000  1.0 -0.0991299762
C  C316  1  0.51910000  0.19530000  0.50960000  1.0 -0.0991299762
C  C317  1  0.50410000  0.27360000  0.06670000  1.0 -0.3793467111
C  C318  1  0.50410000  0.22640000  0.56670000  1.0 -0.3793467111
C  C319  1  0.17170000  0.85510000  0.75570000  1.0 -0.0106015967
C  C320  1  0.17170000  0.64490000  0.25570000  1.0 -0.0106015967
C  C321  1  0.15070000  0.85170000  0.71530000  1.0 0.0489545121
C  C322  1  0.15070000  0.64830000  0.21530000  1.0 0.0489545121
C  C323  1  0.11850000  0.87700000  0.69020000  1.0 -0.2809812875
C  C324  1  0.11850000  0.62300000  0.19020000  1.0 -0.2809812875
C  C325  1  0.10730000  0.90590000  0.70550000  1.0 0.1004504184
C  C326  1  0.10730000  0.59410000  0.20550000  1.0 0.1004504184
C  C327  1  0.12830000  0.90930000  0.74600000  1.0 -0.1079459357
C  C328  1  0.12830000  0.59070000  0.24600000  1.0 -0.1079459357
C  C329  1  0.82300000  0.28440000  0.03990000  1.0 -0.2111430101
C  C330  1  0.82300000  0.21560000  0.53990000  1.0 -0.2111430101
C  C331  1  0.75650000  0.93890000  0.79310000  1.0 -0.4421026383
C  C332  1  0.75650000  0.56110000  0.29310000  1.0 -0.4421026383
C  C333  1  0.16920000  0.81770000  0.70620000  1.0 -0.1910536095
C  C334  1  0.16920000  0.68230000  0.20620000  1.0 -0.1910536095
C  C335  1  0.07870000  0.93080000  0.67270000  1.0 -0.2422980022
C  C336  1  0.07870000  0.56920000  0.17270000  1.0 -0.2422980022
C  C337  1  0.80120000  0.73480000  0.43060000  1.0 -0.4518305374
C  C338  1  0.80120000  0.76520000  0.93060000  1.0 -0.4518305374
C  C339  1  0.90900000  0.35370000  0.92200000  1.0 -0.4715560398
C  C340  1  0.90900000  0.14630000  0.42200000  1.0 -0.4715560398
C  C341  1  0.95840000  0.87180000  0.75850000  1.0 0.0069731731
C  C342  1  0.95840000  0.62820000  0.25850000  1.0 0.0069731731
C  C343  1  0.90220000  0.86720000  0.71890000  1.0 0.0019641083
C  C344  1  0.90220000  0.63280000  0.21890000  1.0 0.0019641083
C  C345  1  0.92080000  0.88420000  0.68960000  1.0 -0.2422980022
C  C346  1  0.92080000  0.61580000  0.18960000  1.0 -0.2422980022
C  C347  1  0.99560000  0.90590000  0.69990000  1.0 -0.0588099427
C  C348  1  0.99560000  0.59410000  0.19990000  1.0 -0.0588099427
C  C349  1  0.05170000  0.91050000  0.73950000  1.0 -0.0206429086
C  C350  1  0.05170000  0.58950000  0.23950000  1.0 -0.0206429086
C  C351  1  0.68860000  0.31220000  0.97180000  1.0 -0.1079459357
C  C352  1  0.68860000  0.18780000  0.47180000  1.0 -0.1079459357
C  C353  1  0.76060000  0.29290000  0.99610000  1.0 0.024785274
C  C354  1  0.76060000  0.20710000  0.49610000  1.0 0.024785274
C  C355  1  0.75020000  0.27960000  0.02950000  1.0 -0.0395016766
C  C356  1  0.75020000  0.22040000  0.52950000  1.0 -0.0395016766
C  C357  1  0.66780000  0.28560000  0.03850000  1.0 0.0069731731
C  C358  1  0.66780000  0.21440000  0.53850000  1.0 0.0069731731
C  C359  1  0.59580000  0.30490000  0.01420000  1.0 0.0489545121
C  C360  1  0.59580000  0.19510000  0.51420000  1.0 0.0489545121
C  C361  1  0.65190000  0.27510000  0.07660000  1.0 -0.1992859873
C  C362  1  0.65190000  0.22490000  0.57660000  1.0 -0.1910536095
C  C363  1  0.85190000  0.28620000  0.98610000  1.0 -0.430730656
C  C364  1  0.85190000  0.21380000  0.48610000  1.0 -0.430730656
C  C365  1  0.01750000  0.93000000  0.67250000  1.0 -0.1910536095
C  C366  1  0.01750000  0.57000000  0.17250000  1.0 -0.1910536095
C  C367  1  0.45930000  0.43100000  0.91450000  1.0 0.1659401132
C  C368  1  0.45930000  0.06900000  0.41450000  1.0 0.1659401132
C  C369  1  0.41180000  0.74790000  0.28580000  1.0 -0.1079459357
C  C370  1  0.41180000  0.75210000  0.78580000  1.0 -0.1079459357
C  C371  1  0.44840000  0.71970000  0.30540000  1.0 -0.1079459357
C  C372  1  0.44840000  0.78030000  0.80540000  1.0 -0.1079459357
C  C373  1  0.81760000  0.84380000  0.70660000  1.0 -0.219834421
C  C374  1  0.81760000  0.65620000  0.20660000  1.0 -0.219834421
C  C375  1  0.31470000  0.89540000  0.78060000  1.0 -0.2111430101
C  C376  1  0.31470000  0.60460000  0.28060000  1.0 -0.2111430101
C  C377  1  0.20350000  0.85260000  0.75770000  1.0 -0.0206429086
C  C378  1  0.20350000  0.64740000  0.25770000  1.0 -0.0206429086
C  C379  1  0.22770000  0.85030000  0.72390000  1.0 0.0794664909
C  C380  1  0.22770000  0.64970000  0.22390000  1.0 0.0794664909
C  C381  1  0.16490000  0.83020000  0.68890000  1.0 -0.1992859873
C  C382  1  0.16490000  0.66980000  0.18890000  1.0 -0.1992859873
C  C383  1  0.43210000  0.90380000  0.74050000  1.0 -0.430730656
C  C384  1  0.43210000  0.59620000  0.24050000  1.0 -0.430730656
C  C385  1  0.29550000  0.87050000  0.71850000  1.0 -0.2566600105
C  C386  1  0.29550000  0.62950000  0.21850000  1.0 -0.2566600105
C  C387  1  0.33900000  0.89310000  0.74680000  1.0 0.1204274857
C  C388  1  0.33900000  0.60690000  0.24680000  1.0 0.1204274857
C  C389  1  0.00570000  0.71989000  0.70380000  1.0 0.4510908033
C  C390  1  0.00570000  0.78011000  0.20380000  1.0 0.4510908033
C  C391  1  0.39080000  0.65949000  0.11920000  1.0 0.5350836365
C  C392  1  0.39080000  0.84051000  0.61920000  1.0 0.5350836365
C  C393  1  0.18580000  0.19990000  0.12440000  1.0 -0.2111430101
C  C394  1  0.18580000  0.30010000  0.62440000  1.0 -0.2111430101
C  C395  1  0.21290000  0.17370000  0.14830000  1.0 0.1659401132
C  C396  1  0.21290000  0.32630000  0.64830000  1.0 0.1659401132
C  C397  1  0.28010000  0.15300000  0.14330000  1.0 -0.0491579133
C  C398  1  0.28010000  0.34700000  0.64330000  1.0 -0.0491579133
C  C399  1  0.29300000  0.18480000  0.09050000  1.0 -0.0588099427
C  C400  1  0.29300000  0.31520000  0.59050000  1.0 -0.0588099427
C  C401  1  0.22580000  0.20550000  0.09550000  1.0 0.1591333466
C  C402  1  0.22580000  0.29450000  0.59550000  1.0 0.1591333466
C  C403  1  0.16540000  0.16600000  0.17900000  1.0 -0.4715560398
C  C404  1  0.16540000  0.33400000  0.67900000  1.0 -0.4715560398
C  C405  1  0.24840000  0.11007000  0.78090000  1.0 -0.130508002
C  C406  1  0.24840000  0.38993000  0.28090000  1.0 -0.130508002
C  C407  1  0.57080000  0.17690000  0.14990000  1.0 0.5202120392
C  C408  1  0.57080000  0.32310000  0.64990000  1.0 0.5202120392
C  C409  1  0.44620000  0.12737000  0.03170000  1.0 0.5673836915
C  C410  1  0.44620000  0.37263000  0.53170000  1.0 0.5673836915
C  C411  1  0.41400000  0.12813000  0.98710000  1.0 -0.0491579133
C  C412  1  0.41400000  0.37187000  0.48710000  1.0 -0.0491579133
C  C413  1  0.31740000  0.12990000  0.96450000  1.0 -0.0991299762
C  C414  1  0.31740000  0.37010000  0.46450000  1.0 -0.0991299762
C  C415  1  0.28640000  0.12920000  0.92390000  1.0 -0.1699456813
C  C416  1  0.28640000  0.37080000  0.42390000  1.0 -0.1699456813
C  C417  1  0.35270000  0.12766000  0.90520000  1.0 0.230202861
C  C418  1  0.35270000  0.37234000  0.40520000  1.0 0.230202861
C  C419  1  0.44970000  0.12530000  0.92750000  1.0 -0.1786472687
C  C420  1  0.44970000  0.37470000  0.42750000  1.0 -0.1786472687
C  C421  1  0.47810000  0.12560000  0.96870000  1.0 -0.0991299762
C  C422  1  0.47810000  0.37440000  0.46870000  1.0 -0.0991299762
C  C423  1  0.26230000  0.14618000  0.83850000  1.0 0.4701245649
C  C424  1  0.26230000  0.35382000  0.33850000  1.0 0.4701245649
C  C425  1  0.23850000  0.13924000  0.79520000  1.0 -0.0028170826
C  C426  1  0.23850000  0.36076000  0.29520000  1.0 -0.0028170826
C  C427  1  0.19900000  0.16296000  0.76880000  1.0 -0.1496816592
C  C428  1  0.19900000  0.33704000  0.26880000  1.0 -0.1496816592
C  C429  1  0.16880000  0.15733000  0.72780000  1.0 -0.0206429086
C  C430  1  0.16880000  0.34267000  0.22780000  1.0 -0.0206429086
C  C431  1  0.18080000  0.12786000  0.71460000  1.0 -0.1699456813
C  C432  1  0.18080000  0.37214000  0.21460000  1.0 -0.1699456813
C  C433  1  0.22150000  0.10403000  0.74070000  1.0 -0.0288244584
C  C434  1  0.22150000  0.39597000  0.24070000  1.0 -0.0288244584
C  C435  1  0.23850000  0.07160000  0.73000000  1.0 0.4443934897
C  C436  1  0.23850000  0.42840000  0.23000000  1.0 0.4443934897
C  C437  1  0.23860000  0.03690000  0.67560000  1.0 0.230202861
C  C438  1  0.23860000  0.46310000  0.17560000  1.0 0.230202861
C  C439  1  0.22880000  0.03680000  0.63530000  1.0 -0.2111430101
C  C440  1  0.22880000  0.46320000  0.13530000  1.0 -0.2111430101
C  C441  1  0.24280000  0.00930000  0.61790000  1.0 -0.0921662614
C  C442  1  0.24280000  0.49070000  0.11790000  1.0 -0.0921662614
C  C443  1  0.26700000  0.98200000  0.63880000  1.0 -0.0288244584
C  C444  1  0.26700000  0.51800000  0.13880000  1.0 -0.0288244584
C  C445  1  0.27330000  0.98210000  0.67720000  1.0 -0.0921662614
C  C446  1  0.27330000  0.51790000  0.17720000  1.0 -0.0991299762
C  C447  1  0.26180000  0.00970000  0.69630000  1.0 -0.1992859873
C  C448  1  0.26180000  0.49030000  0.19630000  1.0 -0.1992859873
C  C449  1  0.28450000  0.95260000  0.61970000  1.0 0.5295799522
C  C450  1  0.28450000  0.54740000  0.11970000  1.0 0.5295799522
C  C451  1  0.11450000  0.18102000  0.69800000  1.0 0.4510908033
C  C452  1  0.11450000  0.31898000  0.19800000  1.0 0.4510908033
C  C453  1  0.05350000  0.23543000  0.69270000  1.0 0.217943792
C  C454  1  0.05350000  0.26457000  0.19270000  1.0 0.217943792
C  C455  1  0.05190000  0.26006000  0.71640000  1.0 -0.1910536095
C  C456  1  0.05190000  0.23994000  0.21640000  1.0 -0.1910536095
C  C457  1  0.99060000  0.28450000  0.70220000  1.0 -0.1079459357
C  C458  1  0.99060000  0.21550000  0.20220000  1.0 -0.1079459357
C  C459  1  0.92780000  0.28492000  0.66310000  1.0 -0.0206429086
C  C460  1  0.92780000  0.21508000  0.16310000  1.0 -0.0206429086
C  C461  1  0.92890000  0.26030000  0.63930000  1.0 -0.130508002
C  C462  1  0.92890000  0.23970000  0.13930000  1.0 -0.130508002
C  C463  1  0.99220000  0.23510000  0.65350000  1.0 -0.1992859873
C  C464  1  0.99220000  0.26490000  0.15350000  1.0 -0.1992859873
C  C465  1  0.86050000  0.31180000  0.64770000  1.0 0.5572258977
C  C466  1  0.86050000  0.18820000  0.14770000  1.0 0.5572258977
C  C467  1  0.51810000  0.30180000  0.52360000  1.0 -0.0206429086
C  C468  1  0.51810000  0.19820000  0.02360000  1.0 -0.0206429086
C  C469  1  0.47140000  0.28790000  0.48470000  1.0 0.1204274857
C  C470  1  0.47140000  0.21210000  0.98470000  1.0 0.1204274857
C  C471  1  0.51950000  0.28230000  0.46530000  1.0 -0.1699456813
C  C472  1  0.51950000  0.21770000  0.96530000  1.0 -0.1699456813
C  C473  1  0.61350000  0.28540000  0.47540000  1.0 0.057671164
C  C474  1  0.61350000  0.21460000  0.97540000  1.0 0.057671164
C  C475  1  0.66050000  0.30120000  0.51460000  1.0 -0.0395016766
C  C476  1  0.66050000  0.19880000  0.01460000  1.0 -0.0395016766
C  C477  1  0.68300000  0.27650000  0.45480000  1.0 -0.4600605116
C  C478  1  0.68300000  0.22350000  0.95480000  1.0 -0.4600605116
C  C479  1  0.36140000  0.28290000  0.47230000  1.0 -0.4421026383
C  C480  1  0.36140000  0.21710000  0.97230000  1.0 -0.4421026383
C  C481  1  0.73070000  0.39090000  0.52880000  1.0 0.5812154336
C  C482  1  0.73070000  0.10910000  0.02880000  1.0 0.5812154336
C  C483  1  0.74460000  0.38780000  0.48950000  1.0 -0.0288244584
C  C484  1  0.74460000  0.11220000  0.98950000  1.0 -0.0288244584
C  C485  1  0.71910000  0.41090000  0.46320000  1.0 -0.1079459357
C  C486  1  0.71910000  0.08910000  0.96320000  1.0 -0.1079459357
C  C487  1  0.72330000  0.40770000  0.42560000  1.0 -0.1786472687
C  C488  1  0.72330000  0.09230000  0.92560000  1.0 -0.1786472687
C  C489  1  0.75480000  0.38160000  0.41390000  1.0 0.230202861
C  C490  1  0.75480000  0.11840000  0.91390000  1.0 0.230202861
C  C491  1  0.78180000  0.35790000  0.44160000  1.0 -0.1910536095
C  C492  1  0.78180000  0.14210000  0.94160000  1.0 -0.1910536095
C  C493  1  0.77720000  0.36190000  0.47820000  1.0 -0.0991299762
C  C494  1  0.77720000  0.13810000  0.97820000  1.0 -0.0991299762
C  C495  1  0.73800000  0.39561000  0.34600000  1.0 0.4510908033
C  C496  1  0.73800000  0.10439000  0.84600000  1.0 0.4510908033
C  C497  1  0.73310000  0.38225000  0.30700000  1.0 -0.0206429086
C  C498  1  0.73310000  0.11775000  0.80700000  1.0 -0.0206429086
C  C499  1  0.73410000  0.40348000  0.27750000  1.0 -0.1786472687
C  C500  1  0.73410000  0.09652000  0.77750000  1.0 -0.1786472687
C  C501  1  0.72390000  0.39314000  0.24010000  1.0 -0.0288244584
C  C502  1  0.72390000  0.10686000  0.74010000  1.0 -0.0288244584
C  C503  1  0.71020000  0.36138000  0.23110000  1.0 -0.1200377129
C  C504  1  0.71020000  0.13862000  0.73110000  1.0 -0.1200377129
C  C505  1  0.70820000  0.34034000  0.25960000  1.0 -0.0028170826
C  C506  1  0.70820000  0.15966000  0.75960000  1.0 -0.0028170826
C  C507  1  0.72180000  0.35063000  0.29780000  1.0 -0.1496816592
C  C508  1  0.72180000  0.14937000  0.79780000  1.0 -0.1496816592
C  C509  1  0.69060000  0.30623000  0.25230000  1.0 0.4701245649
C  C510  1  0.69060000  0.19377000  0.75230000  1.0 0.4701245649
C  C511  1  0.67460000  0.26406000  0.20400000  1.0 0.217943792
C  C512  1  0.67460000  0.23594000  0.70400000  1.0 0.217943792
C  C513  1  0.67880000  0.25680000  0.16970000  1.0 -0.2422980022
C  C514  1  0.67880000  0.24320000  0.66970000  1.0 -0.2422980022
C  C515  1  0.64820000  0.22800000  0.15170000  1.0 -0.1786472687
C  C516  1  0.64820000  0.27200000  0.65170000  1.0 -0.1786472687
C  C517  1  0.61730000  0.20610000  0.17010000  1.0 0.0019641083
C  C518  1  0.61730000  0.29390000  0.67010000  1.0 0.0019641083
C  C519  1  0.64630000  0.20990000  0.21020000  1.0 -0.0705122202
C  C520  1  0.64630000  0.29010000  0.71020000  1.0 -0.0705122202
C  C521  1  0.67590000  0.23830000  0.22770000  1.0 -0.1200377129
C  C522  1  0.67590000  0.26170000  0.72770000  1.0 -0.1200377129
C  C523  1  0.72620000  0.41425000  0.20700000  1.0 0.4443934897
C  C524  1  0.72620000  0.08575000  0.70700000  1.0 0.4443934897
C  C525  1  0.75760000  0.46745000  0.19070000  1.0 0.230202861
C  C526  1  0.75760000  0.03255000  0.69070000  1.0 0.230202861
C  C527  1  0.79740000  0.49590000  0.20800000  1.0 -0.2111430101
C  C528  1  0.79740000  0.00410000  0.70800000  1.0 -0.2111430101
C  C529  1  0.80090000  0.52090000  0.18450000  1.0 -0.0921662614
C  C530  1  0.80090000  0.97910000  0.68450000  1.0 -0.0921662614
C  C531  1  0.76480000  0.51810000  0.14380000  1.0 -0.0288244584
C  C532  1  0.76480000  0.98190000  0.64380000  1.0 -0.0288244584
C  C533  1  0.72710000  0.49040000  0.12710000  1.0 -0.0921662614
C  C534  1  0.72710000  0.00960000  0.62710000  1.0 -0.0921662614
C  C535  1  0.72440000  0.46430000  0.15080000  1.0 -0.1910536095
C  C536  1  0.72440000  0.03570000  0.65080000  1.0 -0.1910536095
C  C537  1  0.76330000  0.54630000  0.11840000  1.0 0.5143124906
C  C538  1  0.76330000  0.95370000  0.61840000  1.0 0.5143124906
C  C539  1  0.53910000  0.48700000  0.56730000  1.0 -0.0705122202
C  C540  1  0.53910000  0.01300000  0.06730000  1.0 -0.0705122202
C  C541  1  0.47430000  0.51130000  0.55120000  1.0 0.1591333466
C  C542  1  0.47430000  0.98870000  0.05120000  1.0 0.1591333466
C  C543  1  0.39390000  0.50380000  0.51870000  1.0 -0.1992859873
C  C544  1  0.39390000  0.99620000  0.01870000  1.0 -0.1992859873
C  C545  1  0.38220000  0.47570000  0.50240000  1.0 0.1591333466
C  C546  1  0.38220000  0.02430000  0.00240000  1.0 0.1591333466
C  C547  1  0.45440000  0.45220000  0.52270000  1.0 0.0410144206
C  C548  1  0.45440000  0.04780000  0.02270000  1.0 0.0410144206
C  C549  1  0.29820000  0.46490000  0.46510000  1.0 -0.4518305374
C  C550  1  0.29820000  0.03510000  0.96510000  1.0 -0.4518305374
C  C551  1  0.50390000  0.54350000  0.56730000  1.0 -0.4801033347
C  C552  1  0.50390000  0.95650000  0.06730000  1.0 -0.4801033347
C  C553  1  0.06540000  0.37610000  0.74500000  1.0 -0.0106015967
C  C554  1  0.06540000  0.12390000  0.24500000  1.0 -0.0106015967
C  C555  1  0.08910000  0.41110000  0.69710000  1.0 -0.2111430101
C  C556  1  0.08910000  0.08890000  0.19710000  1.0 -0.2111430101
C  C557  1  0.18510000  0.41530000  0.72150000  1.0 0.130005216
C  C558  1  0.18510000  0.08470000  0.22150000  1.0 0.130005216
C  C559  1  0.22120000  0.39990000  0.75760000  1.0 -0.2720549555
C  C560  1  0.22120000  0.10010000  0.25760000  1.0 -0.2720549555
C  C561  1  0.16140000  0.38030000  0.76940000  1.0 0.0794664909
C  C562  1  0.16140000  0.11970000  0.26940000  1.0 0.0794664909
C  C563  1  0.19760000  0.36350000  0.80960000  1.0 -0.1699456813
C  C564  1  0.19760000  0.13650000  0.30960000  1.0 -0.1699456813
C  C565  1  0.80400000  0.46180000  0.65220000  1.0 0.4775388984
C  C566  1  0.80400000  0.03820000  0.15220000  1.0 0.4775388984
C  C567  1  0.84240000  0.49270000  0.66850000  1.0 -0.0395016766
C  C568  1  0.84240000  0.00730000  0.16850000  1.0 -0.0395016766
C  C569  1  0.80820000  0.51960000  0.64920000  1.0 -0.0824407192
C  C570  1  0.80820000  0.98040000  0.14920000  1.0 -0.0824407192
C  C571  1  0.84470000  0.54830000  0.66440000  1.0 -0.1699456813
C  C572  1  0.84470000  0.95170000  0.16440000  1.0 -0.1699456813
C  C573  1  0.91960000  0.54980000  0.70020000  1.0 0.230202861
C  C574  1  0.91960000  0.95020000  0.20020000  1.0 0.230202861
C  C575  1  0.95480000  0.52300000  0.72080000  1.0 -0.1910536095
C  C576  1  0.95480000  0.97700000  0.22080000  1.0 -0.1910536095
C  C577  1  0.91780000  0.49410000  0.70520000  1.0 -0.0991299762
C  C578  1  0.91780000  0.00590000  0.20520000  1.0 -0.0991299762
C  C579  1  0.96780000  0.60450000  0.69920000  1.0 0.4510908033
C  C580  1  0.96780000  0.89550000  0.19920000  1.0 0.4510908033
C  C581  1  0.00740000  0.63276000  0.72390000  1.0 -0.0106015967
C  C582  1  0.00740000  0.86724000  0.22390000  1.0 -0.0106015967
C  C583  1  0.05600000  0.63241000  0.76470000  1.0 -0.1910536095
C  C584  1  0.05600000  0.86759000  0.26470000  1.0 -0.1910536095
C  C585  1  0.09310000  0.66007000  0.78430000  1.0 -0.0028170826
C  C586  1  0.09310000  0.83993000  0.28430000  1.0 -0.0028170826
C  C587  1  0.07960000  0.68786000  0.76410000  1.0 -0.130508002
C  C588  1  0.07960000  0.81214000  0.26410000  1.0 -0.130508002
C  C589  1  0.02640000  0.68885000  0.72390000  1.0 -0.0206429086
C  C590  1  0.02640000  0.81115000  0.22390000  1.0 -0.0206429086
C  C591  1  0.99540000  0.66114000  0.70340000  1.0 -0.1496816592
C  C592  1  0.99540000  0.83886000  0.20340000  1.0 -0.1496816592
C  C593  1  0.15540000  0.65970000  0.82750000  1.0 0.4595027639
C  C594  1  0.15540000  0.84030000  0.32750000  1.0 0.4595027639
C  C595  1  0.16280000  0.63800000  0.89170000  1.0 0.217943792
C  C596  1  0.16280000  0.86200000  0.39170000  1.0 0.217943792
C  C597  1  0.10500000  0.63800000  0.91460000  1.0 -0.1992859873
C  C598  1  0.10500000  0.86200000  0.41460000  1.0 -0.1992859873
C  C599  1  0.14640000  0.62970000  0.95480000  1.0 -0.0991299762
C  C600  1  0.14640000  0.87030000  0.45480000  1.0 -0.0991299762
C  C601  1  0.24060000  0.62151000  0.97080000  1.0 -0.0288244584
C  C602  1  0.24060000  0.87849000  0.47080000  1.0 -0.0288244584
C  C603  1  0.29780000  0.62186000  0.94750000  1.0 -0.1496816592
C  C604  1  0.29780000  0.87814000  0.44750000  1.0 -0.1496816592
C  C605  1  0.25920000  0.63009000  0.90780000  1.0 -0.2111430101
C  C606  1  0.25920000  0.86991000  0.40780000  1.0 -0.2111430101
C  C607  1  0.28440000  0.61351000  0.01420000  1.0 0.5498185007
C  C608  1  0.28440000  0.88649000  0.51420000  1.0 0.5498185007
C  C609  1  0.86980000  0.74907000  0.65550000  1.0 0.217943792
C  C610  1  0.86980000  0.75093000  0.15550000  1.0 0.217943792
C  C611  1  0.77160000  0.74696000  0.63370000  1.0 -0.1910536095
C  C612  1  0.77160000  0.75304000  0.13370000  1.0 -0.1910536095
C  C613  1  0.72350000  0.77303000  0.61400000  1.0 -0.0991299762
C  C614  1  0.72350000  0.72697000  0.11400000  1.0 -0.0991299762
C  C615  1  0.76940000  0.80090000  0.61510000  1.0 -0.0395016766
C  C616  1  0.76940000  0.69910000  0.11510000  1.0 -0.0395016766
C  C617  1  0.86870000  0.80220000  0.63550000  1.0 -0.1200377129
C  C618  1  0.86870000  0.69780000  0.13550000  1.0 -0.1200377129
C  C619  1  0.91780000  0.77650000  0.65570000  1.0 -0.1910536095
C  C620  1  0.91780000  0.72350000  0.15570000  1.0 -0.1910536095
C  C621  1  0.71370000  0.82916000  0.59470000  1.0 0.5673836915
C  C622  1  0.71370000  0.67084000  0.09470000  1.0 0.5673836915
C  C623  1  0.59360000  0.88470000  0.48640000  1.0 0.5812154336
C  C624  1  0.59360000  0.61530000  0.98640000  1.0 0.5812154336
C  C625  1  0.57900000  0.88450000  0.44300000  1.0 -0.0288244584
C  C626  1  0.57900000  0.61550000  0.94300000  1.0 -0.0288244584
C  C627  1  0.61870000  0.90640000  0.42610000  1.0 -0.0824407192
C  C628  1  0.61870000  0.59360000  0.92610000  1.0 -0.0824407192
C  C629  1  0.60360000  0.90560000  0.38610000  1.0 -0.1992859873
C  C630  1  0.60360000  0.59440000  0.88610000  1.0 -0.1992859873
C  C631  1  0.55010000  0.88180000  0.36260000  1.0 0.230202861
C  C632  1  0.55010000  0.61820000  0.86260000  1.0 0.230202861
C  C633  1  0.50570000  0.86040000  0.37870000  1.0 -0.1586887093
C  C634  1  0.50570000  0.63960000  0.87870000  1.0 -0.1586887093
C  C635  1  0.52030000  0.86180000  0.41870000  1.0 -0.1079459357
C  C636  1  0.52030000  0.63820000  0.91870000  1.0 -0.1079459357
C  C637  1  0.54000000  0.85680000  0.30100000  1.0 0.4510908033
C  C638  1  0.54000000  0.64320000  0.80100000  1.0 0.4443934897
C  C639  1  0.52740000  0.86118000  0.25800000  1.0 -0.0028170826
C  C640  1  0.52740000  0.63882000  0.75800000  1.0 -0.0028170826
C  C641  1  0.52590000  0.88993000  0.24010000  1.0 -0.1992859873
C  C642  1  0.52590000  0.61007000  0.74010000  1.0 -0.1992859873
C  C643  1  0.51530000  0.89138000  0.20010000  1.0 -0.0206429086
C  C644  1  0.51530000  0.60862000  0.70010000  1.0 -0.0206429086
C  C645  1  0.50850000  0.86442000  0.17890000  1.0 -0.130508002
C  C646  1  0.50850000  0.63558000  0.67890000  1.0 -0.130508002
C  C647  1  0.51090000  0.83523000  0.19610000  1.0 -0.0206429086
C  C648  1  0.51090000  0.66477000  0.69610000  1.0 -0.0206429086
C  C649  1  0.52120000  0.83416000  0.23610000  1.0 -0.1448384376
C  C650  1  0.52120000  0.66584000  0.73610000  1.0 -0.1448384376
C  C651  1  0.52090000  0.92122000  0.18030000  1.0 0.4595027639
C  C652  1  0.52090000  0.57878000  0.68030000  1.0 0.4595027639
C  C653  1  0.39570000  0.99320000  0.16480000  1.0 -0.1992859873
C  C654  1  0.39570000  0.50680000  0.66480000  1.0 -0.1992859873
C  C655  1  0.39280000  0.02400000  0.15300000  1.0 -0.0921662614
C  C656  1  0.39280000  0.47600000  0.65300000  1.0 -0.0921662614
C  C657  1  0.47490000  0.03827000  0.15060000  1.0 -0.0491579133
C  C658  1  0.47490000  0.46173000  0.65060000  1.0 -0.0491579133
C  C659  1  0.55920000  0.02190000  0.16210000  1.0 -0.0921662614
C  C660  1  0.55920000  0.47810000  0.66210000  1.0 -0.0921662614
C  C661  1  0.56450000  0.99117000  0.17520000  1.0 -0.1786472687
C  C662  1  0.56450000  0.50883000  0.67520000  1.0 -0.1786472687
C  C663  1  0.48270000  0.97732000  0.17690000  1.0 0.230202861
C  C664  1  0.48270000  0.52268000  0.67690000  1.0 0.230202861
C  C665  1  0.46890000  0.07080000  0.13730000  1.0 0.5498185007
C  C666  1  0.46890000  0.42920000  0.63730000  1.0 0.5498185007
C  C667  1  0.50610000  0.80675000  0.17160000  1.0 0.4510908033
C  C668  1  0.50610000  0.69325000  0.67160000  1.0 0.4510908033
C  C669  1  0.44470000  0.75251000  0.16440000  1.0 0.230202861
C  C670  1  0.44470000  0.74749000  0.66440000  1.0 0.230202861
C  C671  1  0.49560000  0.74090000  0.14150000  1.0 -0.1786472687
C  C672  1  0.49560000  0.75910000  0.64150000  1.0 -0.1786472687
C  C673  1  0.47810000  0.71100000  0.12710000  1.0 -0.1079459357
C  C674  1  0.47810000  0.78900000  0.62710000  1.0 -0.1079459357
C  C675  1  0.41180000  0.69208000  0.13510000  1.0 -0.0288244584
C  C676  1  0.41180000  0.80792000  0.63510000  1.0 -0.0288244584
C  C677  1  0.36340000  0.70370000  0.15830000  1.0 -0.0991299762
C  C678  1  0.36340000  0.79630000  0.65830000  1.0 -0.0991299762
C  C679  1  0.37710000  0.73390000  0.17140000  1.0 -0.1992859873
C  C680  1  0.37710000  0.76610000  0.67140000  1.0 -0.1992859873
C  C681  1  0.90490000  0.93230000  0.55670000  1.0 -0.0588099427
C  C682  1  0.90490000  0.56770000  0.05670000  1.0 -0.0588099427
C  C683  1  0.99260000  0.93560000  0.55160000  1.0 0.1388743191
C  C684  1  0.99260000  0.56440000  0.05160000  1.0 0.1388743191
C  C685  1  0.05280000  0.91100000  0.55900000  1.0 -0.1910536095
C  C686  1  0.05280000  0.58900000  0.05900000  1.0 -0.1910536095
C  C687  1  0.02500000  0.88290000  0.57030000  1.0 0.130005216
C  C688  1  0.02500000  0.61710000  0.07030000  1.0 0.130005216
C  C689  1  0.93560000  0.88180000  0.57310000  1.0 -0.0028170826
C  C690  1  0.93560000  0.61820000  0.07310000  1.0 -0.0028170826
C  C691  1  0.02430000  0.96800000  0.54130000  1.0 -0.4421026383
C  C692  1  0.02430000  0.53200000  0.04130000  1.0 -0.4421026383
C  C693  1  0.57120000  0.91310000  0.61680000  1.0 0.251216553
C  C694  1  0.57120000  0.58690000  0.11680000  1.0 0.251216553
C  C695  1  0.33020000  0.80870000  0.50190000  1.0 0.0489545121
C  C696  1  0.33020000  0.69130000  0.00190000  1.0 0.0489545121
C  C697  1  0.28640000  0.78920000  0.46990000  1.0 0.0069731731
C  C698  1  0.28640000  0.71080000  0.96990000  1.0 0.0069731731
C  C699  1  0.33980000  0.77750000  0.44810000  1.0 -0.0395016766
C  C700  1  0.33980000  0.72250000  0.94810000  1.0 -0.0395016766
C  C701  1  0.43700000  0.78520000  0.45830000  1.0 0.0019641083
C  C702  1  0.43700000  0.71480000  0.95830000  1.0 0.0019641083
C  C703  1  0.48090000  0.80470000  0.49040000  1.0 -0.0991299762
C  C704  1  0.48090000  0.69530000  0.99040000  1.0 -0.0991299762
C  C705  1  0.49590000  0.77360000  0.43330000  1.0 -0.3793467111
C  C706  1  0.49590000  0.72640000  0.93330000  1.0 -0.3793467111
C  C707  1  0.82830000  0.35510000  0.74430000  1.0 -0.0106015967
C  C708  1  0.82830000  0.14490000  0.24430000  1.0 -0.0106015967
C  C709  1  0.84930000  0.35170000  0.78470000  1.0 0.0489545121
C  C710  1  0.84930000  0.14830000  0.28470000  1.0 0.0489545121
C  C711  1  0.88150000  0.37700000  0.80980000  1.0 -0.2809812875
C  C712  1  0.88150000  0.12300000  0.30980000  1.0 -0.2809812875
C  C713  1  0.89270000  0.40590000  0.79450000  1.0 0.1004504184
C  C714  1  0.89270000  0.09410000  0.29450000  1.0 0.1004504184
C  C715  1  0.87170000  0.40930000  0.75400000  1.0 -0.1079459357
C  C716  1  0.87170000  0.09070000  0.25400000  1.0 -0.1079459357
C  C717  1  0.17700000  0.78440000  0.46010000  1.0 -0.2111430101
C  C718  1  0.17700000  0.71560000  0.96010000  1.0 -0.2111430101
C  C719  1  0.24350000  0.43890000  0.70690000  1.0 -0.4421026383
C  C720  1  0.24350000  0.06110000  0.20690000  1.0 -0.4421026383
C  C721  1  0.83080000  0.31770000  0.79380000  1.0 -0.1910536095
C  C722  1  0.83080000  0.18230000  0.29380000  1.0 -0.1910536095
C  C723  1  0.92130000  0.43080000  0.82730000  1.0 -0.2422980022
C  C724  1  0.92130000  0.06920000  0.32730000  1.0 -0.2422980022
C  C725  1  0.19880000  0.23480000  0.06940000  1.0 -0.4518305374
C  C726  1  0.19880000  0.26520000  0.56940000  1.0 -0.4518305374
C  C727  1  0.09100000  0.85370000  0.57800000  1.0 -0.4715560398
C  C728  1  0.09100000  0.64630000  0.07800000  1.0 -0.4715560398
C  C729  1  0.04160000  0.37180000  0.74150000  1.0 0.0019641083
C  C730  1  0.04160000  0.12820000  0.24150000  1.0 0.0019641083
C  C731  1  0.09780000  0.36720000  0.78110000  1.0 0.0019641083
C  C732  1  0.09780000  0.13280000  0.28110000  1.0 0.0019641083
C  C733  1  0.07920000  0.38420000  0.81040000  1.0 -0.2422980022
C  C734  1  0.07920000  0.11580000  0.31040000  1.0 -0.2422980022
C  C735  1  0.00440000  0.40590000  0.80010000  1.0 -0.0588099427
C  C736  1  0.00440000  0.09410000  0.30010000  1.0 -0.0588099427
C  C737  1  0.94830000  0.41050000  0.76050000  1.0 -0.0206429086
C  C738  1  0.94830000  0.08950000  0.26050000  1.0 -0.0206429086
C  C739  1  0.31140000  0.81220000  0.52820000  1.0 -0.1079459357
C  C740  1  0.31140000  0.68780000  0.02820000  1.0 -0.1079459357
C  C741  1  0.23940000  0.79290000  0.50390000  1.0 0.024785274
C  C742  1  0.23940000  0.70710000  0.00390000  1.0 0.024785274
C  C743  1  0.24980000  0.77960000  0.47050000  1.0 -0.0395016766
C  C744  1  0.24980000  0.72040000  0.97050000  1.0 -0.0491579133
C  C745  1  0.33220000  0.78560000  0.46150000  1.0 0.0069731731
C  C746  1  0.33220000  0.71440000  0.96150000  1.0 0.0019641083
C  C747  1  0.40420000  0.80490000  0.48580000  1.0 0.0489545121
C  C748  1  0.40420000  0.69510000  0.98580000  1.0 0.0489545121
C  C749  1  0.34810000  0.77510000  0.42340000  1.0 -0.1992859873
C  C750  1  0.34810000  0.72490000  0.92340000  1.0 -0.1910536095
C  C751  1  0.14810000  0.78620000  0.51390000  1.0 -0.430730656
C  C752  1  0.14810000  0.71380000  0.01390000  1.0 -0.430730656
C  C753  1  0.98250000  0.43000000  0.82750000  1.0 -0.1910536095
C  C754  1  0.98250000  0.07000000  0.32750000  1.0 -0.1910536095
C  C755  1  0.54070000  0.93100000  0.58550000  1.0 0.1659401132
C  C756  1  0.54070000  0.56900000  0.08550000  1.0 0.1659401132
C  C757  1  0.58820000  0.24790000  0.21420000  1.0 -0.1079459357
C  C758  1  0.58820000  0.25210000  0.71420000  1.0 -0.1079459357
C  C759  1  0.55160000  0.21970000  0.19460000  1.0 -0.1079459357
C  C760  1  0.55160000  0.28030000  0.69460000  1.0 -0.1079459357
C  C761  1  0.18240000  0.34380000  0.79340000  1.0 -0.219834421
C  C762  1  0.18240000  0.15620000  0.29340000  1.0 -0.219834421
C  C763  1  0.68530000  0.39540000  0.71940000  1.0 -0.2111430101
C  C764  1  0.68530000  0.10460000  0.21940000  1.0 -0.2111430101
C  C765  1  0.79650000  0.35260000  0.74230000  1.0 -0.0206429086
C  C766  1  0.79650000  0.14740000  0.24230000  1.0 -0.0206429086
C  C767  1  0.77230000  0.35030000  0.77610000  1.0 0.0794664909
C  C768  1  0.77230000  0.14970000  0.27610000  1.0 0.0794664909
C  C769  1  0.83510000  0.33020000  0.81110000  1.0 -0.1992859873
C  C770  1  0.83510000  0.16980000  0.31110000  1.0 -0.1992859873
C  C771  1  0.56790000  0.40380000  0.75950000  1.0 -0.430730656
C  C772  1  0.56790000  0.09620000  0.25950000  1.0 -0.430730656
C  C773  1  0.70450000  0.37050000  0.78150000  1.0 -0.2566600105
C  C774  1  0.70450000  0.12950000  0.28150000  1.0 -0.2566600105
C  C775  1  0.66100000  0.39310000  0.75320000  1.0 0.1204274857
C  C776  1  0.66100000  0.10690000  0.25320000  1.0 0.1204274857
N  N1  1  0.67691000  0.62596000  0.63651000  1.0 -0.3631275328
N  N2  1  0.67691000  0.87404000  0.13651000  1.0 -0.3702153493
N  N3  1  0.77490000  0.56543000  0.80810000  1.0 -0.3702153493
N  N4  1  0.77490000  0.93457000  0.30810000  1.0 -0.3702153493
N  N5  1  0.88241000  0.71096000  0.78951000  1.0 -0.3702153493
N  N6  1  0.88241000  0.78904000  0.28951000  1.0 -0.3702153493
N  N7  1  0.39220000  0.80820000  0.96460000  1.0 -0.2566600105
N  N8  1  0.39220000  0.69180000  0.46460000  1.0 -0.2543903144
N  N9  1  0.47400000  0.95770000  0.94760000  1.0 -0.2255686188
N  N10  1  0.47400000  0.54230000  0.44760000  1.0 -0.2255686188
N  N11  1  0.24130000  0.87529000  0.12360000  1.0 -0.3631275328
N  N12  1  0.24130000  0.62471000  0.62360000  1.0 -0.3631275328
N  N13  1  0.24550000  0.94353000  0.28290000  1.0 -0.3793467111
N  N14  1  0.24550000  0.55647000  0.78290000  1.0 -0.3793467111
N  N15  1  0.30240000  0.79473000  0.28180000  1.0 -0.4518305374
N  N16  1  0.30240000  0.70527000  0.78180000  1.0 -0.4421026383
N  N17  1  0.03800000  0.07805000  0.78170000  1.0 -0.3702153493
N  N18  1  0.03800000  0.42195000  0.28170000  1.0 -0.3702153493
N  N19  1  0.88260000  0.14399000  0.64880000  1.0 -0.3475085052
N  N20  1  0.88260000  0.35601000  0.14880000  1.0 -0.3475085052
N  N21  1  0.08440000  0.22177000  0.82390000  1.0 -0.3702153493
N  N22  1  0.08440000  0.27823000  0.32390000  1.0 -0.3702153493
N  N23  1  0.12530000  0.40460000  0.93440000  1.0 -0.219834421
N  N24  1  0.12530000  0.09540000  0.43440000  1.0 -0.219834421
N  N25  1  0.46192000  0.38188000  0.17842000  1.0 -0.3702153493
N  N26  1  0.46192000  0.11812000  0.67842000  1.0 -0.3702153493
N  N27  1  0.51500000  0.44655000  0.30780000  1.0 -0.3702153493
N  N28  1  0.51500000  0.05345000  0.80780000  1.0 -0.3702153493
N  N29  1  0.54120000  0.28269000  0.31910000  1.0 -0.3793467111
N  N30  1  0.54120000  0.21731000  0.81910000  1.0 -0.3793467111
N  N31  1  0.68000000  0.65850000  0.38570000  1.0 -0.2566600105
N  N32  1  0.68000000  0.84150000  0.88570000  1.0 -0.2566600105
N  N33  1  0.97070000  0.89150000  0.79110000  1.0 -0.0705122202
N  N34  1  0.97070000  0.60850000  0.29110000  1.0 -0.0705122202
N  N35  1  0.57250000  0.31650000  0.98780000  1.0 -0.0491579133
N  N36  1  0.57250000  0.18350000  0.48780000  1.0 -0.0491579133
N  N37  1  0.16050000  0.88400000  0.77110000  1.0 -0.0705122202
N  N38  1  0.16050000  0.61600000  0.27110000  1.0 -0.0705122202
N  N39  1  0.03310000  0.89350000  0.76880000  1.0 -0.1496816592
N  N40  1  0.03310000  0.60650000  0.26880000  1.0 -0.1496816592
N  N41  1  0.60620000  0.31820000  0.98080000  1.0 -0.0491579133
N  N42  1  0.60620000  0.18180000  0.48080000  1.0 -0.0491579133
N  N43  1  0.24690000  0.87510000  0.78600000  1.0 -0.0206429086
N  N44  1  0.24690000  0.62490000  0.28600000  1.0 -0.0206429086
N  N45  1  0.32309000  0.12596000  0.86349000  1.0 -0.3702153493
N  N46  1  0.32309000  0.37404000  0.36349000  1.0 -0.3702153493
N  N47  1  0.22510000  0.06543000  0.69190000  1.0 -0.3702153493
N  N48  1  0.22510000  0.43457000  0.19190000  1.0 -0.3702153493
N  N49  1  0.11759000  0.21096000  0.71049000  1.0 -0.3702153493
N  N50  1  0.11759000  0.28904000  0.21049000  1.0 -0.3702153493
N  N51  1  0.60780000  0.30820000  0.53540000  1.0 -0.2566600105
N  N52  1  0.60780000  0.19180000  0.03540000  1.0 -0.2566600105
N  N53  1  0.52600000  0.45770000  0.55240000  1.0 -0.2255686188
N  N54  1  0.52600000  0.04230000  0.05240000  1.0 -0.2255686188
N  N55  1  0.75870000  0.37529000  0.37640000  1.0 -0.3631275328
N  N56  1  0.75870000  0.12471000  0.87640000  1.0 -0.3631275328
N  N57  1  0.75450000  0.44353000  0.21710000  1.0 -0.3793467111
N  N58  1  0.75450000  0.05647000  0.71710000  1.0 -0.3793467111
N  N59  1  0.69760000  0.29473000  0.21820000  1.0 -0.4518305374
N  N60  1  0.69760000  0.20527000  0.71820000  1.0 -0.4421026383
N  N61  1  0.96200000  0.57805000  0.71830000  1.0 -0.3702153493
N  N62  1  0.96200000  0.92195000  0.21830000  1.0 -0.3702153493
N  N63  1  0.11740000  0.64399000  0.85120000  1.0 -0.3475085052
N  N64  1  0.11740000  0.85601000  0.35120000  1.0 -0.3475085052
N  N65  1  0.91560000  0.72177000  0.67610000  1.0 -0.3702153493
N  N66  1  0.91560000  0.77823000  0.17610000  1.0 -0.3702153493
N  N67  1  0.87470000  0.90460000  0.56560000  1.0 -0.219834421
N  N68  1  0.87470000  0.59540000  0.06560000  1.0 -0.219834421
N  N69  1  0.53808000  0.88188000  0.32158000  1.0 -0.3702153493
N  N70  1  0.53808000  0.61812000  0.82158000  1.0 -0.3702153493
N  N71  1  0.48500000  0.94655000  0.19220000  1.0 -0.3702153493
N  N72  1  0.48500000  0.55345000  0.69220000  1.0 -0.3702153493
N  N73  1  0.45880000  0.78269000  0.18090000  1.0 -0.3793467111
N  N74  1  0.45880000  0.71731000  0.68090000  1.0 -0.3793467111
N  N75  1  0.32000000  0.15850000  0.11430000  1.0 -0.2566600105
N  N76  1  0.32000000  0.34150000  0.61430000  1.0 -0.2566600105
N  N77  1  0.02930000  0.39150000  0.70890000  1.0 -0.0705122202
N  N78  1  0.02930000  0.10850000  0.20890000  1.0 -0.0705122202
N  N79  1  0.42750000  0.81650000  0.51220000  1.0 -0.0491579133
N  N80  1  0.42750000  0.68350000  0.01220000  1.0 -0.0491579133
N  N81  1  0.83950000  0.38400000  0.72890000  1.0 -0.0705122202
N  N82  1  0.83950000  0.11600000  0.22890000  1.0 -0.0705122202
N  N83  1  0.96690000  0.39350000  0.73120000  1.0 -0.1496816592
N  N84  1  0.96690000  0.10650000  0.23120000  1.0 -0.1496816592
N  N85  1  0.39380000  0.81820000  0.51920000  1.0 -0.0491579133
N  N86  1  0.39380000  0.68180000  0.01920000  1.0 -0.0491579133
N  N87  1  0.75310000  0.37510000  0.71400000  1.0 -0.0206429086
N  N88  1  0.75310000  0.12490000  0.21400000  1.0 -0.0206429086
O  O1  1  0.44010000  0.67244000  0.38490000  1.0 -0.4801033347
O  O2  1  0.44010000  0.82756000  0.88490000  1.0 -0.4801033347
O  O3  1  0.61733000  0.63210000  0.45343000  1.0 -0.5186538177
O  O4  1  0.61733000  0.86790000  0.95343000  1.0 -0.5186538177
O  O5  1  0.46405000  0.62232000  0.44845000  1.0 -0.6029166134
O  O6  1  0.46405000  0.87768000  0.94845000  1.0 -0.6029166134
O  O7  1  0.77315000  0.66872000  0.65055000  1.0 -0.4801033347
O  O8  1  0.77315000  0.83128000  0.15055000  1.0 -0.4801033347
O  O9  1  0.73410000  0.55184000  0.74470000  1.0 -0.4421026383
O  O10  1  0.73410000  0.94816000  0.24470000  1.0 -0.4421026383
O  O11  1  0.69850000  0.42803000  0.86050000  1.0 -0.5186538177
O  O12  1  0.69850000  0.07197000  0.36050000  1.0 -0.5186538177
O  O13  1  0.71370000  0.45343000  0.91430000  1.0 -0.5186538177
O  O14  1  0.71370000  0.04657000  0.41430000  1.0 -0.5186538177
O  O15  1  0.93217000  0.67284000  0.83597000  1.0 -0.4715560398
O  O16  1  0.93217000  0.82716000  0.33597000  1.0 -0.4715560398
O  O17  1  0.20210000  0.80925000  0.88660000  1.0 -0.5602005921
O  O18  1  0.20210000  0.69075000  0.38660000  1.0 -0.5602005921
O  O19  1  0.12890000  0.83468000  0.82910000  1.0 -0.5709560068
O  O20  1  0.12890000  0.66532000  0.32910000  1.0 -0.5709560068
O  O21  1  0.29536000  0.88300000  0.87446000  1.0 -0.7729175986
O  O22  1  0.29536000  0.61700000  0.37446000  1.0 -0.7729175986
O  O23  1  0.24740000  0.86741000  0.94870000  1.0 -0.5414120578
O  O24  1  0.24740000  0.63259000  0.44870000  1.0 -0.5414120578
O  O25  1  0.26310000  0.96076000  0.88120000  1.0 -0.5414120578
O  O26  1  0.26310000  0.53924000  0.38120000  1.0 -0.545907584
O  O27  1  0.05970000  0.10619000  0.83740000  1.0 -0.4801033347
O  O28  1  0.05970000  0.39381000  0.33740000  1.0 -0.4801033347
O  O29  1  0.76611000  0.17279000  0.66081000  1.0 -0.4715560398
O  O30  1  0.76611000  0.32721000  0.16081000  1.0 -0.4715560398
O  O31  1  0.62728000  0.10726000  0.47088000  1.0 -0.5602005921
O  O32  1  0.62728000  0.39274000  0.97088000  1.0 -0.5602005921
O  O33  1  0.77084000  0.11258000  0.46594000  1.0 -0.5261347891
O  O34  1  0.77084000  0.38742000  0.96594000  1.0 -0.5261347891
O  O35  1  0.93658000  0.24115000  0.78638000  1.0 -0.4600605116
O  O36  1  0.93658000  0.25885000  0.28638000  1.0 -0.4600605116
O  O37  1  0.23842000  0.35366000  0.90562000  1.0 -0.5709560068
O  O38  1  0.23842000  0.14634000  0.40562000  1.0 -0.5709560068
O  O39  1  0.37652000  0.32611000  0.92072000  1.0 -0.5709560068
O  O40  1  0.37652000  0.17389000  0.42072000  1.0 -0.5709560068
O  O41  1  0.50400000  0.41630000  0.87600000  1.0 -0.0921662614
O  O42  1  0.50400000  0.08370000  0.37600000  1.0 -0.0921662614
O  O43  1  0.41772000  0.39979000  0.91412000  1.0 -0.3908285128
O  O44  1  0.41772000  0.10021000  0.41412000  1.0 -0.3908285128
O  O45  1  0.45496000  0.36679000  0.00146000  1.0 -0.5709560068
O  O46  1  0.45496000  0.13321000  0.50146000  1.0 -0.5709560068
O  O47  1  0.34320000  0.40335000  0.99290000  1.0 -0.545907584
O  O48  1  0.34320000  0.09665000  0.49290000  1.0 -0.545907584
O  O49  1  0.44660000  0.33077000  0.18510000  1.0 -0.4518305374
O  O50  1  0.44660000  0.16923000  0.68510000  1.0 -0.4518305374
O  O51  1  0.60440000  0.58700000  0.36600000  1.0 -0.5186538177
O  O52  1  0.60440000  0.91300000  0.86600000  1.0 -0.5186538177
O  O53  1  0.46223000  0.58250000  0.37153000  1.0 -0.5414120578
O  O54  1  0.46223000  0.91750000  0.87153000  1.0 -0.5414120578
O  O55  1  0.44146000  0.42257000  0.34526000  1.0 -0.4801033347
O  O56  1  0.44146000  0.07743000  0.84526000  1.0 -0.4801033347
O  O57  1  0.45590000  0.30618000  0.35330000  1.0 -0.4600605116
O  O58  1  0.45590000  0.19382000  0.85330000  1.0 -0.4600605116
O  O59  1  0.56430000  0.14911000  0.40120000  1.0 -0.545907584
O  O60  1  0.56430000  0.35089000  0.90120000  1.0 -0.545907584
O  O61  1  0.66960000  0.14350000  0.37330000  1.0 -0.4715560398
O  O62  1  0.66960000  0.35650000  0.87330000  1.0 -0.4715560398
O  O63  1  0.30038000  0.91584000  0.96328000  1.0 -0.5414120578
O  O64  1  0.30038000  0.58416000  0.46328000  1.0 -0.5414120578
O  O65  1  0.27618000  0.92295000  0.15128000  1.0 -0.4600605116
O  O66  1  0.27618000  0.57705000  0.65128000  1.0 -0.4600605116
O  O67  1  0.33280000  0.78980000  0.22470000  1.0 -0.5046413394
O  O68  1  0.33280000  0.71020000  0.72470000  1.0 -0.5046413394
O  O69  1  0.29910000  0.90424000  0.32650000  1.0 -0.4421026383
O  O70  1  0.29910000  0.59576000  0.82650000  1.0 -0.4421026383
O  O71  1  0.20820000  0.07163000  0.36600000  1.0 -0.506662056
O  O72  1  0.20820000  0.42837000  0.86600000  1.0 -0.506662056
O  O73  1  0.27520000  0.04287000  0.41930000  1.0 -0.5602005921
O  O74  1  0.27520000  0.45713000  0.91930000  1.0 -0.5602005921
O  O75  1  0.18870000  0.93940000  0.82260000  1.0 -0.2255686188
O  O76  1  0.18870000  0.56060000  0.32260000  1.0 -0.2255686188
O  O77  1  0.45640000  0.65694000  0.33120000  1.0 -0.4715560398
O  O78  1  0.45640000  0.84306000  0.83120000  1.0 -0.4715560398
O  O79  1  0.13320000  0.93810000  0.83160000  1.0 -0.1786472687
O  O80  1  0.13320000  0.56190000  0.33160000  1.0 -0.1786472687
O  O81  1  0.52300000  0.43200000  0.90280000  1.0 0.0704861729
O  O82  1  0.52300000  0.06800000  0.40280000  1.0 0.0704861729
O  O83  1  0.55990000  0.17244000  0.11510000  1.0 -0.4801033347
O  O84  1  0.55990000  0.32756000  0.61510000  1.0 -0.4801033347
O  O85  1  0.38267000  0.13210000  0.04657000  1.0 -0.5186538177
O  O86  1  0.38267000  0.36790000  0.54657000  1.0 -0.5186538177
O  O87  1  0.53595000  0.12232000  0.05155000  1.0 -0.6029166134
O  O88  1  0.53595000  0.37768000  0.55155000  1.0 -0.6029166134
O  O89  1  0.22685000  0.16872000  0.84945000  1.0 -0.4801033347
O  O90  1  0.22685000  0.33128000  0.34945000  1.0 -0.4801033347
O  O91  1  0.26590000  0.05184000  0.75530000  1.0 -0.4421026383
O  O92  1  0.26590000  0.44816000  0.25530000  1.0 -0.4421026383
O  O93  1  0.30150000  0.92803000  0.63950000  1.0 -0.5186538177
O  O94  1  0.30150000  0.57197000  0.13950000  1.0 -0.5186538177
O  O95  1  0.28630000  0.95343000  0.58570000  1.0 -0.5186538177
O  O96  1  0.28630000  0.54657000  0.08570000  1.0 -0.5186538177
O  O97  1  0.06783000  0.17284000  0.66403000  1.0 -0.4715560398
O  O98  1  0.06783000  0.32716000  0.16403000  1.0 -0.4715560398
O  O99  1  0.79790000  0.30925000  0.61340000  1.0 -0.5602005921
O  O100  1  0.79790000  0.19075000  0.11340000  1.0 -0.5602005921
O  O101  1  0.87110000  0.33468000  0.67090000  1.0 -0.5709560068
O  O102  1  0.87110000  0.16532000  0.17090000  1.0 -0.5709560068
O  O103  1  0.70464000  0.38300000  0.62554000  1.0 -0.7729175986
O  O104  1  0.70464000  0.11700000  0.12554000  1.0 -0.7729175986
O  O105  1  0.75260000  0.36741000  0.55130000  1.0 -0.5414120578
O  O106  1  0.75260000  0.13259000  0.05130000  1.0 -0.5414120578
O  O107  1  0.73690000  0.46076000  0.61880000  1.0 -0.545907584
O  O108  1  0.73690000  0.03924000  0.11880000  1.0 -0.5414120578
O  O109  1  0.94030000  0.60619000  0.66260000  1.0 -0.4801033347
O  O110  1  0.94030000  0.89381000  0.16260000  1.0 -0.4801033347
O  O111  1  0.23389000  0.67279000  0.83919000  1.0 -0.4715560398
O  O112  1  0.23389000  0.82721000  0.33919000  1.0 -0.4715560398
O  O113  1  0.37272000  0.60726000  0.02912000  1.0 -0.5602005921
O  O114  1  0.37272000  0.89274000  0.52912000  1.0 -0.5602005921
O  O115  1  0.22916000  0.61258000  0.03406000  1.0 -0.5261347891
O  O116  1  0.22916000  0.88742000  0.53406000  1.0 -0.5261347891
O  O117  1  0.06342000  0.74115000  0.71362000  1.0 -0.4600605116
O  O118  1  0.06342000  0.75885000  0.21362000  1.0 -0.4600605116
O  O119  1  0.76158000  0.85366000  0.59438000  1.0 -0.5709560068
O  O120  1  0.76158000  0.64634000  0.09438000  1.0 -0.5709560068
O  O121  1  0.62348000  0.82611000  0.57928000  1.0 -0.5709560068
O  O122  1  0.62348000  0.67389000  0.07928000  1.0 -0.5709560068
O  O123  1  0.49600000  0.91630000  0.62400000  1.0 -0.0921662614
O  O124  1  0.49600000  0.58370000  0.12400000  1.0 -0.0921662614
O  O125  1  0.58228000  0.89979000  0.58588000  1.0 -0.3908285128
O  O126  1  0.58228000  0.60021000  0.08588000  1.0 -0.3908285128
O  O127  1  0.54504000  0.86679000  0.49854000  1.0 -0.5709560068
O  O128  1  0.54504000  0.63321000  0.99854000  1.0 -0.5709560068
O  O129  1  0.65680000  0.90335000  0.50710000  1.0 -0.545907584
O  O130  1  0.65680000  0.59665000  0.00710000  1.0 -0.545907584
O  O131  1  0.55340000  0.83077000  0.31490000  1.0 -0.4518305374
O  O132  1  0.55340000  0.66923000  0.81490000  1.0 -0.4518305374
O  O133  1  0.39560000  0.08700000  0.13400000  1.0 -0.5186538177
O  O134  1  0.39560000  0.41300000  0.63400000  1.0 -0.5186538177
O  O135  1  0.53777000  0.08250000  0.12847000  1.0 -0.5414120578
O  O136  1  0.53777000  0.41750000  0.62847000  1.0 -0.5414120578
O  O137  1  0.55854000  0.92257000  0.15474000  1.0 -0.4801033347
O  O138  1  0.55854000  0.57743000  0.65474000  1.0 -0.4801033347
O  O139  1  0.54410000  0.80618000  0.14670000  1.0 -0.4600605116
O  O140  1  0.54410000  0.69382000  0.64670000  1.0 -0.4600605116
O  O141  1  0.43570000  0.64911000  0.09880000  1.0 -0.545907584
O  O142  1  0.43570000  0.85089000  0.59880000  1.0 -0.545907584
O  O143  1  0.33040000  0.64350000  0.12670000  1.0 -0.4715560398
O  O144  1  0.33040000  0.85650000  0.62670000  1.0 -0.4715560398
O  O145  1  0.69962000  0.41584000  0.53672000  1.0 -0.5414120578
O  O146  1  0.69962000  0.08416000  0.03672000  1.0 -0.5414120578
O  O147  1  0.72382000  0.42295000  0.34872000  1.0 -0.4600605116
O  O148  1  0.72382000  0.07705000  0.84872000  1.0 -0.4600605116
O  O149  1  0.66720000  0.28980000  0.27530000  1.0 -0.5046413394
O  O150  1  0.66720000  0.21020000  0.77530000  1.0 -0.5046413394
O  O151  1  0.70090000  0.40424000  0.17350000  1.0 -0.4421026383
O  O152  1  0.70090000  0.09576000  0.67350000  1.0 -0.4421026383
O  O153  1  0.79180000  0.57163000  0.13400000  1.0 -0.506662056
O  O154  1  0.79180000  0.92837000  0.63400000  1.0 -0.506662056
O  O155  1  0.72480000  0.54287000  0.08070000  1.0 -0.5602005921
O  O156  1  0.72480000  0.95713000  0.58070000  1.0 -0.5602005921
O  O157  1  0.81130000  0.43940000  0.67740000  1.0 -0.2255686188
O  O158  1  0.81130000  0.06060000  0.17740000  1.0 -0.2255686188
O  O159  1  0.54360000  0.15694000  0.16880000  1.0 -0.4715560398
O  O160  1  0.54360000  0.34306000  0.66880000  1.0 -0.4715560398
O  O161  1  0.86680000  0.43810000  0.66840000  1.0 -0.1786472687
O  O162  1  0.86680000  0.06190000  0.16840000  1.0 -0.1786472687
O  O163  1  0.47700000  0.93200000  0.59720000  1.0 0.0704861729
O  O164  1  0.47700000  0.56800000  0.09720000  1.0 0.0704861729
