# DDEC6 charges by PACMAN v1.1 (https://github.com/mtap-research/PACMAN-charge/)
data_CIMPEX_ASR_pacman
_symmetry_space_group_name_H-M   'P 1'
_cell_length_a   14.14270000
_cell_length_b   43.19900000
_cell_length_c   35.55240000
_cell_angle_alpha   90.00000000
_cell_angle_beta   108.65200000
_cell_angle_gamma   90.00000000
_symmetry_Int_Tables_number   1
_chemical_formula_structural   Cd7H111C158N19O39
_chemical_formula_sum   'Cd28 H444 C632 N76 O156'
_cell_volume   20579.95064970
_cell_formula_units_Z   4
loop_
 _symmetry_equiv_pos_site_id
 _symmetry_equiv_pos_as_xyz
  1  'x, y, z'
loop_
 _atom_site_type_symbol
 _atom_site_label
 _atom_site_symmetry_multiplicity
 _atom_site_fract_x
 _atom_site_fract_y
 _atom_site_fract_z
 _atom_site_occupancy
 _atom_site_charge
Cd  Cd1  1  0.85316000  0.08117000  0.91060000  1.0 1.0092531987
Cd  Cd2  1  0.85316000  0.41883000  0.41060000  1.0 1.0092531987
Cd  Cd3  1  0.02692000  0.64468000  0.95445000  1.0 1.0092531987
Cd  Cd4  1  0.02692000  0.85532000  0.45445000  1.0 1.0039196082
Cd  Cd5  1  0.79882000  0.16109000  0.91341000  1.0 0.9678115912
Cd  Cd6  1  0.79882000  0.33891000  0.41341000  1.0 0.9678115912
Cd  Cd7  1  0.17843000  0.89503000  0.40320000  1.0 0.9621372738
Cd  Cd8  1  0.17843000  0.60497000  0.90320000  1.0 0.9621372738
Cd  Cd9  1  0.03323000  0.36075000  0.38474000  1.0 0.8726718494
Cd  Cd10  1  0.03323000  0.13925000  0.88474000  1.0 0.8726718494
Cd  Cd11  1  0.79236000  0.60163000  0.93723000  1.0 0.9286578663
Cd  Cd12  1  0.79236000  0.89837000  0.43723000  1.0 0.9286578663
Cd  Cd13  1  0.62133000  0.11584000  0.83039000  1.0 0.8962189474
Cd  Cd14  1  0.62133000  0.38416000  0.33039000  1.0 0.8962189474
Cd  Cd15  1  0.14684000  0.58117000  0.58940000  1.0 1.0092531987
Cd  Cd16  1  0.14684000  0.91883000  0.08940000  1.0 1.0092531987
Cd  Cd17  1  0.97308000  0.14468000  0.54555000  1.0 1.0039196082
Cd  Cd18  1  0.97308000  0.35532000  0.04555000  1.0 1.0039196082
Cd  Cd19  1  0.20118000  0.66109000  0.58659000  1.0 0.9678115912
Cd  Cd20  1  0.20118000  0.83891000  0.08659000  1.0 0.9678115912
Cd  Cd21  1  0.82157000  0.39503000  0.09680000  1.0 0.9621372738
Cd  Cd22  1  0.82157000  0.10497000  0.59680000  1.0 0.9621372738
Cd  Cd23  1  0.96677000  0.86075000  0.11526000  1.0 0.8726718494
Cd  Cd24  1  0.96677000  0.63925000  0.61526000  1.0 0.8726718494
Cd  Cd25  1  0.20764000  0.10163000  0.56277000  1.0 0.9286578663
Cd  Cd26  1  0.20764000  0.39837000  0.06277000  1.0 0.9286578663
Cd  Cd27  1  0.37867000  0.61584000  0.66961000  1.0 0.8962189474
Cd  Cd28  1  0.37867000  0.88416000  0.16961000  1.0 0.8962189474
H  H1  1  0.55119000  0.92087000  0.75039000  1.0 0.2716005959
H  H2  1  0.55119000  0.57913000  0.25039000  1.0 0.2716005959
H  H3  1  0.28921000  0.28260000  0.76780000  1.0 0.2801492977
H  H4  1  0.28921000  0.21740000  0.26780000  1.0 0.2801492977
H  H5  1  0.64961000  0.79543000  0.83217000  1.0 0.2801492977
H  H6  1  0.64961000  0.70457000  0.33217000  1.0 0.2801492977
H  H7  1  0.02067000  0.58977000  0.20110000  1.0 0.2801492977
H  H8  1  0.02067000  0.91023000  0.70110000  1.0 0.2801492977
H  H9  1  0.74319000  0.18672000  0.29468000  1.0 0.2801492977
H  H10  1  0.74319000  0.31328000  0.79468000  1.0 0.2801492977
H  H11  1  0.70024000  0.04518000  0.26077000  1.0 0.2716005959
H  H12  1  0.70024000  0.45482000  0.76077000  1.0 0.2716005959
H  H13  1  0.13095000  0.38914000  0.64278000  1.0 0.2801492977
H  H14  1  0.13095000  0.11086000  0.14278000  1.0 0.2801492977
H  H15  1  0.98621000  0.20829000  0.94981000  1.0 0.1098366888
H  H16  1  0.98621000  0.29171000  0.44981000  1.0 0.1098366888
H  H17  1  0.08392000  0.22778000  0.01138000  1.0 0.129278005
H  H18  1  0.08392000  0.27222000  0.51138000  1.0 0.129278005
H  H19  1  0.04030000  0.21742000  0.06830000  1.0 0.1194305006
H  H20  1  0.04030000  0.28258000  0.56830000  1.0 0.1194305006
H  H21  1  0.89898000  0.18755000  0.06366000  1.0 0.129278005
H  H22  1  0.89898000  0.31245000  0.56366000  1.0 0.129278005
H  H23  1  0.80127000  0.16805000  0.00209000  1.0 0.1008699549
H  H24  1  0.80127000  0.33195000  0.50209000  1.0 0.1008699549
H  H25  1  0.49429000  0.85857000  0.65550000  1.0 0.2801492977
H  H26  1  0.49429000  0.64143000  0.15550000  1.0 0.2801492977
H  H27  1  0.11221000  0.70592000  0.30851000  1.0 0.2801492977
H  H28  1  0.11221000  0.79408000  0.80851000  1.0 0.2801492977
H  H29  1  0.25032000  0.41891000  0.82181000  1.0 0.2716005959
H  H30  1  0.25032000  0.08109000  0.32181000  1.0 0.2716005959
H  H31  1  0.66472000  0.13625000  0.12245000  1.0 0.2801492977
H  H32  1  0.66472000  0.36375000  0.62245000  1.0 0.2801492977
H  H33  1  0.11018000  0.54996000  0.31170000  1.0 0.2801492977
H  H34  1  0.11018000  0.95004000  0.81170000  1.0 0.2801492977
H  H35  1  0.43551000  0.79317000  0.72116000  1.0 0.1194305006
H  H36  1  0.43551000  0.70683000  0.22116000  1.0 0.1194305006
H  H37  1  0.00975000  0.39994000  0.58165000  1.0 0.129278005
H  H38  1  0.00975000  0.10006000  0.08165000  1.0 0.129278005
H  H39  1  0.02718000  0.67643000  0.26248000  1.0 0.1194305006
H  H40  1  0.02718000  0.82357000  0.76248000  1.0 0.1194305006
H  H41  1  0.18426000  0.40408000  0.69672000  1.0 0.1194305006
H  H42  1  0.18426000  0.09592000  0.19672000  1.0 0.1194305006
H  H43  1  0.74703000  0.14088000  0.29216000  1.0 0.1194305006
H  H44  1  0.74703000  0.35912000  0.79216000  1.0 0.1194305006
H  H45  1  0.25727000  0.31401000  0.72142000  1.0 0.1098366888
H  H46  1  0.25727000  0.18599000  0.22142000  1.0 0.1098366888
H  H47  1  0.72102000  0.15750000  0.17683000  1.0 0.1194305006
H  H48  1  0.72102000  0.34250000  0.67683000  1.0 0.1194305006
H  H49  1  0.70022000  0.06961000  0.21402000  1.0 0.1194305006
H  H50  1  0.70022000  0.43039000  0.71402000  1.0 0.1194305006
H  H51  1  0.02843000  0.58292000  0.25914000  1.0 0.1098366888
H  H52  1  0.02843000  0.91708000  0.75914000  1.0 0.1098366888
H  H53  1  0.57062000  0.84004000  0.82236000  1.0 0.1194305006
H  H54  1  0.57062000  0.65996000  0.32236000  1.0 0.1194305006
H  H55  1  0.04561000  0.62795000  0.36142000  1.0 0.1194305006
H  H56  1  0.04561000  0.87205000  0.86142000  1.0 0.1194305006
H  H57  1  0.76496000  0.05374000  0.36505000  1.0 0.1369301595
H  H58  1  0.76496000  0.44626000  0.86505000  1.0 0.1369301595
H  H59  1  0.48403000  0.88557000  0.71733000  1.0 0.1098366888
H  H60  1  0.48403000  0.61443000  0.21733000  1.0 0.1098366888
H  H61  1  0.28010000  0.37484000  0.81057000  1.0 0.1194305006
H  H62  1  0.28010000  0.12516000  0.31057000  1.0 0.1194305006
H  H63  1  0.89438000  0.46494000  0.34082000  1.0 0.1194305006
H  H64  1  0.89438000  0.03506000  0.84082000  1.0 0.1194305006
H  H65  1  0.95905000  0.39778000  0.51201000  1.0 0.1194305006
H  H66  1  0.95905000  0.10222000  0.01201000  1.0 0.1194305006
H  H67  1  0.27065000  0.44837000  0.87717000  1.0 0.1194305006
H  H68  1  0.27065000  0.05163000  0.37717000  1.0 0.129278005
H  H69  1  0.78988000  0.77273000  0.87512000  1.0 0.1369301595
H  H70  1  0.78988000  0.72727000  0.37512000  1.0 0.1369301595
H  H71  1  0.81335000  0.07075000  0.03347000  1.0 0.1194305006
H  H72  1  0.81335000  0.42925000  0.53347000  1.0 0.1194305006
H  H73  1  0.86438000  0.73032000  0.91260000  1.0 0.1098366888
H  H74  1  0.86438000  0.76968000  0.41260000  1.0 0.1098366888
H  H75  1  0.91048000  0.51638000  0.32538000  1.0 0.1369301595
H  H76  1  0.91048000  0.98362000  0.82538000  1.0 0.1369301595
H  H77  1  0.53487000  0.72240000  0.82995000  1.0 0.129278005
H  H78  1  0.53487000  0.77760000  0.32995000  1.0 0.129278005
H  H79  1  0.61731000  0.67995000  0.86658000  1.0 0.129278005
H  H80  1  0.61731000  0.82005000  0.36658000  1.0 0.129278005
H  H81  1  0.19744000  0.53732000  0.79985000  1.0 0.129278005
H  H82  1  0.19744000  0.96268000  0.29985000  1.0 0.129278005
H  H83  1  0.09146000  0.64551000  0.14853000  1.0 0.1369301595
H  H84  1  0.09146000  0.85449000  0.64853000  1.0 0.1369301595
H  H85  1  0.19130000  0.48949000  0.76977000  1.0 0.147333666
H  H86  1  0.19130000  0.01051000  0.26977000  1.0 0.147333666
H  H87  1  0.00391000  0.79148000  0.38733000  1.0 0.1194305006
H  H88  1  0.00391000  0.70852000  0.88733000  1.0 0.1194305006
H  H89  1  0.89182000  0.92320000  0.37561000  1.0 0.0934563924
H  H90  1  0.89182000  0.57680000  0.87561000  1.0 0.0934563924
H  H91  1  0.98328000  0.74004000  0.36616000  1.0 0.129278005
H  H92  1  0.98328000  0.75996000  0.86616000  1.0 0.129278005
H  H93  1  0.88445000  0.57179000  0.06656000  1.0 0.1194305006
H  H94  1  0.88445000  0.92821000  0.56656000  1.0 0.1194305006
H  H95  1  0.26721000  0.49614000  0.90671000  1.0 0.129278005
H  H96  1  0.26721000  0.00386000  0.40671000  1.0 0.129278005
H  H97  1  0.18118000  0.88482000  0.54061000  1.0 0.1194305006
H  H98  1  0.18118000  0.61518000  0.04061000  1.0 0.1194305006
H  H99  1  0.50904000  0.97571000  0.74750000  1.0 0.1194305006
H  H100  1  0.50904000  0.52429000  0.24750000  1.0 0.1194305006
H  H101  1  0.79326000  0.07479000  0.09607000  1.0 0.129278005
H  H102  1  0.79326000  0.42521000  0.59607000  1.0 0.129278005
H  H103  1  0.66984000  0.99458000  0.27153000  1.0 0.129278005
H  H104  1  0.66984000  0.50542000  0.77153000  1.0 0.129278005
H  H105  1  0.72826000  0.08569000  0.76936000  1.0 0.1098366888
H  H106  1  0.72826000  0.41431000  0.26936000  1.0 0.1098366888
H  H107  1  0.76657000  0.09728000  0.71158000  1.0 0.1369301595
H  H108  1  0.76657000  0.40272000  0.21158000  1.0 0.1369301595
H  H109  1  0.73752000  0.14707000  0.68439000  1.0 0.1194305006
H  H110  1  0.73752000  0.35293000  0.18439000  1.0 0.129278005
H  H111  1  0.67016000  0.18527000  0.71498000  1.0 0.129278005
H  H112  1  0.67016000  0.31473000  0.21498000  1.0 0.129278005
H  H113  1  0.63184000  0.17368000  0.77275000  1.0 0.1098366888
H  H114  1  0.63184000  0.32632000  0.27275000  1.0 0.1098366888
H  H115  1  0.25175000  0.87365000  0.60870000  1.0 0.129278005
H  H116  1  0.25175000  0.62635000  0.10870000  1.0 0.129278005
H  H117  1  0.43183000  0.85800000  0.52062000  1.0 0.129278005
H  H118  1  0.43183000  0.64200000  0.02062000  1.0 0.129278005
H  H119  1  0.21546000  0.74974000  0.32395000  1.0 0.1369301595
H  H120  1  0.21546000  0.75026000  0.82395000  1.0 0.1369301595
H  H121  1  0.71185000  0.55910000  0.98900000  1.0 0.1194305006
H  H122  1  0.71185000  0.94090000  0.48900000  1.0 0.1194305006
H  H123  1  0.55977000  0.54116000  0.99355000  1.0 0.1194305006
H  H124  1  0.55977000  0.95884000  0.49355000  1.0 0.1194305006
H  H125  1  0.41244000  0.56840000  0.96245000  1.0 0.1194305006
H  H126  1  0.41244000  0.93160000  0.46245000  1.0 0.1194305006
H  H127  1  0.41719000  0.61358000  0.92679000  1.0 0.129278005
H  H128  1  0.41719000  0.88642000  0.42679000  1.0 0.129278005
H  H129  1  0.56927000  0.63152000  0.92223000  1.0 0.1194305006
H  H130  1  0.56927000  0.86848000  0.42223000  1.0 0.1194305006
H  H131  1  0.78035000  0.21970000  0.34730000  1.0 0.129278005
H  H132  1  0.78035000  0.28030000  0.84730000  1.0 0.129278005
H  H133  1  0.35009000  0.23494000  0.76399000  1.0 0.129278005
H  H134  1  0.35009000  0.26506000  0.26399000  1.0 0.129278005
H  H135  1  0.91018000  0.57157000  0.13505000  1.0 0.1194305006
H  H136  1  0.91018000  0.92843000  0.63505000  1.0 0.1194305006
H  H137  1  0.76042000  0.98726000  0.86860000  1.0 0.1194305006
H  H138  1  0.76042000  0.51274000  0.36860000  1.0 0.1194305006
H  H139  1  0.06561000  0.64672000  0.08099000  1.0 0.1098366888
H  H140  1  0.06561000  0.85328000  0.58099000  1.0 0.1098366888
H  H141  1  0.48144000  0.28764000  0.86044000  1.0 0.129278005
H  H142  1  0.48144000  0.21236000  0.36044000  1.0 0.129278005
H  H143  1  0.83620000  0.26704000  0.37638000  1.0 0.1098366888
H  H144  1  0.83620000  0.23296000  0.87638000  1.0 0.1098366888
H  H145  1  0.23412000  0.80112000  0.34398000  1.0 0.1194305006
H  H146  1  0.23412000  0.69888000  0.84398000  1.0 0.1194305006
H  H147  1  0.24031000  0.34319000  0.58897000  1.0 0.129278005
H  H148  1  0.24031000  0.15681000  0.08897000  1.0 0.129278005
H  H149  1  0.19680000  0.34271000  0.51998000  1.0 0.1194305006
H  H150  1  0.19680000  0.15729000  0.01998000  1.0 0.1194305006
H  H151  1  0.20695000  0.50578000  0.35053000  1.0 0.1369301595
H  H152  1  0.20695000  0.99422000  0.85053000  1.0 0.1369301595
H  H153  1  0.55719000  0.02481000  0.77159000  1.0 0.1194305006
H  H154  1  0.55719000  0.47519000  0.27159000  1.0 0.1194305006
H  H155  1  0.50299000  0.84599000  0.58799000  1.0 0.1369301595
H  H156  1  0.50299000  0.65401000  0.08799000  1.0 0.1369301595
H  H157  1  0.19238000  0.45373000  0.36389000  1.0 0.1194305006
H  H158  1  0.19238000  0.04627000  0.86389000  1.0 0.1194305006
H  H159  1  0.68453000  0.95332000  0.31473000  1.0 0.1194305006
H  H160  1  0.68453000  0.54668000  0.81473000  1.0 0.1194305006
H  H161  1  0.59575000  0.24802000  0.88675000  1.0 0.1194305006
H  H162  1  0.59575000  0.25198000  0.38675000  1.0 0.1194305006
H  H163  1  0.78089000  0.01043000  0.40796000  1.0 0.129278005
H  H164  1  0.78089000  0.48957000  0.90796000  1.0 0.129278005
H  H165  1  0.63468000  0.14436000  0.99470000  1.0 0.129278005
H  H166  1  0.63468000  0.35564000  0.49470000  1.0 0.129278005
H  H167  1  0.71084000  0.93779000  0.84304000  1.0 0.1369301595
H  H168  1  0.71084000  0.56221000  0.34304000  1.0 0.1369301595
H  H169  1  0.79747000  0.25070000  0.24441000  1.0 0.129278005
H  H170  1  0.79747000  0.24930000  0.74441000  1.0 0.129278005
H  H171  1  0.60925000  0.14874000  0.05437000  1.0 0.129278005
H  H172  1  0.60925000  0.35126000  0.55437000  1.0 0.129278005
H  H173  1  0.85224000  0.29790000  0.27329000  1.0 0.1194305006
H  H174  1  0.85224000  0.20210000  0.77329000  1.0 0.1194305006
H  H175  1  0.46592000  0.19581000  0.79086000  1.0 0.1194305006
H  H176  1  0.46592000  0.30419000  0.29086000  1.0 0.1194305006
H  H177  1  0.26079000  0.75098000  0.05212000  1.0 0.0934563924
H  H178  1  0.26079000  0.74902000  0.55212000  1.0 0.0934563924
H  H179  1  0.86288000  0.00873000  0.92655000  1.0 0.1008699549
H  H180  1  0.86288000  0.49127000  0.42655000  1.0 0.1008699549
H  H181  1  0.09061000  0.07043000  0.95816000  1.0 0.1098366888
H  H182  1  0.09061000  0.42957000  0.45816000  1.0 0.1098366888
H  H183  1  0.20438000  0.02982000  0.98021000  1.0 0.129278005
H  H184  1  0.20438000  0.47018000  0.48021000  1.0 0.129278005
H  H185  1  0.14740000  0.97865000  0.97543000  1.0 0.1194305006
H  H186  1  0.14740000  0.52135000  0.47543000  1.0 0.1194305006
H  H187  1  0.97665000  0.96811000  0.94860000  1.0 0.129278005
H  H188  1  0.97665000  0.53189000  0.44860000  1.0 0.129278005
H  H189  1  0.28602000  0.73774000  0.99174000  1.0 0.1369301595
H  H190  1  0.28602000  0.76226000  0.49174000  1.0 0.1369301595
H  H191  1  0.15547000  0.30054000  0.42177000  1.0 0.1194305006
H  H192  1  0.15547000  0.19946000  0.92177000  1.0 0.1194305006
H  H193  1  0.16885000  0.35145000  0.32784000  1.0 0.1194305006
H  H194  1  0.16885000  0.14855000  0.82784000  1.0 0.1194305006
H  H195  1  0.28759000  0.31724000  0.31842000  1.0 0.1194305006
H  H196  1  0.28759000  0.18276000  0.81842000  1.0 0.1194305006
H  H197  1  0.34027000  0.27468000  0.36068000  1.0 0.1098366888
H  H198  1  0.34027000  0.22532000  0.86068000  1.0 0.1098366888
H  H199  1  0.27421000  0.26633000  0.41235000  1.0 0.129278005
H  H200  1  0.27421000  0.23367000  0.91235000  1.0 0.129278005
H  H201  1  0.02862000  0.68900000  0.02180000  1.0 0.1098366888
H  H202  1  0.02862000  0.81100000  0.52180000  1.0 0.1008699549
H  H203  1  0.12121000  0.72650000  0.06791000  1.0 0.1008699549
H  H204  1  0.12121000  0.77350000  0.56791000  1.0 0.1008699549
H  H205  1  0.19502000  0.69537000  0.95637000  1.0 0.1098366888
H  H206  1  0.19502000  0.80463000  0.45637000  1.0 0.1098366888
H  H207  1  0.42729000  0.13410000  0.84587000  1.0 0.1008699549
H  H208  1  0.42729000  0.36590000  0.34587000  1.0 0.1008699549
H  H209  1  0.62858000  0.07152000  0.90969000  1.0 0.1098366888
H  H210  1  0.62858000  0.42848000  0.40969000  1.0 0.1098366888
H  H211  1  0.51649000  0.05625000  0.94236000  1.0 0.1194305006
H  H212  1  0.51649000  0.44375000  0.44236000  1.0 0.1194305006
H  H213  1  0.35981000  0.07990000  0.92679000  1.0 0.1194305006
H  H214  1  0.35981000  0.42010000  0.42679000  1.0 0.1194305006
H  H215  1  0.31522000  0.11882000  0.87855000  1.0 0.129278005
H  H216  1  0.31522000  0.38118000  0.37855000  1.0 0.129278005
H  H217  1  0.22159000  0.75661000  0.04338000  1.0 0.0934563924
H  H218  1  0.22159000  0.74339000  0.54338000  1.0 0.0934563924
H  H219  1  0.22224000  0.71488000  0.08209000  1.0 0.1098366888
H  H220  1  0.22224000  0.78512000  0.58209000  1.0 0.1098366888
H  H221  1  0.14557000  0.67114000  0.04567000  1.0 0.1008699549
H  H222  1  0.14557000  0.82886000  0.54567000  1.0 0.1008699549
H  H223  1  0.44881000  0.42087000  0.74961000  1.0 0.2716005959
H  H224  1  0.44881000  0.07913000  0.24961000  1.0 0.2716005959
H  H225  1  0.71079000  0.78260000  0.73220000  1.0 0.2801492977
H  H226  1  0.71079000  0.71740000  0.23220000  1.0 0.2801492977
H  H227  1  0.35039000  0.29543000  0.66783000  1.0 0.2801492977
H  H228  1  0.35039000  0.20457000  0.16783000  1.0 0.2801492977
H  H229  1  0.97933000  0.08977000  0.29890000  1.0 0.2801492977
H  H230  1  0.97933000  0.41023000  0.79890000  1.0 0.2801492977
H  H231  1  0.25681000  0.68672000  0.20532000  1.0 0.2801492977
H  H232  1  0.25681000  0.81328000  0.70532000  1.0 0.2801492977
H  H233  1  0.29976000  0.54518000  0.23923000  1.0 0.2716005959
H  H234  1  0.29976000  0.95482000  0.73923000  1.0 0.2716005959
H  H235  1  0.86905000  0.88914000  0.85722000  1.0 0.2801492977
H  H236  1  0.86905000  0.61086000  0.35722000  1.0 0.2801492977
H  H237  1  0.01379000  0.70829000  0.55019000  1.0 0.1098366888
H  H238  1  0.01379000  0.79171000  0.05019000  1.0 0.1098366888
H  H239  1  0.91608000  0.72778000  0.48862000  1.0 0.129278005
H  H240  1  0.91608000  0.77222000  0.98862000  1.0 0.129278005
H  H241  1  0.95970000  0.71742000  0.43170000  1.0 0.1194305006
H  H242  1  0.95970000  0.78258000  0.93170000  1.0 0.1194305006
H  H243  1  0.10102000  0.68755000  0.43634000  1.0 0.129278005
H  H244  1  0.10102000  0.81245000  0.93634000  1.0 0.129278005
H  H245  1  0.19873000  0.66805000  0.49791000  1.0 0.1008699549
H  H246  1  0.19873000  0.83195000  0.99791000  1.0 0.1008699549
H  H247  1  0.50571000  0.35857000  0.84450000  1.0 0.2801492977
H  H248  1  0.50571000  0.14143000  0.34450000  1.0 0.2801492977
H  H249  1  0.88779000  0.20592000  0.19149000  1.0 0.2801492977
H  H250  1  0.88779000  0.29408000  0.69149000  1.0 0.2801492977
H  H251  1  0.74968000  0.91891000  0.67819000  1.0 0.2716005959
H  H252  1  0.74968000  0.58109000  0.17819000  1.0 0.2716005959
H  H253  1  0.33528000  0.63625000  0.37755000  1.0 0.2801492977
H  H254  1  0.33528000  0.86375000  0.87755000  1.0 0.2801492977
H  H255  1  0.88982000  0.04996000  0.18830000  1.0 0.2801492977
H  H256  1  0.88982000  0.45004000  0.68830000  1.0 0.2801492977
H  H257  1  0.56449000  0.29317000  0.77884000  1.0 0.1194305006
H  H258  1  0.56449000  0.20683000  0.27884000  1.0 0.1194305006
H  H259  1  0.99025000  0.89994000  0.91835000  1.0 0.129278005
H  H260  1  0.99025000  0.60006000  0.41835000  1.0 0.129278005
H  H261  1  0.97282000  0.17643000  0.23752000  1.0 0.1194305006
H  H262  1  0.97282000  0.32357000  0.73752000  1.0 0.1194305006
H  H263  1  0.81574000  0.90408000  0.80328000  1.0 0.1194305006
H  H264  1  0.81574000  0.59592000  0.30328000  1.0 0.1194305006
H  H265  1  0.25297000  0.64088000  0.20784000  1.0 0.1194305006
H  H266  1  0.25297000  0.85912000  0.70784000  1.0 0.1194305006
H  H267  1  0.74273000  0.81401000  0.77858000  1.0 0.1098366888
H  H268  1  0.74273000  0.68599000  0.27858000  1.0 0.1098366888
H  H269  1  0.27898000  0.65750000  0.32317000  1.0 0.1194305006
H  H270  1  0.27898000  0.84250000  0.82317000  1.0 0.1194305006
H  H271  1  0.29978000  0.56961000  0.28598000  1.0 0.1194305006
H  H272  1  0.29978000  0.93039000  0.78598000  1.0 0.1194305006
H  H273  1  0.97157000  0.08292000  0.24086000  1.0 0.1098366888
H  H274  1  0.97157000  0.41708000  0.74086000  1.0 0.1098366888
H  H275  1  0.42938000  0.34004000  0.67764000  1.0 0.1194305006
H  H276  1  0.42938000  0.15996000  0.17764000  1.0 0.1194305006
H  H277  1  0.95439000  0.12795000  0.13858000  1.0 0.1194305006
H  H278  1  0.95439000  0.37205000  0.63858000  1.0 0.1194305006
H  H279  1  0.23504000  0.55374000  0.13495000  1.0 0.1369301595
H  H280  1  0.23504000  0.94626000  0.63495000  1.0 0.1369301595
H  H281  1  0.51597000  0.38557000  0.78267000  1.0 0.1098366888
H  H282  1  0.51597000  0.11443000  0.28267000  1.0 0.1098366888
H  H283  1  0.71990000  0.87484000  0.68943000  1.0 0.1194305006
H  H284  1  0.71990000  0.62516000  0.18943000  1.0 0.1194305006
H  H285  1  0.10562000  0.96494000  0.15918000  1.0 0.1194305006
H  H286  1  0.10562000  0.53506000  0.65918000  1.0 0.1194305006
H  H287  1  0.04095000  0.89778000  0.98799000  1.0 0.1194305006
H  H288  1  0.04095000  0.60222000  0.48799000  1.0 0.1194305006
H  H289  1  0.72935000  0.94837000  0.62283000  1.0 0.129278005
H  H290  1  0.72935000  0.55163000  0.12283000  1.0 0.129278005
H  H291  1  0.21012000  0.27273000  0.62488000  1.0 0.1369301595
H  H292  1  0.21012000  0.22727000  0.12488000  1.0 0.1369301595
H  H293  1  0.18665000  0.57075000  0.46653000  1.0 0.1194305006
H  H294  1  0.18665000  0.92925000  0.96653000  1.0 0.1194305006
H  H295  1  0.13562000  0.23032000  0.58740000  1.0 0.1098366888
H  H296  1  0.13562000  0.26968000  0.08740000  1.0 0.1098366888
H  H297  1  0.08952000  0.01638000  0.17462000  1.0 0.1369301595
H  H298  1  0.08952000  0.48362000  0.67462000  1.0 0.1369301595
H  H299  1  0.46513000  0.22240000  0.67005000  1.0 0.129278005
H  H300  1  0.46513000  0.27760000  0.17005000  1.0 0.129278005
H  H301  1  0.38269000  0.17995000  0.63342000  1.0 0.129278005
H  H302  1  0.38269000  0.32005000  0.13342000  1.0 0.129278005
H  H303  1  0.80256000  0.03732000  0.70015000  1.0 0.129278005
H  H304  1  0.80256000  0.46268000  0.20015000  1.0 0.129278005
H  H305  1  0.90854000  0.14551000  0.35147000  1.0 0.1369301595
H  H306  1  0.90854000  0.35449000  0.85147000  1.0 0.1369301595
H  H307  1  0.80870000  0.98949000  0.73023000  1.0 0.147333666
H  H308  1  0.80870000  0.51051000  0.23023000  1.0 0.147333666
H  H309  1  0.99609000  0.29148000  0.11267000  1.0 0.1194305006
H  H310  1  0.99609000  0.20852000  0.61267000  1.0 0.1194305006
H  H311  1  0.10818000  0.42320000  0.12439000  1.0 0.0934563924
H  H312  1  0.10818000  0.07680000  0.62439000  1.0 0.0934563924
H  H313  1  0.01672000  0.24004000  0.13384000  1.0 0.129278005
H  H314  1  0.01672000  0.25996000  0.63384000  1.0 0.129278005
H  H315  1  0.11555000  0.07179000  0.43344000  1.0 0.1194305006
H  H316  1  0.11555000  0.42821000  0.93344000  1.0 0.1194305006
H  H317  1  0.73279000  0.99614000  0.59329000  1.0 0.129278005
H  H318  1  0.73279000  0.50386000  0.09329000  1.0 0.129278005
H  H319  1  0.81882000  0.38482000  0.95939000  1.0 0.1194305006
H  H320  1  0.81882000  0.11518000  0.45939000  1.0 0.1194305006
H  H321  1  0.49096000  0.47571000  0.75250000  1.0 0.1194305006
H  H322  1  0.49096000  0.02429000  0.25250000  1.0 0.1194305006
H  H323  1  0.20674000  0.57479000  0.40393000  1.0 0.129278005
H  H324  1  0.20674000  0.92521000  0.90393000  1.0 0.129278005
H  H325  1  0.33016000  0.49458000  0.22847000  1.0 0.129278005
H  H326  1  0.33016000  0.00542000  0.72847000  1.0 0.129278005
H  H327  1  0.27174000  0.58569000  0.73064000  1.0 0.1098366888
H  H328  1  0.27174000  0.91431000  0.23064000  1.0 0.1098366888
H  H329  1  0.23343000  0.59728000  0.78842000  1.0 0.1369301595
H  H330  1  0.23343000  0.90272000  0.28842000  1.0 0.1369301595
H  H331  1  0.26248000  0.64707000  0.81561000  1.0 0.129278005
H  H332  1  0.26248000  0.85293000  0.31561000  1.0 0.129278005
H  H333  1  0.32984000  0.68527000  0.78502000  1.0 0.129278005
H  H334  1  0.32984000  0.81473000  0.28502000  1.0 0.129278005
H  H335  1  0.36816000  0.67368000  0.72725000  1.0 0.1098366888
H  H336  1  0.36816000  0.82632000  0.22725000  1.0 0.1098366888
H  H337  1  0.74825000  0.37365000  0.89130000  1.0 0.129278005
H  H338  1  0.74825000  0.12635000  0.39130000  1.0 0.129278005
H  H339  1  0.56817000  0.35800000  0.97938000  1.0 0.129278005
H  H340  1  0.56817000  0.14200000  0.47938000  1.0 0.129278005
H  H341  1  0.78454000  0.24974000  0.17605000  1.0 0.1369301595
H  H342  1  0.78454000  0.25026000  0.67605000  1.0 0.1369301595
H  H343  1  0.28815000  0.05910000  0.51100000  1.0 0.1194305006
H  H344  1  0.28815000  0.44090000  0.01100000  1.0 0.1194305006
H  H345  1  0.44023000  0.04116000  0.50645000  1.0 0.1194305006
H  H346  1  0.44023000  0.45884000  0.00645000  1.0 0.1194305006
H  H347  1  0.58756000  0.06840000  0.53755000  1.0 0.1194305006
H  H348  1  0.58756000  0.43160000  0.03755000  1.0 0.1194305006
H  H349  1  0.58281000  0.11358000  0.57321000  1.0 0.129278005
H  H350  1  0.58281000  0.38642000  0.07321000  1.0 0.129278005
H  H351  1  0.43073000  0.13152000  0.57777000  1.0 0.1194305006
H  H352  1  0.43073000  0.36848000  0.07777000  1.0 0.1194305006
H  H353  1  0.21965000  0.71970000  0.15270000  1.0 0.129278005
H  H354  1  0.21965000  0.78030000  0.65270000  1.0 0.129278005
H  H355  1  0.64991000  0.73494000  0.73601000  1.0 0.129278005
H  H356  1  0.64991000  0.76506000  0.23601000  1.0 0.129278005
H  H357  1  0.08982000  0.07157000  0.36495000  1.0 0.1194305006
H  H358  1  0.08982000  0.42843000  0.86495000  1.0 0.1194305006
H  H359  1  0.23958000  0.48726000  0.63140000  1.0 0.1194305006
H  H360  1  0.23958000  0.01274000  0.13140000  1.0 0.1194305006
H  H361  1  0.93439000  0.14672000  0.41901000  1.0 0.1098366888
H  H362  1  0.93439000  0.35328000  0.91901000  1.0 0.1098366888
H  H363  1  0.51856000  0.78764000  0.63956000  1.0 0.129278005
H  H364  1  0.51856000  0.71236000  0.13956000  1.0 0.129278005
H  H365  1  0.16380000  0.76704000  0.12362000  1.0 0.1098366888
H  H366  1  0.16380000  0.73296000  0.62362000  1.0 0.1098366888
H  H367  1  0.76588000  0.30112000  0.15602000  1.0 0.1194305006
H  H368  1  0.76588000  0.19888000  0.65602000  1.0 0.1194305006
H  H369  1  0.75969000  0.84319000  0.91103000  1.0 0.129278005
H  H370  1  0.75969000  0.65681000  0.41103000  1.0 0.129278005
H  H371  1  0.80320000  0.84271000  0.98002000  1.0 0.1194305006
H  H372  1  0.80320000  0.65729000  0.48002000  1.0 0.1194305006
H  H373  1  0.79305000  0.00578000  0.14947000  1.0 0.1369301595
H  H374  1  0.79305000  0.49422000  0.64947000  1.0 0.1369301595
H  H375  1  0.44281000  0.52481000  0.72841000  1.0 0.1194305006
H  H376  1  0.44281000  0.97519000  0.22841000  1.0 0.1194305006
H  H377  1  0.49701000  0.34599000  0.91201000  1.0 0.1369301595
H  H378  1  0.49701000  0.15401000  0.41201000  1.0 0.1369301595
H  H379  1  0.80762000  0.95373000  0.13611000  1.0 0.1194305006
H  H380  1  0.80762000  0.54627000  0.63611000  1.0 0.1194305006
H  H381  1  0.31547000  0.45332000  0.18527000  1.0 0.1194305006
H  H382  1  0.31547000  0.04668000  0.68527000  1.0 0.1194305006
H  H383  1  0.40425000  0.74802000  0.61325000  1.0 0.1194305006
H  H384  1  0.40425000  0.75198000  0.11325000  1.0 0.1194305006
H  H385  1  0.21911000  0.51043000  0.09204000  1.0 0.129278005
H  H386  1  0.21911000  0.98957000  0.59204000  1.0 0.129278005
H  H387  1  0.36532000  0.64436000  0.50530000  1.0 0.129278005
H  H388  1  0.36532000  0.85564000  0.00530000  1.0 0.129278005
H  H389  1  0.28916000  0.43779000  0.65696000  1.0 0.1369301595
H  H390  1  0.28916000  0.06221000  0.15696000  1.0 0.1369301595
H  H391  1  0.20253000  0.75070000  0.25559000  1.0 0.129278005
H  H392  1  0.20253000  0.74930000  0.75559000  1.0 0.129278005
H  H393  1  0.39075000  0.64874000  0.44563000  1.0 0.129278005
H  H394  1  0.39075000  0.85126000  0.94563000  1.0 0.129278005
H  H395  1  0.14776000  0.79790000  0.22671000  1.0 0.1194305006
H  H396  1  0.14776000  0.70210000  0.72671000  1.0 0.1194305006
H  H397  1  0.53408000  0.69581000  0.70914000  1.0 0.1194305006
H  H398  1  0.53408000  0.80419000  0.20914000  1.0 0.1194305006
H  H399  1  0.73921000  0.25098000  0.44788000  1.0 0.0934563924
H  H400  1  0.73921000  0.24902000  0.94788000  1.0 0.0934563924
H  H401  1  0.13712000  0.50873000  0.57345000  1.0 0.1008699549
H  H402  1  0.13712000  0.99127000  0.07345000  1.0 0.1008699549
H  H403  1  0.90939000  0.57043000  0.54184000  1.0 0.1098366888
H  H404  1  0.90939000  0.92957000  0.04184000  1.0 0.1098366888
H  H405  1  0.79562000  0.52982000  0.51979000  1.0 0.129278005
H  H406  1  0.79562000  0.97018000  0.01979000  1.0 0.129278005
H  H407  1  0.85260000  0.47865000  0.52457000  1.0 0.1194305006
H  H408  1  0.85260000  0.02135000  0.02457000  1.0 0.1194305006
H  H409  1  0.02335000  0.46811000  0.55140000  1.0 0.129278005
H  H410  1  0.02335000  0.03189000  0.05140000  1.0 0.129278005
H  H411  1  0.71398000  0.23774000  0.50826000  1.0 0.1369301595
H  H412  1  0.71398000  0.26226000  0.00826000  1.0 0.1369301595
H  H413  1  0.84453000  0.80054000  0.07823000  1.0 0.1194305006
H  H414  1  0.84453000  0.69946000  0.57823000  1.0 0.1194305006
H  H415  1  0.83115000  0.85145000  0.17216000  1.0 0.1194305006
H  H416  1  0.83115000  0.64855000  0.67216000  1.0 0.1194305006
H  H417  1  0.71241000  0.81724000  0.18158000  1.0 0.1194305006
H  H418  1  0.71241000  0.68276000  0.68158000  1.0 0.1194305006
H  H419  1  0.65973000  0.77468000  0.13932000  1.0 0.1098366888
H  H420  1  0.65973000  0.72532000  0.63932000  1.0 0.1098366888
H  H421  1  0.72579000  0.76633000  0.08765000  1.0 0.129278005
H  H422  1  0.72579000  0.73367000  0.58765000  1.0 0.129278005
H  H423  1  0.97138000  0.18900000  0.47820000  1.0 0.1008699549
H  H424  1  0.97138000  0.31100000  0.97820000  1.0 0.1008699549
H  H425  1  0.87879000  0.22650000  0.43209000  1.0 0.1008699549
H  H426  1  0.87879000  0.27350000  0.93209000  1.0 0.1008699549
H  H427  1  0.80498000  0.19537000  0.54363000  1.0 0.1098366888
H  H428  1  0.80498000  0.30463000  0.04363000  1.0 0.1098366888
H  H429  1  0.57271000  0.63410000  0.65413000  1.0 0.1008699549
H  H430  1  0.57271000  0.86590000  0.15413000  1.0 0.1008699549
H  H431  1  0.37142000  0.57152000  0.59031000  1.0 0.1098366888
H  H432  1  0.37142000  0.92848000  0.09031000  1.0 0.1098366888
H  H433  1  0.48351000  0.55625000  0.55764000  1.0 0.1194305006
H  H434  1  0.48351000  0.94375000  0.05764000  1.0 0.1194305006
H  H435  1  0.64019000  0.57990000  0.57321000  1.0 0.1194305006
H  H436  1  0.64019000  0.92010000  0.07321000  1.0 0.1194305006
H  H437  1  0.68478000  0.61882000  0.62145000  1.0 0.129278005
H  H438  1  0.68478000  0.88118000  0.12145000  1.0 0.129278005
H  H439  1  0.77841000  0.25661000  0.45662000  1.0 0.0934563924
H  H440  1  0.77841000  0.24339000  0.95662000  1.0 0.0934563924
H  H441  1  0.77776000  0.21488000  0.41791000  1.0 0.1098366888
H  H442  1  0.77776000  0.28512000  0.91791000  1.0 0.1098366888
H  H443  1  0.85443000  0.17114000  0.45433000  1.0 0.1008699549
H  H444  1  0.85443000  0.32886000  0.95433000  1.0 0.1008699549
C  C1  1  0.96850000  0.20408000  0.97290000  1.0 0.0503915845
C  C2  1  0.96850000  0.29592000  0.47290000  1.0 0.0503915845
C  C3  1  0.02660000  0.21570000  0.00950000  1.0 -0.1496325875
C  C4  1  0.02660000  0.28430000  0.50950000  1.0 -0.1496325875
C  C5  1  0.00061000  0.20950000  0.04331000  1.0 -0.0384990534
C  C6  1  0.00061000  0.29050000  0.54331000  1.0 -0.0384990534
C  C7  1  0.91665000  0.19180000  0.04055000  1.0 -0.1294516741
C  C8  1  0.91665000  0.30820000  0.54055000  1.0 -0.1294516741
C  C9  1  0.85867000  0.18018000  0.00397000  1.0 0.0622061934
C  C10  1  0.85867000  0.31982000  0.50397000  1.0 0.0622061934
C  C11  1  0.65440000  0.75199000  0.84820000  1.0 0.2582525232
C  C12  1  0.65440000  0.74801000  0.34820000  1.0 0.2582525232
C  C13  1  0.73830000  0.15415000  0.23610000  1.0 -0.002307708
C  C14  1  0.73830000  0.34585000  0.73610000  1.0 -0.002307708
C  C15  1  0.21650000  0.35819000  0.70250000  1.0 -0.0095499041
C  C16  1  0.21650000  0.14181000  0.20250000  1.0 -0.0095499041
C  C17  1  0.22640000  0.39391000  0.75570000  1.0 -0.0200086057
C  C18  1  0.22640000  0.10609000  0.25570000  1.0 -0.0200086057
C  C19  1  0.02700000  0.62992000  0.25430000  1.0 -0.0095499041
C  C20  1  0.02700000  0.87008000  0.75430000  1.0 -0.0095499041
C  C21  1  0.03540000  0.60089000  0.31340000  1.0 -0.0200086057
C  C22  1  0.03540000  0.89911000  0.81340000  1.0 -0.0200086057
C  C23  1  0.45220000  0.83945000  0.71280000  1.0 -0.0095499041
C  C24  1  0.45220000  0.66055000  0.21280000  1.0 -0.0095499041
C  C25  1  0.46230000  0.81189000  0.73430000  1.0 -0.1496325875
C  C26  1  0.46230000  0.68811000  0.23430000  1.0 -0.1496325875
C  C27  1  0.04620000  0.38762000  0.56890000  1.0 -0.1898419021
C  C28  1  0.04620000  0.11238000  0.06890000  1.0 -0.1898419021
C  C29  1  0.03110000  0.65711000  0.27570000  1.0 -0.1397169739
C  C30  1  0.03110000  0.84289000  0.77570000  1.0 -0.1397169739
C  C31  1  0.27660000  0.34065000  0.77040000  1.0 -0.0200086057
C  C32  1  0.27660000  0.15935000  0.27040000  1.0 -0.0200086057
C  C33  1  0.53250000  0.86757000  0.77340000  1.0 -0.0095499041
C  C34  1  0.53250000  0.63243000  0.27340000  1.0 -0.0095499041
C  C35  1  0.20590000  0.38780000  0.71550000  1.0 -0.1294516741
C  C36  1  0.20590000  0.11220000  0.21550000  1.0 -0.1294516741
C  C37  1  0.01970000  0.57155000  0.33280000  1.0 0.4592735935
C  C38  1  0.01970000  0.92845000  0.83280000  1.0 0.4592735935
C  C39  1  0.73740000  0.13348000  0.26600000  1.0 -0.1397169739
C  C40  1  0.73740000  0.36652000  0.76600000  1.0 -0.1397169739
C  C41  1  0.04070000  0.65675000  0.31550000  1.0 -0.0200086057
C  C42  1  0.04070000  0.84325000  0.81550000  1.0 -0.0200086057
C  C43  1  0.25120000  0.33445000  0.73020000  1.0 -0.1397169739
C  C44  1  0.25120000  0.16555000  0.23020000  1.0 -0.1397169739
C  C45  1  0.94500000  0.61350000  0.02240000  1.0 0.5783619725
C  C46  1  0.94500000  0.88650000  0.52240000  1.0 0.5783619725
C  C47  1  0.23010000  0.46415000  0.82040000  1.0 0.2288349102
C  C48  1  0.23010000  0.03585000  0.32040000  1.0 0.2288349102
C  C49  1  0.72240000  0.14337000  0.19750000  1.0 -0.1496325875
C  C50  1  0.72240000  0.35663000  0.69750000  1.0 -0.1496325875
C  C51  1  0.70910000  0.09110000  0.21970000  1.0 -0.1712621264
C  C52  1  0.70910000  0.40890000  0.71970000  1.0 -0.1712621264
C  C53  1  0.03000000  0.60168000  0.27330000  1.0 -0.1791857165
C  C54  1  0.03000000  0.89832000  0.77330000  1.0 -0.1791857165
C  C55  1  0.52650000  0.78107000  0.79540000  1.0 0.4496281342
C  C56  1  0.52650000  0.71893000  0.29540000  1.0 0.4496281342
C  C57  1  0.54230000  0.83976000  0.79430000  1.0 -0.1397169739
C  C58  1  0.54230000  0.66024000  0.29430000  1.0 -0.1397169739
C  C59  1  0.74870000  0.70079000  0.89290000  1.0 -0.0384990534
C  C60  1  0.74870000  0.79921000  0.39290000  1.0 -0.0384990534
C  C61  1  0.04110000  0.68566000  0.33920000  1.0 0.4496281342
C  C62  1  0.04110000  0.81434000  0.83920000  1.0 0.4496281342
C  C63  1  0.12520000  0.37101000  0.59120000  1.0 0.2288349102
C  C64  1  0.12520000  0.12899000  0.09120000  1.0 0.2288349102
C  C65  1  0.04120000  0.62846000  0.33420000  1.0 -0.1294516741
C  C66  1  0.04120000  0.87154000  0.83420000  1.0 -0.1294516741
C  C67  1  0.07490000  0.37031000  0.50920000  1.0 -0.0301038698
C  C68  1  0.07490000  0.12969000  0.00920000  1.0 -0.0301038698
C  C69  1  0.38930000  0.83995000  0.66990000  1.0 0.4592735935
C  C70  1  0.38930000  0.66005000  0.16990000  1.0 0.4592735935
C  C71  1  0.20910000  0.42677000  0.76550000  1.0 0.4496281342
C  C72  1  0.20910000  0.07323000  0.26550000  1.0 0.4496281342
C  C73  1  0.74930000  0.03340000  0.35470000  1.0 -0.1998882288
C  C74  1  0.74930000  0.46660000  0.85470000  1.0 -0.1998882288
C  C75  1  0.72250000  0.10162000  0.25780000  1.0 -0.0301038698
C  C76  1  0.72250000  0.39838000  0.75780000  1.0 -0.0301038698
C  C77  1  0.79350000  0.22934000  0.29360000  1.0 0.2389807856
C  C78  1  0.79350000  0.27066000  0.79360000  1.0 0.2389807856
C  C79  1  0.00320000  0.60870000  0.14810000  1.0 0.2389807856
C  C80  1  0.00320000  0.89130000  0.64810000  1.0 0.2389807856
C  C81  1  0.40450000  0.26523000  0.80930000  1.0 0.2288349102
C  C82  1  0.40450000  0.23477000  0.30930000  1.0 0.2288349102
C  C83  1  0.70870000  0.11208000  0.18950000  1.0 -0.0095499041
C  C84  1  0.70870000  0.38792000  0.68950000  1.0 -0.0095499041
C  C85  1  0.33050000  0.31777000  0.80120000  1.0 0.4496281342
C  C86  1  0.33050000  0.18223000  0.30120000  1.0 0.4496281342
C  C87  1  0.51220000  0.81196000  0.77540000  1.0 -0.0200086057
C  C88  1  0.51220000  0.68804000  0.27540000  1.0 -0.0200086057
C  C89  1  0.48880000  0.86702000  0.73220000  1.0 -0.1791857165
C  C90  1  0.48880000  0.63298000  0.23220000  1.0 -0.1791857165
C  C91  1  0.26350000  0.37054000  0.78300000  1.0 -0.1624513499
C  C92  1  0.26350000  0.12946000  0.28300000  1.0 -0.1624513499
C  C93  1  0.85510000  0.28707000  0.32840000  1.0 -0.0384990534
C  C94  1  0.85510000  0.21293000  0.82840000  1.0 -0.0384990534
C  C95  1  0.76290000  0.18809000  0.24350000  1.0 0.4671958678
C  C96  1  0.76290000  0.31191000  0.74350000  1.0 0.4671958678
C  C97  1  0.89870000  0.31648000  0.34790000  1.0 0.5601942905
C  C98  1  0.89870000  0.18352000  0.84790000  1.0 0.5601942905
C  C99  1  0.95820000  0.47302000  0.34260000  1.0 -0.0993554583
C  C100  1  0.95820000  0.02698000  0.84260000  1.0 -0.0993554583
C  C101  1  0.96600000  0.61040000  0.06660000  1.0 -0.0200086057
C  C102  1  0.96600000  0.88960000  0.56660000  1.0 -0.0200086057
C  C103  1  0.30020000  0.87280000  0.52510000  1.0 -0.0384990534
C  C104  1  0.30020000  0.62720000  0.02510000  1.0 -0.0384990534
C  C105  1  0.01710000  0.38702000  0.52750000  1.0 -0.0993554583
C  C106  1  0.01710000  0.11298000  0.02750000  1.0 -0.0993554583
C  C107  1  0.71730000  0.02760000  0.31420000  1.0 0.2288349102
C  C108  1  0.71730000  0.47240000  0.81420000  1.0 0.2288349102
C  C109  1  0.25400000  0.46650000  0.86120000  1.0 -0.2097235388
C  C110  1  0.25400000  0.03350000  0.36120000  1.0 -0.2097235388
C  C111  1  0.69810000  0.11190000  0.08230000  1.0 0.2716005959
C  C112  1  0.69810000  0.38810000  0.58230000  1.0 0.2716005959
C  C113  1  0.11730000  0.80160000  0.36730000  1.0 -0.0463202365
C  C114  1  0.11730000  0.69840000  0.86730000  1.0 -0.0463202365
C  C115  1  0.75360000  0.75398000  0.87330000  1.0 -0.1998882288
C  C116  1  0.75360000  0.74602000  0.37330000  1.0 -0.1998882288
C  C117  1  0.56990000  0.89655000  0.79670000  1.0 0.4496281342
C  C118  1  0.56990000  0.60345000  0.29670000  1.0 0.4496281342
C  C119  1  0.71930000  0.08194000  0.29200000  1.0 0.4496281342
C  C120  1  0.71930000  0.41806000  0.79200000  1.0 0.4496281342
C  C121  1  0.23440000  0.52160000  0.85650000  1.0 -0.0200086057
C  C122  1  0.23440000  0.97840000  0.35650000  1.0 -0.0200086057
C  C123  1  0.77230000  0.08669000  0.03820000  1.0 -0.0901595302
C  C124  1  0.77230000  0.41331000  0.53820000  1.0 -0.0901595302
C  C125  1  0.60390000  0.95180000  0.79320000  1.0 0.2389807856
C  C126  1  0.60390000  0.54820000  0.29320000  1.0 0.2389807856
C  C127  1  0.72600000  0.10730000  0.00780000  1.0 -0.0604760952
C  C128  1  0.72600000  0.39270000  0.50780000  1.0 -0.0604760952
C  C129  1  0.04220000  0.45386000  0.35420000  1.0 -0.0301038698
C  C130  1  0.04220000  0.04614000  0.85420000  1.0 -0.0301038698
C  C131  1  0.03380000  0.42056000  0.36410000  1.0 0.5451077887
C  C132  1  0.03380000  0.07944000  0.86410000  1.0 0.5451077887
C  C133  1  0.73360000  0.97790000  0.36560000  1.0 -0.0384990534
C  C134  1  0.73360000  0.52210000  0.86560000  1.0 -0.0384990534
C  C135  1  0.70740000  0.09799000  0.15040000  1.0 0.4592735935
C  C136  1  0.70740000  0.40201000  0.65040000  1.0 0.4592735935
C  C137  1  0.79770000  0.72861000  0.89520000  1.0 -0.0993554583
C  C138  1  0.79770000  0.77139000  0.39520000  1.0 -0.0993554583
C  C139  1  0.96800000  0.50360000  0.33370000  1.0 -0.1712621264
C  C140  1  0.96800000  0.99640000  0.83370000  1.0 -0.1712621264
C  C141  1  0.60260000  0.72410000  0.84620000  1.0 -0.1898419021
C  C142  1  0.60260000  0.77590000  0.34620000  1.0 -0.1898419021
C  C143  1  0.65210000  0.69900000  0.86850000  1.0 -0.0993554583
C  C144  1  0.65210000  0.80100000  0.36850000  1.0 -0.0993554583
C  C145  1  0.21140000  0.51910000  0.81570000  1.0 -0.0901595302
C  C146  1  0.21140000  0.98090000  0.31570000  1.0 -0.0901595302
C  C147  1  0.09500000  0.74010000  0.34240000  1.0 0.2463565462
C  C148  1  0.09500000  0.75990000  0.84240000  1.0 0.2463565462
C  C149  1  0.04830000  0.63070000  0.13170000  1.0 -0.1496325875
C  C150  1  0.04830000  0.86930000  0.63170000  1.0 -0.1496325875
C  C151  1  0.01870000  0.63390000  0.21160000  1.0 0.4496281342
C  C152  1  0.01870000  0.86610000  0.71160000  1.0 0.4496281342
C  C153  1  0.20840000  0.49077000  0.79780000  1.0 -0.1898419021
C  C154  1  0.20840000  0.00923000  0.29780000  1.0 -0.1898419021
C  C155  1  0.04640000  0.78320000  0.37390000  1.0 -0.0901595302
C  C156  1  0.04640000  0.71680000  0.87390000  1.0 -0.0901595302
C  C157  1  0.05870000  0.51575000  0.33670000  1.0 0.2288349102
C  C158  1  0.05870000  0.98425000  0.83670000  1.0 0.2288349102
C  C159  1  0.94840000  0.91150000  0.39040000  1.0 0.5175056228
C  C160  1  0.94840000  0.58850000  0.89040000  1.0 0.5175056228
C  C161  1  0.03390000  0.75240000  0.36140000  1.0 -0.1898419021
C  C162  1  0.03390000  0.74760000  0.86140000  1.0 -0.1898419021
C  C163  1  0.92450000  0.58730000  0.08300000  1.0 -0.0901595302
C  C164  1  0.92450000  0.91270000  0.58300000  1.0 -0.0901595302
C  C165  1  0.25380000  0.49490000  0.87880000  1.0 -0.0818562566
C  C166  1  0.25380000  0.00510000  0.37880000  1.0 -0.0818562566
C  C167  1  0.24750000  0.87710000  0.55050000  1.0 -0.1121464835
C  C168  1  0.24750000  0.62290000  0.05050000  1.0 -0.1121464835
C  C169  1  0.55980000  0.97810000  0.77240000  1.0 -0.2097235388
C  C170  1  0.55980000  0.52190000  0.27240000  1.0 -0.2097235388
C  C171  1  0.76000000  0.08880000  0.07550000  1.0 -0.1998882288
C  C172  1  0.76000000  0.41120000  0.57550000  1.0 -0.1998882288
C  C173  1  0.69260000  0.99800000  0.29940000  1.0 -0.2097235388
C  C174  1  0.69260000  0.50200000  0.79940000  1.0 -0.2097235388
C  C175  1  0.71640000  0.10590000  0.75830000  1.0 0.079445544
C  C176  1  0.71640000  0.39410000  0.25830000  1.0 0.079445544
C  C177  1  0.73920000  0.11280000  0.72400000  1.0 -0.1294516741
C  C178  1  0.73920000  0.38720000  0.22400000  1.0 -0.1294516741
C  C179  1  0.72190000  0.14240000  0.70780000  1.0 -0.0301038698
C  C180  1  0.72190000  0.35760000  0.20780000  1.0 -0.0301038698
C  C181  1  0.68190000  0.16510000  0.72600000  1.0 -0.1496325875
C  C182  1  0.68190000  0.33490000  0.22600000  1.0 -0.1496325875
C  C183  1  0.65920000  0.15817000  0.76030000  1.0 0.068917437
C  C184  1  0.65920000  0.34183000  0.26030000  1.0 0.068917437
C  C185  1  0.38530000  0.85880000  0.60410000  1.0 0.2288349102
C  C186  1  0.38530000  0.64120000  0.10410000  1.0 0.2288349102
C  C187  1  0.28860000  0.87040000  0.59090000  1.0 -0.1898419021
C  C188  1  0.28860000  0.62960000  0.09090000  1.0 -0.1898419021
C  C189  1  0.13050000  0.83400000  0.38150000  1.0 0.5696290837
C  C190  1  0.13050000  0.66600000  0.88150000  1.0 0.5696290837
C  C191  1  0.04600000  0.36838000  0.46450000  1.0 0.5601942905
C  C192  1  0.04600000  0.13162000  0.96450000  1.0 0.5601942905
C  C193  1  0.39520000  0.86120000  0.53850000  1.0 -0.0901595302
C  C194  1  0.39520000  0.63880000  0.03850000  1.0 -0.0901595302
C  C195  1  0.17140000  0.75850000  0.33640000  1.0 -0.1898419021
C  C196  1  0.17140000  0.74150000  0.83640000  1.0 -0.1898419021
C  C197  1  0.20270000  0.35129000  0.65950000  1.0 0.4671958678
C  C198  1  0.20270000  0.14871000  0.15950000  1.0 0.4671958678
C  C199  1  0.65210000  0.57020000  0.97640000  1.0 0.068917437
C  C200  1  0.65210000  0.92980000  0.47640000  1.0 0.068917437
C  C201  1  0.56170000  0.55950000  0.97910000  1.0 -0.1496325875
C  C202  1  0.56170000  0.94050000  0.47910000  1.0 -0.1496325875
C  C203  1  0.47420000  0.57570000  0.96060000  1.0 -0.0301038698
C  C204  1  0.47420000  0.92430000  0.46060000  1.0 -0.0301038698
C  C205  1  0.47700000  0.60250000  0.93940000  1.0 -0.1183953515
C  C206  1  0.47700000  0.89750000  0.43940000  1.0 -0.1183953515
C  C207  1  0.56730000  0.61320000  0.93670000  1.0 0.068917437
C  C208  1  0.56730000  0.88680000  0.43670000  1.0 0.068917437
C  C209  1  0.79890000  0.23530000  0.33220000  1.0 -0.1998882288
C  C210  1  0.79890000  0.26470000  0.83220000  1.0 -0.1998882288
C  C211  1  0.80320000  0.67269000  0.91490000  1.0 0.5944659778
C  C212  1  0.80320000  0.82731000  0.41490000  1.0 0.5944659778
C  C213  1  0.39990000  0.23790000  0.78900000  1.0 -0.2097235388
C  C214  1  0.39990000  0.26210000  0.28900000  1.0 -0.2097235388
C  C215  1  0.94120000  0.58690000  0.12380000  1.0 -0.1998882288
C  C216  1  0.94120000  0.91310000  0.62380000  1.0 -0.1998882288
C  C217  1  0.70810000  0.98500000  0.84410000  1.0 -0.0901595302
C  C218  1  0.70810000  0.51500000  0.34410000  1.0 -0.0901595302
C  C219  1  0.54080000  0.21750000  0.84170000  1.0 -0.0463202365
C  C220  1  0.54080000  0.28250000  0.34170000  1.0 -0.0463202365
C  C221  1  0.68680000  0.04260000  0.84130000  1.0 0.5783619725
C  C222  1  0.68680000  0.45740000  0.34130000  1.0 0.5783619725
C  C223  1  0.66030000  0.01120000  0.82340000  1.0 -0.0463202365
C  C224  1  0.66030000  0.48880000  0.32340000  1.0 -0.0463202365
C  C225  1  0.03240000  0.63170000  0.09180000  1.0 -0.0993554583
C  C226  1  0.03240000  0.86830000  0.59180000  1.0 -0.0993554583
C  C227  1  0.47770000  0.26890000  0.84610000  1.0 -0.1998882288
C  C228  1  0.47770000  0.23110000  0.34610000  1.0 -0.1998882288
C  C229  1  0.83090000  0.26370000  0.34940000  1.0 -0.1183953515
C  C230  1  0.83090000  0.23630000  0.84940000  1.0 -0.1183953515
C  C231  1  0.18290000  0.78880000  0.34830000  1.0 -0.0901595302
C  C232  1  0.18290000  0.71120000  0.84830000  1.0 -0.0901595302
C  C233  1  0.18350000  0.35430000  0.57330000  1.0 -0.1791857165
C  C234  1  0.18350000  0.14570000  0.07330000  1.0 -0.1791857165
C  C235  1  0.74740000  0.10620000  0.96940000  1.0 0.5696290837
C  C236  1  0.74740000  0.39380000  0.46940000  1.0 0.5696290837
C  C237  1  0.15750000  0.35410000  0.53240000  1.0 -0.0993554583
C  C238  1  0.15750000  0.14590000  0.03240000  1.0 -0.0993554583
C  C239  1  0.14350000  0.49720000  0.34830000  1.0 -0.1898419021
C  C240  1  0.14350000  0.00280000  0.84830000  1.0 -0.1898419021
C  C241  1  0.58760000  0.00730000  0.78670000  1.0 -0.0818562566
C  C242  1  0.58760000  0.49270000  0.28670000  1.0 -0.0818562566
C  C243  1  0.43720000  0.85420000  0.57850000  1.0 -0.1898419021
C  C244  1  0.43720000  0.64580000  0.07850000  1.0 -0.1898419021
C  C245  1  0.13470000  0.46650000  0.35650000  1.0 -0.0901595302
C  C246  1  0.13470000  0.03350000  0.85650000  1.0 -0.0901595302
C  C247  1  0.70120000  0.97360000  0.32510000  1.0 -0.0818562566
C  C248  1  0.70120000  0.52640000  0.82510000  1.0 -0.0818562566
C  C249  1  0.22660000  0.55300000  0.87450000  1.0 0.5395581939
C  C250  1  0.22660000  0.94700000  0.37450000  1.0 0.5395581939
C  C251  1  0.61390000  0.19180000  0.85850000  1.0 0.5696290837
C  C252  1  0.61390000  0.30820000  0.35850000  1.0 0.5696290837
C  C253  1  0.54550000  0.24520000  0.86180000  1.0 -0.1121464835
C  C254  1  0.54550000  0.25480000  0.36180000  1.0 -0.1121464835
C  C255  1  0.75770000  0.00740000  0.38000000  1.0 -0.0818562566
C  C256  1  0.75770000  0.49260000  0.88000000  1.0 -0.0818562566
C  C257  1  0.66630000  0.13010000  0.01520000  1.0 -0.0901595302
C  C258  1  0.66630000  0.36990000  0.51520000  1.0 -0.0901595302
C  C259  1  0.67870000  0.95550000  0.82880000  1.0 -0.1712621264
C  C260  1  0.67870000  0.54450000  0.32880000  1.0 -0.1712621264
C  C261  1  0.80870000  0.25340000  0.27200000  1.0 -0.1712621264
C  C262  1  0.80870000  0.24660000  0.77200000  1.0 -0.1712621264
C  C263  1  0.74940000  0.95060000  0.39260000  1.0 0.5395581939
C  C264  1  0.74940000  0.54940000  0.89260000  1.0 0.5395581939
C  C265  1  0.25590000  0.88030000  0.48200000  1.0 0.5696290837
C  C266  1  0.25590000  0.61970000  0.98200000  1.0 0.5696290837
C  C267  1  0.65140000  0.13280000  0.05050000  1.0 -0.2097235388
C  C268  1  0.65140000  0.36720000  0.55050000  1.0 -0.2097235388
C  C269  1  0.84030000  0.28170000  0.28920000  1.0 -0.0901595302
C  C270  1  0.84030000  0.21830000  0.78920000  1.0 -0.0901595302
C  C271  1  0.46890000  0.21440000  0.80540000  1.0 -0.0901595302
C  C272  1  0.46890000  0.28560000  0.30540000  1.0 -0.0901595302
C  C273  1  0.22080000  0.73570000  0.03520000  1.0 -0.0901595302
C  C274  1  0.22080000  0.76430000  0.53520000  1.0 -0.0901595302
C  C275  1  0.93220000  0.01301000  0.93740000  1.0 0.0622061934
C  C276  1  0.93220000  0.48699000  0.43740000  1.0 0.0622061934
C  C277  1  0.06750000  0.04966000  0.95620000  1.0 0.068917437
C  C278  1  0.06750000  0.45034000  0.45620000  1.0 0.068917437
C  C279  1  0.13500000  0.02550000  0.96930000  1.0 -0.1397169739
C  C280  1  0.13500000  0.47450000  0.46930000  1.0 -0.1397169739
C  C281  1  0.10120000  0.99510000  0.96650000  1.0 -0.0463202365
C  C282  1  0.10120000  0.50490000  0.46650000  1.0 -0.0463202365
C  C283  1  0.99970000  0.98888000  0.95050000  1.0 -0.1397169739
C  C284  1  0.99970000  0.51112000  0.45050000  1.0 -0.1397169739
C  C285  1  0.23890000  0.72720000  0.00100000  1.0 -0.2265931747
C  C286  1  0.23890000  0.77280000  0.50100000  1.0 -0.2265931747
C  C287  1  0.18230000  0.30390000  0.40080000  1.0 0.068917437
C  C288  1  0.18230000  0.19610000  0.90080000  1.0 0.068917437
C  C289  1  0.19020000  0.33420000  0.34500000  1.0 0.0622061934
C  C290  1  0.19020000  0.16580000  0.84500000  1.0 0.0622061934
C  C291  1  0.26080000  0.31380000  0.33940000  1.0 -0.1496325875
C  C292  1  0.26080000  0.18620000  0.83940000  1.0 -0.1496325875
C  C293  1  0.29210000  0.28860000  0.36450000  1.0 -0.0384990534
C  C294  1  0.29210000  0.21140000  0.86450000  1.0 -0.0384990534
C  C295  1  0.25280000  0.28360000  0.39520000  1.0 -0.1496325875
C  C296  1  0.25280000  0.21640000  0.89520000  1.0 -0.1496325875
C  C297  1  0.08800000  0.69720000  0.01870000  1.0 0.0277400597
C  C298  1  0.08800000  0.80280000  0.51870000  1.0 0.0277400597
C  C299  1  0.13890000  0.72080000  0.04520000  1.0 -0.0301038698
C  C300  1  0.13890000  0.77920000  0.54520000  1.0 -0.0301038698
C  C301  1  0.18290000  0.70150000  0.98010000  1.0 -0.0200086057
C  C302  1  0.18290000  0.79850000  0.48010000  1.0 -0.0200086057
C  C303  1  0.44540000  0.11830000  0.86550000  1.0 0.0503915845
C  C304  1  0.44540000  0.38170000  0.36550000  1.0 0.0503915845
C  C305  1  0.56500000  0.08110000  0.90340000  1.0 0.079445544
C  C306  1  0.56500000  0.41890000  0.40340000  1.0 0.079445544
C  C307  1  0.49840000  0.07210000  0.92280000  1.0 -0.1397169739
C  C308  1  0.49840000  0.42790000  0.42280000  1.0 -0.1397169739
C  C309  1  0.40530000  0.08610000  0.91350000  1.0 -0.0463202365
C  C310  1  0.40530000  0.41390000  0.41350000  1.0 -0.0463202365
C  C311  1  0.37890000  0.10920000  0.88490000  1.0 -0.1496325875
C  C312  1  0.37890000  0.39080000  0.38490000  1.0 -0.1496325875
C  C313  1  0.20390000  0.71450000  0.05390000  1.0 -0.0901595302
C  C314  1  0.20390000  0.78550000  0.55390000  1.0 -0.0901595302
C  C315  1  0.15510000  0.68870000  0.03110000  1.0 0.0277400597
C  C316  1  0.15510000  0.81130000  0.53110000  1.0 0.0277400597
C  C317  1  0.03150000  0.70408000  0.52710000  1.0 0.0503915845
C  C318  1  0.03150000  0.79592000  0.02710000  1.0 0.0503915845
C  C319  1  0.97340000  0.71570000  0.49050000  1.0 -0.1496325875
C  C320  1  0.97340000  0.78430000  0.99050000  1.0 -0.1496325875
C  C321  1  0.99939000  0.70950000  0.45669000  1.0 -0.0384990534
C  C322  1  0.99939000  0.79050000  0.95669000  1.0 -0.0384990534
C  C323  1  0.08335000  0.69180000  0.45945000  1.0 -0.1294516741
C  C324  1  0.08335000  0.80820000  0.95945000  1.0 -0.1294516741
C  C325  1  0.14133000  0.68018000  0.49603000  1.0 0.0622061934
C  C326  1  0.14133000  0.81982000  0.99603000  1.0 0.0622061934
C  C327  1  0.34560000  0.25199000  0.65180000  1.0 0.2582525232
C  C328  1  0.34560000  0.24801000  0.15180000  1.0 0.2582525232
C  C329  1  0.26170000  0.65415000  0.26390000  1.0 -0.002307708
C  C330  1  0.26170000  0.84585000  0.76390000  1.0 -0.002307708
C  C331  1  0.78350000  0.85819000  0.79750000  1.0 -0.0095499041
C  C332  1  0.78350000  0.64181000  0.29750000  1.0 -0.0095499041
C  C333  1  0.77360000  0.89391000  0.74430000  1.0 -0.0200086057
C  C334  1  0.77360000  0.60609000  0.24430000  1.0 -0.0200086057
C  C335  1  0.97300000  0.12992000  0.24570000  1.0 -0.0095499041
C  C336  1  0.97300000  0.37008000  0.74570000  1.0 -0.0095499041
C  C337  1  0.96460000  0.10089000  0.18660000  1.0 -0.0200086057
C  C338  1  0.96460000  0.39911000  0.68660000  1.0 -0.0200086057
C  C339  1  0.54780000  0.33945000  0.78720000  1.0 -0.0095499041
C  C340  1  0.54780000  0.16055000  0.28720000  1.0 -0.0095499041
C  C341  1  0.53770000  0.31189000  0.76570000  1.0 -0.1496325875
C  C342  1  0.53770000  0.18811000  0.26570000  1.0 -0.1496325875
C  C343  1  0.95380000  0.88762000  0.93110000  1.0 -0.1898419021
C  C344  1  0.95380000  0.61238000  0.43110000  1.0 -0.1898419021
C  C345  1  0.96890000  0.15711000  0.22430000  1.0 -0.1397169739
C  C346  1  0.96890000  0.34289000  0.72430000  1.0 -0.1397169739
C  C347  1  0.72340000  0.84065000  0.72960000  1.0 -0.0200086057
C  C348  1  0.72340000  0.65935000  0.22960000  1.0 -0.0200086057
C  C349  1  0.46750000  0.36757000  0.72660000  1.0 -0.0095499041
C  C350  1  0.46750000  0.13243000  0.22660000  1.0 -0.0095499041
C  C351  1  0.79410000  0.88780000  0.78450000  1.0 -0.1294516741
C  C352  1  0.79410000  0.61220000  0.28450000  1.0 -0.1294516741
C  C353  1  0.98030000  0.07155000  0.16720000  1.0 0.4592735935
C  C354  1  0.98030000  0.42845000  0.66720000  1.0 0.4592735935
C  C355  1  0.26260000  0.63348000  0.23400000  1.0 -0.1397169739
C  C356  1  0.26260000  0.86652000  0.73400000  1.0 -0.1397169739
C  C357  1  0.95930000  0.15675000  0.18450000  1.0 -0.0095499041
C  C358  1  0.95930000  0.34325000  0.68450000  1.0 -0.0200086057
C  C359  1  0.74880000  0.83445000  0.76980000  1.0 -0.1397169739
C  C360  1  0.74880000  0.66555000  0.26980000  1.0 -0.1397169739
C  C361  1  0.05500000  0.11350000  0.47760000  1.0 0.5783619725
C  C362  1  0.05500000  0.38650000  0.97760000  1.0 0.5783619725
C  C363  1  0.76990000  0.96415000  0.67960000  1.0 0.2288349102
C  C364  1  0.76990000  0.53585000  0.17960000  1.0 0.2288349102
C  C365  1  0.27760000  0.64337000  0.30250000  1.0 -0.1496325875
C  C366  1  0.27760000  0.85663000  0.80250000  1.0 -0.1496325875
C  C367  1  0.29090000  0.59110000  0.28030000  1.0 -0.1712621264
C  C368  1  0.29090000  0.90890000  0.78030000  1.0 -0.1712621264
C  C369  1  0.97000000  0.10168000  0.22670000  1.0 -0.1791857165
C  C370  1  0.97000000  0.39832000  0.72670000  1.0 -0.1791857165
C  C371  1  0.47350000  0.28107000  0.70460000  1.0 0.4496281342
C  C372  1  0.47350000  0.21893000  0.20460000  1.0 0.4496281342
C  C373  1  0.45770000  0.33976000  0.70570000  1.0 -0.1397169739
C  C374  1  0.45770000  0.16024000  0.20570000  1.0 -0.1397169739
C  C375  1  0.25130000  0.20079000  0.60710000  1.0 -0.0384990534
C  C376  1  0.25130000  0.29921000  0.10710000  1.0 -0.0384990534
C  C377  1  0.95890000  0.18566000  0.16080000  1.0 0.4496281342
C  C378  1  0.95890000  0.31434000  0.66080000  1.0 0.4496281342
C  C379  1  0.87480000  0.87101000  0.90880000  1.0 0.2288349102
C  C380  1  0.87480000  0.62899000  0.40880000  1.0 0.2288349102
C  C381  1  0.95880000  0.12846000  0.16580000  1.0 -0.1294516741
C  C382  1  0.95880000  0.37154000  0.66580000  1.0 -0.1294516741
C  C383  1  0.92510000  0.87031000  0.99080000  1.0 -0.0301038698
C  C384  1  0.92510000  0.62969000  0.49080000  1.0 -0.0301038698
C  C385  1  0.61070000  0.33995000  0.83010000  1.0 0.4592735935
C  C386  1  0.61070000  0.16005000  0.33010000  1.0 0.4592735935
C  C387  1  0.79090000  0.92677000  0.73450000  1.0 0.4496281342
C  C388  1  0.79090000  0.57323000  0.23450000  1.0 0.4496281342
C  C389  1  0.25070000  0.53340000  0.14530000  1.0 -0.1998882288
C  C390  1  0.25070000  0.96660000  0.64530000  1.0 -0.1998882288
C  C391  1  0.27750000  0.60162000  0.24220000  1.0 -0.0301038698
C  C392  1  0.27750000  0.89838000  0.74220000  1.0 -0.0301038698
C  C393  1  0.20650000  0.72934000  0.20640000  1.0 0.2389807856
C  C394  1  0.20650000  0.77066000  0.70640000  1.0 0.2389807856
C  C395  1  0.99680000  0.10870000  0.35190000  1.0 0.2389807856
C  C396  1  0.99680000  0.39130000  0.85190000  1.0 0.2389807856
C  C397  1  0.59550000  0.76523000  0.69070000  1.0 0.2288349102
C  C398  1  0.59550000  0.73477000  0.19070000  1.0 0.2288349102
C  C399  1  0.29130000  0.61208000  0.31050000  1.0 -0.0095499041
C  C400  1  0.29130000  0.88792000  0.81050000  1.0 -0.0095499041
C  C401  1  0.66950000  0.81777000  0.69880000  1.0 0.4496281342
C  C402  1  0.66950000  0.68223000  0.19880000  1.0 0.4496281342
C  C403  1  0.48780000  0.31196000  0.72460000  1.0 -0.0200086057
C  C404  1  0.48780000  0.18804000  0.22460000  1.0 -0.0200086057
C  C405  1  0.51120000  0.36702000  0.76780000  1.0 -0.1791857165
C  C406  1  0.51120000  0.13298000  0.26780000  1.0 -0.1791857165
C  C407  1  0.73650000  0.87054000  0.71700000  1.0 -0.1624513499
C  C408  1  0.73650000  0.62946000  0.21700000  1.0 -0.1624513499
C  C409  1  0.14490000  0.78707000  0.17160000  1.0 -0.0384990534
C  C410  1  0.14490000  0.71293000  0.67160000  1.0 -0.0384990534
C  C411  1  0.23710000  0.68809000  0.25650000  1.0 0.4671958678
C  C412  1  0.23710000  0.81191000  0.75650000  1.0 0.4671958678
C  C413  1  0.10130000  0.81648000  0.15210000  1.0 0.5601942905
C  C414  1  0.10130000  0.68352000  0.65210000  1.0 0.5601942905
C  C415  1  0.04180000  0.97302000  0.15740000  1.0 -0.0993554583
C  C416  1  0.04180000  0.52698000  0.65740000  1.0 -0.0993554583
C  C417  1  0.03400000  0.11040000  0.43340000  1.0 -0.0200086057
C  C418  1  0.03400000  0.38960000  0.93340000  1.0 -0.0200086057
C  C419  1  0.69980000  0.37280000  0.97490000  1.0 -0.0301038698
C  C420  1  0.69980000  0.12720000  0.47490000  1.0 -0.0301038698
C  C421  1  0.98290000  0.88702000  0.97250000  1.0 -0.0993554583
C  C422  1  0.98290000  0.61298000  0.47250000  1.0 -0.0993554583
C  C423  1  0.28270000  0.52760000  0.18580000  1.0 0.2288349102
C  C424  1  0.28270000  0.97240000  0.68580000  1.0 0.2288349102
C  C425  1  0.74600000  0.96650000  0.63880000  1.0 -0.2097235388
C  C426  1  0.74600000  0.53350000  0.13880000  1.0 -0.2097235388
C  C427  1  0.30190000  0.61190000  0.41770000  1.0 0.2716005959
C  C428  1  0.30190000  0.88810000  0.91770000  1.0 0.2716005959
C  C429  1  0.88270000  0.30160000  0.13270000  1.0 -0.0463202365
C  C430  1  0.88270000  0.19840000  0.63270000  1.0 -0.0463202365
C  C431  1  0.24640000  0.25398000  0.62670000  1.0 -0.1998882288
C  C432  1  0.24640000  0.24602000  0.12670000  1.0 -0.1998882288
C  C433  1  0.43010000  0.39655000  0.70330000  1.0 0.4496281342
C  C434  1  0.43010000  0.10345000  0.20330000  1.0 0.4496281342
C  C435  1  0.28070000  0.58194000  0.20800000  1.0 0.4496281342
C  C436  1  0.28070000  0.91806000  0.70800000  1.0 0.4496281342
C  C437  1  0.76560000  0.02160000  0.64350000  1.0 -0.0200086057
C  C438  1  0.76560000  0.47840000  0.14350000  1.0 -0.0200086057
C  C439  1  0.22770000  0.58669000  0.46180000  1.0 -0.0901595302
C  C440  1  0.22770000  0.91331000  0.96180000  1.0 -0.0901595302
C  C441  1  0.39610000  0.45180000  0.70680000  1.0 0.2389807856
C  C442  1  0.39610000  0.04820000  0.20680000  1.0 0.2389807856
C  C443  1  0.27400000  0.60730000  0.49220000  1.0 -0.0604760952
C  C444  1  0.27400000  0.89270000  0.99220000  1.0 -0.0604760952
C  C445  1  0.95780000  0.95386000  0.14580000  1.0 -0.0301038698
C  C446  1  0.95780000  0.54614000  0.64580000  1.0 -0.0301038698
C  C447  1  0.96620000  0.92056000  0.13590000  1.0 0.5451077887
C  C448  1  0.96620000  0.57944000  0.63590000  1.0 0.5451077887
C  C449  1  0.26640000  0.47790000  0.13440000  1.0 -0.0384990534
C  C450  1  0.26640000  0.02210000  0.63440000  1.0 -0.0384990534
C  C451  1  0.29260000  0.59799000  0.34960000  1.0 0.4592735935
C  C452  1  0.29260000  0.90201000  0.84960000  1.0 0.4592735935
C  C453  1  0.20230000  0.22861000  0.60480000  1.0 -0.0993554583
C  C454  1  0.20230000  0.27139000  0.10480000  1.0 -0.0993554583
C  C455  1  0.03200000  0.00360000  0.16630000  1.0 -0.1712621264
C  C456  1  0.03200000  0.49640000  0.66630000  1.0 -0.1712621264
C  C457  1  0.39740000  0.22410000  0.65380000  1.0 -0.1898419021
C  C458  1  0.39740000  0.27590000  0.15380000  1.0 -0.1898419021
C  C459  1  0.34790000  0.19900000  0.63150000  1.0 -0.0993554583
C  C460  1  0.34790000  0.30100000  0.13150000  1.0 -0.0993554583
C  C461  1  0.78860000  0.01910000  0.68430000  1.0 -0.0901595302
C  C462  1  0.78860000  0.48090000  0.18430000  1.0 -0.0901595302
C  C463  1  0.90500000  0.24010000  0.15760000  1.0 0.2463565462
C  C464  1  0.90500000  0.25990000  0.65760000  1.0 0.2463565462
C  C465  1  0.95170000  0.13070000  0.36830000  1.0 -0.1496325875
C  C466  1  0.95170000  0.36930000  0.86830000  1.0 -0.1496325875
C  C467  1  0.98130000  0.13390000  0.28840000  1.0 0.4496281342
C  C468  1  0.98130000  0.36610000  0.78840000  1.0 0.4496281342
C  C469  1  0.79160000  0.99077000  0.70220000  1.0 -0.1898419021
C  C470  1  0.79160000  0.50923000  0.20220000  1.0 -0.1898419021
C  C471  1  0.95360000  0.28320000  0.12610000  1.0 -0.0901595302
C  C472  1  0.95360000  0.21680000  0.62610000  1.0 -0.0901595302
C  C473  1  0.94130000  0.01575000  0.16330000  1.0 0.2288349102
C  C474  1  0.94130000  0.48425000  0.66330000  1.0 0.2288349102
C  C475  1  0.05160000  0.41150000  0.10960000  1.0 0.5175056228
C  C476  1  0.05160000  0.08850000  0.60960000  1.0 0.5175056228
C  C477  1  0.96610000  0.25240000  0.13860000  1.0 -0.1898419021
C  C478  1  0.96610000  0.24760000  0.63860000  1.0 -0.1898419021
C  C479  1  0.07550000  0.08730000  0.41700000  1.0 -0.0901595302
C  C480  1  0.07550000  0.41270000  0.91700000  1.0 -0.0901595302
C  C481  1  0.74620000  0.99490000  0.62120000  1.0 -0.0818562566
C  C482  1  0.74620000  0.50510000  0.12120000  1.0 -0.0818562566
C  C483  1  0.75250000  0.37710000  0.94950000  1.0 -0.1121464835
C  C484  1  0.75250000  0.12290000  0.44950000  1.0 -0.1121464835
C  C485  1  0.44020000  0.47810000  0.72760000  1.0 -0.2097235388
C  C486  1  0.44020000  0.02190000  0.22760000  1.0 -0.2097235388
C  C487  1  0.24000000  0.58880000  0.42450000  1.0 -0.1998882288
C  C488  1  0.24000000  0.91120000  0.92450000  1.0 -0.1998882288
C  C489  1  0.30740000  0.49800000  0.20060000  1.0 -0.2097235388
C  C490  1  0.30740000  0.00200000  0.70060000  1.0 -0.2097235388
C  C491  1  0.28360000  0.60590000  0.74170000  1.0 0.079445544
C  C492  1  0.28360000  0.89410000  0.24170000  1.0 0.079445544
C  C493  1  0.26080000  0.61280000  0.77600000  1.0 -0.1294516741
C  C494  1  0.26080000  0.88720000  0.27600000  1.0 -0.1294516741
C  C495  1  0.27810000  0.64240000  0.79220000  1.0 -0.0301038698
C  C496  1  0.27810000  0.85760000  0.29220000  1.0 -0.0301038698
C  C497  1  0.31810000  0.66510000  0.77400000  1.0 -0.1496325875
C  C498  1  0.31810000  0.83490000  0.27400000  1.0 -0.1496325875
C  C499  1  0.34080000  0.65817000  0.73970000  1.0 0.068917437
C  C500  1  0.34080000  0.84183000  0.23970000  1.0 0.068917437
C  C501  1  0.61470000  0.35880000  0.89590000  1.0 0.2288349102
C  C502  1  0.61470000  0.14120000  0.39590000  1.0 0.2288349102
C  C503  1  0.71140000  0.37040000  0.90910000  1.0 -0.1898419021
C  C504  1  0.71140000  0.12960000  0.40910000  1.0 -0.1898419021
C  C505  1  0.86950000  0.33400000  0.11850000  1.0 0.5696290837
C  C506  1  0.86950000  0.16600000  0.61850000  1.0 0.5696290837
C  C507  1  0.95400000  0.86838000  0.03550000  1.0 0.5601942905
C  C508  1  0.95400000  0.63162000  0.53550000  1.0 0.5601942905
C  C509  1  0.60480000  0.36120000  0.96150000  1.0 -0.0901595302
C  C510  1  0.60480000  0.13880000  0.46150000  1.0 -0.0901595302
C  C511  1  0.82860000  0.25850000  0.16360000  1.0 -0.1898419021
C  C512  1  0.82860000  0.24150000  0.66360000  1.0 -0.1898419021
C  C513  1  0.79730000  0.85129000  0.84050000  1.0 0.4671958678
C  C514  1  0.79730000  0.64871000  0.34050000  1.0 0.4671958678
C  C515  1  0.34790000  0.07020000  0.52360000  1.0 0.068917437
C  C516  1  0.34790000  0.42980000  0.02360000  1.0 0.068917437
C  C517  1  0.43830000  0.05950000  0.52090000  1.0 -0.1496325875
C  C518  1  0.43830000  0.44050000  0.02090000  1.0 -0.1496325875
C  C519  1  0.52580000  0.07570000  0.53940000  1.0 -0.0301038698
C  C520  1  0.52580000  0.42430000  0.03940000  1.0 -0.0301038698
C  C521  1  0.52300000  0.10250000  0.56060000  1.0 -0.1183953515
C  C522  1  0.52300000  0.39750000  0.06060000  1.0 -0.1183953515
C  C523  1  0.43270000  0.11320000  0.56330000  1.0 0.068917437
C  C524  1  0.43270000  0.38680000  0.06330000  1.0 0.068917437
C  C525  1  0.20110000  0.73530000  0.16780000  1.0 -0.1998882288
C  C526  1  0.20110000  0.76470000  0.66780000  1.0 -0.1998882288
C  C527  1  0.19680000  0.17269000  0.58510000  1.0 0.5944659778
C  C528  1  0.19680000  0.32731000  0.08510000  1.0 0.5944659778
C  C529  1  0.60010000  0.73790000  0.71100000  1.0 -0.2097235388
C  C530  1  0.60010000  0.76210000  0.21100000  1.0 -0.2097235388
C  C531  1  0.05880000  0.08690000  0.37620000  1.0 -0.1998882288
C  C532  1  0.05880000  0.41310000  0.87620000  1.0 -0.1998882288
C  C533  1  0.29190000  0.48500000  0.65590000  1.0 -0.0901595302
C  C534  1  0.29190000  0.01500000  0.15590000  1.0 -0.0901595302
C  C535  1  0.45920000  0.71750000  0.65830000  1.0 -0.0463202365
C  C536  1  0.45920000  0.78250000  0.15830000  1.0 -0.0463202365
C  C537  1  0.31320000  0.54260000  0.65870000  1.0 0.5783619725
C  C538  1  0.31320000  0.95740000  0.15870000  1.0 0.5783619725
C  C539  1  0.33970000  0.51120000  0.67660000  1.0 -0.0463202365
C  C540  1  0.33970000  0.98880000  0.17660000  1.0 -0.0463202365
C  C541  1  0.96760000  0.13170000  0.40820000  1.0 -0.0993554583
C  C542  1  0.96760000  0.36830000  0.90820000  1.0 -0.0993554583
C  C543  1  0.52230000  0.76890000  0.65390000  1.0 -0.1998882288
C  C544  1  0.52230000  0.73110000  0.15390000  1.0 -0.1998882288
C  C545  1  0.16910000  0.76370000  0.15060000  1.0 -0.1183953515
C  C546  1  0.16910000  0.73630000  0.65060000  1.0 -0.1183953515
C  C547  1  0.81710000  0.28880000  0.15170000  1.0 -0.0901595302
C  C548  1  0.81710000  0.21120000  0.65170000  1.0 -0.0901595302
C  C549  1  0.81650000  0.85430000  0.92670000  1.0 -0.1791857165
C  C550  1  0.81650000  0.64570000  0.42670000  1.0 -0.1791857165
C  C551  1  0.25260000  0.60620000  0.53060000  1.0 0.5696290837
C  C552  1  0.25260000  0.89380000  0.03060000  1.0 0.5696290837
C  C553  1  0.84250000  0.85410000  0.96760000  1.0 -0.0993554583
C  C554  1  0.84250000  0.64590000  0.46760000  1.0 -0.0993554583
C  C555  1  0.85650000  0.99720000  0.15170000  1.0 -0.1898419021
C  C556  1  0.85650000  0.50280000  0.65170000  1.0 -0.1898419021
C  C557  1  0.41240000  0.50730000  0.71330000  1.0 -0.0818562566
C  C558  1  0.41240000  0.99270000  0.21330000  1.0 -0.0818562566
C  C559  1  0.56280000  0.35420000  0.92150000  1.0 -0.1898419021
C  C560  1  0.56280000  0.14580000  0.42150000  1.0 -0.1898419021
C  C561  1  0.86530000  0.96650000  0.14350000  1.0 -0.0901595302
C  C562  1  0.86530000  0.53350000  0.64350000  1.0 -0.0901595302
C  C563  1  0.29880000  0.47360000  0.17490000  1.0 -0.0818562566
C  C564  1  0.29880000  0.02640000  0.67490000  1.0 -0.0818562566
C  C565  1  0.77340000  0.05300000  0.62550000  1.0 0.5395581939
C  C566  1  0.77340000  0.44700000  0.12550000  1.0 0.5395581939
C  C567  1  0.38610000  0.69180000  0.64150000  1.0 0.5696290837
C  C568  1  0.38610000  0.80820000  0.14150000  1.0 0.5696290837
C  C569  1  0.45450000  0.74520000  0.63820000  1.0 -0.1121464835
C  C570  1  0.45450000  0.75480000  0.13820000  1.0 -0.1121464835
C  C571  1  0.24230000  0.50740000  0.12000000  1.0 -0.0818562566
C  C572  1  0.24230000  0.99260000  0.62000000  1.0 -0.0818562566
C  C573  1  0.33370000  0.63010000  0.48480000  1.0 -0.0901595302
C  C574  1  0.33370000  0.86990000  0.98480000  1.0 -0.0901595302
C  C575  1  0.32130000  0.45550000  0.67120000  1.0 -0.1712621264
C  C576  1  0.32130000  0.04450000  0.17120000  1.0 -0.1712621264
C  C577  1  0.19130000  0.75340000  0.22800000  1.0 -0.1712621264
C  C578  1  0.19130000  0.74660000  0.72800000  1.0 -0.1712621264
C  C579  1  0.25060000  0.45060000  0.10740000  1.0 0.5395581939
C  C580  1  0.25060000  0.04940000  0.60740000  1.0 0.5395581939
C  C581  1  0.74410000  0.38030000  0.01800000  1.0 0.5696290837
C  C582  1  0.74410000  0.11970000  0.51800000  1.0 0.5696290837
C  C583  1  0.34860000  0.63280000  0.44950000  1.0 -0.2097235388
C  C584  1  0.34860000  0.86720000  0.94950000  1.0 -0.2097235388
C  C585  1  0.15970000  0.78170000  0.21080000  1.0 -0.0901595302
C  C586  1  0.15970000  0.71830000  0.71080000  1.0 -0.0901595302
C  C587  1  0.53110000  0.71440000  0.69460000  1.0 -0.0901595302
C  C588  1  0.53110000  0.78560000  0.19460000  1.0 -0.0901595302
C  C589  1  0.77920000  0.23570000  0.46480000  1.0 -0.0901595302
C  C590  1  0.77920000  0.26430000  0.96480000  1.0 -0.0901595302
C  C591  1  0.06780000  0.51301000  0.56260000  1.0 0.0622061934
C  C592  1  0.06780000  0.98699000  0.06260000  1.0 0.0622061934
C  C593  1  0.93250000  0.54966000  0.54380000  1.0 0.068917437
C  C594  1  0.93250000  0.95034000  0.04380000  1.0 0.068917437
C  C595  1  0.86500000  0.52550000  0.53070000  1.0 -0.1397169739
C  C596  1  0.86500000  0.97450000  0.03070000  1.0 -0.1397169739
C  C597  1  0.89880000  0.49510000  0.53350000  1.0 -0.0463202365
C  C598  1  0.89880000  0.00490000  0.03350000  1.0 -0.0463202365
C  C599  1  0.00030000  0.48888000  0.54950000  1.0 -0.1397169739
C  C600  1  0.00030000  0.01112000  0.04950000  1.0 -0.1397169739
C  C601  1  0.76110000  0.22720000  0.49900000  1.0 -0.2265931747
C  C602  1  0.76110000  0.27280000  0.99900000  1.0 -0.2265931747
C  C603  1  0.81770000  0.80390000  0.09920000  1.0 0.068917437
C  C604  1  0.81770000  0.69610000  0.59920000  1.0 0.068917437
C  C605  1  0.80980000  0.83420000  0.15500000  1.0 0.0622061934
C  C606  1  0.80980000  0.66580000  0.65500000  1.0 0.0622061934
C  C607  1  0.73920000  0.81380000  0.16060000  1.0 -0.1496325875
C  C608  1  0.73920000  0.68620000  0.66060000  1.0 -0.1496325875
C  C609  1  0.70790000  0.78860000  0.13550000  1.0 -0.0384990534
C  C610  1  0.70790000  0.71140000  0.63550000  1.0 -0.0463202365
C  C611  1  0.74720000  0.78360000  0.10480000  1.0 -0.1496325875
C  C612  1  0.74720000  0.71640000  0.60480000  1.0 -0.1496325875
C  C613  1  0.91200000  0.19720000  0.48130000  1.0 0.0277400597
C  C614  1  0.91200000  0.30280000  0.98130000  1.0 0.0277400597
C  C615  1  0.86110000  0.22080000  0.45480000  1.0 -0.0301038698
C  C616  1  0.86110000  0.27920000  0.95480000  1.0 -0.0301038698
C  C617  1  0.81710000  0.20150000  0.51990000  1.0 -0.0200086057
C  C618  1  0.81710000  0.29850000  0.01990000  1.0 -0.0200086057
C  C619  1  0.55460000  0.61830000  0.63450000  1.0 0.0503915845
C  C620  1  0.55460000  0.88170000  0.13450000  1.0 0.0503915845
C  C621  1  0.43500000  0.58110000  0.59660000  1.0 0.079445544
C  C622  1  0.43500000  0.91890000  0.09660000  1.0 0.079445544
C  C623  1  0.50160000  0.57210000  0.57720000  1.0 -0.1397169739
C  C624  1  0.50160000  0.92790000  0.07720000  1.0 -0.1397169739
C  C625  1  0.59470000  0.58610000  0.58650000  1.0 -0.0463202365
C  C626  1  0.59470000  0.91390000  0.08650000  1.0 -0.0463202365
C  C627  1  0.62110000  0.60920000  0.61510000  1.0 -0.1496325875
C  C628  1  0.62110000  0.89080000  0.11510000  1.0 -0.1496325875
C  C629  1  0.79610000  0.21450000  0.44610000  1.0 -0.0901595302
C  C630  1  0.79610000  0.28550000  0.94610000  1.0 -0.0901595302
C  C631  1  0.84490000  0.18870000  0.46890000  1.0 0.0277400597
C  C632  1  0.84490000  0.31130000  0.96890000  1.0 0.0277400597
N  N1  1  0.57180000  0.92226000  0.77650000  1.0 -0.3785906267
N  N2  1  0.57180000  0.57774000  0.27650000  1.0 -0.3785906267
N  N3  1  0.33506000  0.28826000  0.78996000  1.0 -0.3627127738
N  N4  1  0.33506000  0.21174000  0.28996000  1.0 -0.3627127738
N  N5  1  0.61386000  0.77841000  0.82576000  1.0 -0.3693433764
N  N6  1  0.61386000  0.72159000  0.32576000  1.0 -0.3693433764
N  N7  1  0.01526000  0.60792000  0.18936000  1.0 -0.3937544531
N  N8  1  0.01526000  0.89208000  0.68936000  1.0 -0.3937544531
N  N9  1  0.76333000  0.19923000  0.27923000  1.0 -0.3627127738
N  N10  1  0.76333000  0.30077000  0.77923000  1.0 -0.3627127738
N  N11  1  0.11820000  0.68610000  0.99010000  1.0 -0.1712621264
N  N12  1  0.11820000  0.81390000  0.49010000  1.0 -0.1712621264
N  N13  1  0.71090000  0.05131000  0.28540000  1.0 -0.3785906267
N  N14  1  0.71090000  0.44869000  0.78540000  1.0 -0.3785906267
N  N15  1  0.15078000  0.37258000  0.63298000  1.0 -0.3627127738
N  N16  1  0.15078000  0.12742000  0.13298000  1.0 -0.3627127738
N  N17  1  0.88456000  0.18634000  0.97016000  1.0 -0.3126087493
N  N18  1  0.88456000  0.31366000  0.47016000  1.0 -0.3126087493
N  N19  1  0.43143000  0.85298000  0.64523000  1.0 -0.3537422351
N  N20  1  0.43143000  0.64702000  0.14523000  1.0 -0.3537422351
N  N21  1  0.08600000  0.70965000  0.32740000  1.0 -0.3693433764
N  N22  1  0.08600000  0.79035000  0.82740000  1.0 -0.3693433764
N  N23  1  0.23230000  0.43422000  0.80470000  1.0 -0.3785906267
N  N24  1  0.23230000  0.06578000  0.30470000  1.0 -0.3785906267
N  N25  1  0.68710000  0.11780000  0.11910000  1.0 -0.3693433764
N  N26  1  0.68710000  0.38220000  0.61910000  1.0 -0.3693433764
N  N27  1  0.06850000  0.54666000  0.32510000  1.0 -0.3693433764
N  N28  1  0.06850000  0.95334000  0.82510000  1.0 -0.3693433764
N  N29  1  0.67650000  0.12860000  0.77650000  1.0 -0.2454098395
N  N30  1  0.67650000  0.37140000  0.27650000  1.0 -0.2454098395
N  N31  1  0.65490000  0.59700000  0.95520000  1.0 -0.2620238631
N  N32  1  0.65490000  0.90300000  0.45520000  1.0 -0.2620238631
N  N33  1  0.96608000  0.04340000  0.94028000  1.0 -0.2995100997
N  N34  1  0.96608000  0.45660000  0.44028000  1.0 -0.2995100997
N  N35  1  0.15100000  0.32920000  0.37570000  1.0 -0.2696129016
N  N36  1  0.15100000  0.17080000  0.87570000  1.0 -0.2696129016
N  N37  1  0.53850000  0.10420000  0.87470000  1.0 -0.2620238631
N  N38  1  0.53850000  0.39580000  0.37470000  1.0 -0.2620238631
N  N39  1  0.42820000  0.42226000  0.72350000  1.0 -0.3785906267
N  N40  1  0.42820000  0.07774000  0.22350000  1.0 -0.3785906267
N  N41  1  0.66494000  0.78826000  0.71004000  1.0 -0.3627127738
N  N42  1  0.66494000  0.71174000  0.21004000  1.0 -0.3627127738
N  N43  1  0.38614000  0.27841000  0.67424000  1.0 -0.3693433764
N  N44  1  0.38614000  0.22159000  0.17424000  1.0 -0.3693433764
N  N45  1  0.98474000  0.10792000  0.31064000  1.0 -0.3937544531
N  N46  1  0.98474000  0.39208000  0.81064000  1.0 -0.3937544531
N  N47  1  0.23667000  0.69923000  0.22077000  1.0 -0.3627127738
N  N48  1  0.23667000  0.80077000  0.72077000  1.0 -0.3627127738
N  N49  1  0.88180000  0.18610000  0.50990000  1.0 -0.1712621264
N  N50  1  0.88180000  0.31390000  0.00990000  1.0 -0.1712621264
N  N51  1  0.28910000  0.55131000  0.21460000  1.0 -0.3785906267
N  N52  1  0.28910000  0.94869000  0.71460000  1.0 -0.3785906267
N  N53  1  0.84922000  0.87258000  0.86702000  1.0 -0.3627127738
N  N54  1  0.84922000  0.62742000  0.36702000  1.0 -0.3627127738
N  N55  1  0.11544000  0.68634000  0.52984000  1.0 -0.3126087493
N  N56  1  0.11544000  0.81366000  0.02984000  1.0 -0.3126087493
N  N57  1  0.56857000  0.35298000  0.85477000  1.0 -0.3537422351
N  N58  1  0.56857000  0.14702000  0.35477000  1.0 -0.3537422351
N  N59  1  0.91400000  0.20965000  0.17260000  1.0 -0.3693433764
N  N60  1  0.91400000  0.29035000  0.67260000  1.0 -0.3693433764
N  N61  1  0.76770000  0.93422000  0.69530000  1.0 -0.3785906267
N  N62  1  0.76770000  0.56578000  0.19530000  1.0 -0.3785906267
N  N63  1  0.31290000  0.61780000  0.38090000  1.0 -0.3693433764
N  N64  1  0.31290000  0.88220000  0.88090000  1.0 -0.3693433764
N  N65  1  0.93150000  0.04666000  0.17490000  1.0 -0.3693433764
N  N66  1  0.93150000  0.45334000  0.67490000  1.0 -0.3693433764
N  N67  1  0.32350000  0.62860000  0.72350000  1.0 -0.2454098395
N  N68  1  0.32350000  0.87140000  0.22350000  1.0 -0.2454098395
N  N69  1  0.34510000  0.09700000  0.54480000  1.0 -0.2620238631
N  N70  1  0.34510000  0.40300000  0.04480000  1.0 -0.2620238631
N  N71  1  0.03392000  0.54340000  0.55972000  1.0 -0.2995100997
N  N72  1  0.03392000  0.95660000  0.05972000  1.0 -0.2995100997
N  N73  1  0.84900000  0.82920000  0.12430000  1.0 -0.2696129016
N  N74  1  0.84900000  0.67080000  0.62430000  1.0 -0.2696129016
N  N75  1  0.46150000  0.60420000  0.62530000  1.0 -0.2620238631
N  N76  1  0.46150000  0.89580000  0.12530000  1.0 -0.2620238631
O  O1  1  0.30351000  0.82961000  0.65981000  1.0 -0.4916716597
O  O2  1  0.30351000  0.67039000  0.15981000  1.0 -0.4916716597
O  O3  1  0.95363000  0.41051000  0.36713000  1.0 -0.5223278733
O  O4  1  0.95363000  0.08949000  0.86713000  1.0 -0.5223278733
O  O5  1  0.93792000  0.89582000  0.41882000  1.0 -0.5508163791
O  O6  1  0.93792000  0.60418000  0.91882000  1.0 -0.5508163791
O  O7  1  0.91566000  0.32000000  0.38496000  1.0 -0.5598239757
O  O8  1  0.91566000  0.18000000  0.88496000  1.0 -0.5598239757
O  O9  1  0.16277000  0.88846000  0.46857000  1.0 -0.5820241503
O  O10  1  0.16277000  0.61154000  0.96857000  1.0 -0.5820241503
O  O11  1  0.75196000  0.04436000  0.87506000  1.0 -0.5508163791
O  O12  1  0.75196000  0.45564000  0.37506000  1.0 -0.5508163791
O  O13  1  0.99351000  0.63177000  0.01001000  1.0 -0.5598239757
O  O14  1  0.99351000  0.86823000  0.51001000  1.0 -0.5598239757
O  O15  1  0.37455000  0.32714000  0.83575000  1.0 -0.5085636309
O  O16  1  0.37455000  0.17286000  0.33575000  1.0 -0.5085636309
O  O17  1  0.23593000  0.32730000  0.65003000  1.0 -0.4916716597
O  O18  1  0.23593000  0.17270000  0.15003000  1.0 -0.4916716597
O  O19  1  0.96676000  0.57122000  0.35396000  1.0 -0.4787673808
O  O20  1  0.96676000  0.92878000  0.85396000  1.0 -0.4787673808
O  O21  1  0.78228000  0.20351000  0.21828000  1.0 -0.4787673808
O  O22  1  0.78228000  0.29649000  0.71828000  1.0 -0.4787673808
O  O23  1  0.10614000  0.35732000  0.45004000  1.0 -0.5044310025
O  O24  1  0.10614000  0.14268000  0.95004000  1.0 -0.5044310025
O  O25  1  0.72650000  0.07083000  0.14800000  1.0 -0.4631381563
O  O26  1  0.72650000  0.42917000  0.64800000  1.0 -0.4631381563
O  O27  1  0.46455000  0.76039000  0.78435000  1.0 -0.4663461379
O  O28  1  0.46455000  0.73961000  0.28435000  1.0 -0.4663461379
O  O29  1  0.00400000  0.68634000  0.36500000  1.0 -0.4507929963
O  O30  1  0.00400000  0.81366000  0.86500000  1.0 -0.4507929963
O  O31  1  0.77824000  0.12094000  0.87264000  1.0 -0.7690593383
O  O32  1  0.77824000  0.37906000  0.37264000  1.0 -0.7690593383
O  O33  1  0.79002000  0.08240000  0.96132000  1.0 -0.5669794611
O  O34  1  0.79002000  0.41760000  0.46132000  1.0 -0.5669794611
O  O35  1  0.30741000  0.87915000  0.45941000  1.0 -0.5223278733
O  O36  1  0.30741000  0.62085000  0.95941000  1.0 -0.5223278733
O  O37  1  0.21320000  0.57639000  0.85380000  1.0 -0.5223278733
O  O38  1  0.21320000  0.92361000  0.35380000  1.0 -0.5223278733
O  O39  1  0.95869000  0.37765000  0.44379000  1.0 -0.6098391048
O  O40  1  0.95869000  0.12235000  0.94379000  1.0 -0.6098391048
O  O41  1  0.08250000  0.84440000  0.40230000  1.0 -0.5669794611
O  O42  1  0.08250000  0.65560000  0.90230000  1.0 -0.5669794611
O  O43  1  0.89380000  0.67558000  0.93140000  1.0 -0.5598239757
O  O44  1  0.89380000  0.82442000  0.43140000  1.0 -0.5598239757
O  O45  1  0.72570000  0.09374000  0.32340000  1.0 -0.4310181222
O  O46  1  0.72570000  0.40626000  0.82340000  1.0 -0.4310181222
O  O47  1  0.75050000  0.64896000  0.91450000  1.0 -0.5508163791
O  O48  1  0.75050000  0.85104000  0.41450000  1.0 -0.5508163791
O  O49  1  0.68130000  0.19605000  0.89150000  1.0 -0.5508163791
O  O50  1  0.68130000  0.30395000  0.39150000  1.0 -0.5508163791
O  O51  1  0.72195000  0.13020000  0.94725000  1.0 -0.5508163791
O  O52  1  0.72195000  0.36980000  0.44725000  1.0 -0.5508163791
O  O53  1  0.22930000  0.55341000  0.91050000  1.0 -0.5392814211
O  O54  1  0.22930000  0.94659000  0.41050000  1.0 -0.5392814211
O  O55  1  0.02130000  0.91367000  0.37950000  1.0 -0.4507929963
O  O56  1  0.02130000  0.58633000  0.87950000  1.0 -0.4507929963
O  O57  1  0.19430000  0.85082000  0.37200000  1.0 -0.5291064985
O  O58  1  0.19430000  0.64918000  0.87200000  1.0 -0.5291064985
O  O59  1  0.10830000  0.40365000  0.36950000  1.0 -0.5291064985
O  O60  1  0.10830000  0.09635000  0.86950000  1.0 -0.5291064985
O  O61  1  0.92460000  0.33691000  0.32820000  1.0 -0.4787673808
O  O62  1  0.92460000  0.16309000  0.82820000  1.0 -0.4787673808
O  O63  1  0.01364000  0.65990000  0.19734000  1.0 -0.4394863851
O  O64  1  0.01364000  0.84010000  0.69734000  1.0 -0.4394863851
O  O65  1  0.17363000  0.44548000  0.73913000  1.0 -0.4394863851
O  O66  1  0.17363000  0.05452000  0.23913000  1.0 -0.4394863851
O  O67  1  0.87529000  0.59635000  0.00179000  1.0 -0.5392814211
O  O68  1  0.87529000  0.90365000  0.50179000  1.0 -0.5392814211
O  O69  1  0.59757000  0.89505000  0.83297000  1.0 -0.4507929963
O  O70  1  0.59757000  0.60495000  0.33297000  1.0 -0.4507929963
O  O71  1  0.71650000  0.92455000  0.37850000  1.0 -0.5508163791
O  O72  1  0.71650000  0.57545000  0.87850000  1.0 -0.5508163791
O  O73  1  0.79370000  0.95382000  0.42910000  1.0 -0.5392814211
O  O74  1  0.79370000  0.54618000  0.92910000  1.0 -0.5392814211
O  O75  1  0.64480000  0.06518000  0.82030000  1.0 -0.5508163791
O  O76  1  0.64480000  0.43482000  0.32030000  1.0 -0.5508163791
O  O77  1  0.60330000  0.16782000  0.83780000  1.0 -0.5598239757
O  O78  1  0.60330000  0.33218000  0.33780000  1.0 -0.5598239757
O  O79  1  0.69649000  0.32961000  0.84019000  1.0 -0.4916716597
O  O80  1  0.69649000  0.17039000  0.34019000  1.0 -0.4916716597
O  O81  1  0.04637000  0.91051000  0.13287000  1.0 -0.5223278733
O  O82  1  0.04637000  0.58949000  0.63287000  1.0 -0.5223278733
O  O83  1  0.06208000  0.39582000  0.08118000  1.0 -0.5508163791
O  O84  1  0.06208000  0.10418000  0.58118000  1.0 -0.5508163791
O  O85  1  0.08434000  0.82000000  0.11504000  1.0 -0.5598239757
O  O86  1  0.08434000  0.68000000  0.61504000  1.0 -0.5598239757
O  O87  1  0.83723000  0.38846000  0.03143000  1.0 -0.5820241503
O  O88  1  0.83723000  0.11154000  0.53143000  1.0 -0.5820241503
O  O89  1  0.24804000  0.54436000  0.62494000  1.0 -0.5508163791
O  O90  1  0.24804000  0.95564000  0.12494000  1.0 -0.5508163791
O  O91  1  0.00649000  0.13177000  0.48999000  1.0 -0.5598239757
O  O92  1  0.00649000  0.36823000  0.98999000  1.0 -0.5598239757
O  O93  1  0.62545000  0.82714000  0.66425000  1.0 -0.5085636309
O  O94  1  0.62545000  0.67286000  0.16425000  1.0 -0.5085636309
O  O95  1  0.76407000  0.82730000  0.84997000  1.0 -0.4916716597
O  O96  1  0.76407000  0.67270000  0.34997000  1.0 -0.4916716597
O  O97  1  0.03324000  0.07122000  0.14604000  1.0 -0.4787673808
O  O98  1  0.03324000  0.42878000  0.64604000  1.0 -0.4787673808
O  O99  1  0.21772000  0.70351000  0.28172000  1.0 -0.4787673808
O  O100  1  0.21772000  0.79649000  0.78172000  1.0 -0.4787673808
O  O101  1  0.89386000  0.85732000  0.04996000  1.0 -0.5044310025
O  O102  1  0.89386000  0.64268000  0.54996000  1.0 -0.5044310025
O  O103  1  0.27350000  0.57083000  0.35200000  1.0 -0.4631381563
O  O104  1  0.27350000  0.92917000  0.85200000  1.0 -0.4631381563
O  O105  1  0.53545000  0.26039000  0.71565000  1.0 -0.4663461379
O  O106  1  0.53545000  0.23961000  0.21565000  1.0 -0.4663461379
O  O107  1  0.99600000  0.18634000  0.13500000  1.0 -0.4507929963
O  O108  1  0.99600000  0.31366000  0.63500000  1.0 -0.4507929963
O  O109  1  0.22176000  0.62094000  0.62736000  1.0 -0.7690593383
O  O110  1  0.22176000  0.87906000  0.12736000  1.0 -0.7690593383
O  O111  1  0.20998000  0.58240000  0.53868000  1.0 -0.5669794611
O  O112  1  0.20998000  0.91760000  0.03868000  1.0 -0.5669794611
O  O113  1  0.69259000  0.37915000  0.04059000  1.0 -0.5223278733
O  O114  1  0.69259000  0.12085000  0.54059000  1.0 -0.5223278733
O  O115  1  0.78680000  0.07639000  0.64620000  1.0 -0.5223278733
O  O116  1  0.78680000  0.42361000  0.14620000  1.0 -0.5223278733
O  O117  1  0.04131000  0.87765000  0.05621000  1.0 -0.6098391048
O  O118  1  0.04131000  0.62235000  0.55621000  1.0 -0.6098391048
O  O119  1  0.91750000  0.34440000  0.09770000  1.0 -0.5669794611
O  O120  1  0.91750000  0.15560000  0.59770000  1.0 -0.5669794611
O  O121  1  0.10620000  0.17558000  0.56860000  1.0 -0.5598239757
O  O122  1  0.10620000  0.32442000  0.06860000  1.0 -0.5598239757
O  O123  1  0.27430000  0.59374000  0.17660000  1.0 -0.4310181222
O  O124  1  0.27430000  0.90626000  0.67660000  1.0 -0.4310181222
O  O125  1  0.24950000  0.14896000  0.58550000  1.0 -0.5508163791
O  O126  1  0.24950000  0.35104000  0.08550000  1.0 -0.5508163791
O  O127  1  0.31870000  0.69605000  0.60850000  1.0 -0.5508163791
O  O128  1  0.31870000  0.80395000  0.10850000  1.0 -0.5508163791
O  O129  1  0.27805000  0.63020000  0.55275000  1.0 -0.5508163791
O  O130  1  0.27805000  0.86980000  0.05275000  1.0 -0.5508163791
O  O131  1  0.77070000  0.05341000  0.58950000  1.0 -0.5508163791
O  O132  1  0.77070000  0.44659000  0.08950000  1.0 -0.5392814211
O  O133  1  0.97870000  0.41367000  0.12050000  1.0 -0.4507929963
O  O134  1  0.97870000  0.08633000  0.62050000  1.0 -0.4507929963
O  O135  1  0.80570000  0.35082000  0.12800000  1.0 -0.5291064985
O  O136  1  0.80570000  0.14918000  0.62800000  1.0 -0.5291064985
O  O137  1  0.89170000  0.90365000  0.13050000  1.0 -0.5291064985
O  O138  1  0.89170000  0.59635000  0.63050000  1.0 -0.5291064985
O  O139  1  0.07540000  0.83691000  0.17180000  1.0 -0.4787673808
O  O140  1  0.07540000  0.66309000  0.67180000  1.0 -0.4787673808
O  O141  1  0.98636000  0.15990000  0.30266000  1.0 -0.4394863851
O  O142  1  0.98636000  0.34010000  0.80266000  1.0 -0.4394863851
O  O143  1  0.82637000  0.94548000  0.76087000  1.0 -0.4394863851
O  O144  1  0.82637000  0.55452000  0.26087000  1.0 -0.4394863851
O  O145  1  0.12471000  0.09635000  0.49821000  1.0 -0.5392814211
O  O146  1  0.12471000  0.40365000  0.99821000  1.0 -0.5392814211
O  O147  1  0.40243000  0.39505000  0.66703000  1.0 -0.4507929963
O  O148  1  0.40243000  0.10495000  0.16703000  1.0 -0.4507929963
O  O149  1  0.28350000  0.42455000  0.12150000  1.0 -0.5508163791
O  O150  1  0.28350000  0.07545000  0.62150000  1.0 -0.5508163791
O  O151  1  0.20630000  0.45382000  0.07090000  1.0 -0.5392814211
O  O152  1  0.20630000  0.04618000  0.57090000  1.0 -0.5392814211
O  O153  1  0.35520000  0.56518000  0.67970000  1.0 -0.5508163791
O  O154  1  0.35520000  0.93482000  0.17970000  1.0 -0.5508163791
O  O155  1  0.39670000  0.66782000  0.66220000  1.0 -0.5598239757
O  O156  1  0.39670000  0.83218000  0.16220000  1.0 -0.5598239757
