# DDEC6 charges by PACMAN v1.1 (https://github.com/mtap-research/PACMAN-charge/)
data_CIMPAT_ASR_pacman
_symmetry_space_group_name_H-M   'P 1'
_cell_length_a   14.61500000
_cell_length_b   43.06740000
_cell_length_c   35.77350000
_cell_angle_alpha   90.00000000
_cell_angle_beta   110.38500000
_cell_angle_gamma   90.00000000
_symmetry_Int_Tables_number   1
_chemical_formula_structural   Cd8H75C123N12O41
_chemical_formula_sum   'Cd32 H300 C492 N48 O164'
_cell_volume   21106.75383883
_cell_formula_units_Z   4
loop_
 _symmetry_equiv_pos_site_id
 _symmetry_equiv_pos_as_xyz
  1  'x, y, z'
loop_
 _atom_site_type_symbol
 _atom_site_label
 _atom_site_symmetry_multiplicity
 _atom_site_fract_x
 _atom_site_fract_y
 _atom_site_fract_z
 _atom_site_occupancy
 _atom_site_charge
Cd  Cd1  1  0.71102000  0.90463000  0.56749000  1.0 1.0396058723
Cd  Cd2  1  0.71102000  0.59537000  0.06749000  1.0 1.0396058723
Cd  Cd3  1  0.48287000  0.86293000  0.54856000  1.0 1.0886628792
Cd  Cd4  1  0.48287000  0.63707000  0.04856000  1.0 1.0886628792
Cd  Cd5  1  0.32806000  0.59684000  0.09165000  1.0 1.00870599
Cd  Cd6  1  0.32806000  0.90316000  0.59165000  1.0 1.00870599
Cd  Cd7  1  0.63141000  0.42233000  0.58673000  1.0 1.0296228096
Cd  Cd8  1  0.63141000  0.07767000  0.08673000  1.0 1.0296228096
Cd  Cd9  1  0.86946000  0.39333000  0.63331000  1.0 0.4496352644
Cd  Cd10  1  0.86946000  0.10667000  0.13331000  1.0 0.4496352644
Cd  Cd11  1  0.67792000  0.34351000  0.58820000  1.0 1.0028039679
Cd  Cd12  1  0.67792000  0.15649000  0.08820000  1.0 1.0028039679
Cd  Cd13  1  0.45091000  0.13166000  0.11416000  1.0 1.0028039679
Cd  Cd14  1  0.45091000  0.36834000  0.61416000  1.0 1.0028039679
Cd  Cd15  1  0.86189000  0.38827000  0.66633000  1.0 0.623100327
Cd  Cd16  1  0.86189000  0.11173000  0.16633000  1.0 0.623100327
Cd  Cd17  1  0.28898000  0.40463000  0.93251000  1.0 1.0396058723
Cd  Cd18  1  0.28898000  0.09537000  0.43251000  1.0 1.0396058723
Cd  Cd19  1  0.51713000  0.36293000  0.95144000  1.0 1.0886628792
Cd  Cd20  1  0.51713000  0.13707000  0.45144000  1.0 1.0886628792
Cd  Cd21  1  0.67194000  0.09684000  0.40835000  1.0 1.00870599
Cd  Cd22  1  0.67194000  0.40316000  0.90835000  1.0 1.00870599
Cd  Cd23  1  0.36859000  0.92233000  0.91327000  1.0 1.0296228096
Cd  Cd24  1  0.36859000  0.57767000  0.41327000  1.0 1.0296228096
Cd  Cd25  1  0.13054000  0.89333000  0.86669000  1.0 0.4496352644
Cd  Cd26  1  0.13054000  0.60667000  0.36669000  1.0 0.4496352644
Cd  Cd27  1  0.32208000  0.84351000  0.91180000  1.0 1.0028039679
Cd  Cd28  1  0.32208000  0.65649000  0.41180000  1.0 1.0028039679
Cd  Cd29  1  0.54909000  0.63166000  0.38584000  1.0 1.0028039679
Cd  Cd30  1  0.54909000  0.86834000  0.88584000  1.0 1.0028039679
Cd  Cd31  1  0.13811000  0.88827000  0.83367000  1.0 0.623100327
Cd  Cd32  1  0.13811000  0.61173000  0.33367000  1.0 0.623100327
H  H1  1  0.85238000  0.70850000  0.66710000  1.0 0.2804663977
H  H2  1  0.85238000  0.79150000  0.16710000  1.0 0.2804663977
H  H3  1  0.96570000  0.58135000  0.74145000  1.0 0.2724839963
H  H4  1  0.96570000  0.91865000  0.24145000  1.0 0.2724839963
H  H5  1  0.03181000  0.63798000  0.83755000  1.0 0.2804663977
H  H6  1  0.03181000  0.86202000  0.33755000  1.0 0.2804663977
H  H7  1  0.50702000  0.90073000  0.30254000  1.0 0.2724839963
H  H8  1  0.50702000  0.59927000  0.80254000  1.0 0.2724839963
H  H9  1  0.39533000  0.78526000  0.18966000  1.0 0.2804663977
H  H10  1  0.39533000  0.71474000  0.68966000  1.0 0.2804663977
H  H11  1  0.40594000  0.94257000  0.19141000  1.0 0.2804663977
H  H12  1  0.40594000  0.55743000  0.69141000  1.0 0.2804663977
H  H13  1  0.36643000  0.11590000  0.85520000  1.0 0.2804663977
H  H14  1  0.36643000  0.38410000  0.35520000  1.0 0.2804663977
H  H15  1  0.22144000  0.08583000  0.67547000  1.0 0.2724839963
H  H16  1  0.22144000  0.41417000  0.17547000  1.0 0.2724839963
H  H17  1  0.18285000  0.22084000  0.73228000  1.0 0.2804663977
H  H18  1  0.18285000  0.27916000  0.23228000  1.0 0.2804663977
H  H19  1  0.80298000  0.35513000  0.37982000  1.0 0.2724839963
H  H20  1  0.80298000  0.14487000  0.87982000  1.0 0.2804663977
H  H21  1  0.77710000  0.44873000  0.24288000  1.0 0.2724839963
H  H22  1  0.77710000  0.05127000  0.74288000  1.0 0.2724839963
H  H23  1  0.74391000  0.30600000  0.20896000  1.0 0.2724839963
H  H24  1  0.74391000  0.19400000  0.70896000  1.0 0.2724839963
H  H25  1  0.66590000  0.24422000  0.25615000  1.0 0.1200668945
H  H26  1  0.66590000  0.25578000  0.75615000  1.0 0.1200668945
H  H27  1  0.61278000  0.19600000  0.22568000  1.0 0.1200668945
H  H28  1  0.61278000  0.30400000  0.72568000  1.0 0.1200668945
H  H29  1  0.07982000  0.62989000  0.96956000  1.0 0.1200668945
H  H30  1  0.07982000  0.87011000  0.46956000  1.0 0.1200668945
H  H31  1  0.01295000  0.64409000  0.90232000  1.0 0.129633392
H  H32  1  0.01295000  0.85591000  0.40232000  1.0 0.129633392
H  H33  1  0.27622000  0.63020000  0.89030000  1.0 0.129633392
H  H34  1  0.27622000  0.86980000  0.39030000  1.0 0.129633392
H  H35  1  0.33996000  0.61592000  0.95682000  1.0 0.1200668945
H  H36  1  0.33996000  0.88408000  0.45682000  1.0 0.1200668945
H  H37  1  0.03294000  0.61634000  0.77676000  1.0 0.1113793522
H  H38  1  0.03294000  0.88366000  0.27676000  1.0 0.1113793522
H  H39  1  0.92686000  0.66487000  0.67334000  1.0 0.1200668945
H  H40  1  0.92686000  0.83513000  0.17334000  1.0 0.1200668945
H  H41  1  0.07852000  0.70918000  0.77638000  1.0 0.1200668945
H  H42  1  0.07852000  0.79082000  0.27638000  1.0 0.1200668945
H  H43  1  0.00620000  0.52769000  0.73650000  1.0 0.1200668945
H  H44  1  0.00620000  0.97231000  0.23650000  1.0 0.1200668945
H  H45  1  0.96047000  0.47945000  0.70502000  1.0 0.1200668945
H  H46  1  0.96047000  0.02055000  0.20502000  1.0 0.1200668945
H  H47  1  0.72386000  0.51940000  0.62701000  1.0 0.129633392
H  H48  1  0.72386000  0.98060000  0.12701000  1.0 0.129633392
H  H49  1  0.78024000  0.56782000  0.65442000  1.0 0.137973785
H  H50  1  0.78024000  0.93218000  0.15442000  1.0 0.137973785
H  H51  1  0.71383000  0.73106000  0.62394000  1.0 0.137973785
H  H52  1  0.71383000  0.76894000  0.12394000  1.0 0.137973785
H  H53  1  0.63389000  0.77411000  0.58882000  1.0 0.1200668945
H  H54  1  0.63389000  0.72589000  0.08882000  1.0 0.1200668945
H  H55  1  0.87943000  0.82477000  0.63503000  1.0 0.1200668945
H  H56  1  0.87943000  0.67523000  0.13503000  1.0 0.1200668945
H  H57  1  0.95899000  0.78231000  0.67239000  1.0 0.137973785
H  H58  1  0.95899000  0.71769000  0.17239000  1.0 0.137973785
H  H59  1  0.46220000  0.85014000  0.42566000  1.0 0.1200668945
H  H60  1  0.46220000  0.64986000  0.92566000  1.0 0.1200668945
H  H61  1  0.43251000  0.84695000  0.35684000  1.0 0.137973785
H  H62  1  0.43251000  0.65305000  0.85684000  1.0 0.137973785
H  H63  1  0.61038000  0.92075000  0.36630000  1.0 0.1200668945
H  H64  1  0.61038000  0.57925000  0.86630000  1.0 0.1200668945
H  H65  1  0.63964000  0.92296000  0.43473000  1.0 0.1200668945
H  H66  1  0.63964000  0.57704000  0.93473000  1.0 0.1200668945
H  H67  1  0.48105000  0.81494000  0.23970000  1.0 0.1113793522
H  H68  1  0.48105000  0.68506000  0.73970000  1.0 0.1113793522
H  H69  1  0.46882000  0.86400000  0.14201000  1.0 0.1200668945
H  H70  1  0.46882000  0.63600000  0.64201000  1.0 0.1200668945
H  H71  1  0.48513000  0.90909000  0.24373000  1.0 0.1113793522
H  H72  1  0.48513000  0.59091000  0.74373000  1.0 0.1113793522
H  H73  1  0.30953000  0.74028000  0.17835000  1.0 0.129633392
H  H74  1  0.30953000  0.75972000  0.67835000  1.0 0.129633392
H  H75  1  0.28968000  0.68942000  0.15604000  1.0 0.1200668945
H  H76  1  0.28968000  0.81058000  0.65604000  1.0 0.1200668945
H  H77  1  0.49992000  0.70067000  0.10921000  1.0 0.1200668945
H  H78  1  0.49992000  0.79933000  0.60921000  1.0 0.1200668945
H  H79  1  0.52112000  0.75248000  0.13092000  1.0 0.129633392
H  H80  1  0.52112000  0.74752000  0.63092000  1.0 0.129633392
H  H81  1  0.60498000  0.56519000  0.12097000  1.0 0.0963913329
H  H82  1  0.60498000  0.93481000  0.62097000  1.0 0.0963913329
H  H83  1  0.30005000  0.98362000  0.14751000  1.0 0.137973785
H  H84  1  0.30005000  0.51638000  0.64751000  1.0 0.137973785
H  H85  1  0.30504000  0.03532000  0.12894000  1.0 0.1113793522
H  H86  1  0.30504000  0.46468000  0.62894000  1.0 0.1113793522
H  H87  1  0.59124000  0.02738000  0.14765000  1.0 0.1113793522
H  H88  1  0.59124000  0.47262000  0.64765000  1.0 0.1113793522
H  H89  1  0.59078000  0.97641000  0.17009000  1.0 0.129633392
H  H90  1  0.59078000  0.52359000  0.67009000  1.0 0.129633392
H  H91  1  0.54571000  0.10995000  0.98715000  1.0 0.1113793522
H  H92  1  0.54571000  0.39005000  0.48715000  1.0 0.1113793522
H  H93  1  0.50098000  0.11035000  0.91839000  1.0 0.129633392
H  H94  1  0.50098000  0.38965000  0.41839000  1.0 0.129633392
H  H95  1  0.24998000  0.15394000  0.90979000  1.0 0.137973785
H  H96  1  0.24998000  0.34606000  0.40979000  1.0 0.137973785
H  H97  1  0.29577000  0.15244000  0.97950000  1.0 0.1113793522
H  H98  1  0.29577000  0.34756000  0.47950000  1.0 0.1113793522
H  H99  1  0.30580000  0.10028000  0.80099000  1.0 0.1113793522
H  H100  1  0.30580000  0.39972000  0.30099000  1.0 0.1113793522
H  H101  1  0.19026000  0.12975000  0.68672000  1.0 0.1113793522
H  H102  1  0.19026000  0.37025000  0.18672000  1.0 0.1113793522
H  H103  1  0.21862000  0.18948000  0.77742000  1.0 0.1113793522
H  H104  1  0.21862000  0.31052000  0.27742000  1.0 0.1113793522
H  H105  1  0.29016000  0.01499000  0.72667000  1.0 0.1472990602
H  H106  1  0.29016000  0.48501000  0.22667000  1.0 0.1472990602
H  H107  1  0.30240000  0.96847000  0.69581000  1.0 0.129633392
H  H108  1  0.30240000  0.53153000  0.19581000  1.0 0.129633392
H  H109  1  0.22937000  0.01138000  0.58960000  1.0 0.1200668945
H  H110  1  0.22937000  0.48862000  0.08960000  1.0 0.1200668945
H  H111  1  0.21498000  0.05757000  0.61973000  1.0 0.1200668945
H  H112  1  0.21498000  0.44243000  0.11973000  1.0 0.1200668945
H  H113  1  0.11412000  0.26728000  0.73992000  1.0 0.129633392
H  H114  1  0.11412000  0.23272000  0.23992000  1.0 0.129633392
H  H115  1  0.01069000  0.30798000  0.71250000  1.0 0.1200668945
H  H116  1  0.01069000  0.19202000  0.21250000  1.0 0.1200668945
H  H117  1  0.88924000  0.25967000  0.61163000  1.0 0.129633392
H  H118  1  0.88924000  0.24033000  0.11163000  1.0 0.129633392
H  H119  1  0.99980000  0.21966000  0.63734000  1.0 0.137973785
H  H120  1  0.99980000  0.28034000  0.13734000  1.0 0.137973785
H  H121  1  0.80790000  0.34603000  0.50419000  1.0 0.1200668945
H  H122  1  0.80790000  0.15397000  0.00419000  1.0 0.1200668945
H  H123  1  0.82699000  0.33930000  0.44324000  1.0 0.129633392
H  H124  1  0.82699000  0.16070000  0.94324000  1.0 0.129633392
H  H125  1  0.71169000  0.42334000  0.40784000  1.0 0.129633392
H  H126  1  0.71169000  0.07666000  0.90784000  1.0 0.129633392
H  H127  1  0.69296000  0.42986000  0.46945000  1.0 0.1200668945
H  H128  1  0.69296000  0.07014000  0.96945000  1.0 0.1200668945
H  H129  1  0.76403000  0.33502000  0.32592000  1.0 0.1113793522
H  H130  1  0.76403000  0.16498000  0.82592000  1.0 0.1113793522
H  H131  1  0.73729000  0.35249000  0.21147000  1.0 0.1200668945
H  H132  1  0.73729000  0.14751000  0.71147000  1.0 0.1200668945
H  H133  1  0.78258000  0.42317000  0.29008000  1.0 0.1113793522
H  H134  1  0.78258000  0.07683000  0.79008000  1.0 0.1113793522
H  H135  1  0.66923000  0.22357000  0.12928000  1.0 0.129633392
H  H136  1  0.66923000  0.27643000  0.62928000  1.0 0.129633392
H  H137  1  0.73436000  0.26956000  0.16154000  1.0 0.137973785
H  H138  1  0.73436000  0.23044000  0.66154000  1.0 0.137973785
H  H139  1  0.81837000  0.49894000  0.23324000  1.0 0.1200668945
H  H140  1  0.81837000  0.00106000  0.73324000  1.0 0.1200668945
H  H141  1  0.81704000  0.53958000  0.19030000  1.0 0.1200668945
H  H142  1  0.81704000  0.96042000  0.69030000  1.0 0.1200668945
H  H143  1  0.71162000  0.48274000  0.09651000  1.0 0.129633392
H  H144  1  0.71162000  0.01726000  0.59651000  1.0 0.129633392
H  H145  1  0.72116000  0.44035000  0.14024000  1.0 0.1472990602
H  H146  1  0.72116000  0.05965000  0.64024000  1.0 0.1472990602
H  H147  1  0.58066000  0.26095000  0.22899000  1.0 0.1200668945
H  H148  1  0.58066000  0.23905000  0.72899000  1.0 0.1200668945
H  H149  1  0.49680000  0.22132000  0.18848000  1.0 0.1200668945
H  H150  1  0.49680000  0.27868000  0.68848000  1.0 0.1200668945
H  H151  1  0.14762000  0.20850000  0.83290000  1.0 0.2804663977
H  H152  1  0.14762000  0.29150000  0.33290000  1.0 0.2804663977
H  H153  1  0.03430000  0.08135000  0.75855000  1.0 0.2724839963
H  H154  1  0.03430000  0.41865000  0.25855000  1.0 0.2724839963
H  H155  1  0.96819000  0.13798000  0.66245000  1.0 0.2804663977
H  H156  1  0.96819000  0.36202000  0.16245000  1.0 0.2804663977
H  H157  1  0.49298000  0.40073000  0.19746000  1.0 0.2724839963
H  H158  1  0.49298000  0.09927000  0.69746000  1.0 0.2724839963
H  H159  1  0.60467000  0.28526000  0.31034000  1.0 0.2804663977
H  H160  1  0.60467000  0.21474000  0.81034000  1.0 0.2804663977
H  H161  1  0.59406000  0.44257000  0.30859000  1.0 0.2804663977
H  H162  1  0.59406000  0.05743000  0.80859000  1.0 0.2804663977
H  H163  1  0.63357000  0.61590000  0.64480000  1.0 0.2804663977
H  H164  1  0.63357000  0.88410000  0.14480000  1.0 0.2804663977
H  H165  1  0.77856000  0.58583000  0.82453000  1.0 0.2724839963
H  H166  1  0.77856000  0.91417000  0.32453000  1.0 0.2724839963
H  H167  1  0.81715000  0.72084000  0.76772000  1.0 0.2804663977
H  H168  1  0.81715000  0.77916000  0.26772000  1.0 0.2804663977
H  H169  1  0.19702000  0.85513000  0.12018000  1.0 0.2724839963
H  H170  1  0.19702000  0.64487000  0.62018000  1.0 0.2724839963
H  H171  1  0.22290000  0.94873000  0.25712000  1.0 0.2724839963
H  H172  1  0.22290000  0.55127000  0.75712000  1.0 0.2724839963
H  H173  1  0.25609000  0.80600000  0.29104000  1.0 0.2724839963
H  H174  1  0.25609000  0.69400000  0.79104000  1.0 0.2724839963
H  H175  1  0.33410000  0.74422000  0.24385000  1.0 0.1200668945
H  H176  1  0.33410000  0.75578000  0.74385000  1.0 0.1200668945
H  H177  1  0.38722000  0.69600000  0.27432000  1.0 0.1200668945
H  H178  1  0.38722000  0.80400000  0.77432000  1.0 0.1200668945
H  H179  1  0.92018000  0.12989000  0.53044000  1.0 0.1200668945
H  H180  1  0.92018000  0.37011000  0.03044000  1.0 0.1200668945
H  H181  1  0.98705000  0.14409000  0.59768000  1.0 0.129633392
H  H182  1  0.98705000  0.35591000  0.09768000  1.0 0.129633392
H  H183  1  0.72378000  0.13020000  0.60970000  1.0 0.129633392
H  H184  1  0.72378000  0.36980000  0.10970000  1.0 0.129633392
H  H185  1  0.66004000  0.11592000  0.54318000  1.0 0.1200668945
H  H186  1  0.66004000  0.38408000  0.04318000  1.0 0.1200668945
H  H187  1  0.96706000  0.11634000  0.72324000  1.0 0.1113793522
H  H188  1  0.96706000  0.38366000  0.22324000  1.0 0.1113793522
H  H189  1  0.07314000  0.16487000  0.82666000  1.0 0.1200668945
H  H190  1  0.07314000  0.33513000  0.32666000  1.0 0.1200668945
H  H191  1  0.92148000  0.20918000  0.72362000  1.0 0.1200668945
H  H192  1  0.92148000  0.29082000  0.22362000  1.0 0.1200668945
H  H193  1  0.99380000  0.02769000  0.76350000  1.0 0.1200668945
H  H194  1  0.99380000  0.47231000  0.26350000  1.0 0.1200668945
H  H195  1  0.03953000  0.97945000  0.79498000  1.0 0.1200668945
H  H196  1  0.03953000  0.52055000  0.29498000  1.0 0.1200668945
H  H197  1  0.27614000  0.01940000  0.87299000  1.0 0.129633392
H  H198  1  0.27614000  0.48060000  0.37299000  1.0 0.129633392
H  H199  1  0.21976000  0.06782000  0.84558000  1.0 0.137973785
H  H200  1  0.21976000  0.43218000  0.34558000  1.0 0.137973785
H  H201  1  0.28617000  0.23106000  0.87606000  1.0 0.137973785
H  H202  1  0.28617000  0.26894000  0.37606000  1.0 0.137973785
H  H203  1  0.36611000  0.27411000  0.91118000  1.0 0.1200668945
H  H204  1  0.36611000  0.22589000  0.41118000  1.0 0.1200668945
H  H205  1  0.12057000  0.32477000  0.86497000  1.0 0.1200668945
H  H206  1  0.12057000  0.17523000  0.36497000  1.0 0.1200668945
H  H207  1  0.04101000  0.28231000  0.82761000  1.0 0.137973785
H  H208  1  0.04101000  0.21769000  0.32761000  1.0 0.137973785
H  H209  1  0.53780000  0.35014000  0.07434000  1.0 0.1200668945
H  H210  1  0.53780000  0.14986000  0.57434000  1.0 0.1200668945
H  H211  1  0.56749000  0.34695000  0.14316000  1.0 0.137973785
H  H212  1  0.56749000  0.15305000  0.64316000  1.0 0.137973785
H  H213  1  0.38962000  0.42075000  0.13370000  1.0 0.1200668945
H  H214  1  0.38962000  0.07925000  0.63370000  1.0 0.1200668945
H  H215  1  0.36036000  0.42296000  0.06527000  1.0 0.1200668945
H  H216  1  0.36036000  0.07704000  0.56527000  1.0 0.1200668945
H  H217  1  0.51895000  0.31494000  0.26030000  1.0 0.1113793522
H  H218  1  0.51895000  0.18506000  0.76030000  1.0 0.1113793522
H  H219  1  0.53118000  0.36400000  0.35799000  1.0 0.1200668945
H  H220  1  0.53118000  0.13600000  0.85799000  1.0 0.1200668945
H  H221  1  0.51487000  0.40909000  0.25627000  1.0 0.1113793522
H  H222  1  0.51487000  0.09091000  0.75627000  1.0 0.1113793522
H  H223  1  0.69047000  0.24028000  0.32165000  1.0 0.129633392
H  H224  1  0.69047000  0.25972000  0.82165000  1.0 0.129633392
H  H225  1  0.71032000  0.18942000  0.34396000  1.0 0.1200668945
H  H226  1  0.71032000  0.31058000  0.84396000  1.0 0.1200668945
H  H227  1  0.50008000  0.20067000  0.39079000  1.0 0.1200668945
H  H228  1  0.50008000  0.29933000  0.89079000  1.0 0.1200668945
H  H229  1  0.47888000  0.25248000  0.36908000  1.0 0.129633392
H  H230  1  0.47888000  0.24752000  0.86908000  1.0 0.129633392
H  H231  1  0.39502000  0.06519000  0.37903000  1.0 0.0963913329
H  H232  1  0.39502000  0.43481000  0.87903000  1.0 0.0963913329
H  H233  1  0.69995000  0.48362000  0.35249000  1.0 0.137973785
H  H234  1  0.69995000  0.01638000  0.85249000  1.0 0.137973785
H  H235  1  0.69496000  0.53532000  0.37106000  1.0 0.1113793522
H  H236  1  0.69496000  0.96468000  0.87106000  1.0 0.1113793522
H  H237  1  0.40876000  0.52738000  0.35235000  1.0 0.1113793522
H  H238  1  0.40876000  0.97262000  0.85235000  1.0 0.1113793522
H  H239  1  0.40922000  0.47641000  0.32991000  1.0 0.129633392
H  H240  1  0.40922000  0.02359000  0.82991000  1.0 0.129633392
H  H241  1  0.45429000  0.60995000  0.51285000  1.0 0.1113793522
H  H242  1  0.45429000  0.89005000  0.01285000  1.0 0.1113793522
H  H243  1  0.49902000  0.61035000  0.58161000  1.0 0.129633392
H  H244  1  0.49902000  0.88965000  0.08161000  1.0 0.129633392
H  H245  1  0.75002000  0.65394000  0.59021000  1.0 0.137973785
H  H246  1  0.75002000  0.84606000  0.09021000  1.0 0.137973785
H  H247  1  0.70423000  0.65244000  0.52050000  1.0 0.1113793522
H  H248  1  0.70423000  0.84756000  0.02050000  1.0 0.1113793522
H  H249  1  0.69420000  0.60028000  0.69901000  1.0 0.1113793522
H  H250  1  0.69420000  0.89972000  0.19901000  1.0 0.1113793522
H  H251  1  0.80974000  0.62975000  0.81328000  1.0 0.1113793522
H  H252  1  0.80974000  0.87025000  0.31328000  1.0 0.1113793522
H  H253  1  0.78138000  0.68948000  0.72258000  1.0 0.1113793522
H  H254  1  0.78138000  0.81052000  0.22258000  1.0 0.1113793522
H  H255  1  0.70984000  0.51499000  0.77333000  1.0 0.1472990602
H  H256  1  0.70984000  0.98501000  0.27333000  1.0 0.1472990602
H  H257  1  0.69760000  0.46847000  0.80419000  1.0 0.129633392
H  H258  1  0.69760000  0.03153000  0.30419000  1.0 0.129633392
H  H259  1  0.77063000  0.51138000  0.91040000  1.0 0.1200668945
H  H260  1  0.77063000  0.98862000  0.41040000  1.0 0.1200668945
H  H261  1  0.78502000  0.55757000  0.88027000  1.0 0.1200668945
H  H262  1  0.78502000  0.94243000  0.38027000  1.0 0.1200668945
H  H263  1  0.88588000  0.76728000  0.76008000  1.0 0.129633392
H  H264  1  0.88588000  0.73272000  0.26008000  1.0 0.129633392
H  H265  1  0.98931000  0.80798000  0.78750000  1.0 0.1200668945
H  H266  1  0.98931000  0.69202000  0.28750000  1.0 0.1200668945
H  H267  1  0.11076000  0.75967000  0.88837000  1.0 0.129633392
H  H268  1  0.11076000  0.74033000  0.38837000  1.0 0.129633392
H  H269  1  0.00020000  0.71966000  0.86266000  1.0 0.137973785
H  H270  1  0.00020000  0.78034000  0.36266000  1.0 0.137973785
H  H271  1  0.19210000  0.84603000  0.99581000  1.0 0.1200668945
H  H272  1  0.19210000  0.65397000  0.49581000  1.0 0.1200668945
H  H273  1  0.17301000  0.83930000  0.05676000  1.0 0.129633392
H  H274  1  0.17301000  0.66070000  0.55676000  1.0 0.129633392
H  H275  1  0.28831000  0.92334000  0.09216000  1.0 0.129633392
H  H276  1  0.28831000  0.57666000  0.59216000  1.0 0.129633392
H  H277  1  0.30704000  0.92986000  0.03055000  1.0 0.1200668945
H  H278  1  0.30704000  0.57014000  0.53055000  1.0 0.1200668945
H  H279  1  0.23597000  0.83502000  0.17408000  1.0 0.1113793522
H  H280  1  0.23597000  0.66498000  0.67408000  1.0 0.1113793522
H  H281  1  0.26271000  0.85249000  0.28853000  1.0 0.1200668945
H  H282  1  0.26271000  0.64751000  0.78853000  1.0 0.1200668945
H  H283  1  0.21742000  0.92317000  0.20992000  1.0 0.1113793522
H  H284  1  0.21742000  0.57683000  0.70992000  1.0 0.1113793522
H  H285  1  0.33077000  0.72357000  0.37072000  1.0 0.129633392
H  H286  1  0.33077000  0.77643000  0.87072000  1.0 0.129633392
H  H287  1  0.26564000  0.76956000  0.33846000  1.0 0.137973785
H  H288  1  0.26564000  0.73044000  0.83846000  1.0 0.137973785
H  H289  1  0.18163000  0.99894000  0.26676000  1.0 0.1200668945
H  H290  1  0.18163000  0.50106000  0.76676000  1.0 0.1200668945
H  H291  1  0.18296000  0.03958000  0.30970000  1.0 0.1200668945
H  H292  1  0.18296000  0.46042000  0.80970000  1.0 0.1200668945
H  H293  1  0.28838000  0.98274000  0.40349000  1.0 0.129633392
H  H294  1  0.28838000  0.51726000  0.90349000  1.0 0.129633392
H  H295  1  0.27884000  0.94035000  0.35976000  1.0 0.1472990602
H  H296  1  0.27884000  0.55965000  0.85976000  1.0 0.1472990602
H  H297  1  0.41934000  0.76095000  0.27101000  1.0 0.1200668945
H  H298  1  0.41934000  0.73905000  0.77101000  1.0 0.1200668945
H  H299  1  0.50320000  0.72132000  0.31152000  1.0 0.1200668945
H  H300  1  0.50320000  0.77868000  0.81152000  1.0 0.1200668945
C  C1  1  0.25822000  0.61219000  0.01252000  1.0 0.579475757
C  C2  1  0.25822000  0.88781000  0.51252000  1.0 0.579475757
C  C3  1  0.66280000  0.24060000  0.22950000  1.0 -0.0375975677
C  C4  1  0.66280000  0.25940000  0.72950000  1.0 -0.0375975677
C  C5  1  0.62950000  0.21220000  0.21120000  1.0 -0.0725063622
C  C6  1  0.62950000  0.28780000  0.71120000  1.0 -0.0725063622
C  C7  1  0.21586000  0.62146000  0.96966000  1.0 -0.0375975677
C  C8  1  0.21586000  0.87854000  0.46966000  1.0 -0.0375975677
C  C9  1  0.11950000  0.62980000  0.95340000  1.0 -0.0725063622
C  C10  1  0.11950000  0.87020000  0.45340000  1.0 -0.0725063622
C  C11  1  0.07970000  0.63820000  0.91350000  1.0 -0.2090321259
C  C12  1  0.07970000  0.86180000  0.41350000  1.0 -0.2090321259
C  C13  1  0.13799000  0.63807000  0.88999000  1.0 0.240245793
C  C14  1  0.13799000  0.86193000  0.38999000  1.0 0.240245793
C  C15  1  0.23599000  0.62998000  0.90619000  1.0 -0.1799104758
C  C16  1  0.23599000  0.87002000  0.40619000  1.0 -0.1799104758
C  C17  1  0.27317000  0.62168000  0.94557000  1.0 -0.0883900477
C  C18  1  0.27317000  0.87832000  0.44557000  1.0 -0.0883900477
C  C19  1  0.12997000  0.66154000  0.82577000  1.0 0.4669609643
C  C20  1  0.12997000  0.83846000  0.32577000  1.0 0.4669609643
C  C21  1  0.06507000  0.66272000  0.78247000  1.0 -0.0182992419
C  C22  1  0.06507000  0.83728000  0.28247000  1.0 -0.0182992419
C  C23  1  0.02612000  0.63532000  0.76252000  1.0 -0.1907161925
C  C24  1  0.02612000  0.86468000  0.26252000  1.0 -0.1907161925
C  C25  1  0.97689000  0.63612000  0.72139000  1.0 -0.0038223676
C  C26  1  0.97689000  0.86388000  0.22139000  1.0 -0.0038223676
C  C27  1  0.96156000  0.66423000  0.70126000  1.0 -0.1526116863
C  C28  1  0.96156000  0.83577000  0.20126000  1.0 -0.1526116863
C  C29  1  0.99721000  0.69155000  0.72211000  1.0 -0.0182992419
C  C30  1  0.99721000  0.80845000  0.22211000  1.0 -0.0182992419
C  C31  1  0.05123000  0.69066000  0.76253000  1.0 -0.1393432292
C  C32  1  0.05123000  0.80934000  0.26253000  1.0 -0.1393432292
C  C33  1  0.93380000  0.60785000  0.69610000  1.0 0.4496352644
C  C34  1  0.93380000  0.89215000  0.19610000  1.0 0.4496352644
C  C35  1  0.90210000  0.55196000  0.69670000  1.0 0.2285401935
C  C36  1  0.90210000  0.94804000  0.19670000  1.0 0.2285401935
C  C37  1  0.95090000  0.52630000  0.71270000  1.0 -0.2090321259
C  C38  1  0.95090000  0.97370000  0.21270000  1.0 -0.2090321259
C  C39  1  0.92170000  0.49730000  0.69500000  1.0 -0.0883900477
C  C40  1  0.92170000  0.00270000  0.19500000  1.0 -0.0883900477
C  C41  1  0.83630000  0.49503000  0.66290000  1.0 -0.0375975677
C  C42  1  0.83630000  0.00497000  0.16290000  1.0 -0.0375975677
C  C43  1  0.78400000  0.52091000  0.64860000  1.0 -0.0804987721
C  C44  1  0.78400000  0.97909000  0.14860000  1.0 -0.0804987721
C  C45  1  0.81700000  0.54968000  0.66510000  1.0 -0.1677451566
C  C46  1  0.81700000  0.95032000  0.16510000  1.0 -0.1677451566
C  C47  1  0.97652000  0.72287000  0.70212000  1.0 0.4496352644
C  C48  1  0.97652000  0.77713000  0.20212000  1.0 0.4496352644
C  C49  1  0.84320000  0.75235000  0.65200000  1.0 0.240245793
C  C50  1  0.84320000  0.74765000  0.15200000  1.0 0.240245793
C  C51  1  0.74745000  0.75030000  0.62685000  1.0 -0.1979379248
C  C52  1  0.74745000  0.74970000  0.12685000  1.0 -0.1979379248
C  C53  1  0.70000000  0.77588000  0.60600000  1.0 -0.0804987721
C  C54  1  0.70000000  0.72412000  0.10600000  1.0 -0.0804987721
C  C55  1  0.74750000  0.80435000  0.60960000  1.0 -0.0508716107
C  C56  1  0.74750000  0.69565000  0.10960000  1.0 -0.0508716107
C  C57  1  0.84480000  0.80587000  0.63350000  1.0 -0.0804987721
C  C58  1  0.84480000  0.69413000  0.13350000  1.0 -0.0804987721
C  C59  1  0.89280000  0.78057000  0.65530000  1.0 -0.1907161925
C  C60  1  0.89280000  0.71943000  0.15530000  1.0 -0.1907161925
C  C61  1  0.69490000  0.83264000  0.58800000  1.0 0.6001810893
C  C62  1  0.69490000  0.66736000  0.08800000  1.0 0.6001810893
C  C63  1  0.57540000  0.88757000  0.48110000  1.0 0.6001810893
C  C64  1  0.57540000  0.61243000  0.98110000  1.0 0.6001810893
C  C65  1  0.55560000  0.88668000  0.43680000  1.0 -0.0375975677
C  C66  1  0.55560000  0.61332000  0.93680000  1.0 -0.0375975677
C  C67  1  0.49327000  0.86433000  0.41357000  1.0 -0.0883900477
C  C68  1  0.49327000  0.63567000  0.91357000  1.0 -0.0883900477
C  C69  1  0.47530000  0.86234000  0.37260000  1.0 -0.1677451566
C  C70  1  0.47530000  0.63766000  0.87260000  1.0 -0.1677451566
C  C71  1  0.52110000  0.88323000  0.35540000  1.0 0.240245793
C  C72  1  0.52110000  0.61677000  0.85540000  1.0 0.240245793
C  C73  1  0.58090000  0.90600000  0.37830000  1.0 -0.2090321259
C  C74  1  0.58090000  0.59400000  0.87830000  1.0 -0.2090321259
C  C75  1  0.59780000  0.90730000  0.41900000  1.0 -0.0804987721
C  C76  1  0.59780000  0.59270000  0.91900000  1.0 -0.0804987721
C  C77  1  0.49250000  0.85718000  0.29090000  1.0 0.4496352644
C  C78  1  0.49250000  0.64282000  0.79090000  1.0 0.4496352644
C  C79  1  0.48507000  0.86188000  0.24847000  1.0 -0.0110141888
C  C80  1  0.48507000  0.63812000  0.74847000  1.0 -0.0110141888
C  C81  1  0.48014000  0.83434000  0.22694000  1.0 -0.160275582
C  C82  1  0.48014000  0.66566000  0.72694000  1.0 -0.160275582
C  C83  1  0.47395000  0.83489000  0.18745000  1.0 -0.0110141888
C  C84  1  0.47395000  0.66511000  0.68745000  1.0 -0.0110141888
C  C85  1  0.47334000  0.86334000  0.16914000  1.0 -0.1393432292
C  C86  1  0.47334000  0.63666000  0.66914000  1.0 -0.1393432292
C  C87  1  0.47922000  0.89075000  0.19002000  1.0 -0.0110141888
C  C88  1  0.47922000  0.60925000  0.69002000  1.0 -0.0110141888
C  C89  1  0.48344000  0.89023000  0.22974000  1.0 -0.1907161925
C  C90  1  0.48344000  0.60977000  0.72974000  1.0 -0.1907161925
C  C91  1  0.47240000  0.80586000  0.16370000  1.0 0.4496352644
C  C92  1  0.47240000  0.69414000  0.66370000  1.0 0.4496352644
C  C93  1  0.41650000  0.75133000  0.15700000  1.0 0.240245793
C  C94  1  0.41650000  0.74867000  0.65700000  1.0 0.240245793
C  C95  1  0.34870000  0.73242000  0.16420000  1.0 -0.2090321259
C  C96  1  0.34870000  0.76758000  0.66420000  1.0 -0.2090321259
C  C97  1  0.33700000  0.70216000  0.15090000  1.0 -0.0804987721
C  C98  1  0.33700000  0.79784000  0.65090000  1.0 -0.0804987721
C  C99  1  0.39290000  0.69000000  0.13020000  1.0 -0.0375975677
C  C100  1  0.39290000  0.81000000  0.63020000  1.0 -0.0375975677
C  C101  1  0.46074000  0.70881000  0.12324000  1.0 -0.0883900477
C  C102  1  0.46074000  0.79119000  0.62324000  1.0 -0.0883900477
C  C103  1  0.47399000  0.73971000  0.13619000  1.0 -0.1799104758
C  C104  1  0.47399000  0.76029000  0.63619000  1.0 -0.1799104758
C  C105  1  0.37770000  0.65721000  0.11640000  1.0 0.579475757
C  C106  1  0.37770000  0.84279000  0.61640000  1.0 0.579475757
C  C107  1  0.55120000  0.57760000  0.10580000  1.0 0.529525803
C  C108  1  0.55120000  0.92240000  0.60580000  1.0 0.529525803
C  C109  1  0.48858000  0.92033000  0.16918000  1.0 0.4669609643
C  C110  1  0.48858000  0.57967000  0.66918000  1.0 0.4669609643
C  C111  1  0.44620000  0.97565000  0.16170000  1.0 0.240245793
C  C112  1  0.44620000  0.52435000  0.66170000  1.0 0.240245793
C  C113  1  0.36010000  0.99280000  0.14860000  1.0 -0.1979379248
C  C114  1  0.36010000  0.50720000  0.64860000  1.0 -0.1979379248
C  C115  1  0.36320000  0.02330000  0.13720000  1.0 -0.0725063622
C  C116  1  0.36320000  0.47670000  0.63720000  1.0 -0.0725063622
C  C117  1  0.45020000  0.03674000  0.13760000  1.0 -0.0375975677
C  C118  1  0.45020000  0.46326000  0.63760000  1.0 -0.0375975677
C  C119  1  0.53230000  0.01880000  0.14870000  1.0 -0.0804987721
C  C120  1  0.53230000  0.48120000  0.64870000  1.0 -0.0804987721
C  C121  1  0.53230000  0.98827000  0.16160000  1.0 -0.1907161925
C  C122  1  0.53230000  0.51173000  0.66160000  1.0 -0.1907161925
C  C123  1  0.45030000  0.07032000  0.12700000  1.0 0.5670776084
C  C124  1  0.45030000  0.42968000  0.62700000  1.0 0.5670776084
C  C125  1  0.45311000  0.12994000  0.03411000  1.0 0.5913880184
C  C126  1  0.45311000  0.37006000  0.53411000  1.0 0.5913880184
C  C127  1  0.42483000  0.13095000  0.99013000  1.0 -0.0508716107
C  C128  1  0.42483000  0.36905000  0.49013000  1.0 -0.0508716107
C  C129  1  0.48495000  0.11880000  0.97145000  1.0 -0.0804987721
C  C130  1  0.48495000  0.38120000  0.47145000  1.0 -0.0804987721
C  C131  1  0.45900000  0.11919000  0.93070000  1.0 -0.1799104758
C  C132  1  0.45900000  0.38081000  0.43070000  1.0 -0.1799104758
C  C133  1  0.37154000  0.13252000  0.90774000  1.0 0.2497539386
C  C134  1  0.37154000  0.36748000  0.40774000  1.0 0.2497539386
C  C135  1  0.31042000  0.14490000  0.92552000  1.0 -0.1799104758
C  C136  1  0.31042000  0.35510000  0.42552000  1.0 -0.1799104758
C  C137  1  0.33800000  0.14394000  0.96710000  1.0 -0.0804987721
C  C138  1  0.33800000  0.35606000  0.46710000  1.0 -0.0804987721
C  C139  1  0.28913000  0.15278000  0.83963000  1.0 0.4669609643
C  C140  1  0.28913000  0.34722000  0.33963000  1.0 0.4669609643
C  C141  1  0.26753000  0.14551000  0.79613000  1.0 -0.0110141888
C  C142  1  0.26753000  0.35449000  0.29613000  1.0 -0.0110141888
C  C143  1  0.27943000  0.11655000  0.78243000  1.0 -0.1393432292
C  C144  1  0.27943000  0.38345000  0.28243000  1.0 -0.1393432292
C  C145  1  0.25342000  0.11063000  0.74172000  1.0 -0.0182992419
C  C146  1  0.25342000  0.38937000  0.24172000  1.0 -0.0182992419
C  C147  1  0.21040000  0.13391000  0.71450000  1.0 -0.1799104758
C  C148  1  0.21040000  0.36609000  0.21450000  1.0 -0.1799104758
C  C149  1  0.19659000  0.16341000  0.72769000  1.0 -0.0182992419
C  C150  1  0.19659000  0.33659000  0.22769000  1.0 -0.0182992419
C  C151  1  0.22619000  0.16927000  0.76829000  1.0 -0.160275582
C  C152  1  0.22619000  0.33073000  0.26829000  1.0 -0.160275582
C  C153  1  0.27132000  0.07742000  0.73112000  1.0 0.4496352644
C  C154  1  0.27132000  0.42258000  0.23112000  1.0 0.4496352644
C  C155  1  0.25260000  0.04134000  0.67590000  1.0 0.2233651519
C  C156  1  0.25260000  0.45866000  0.17590000  1.0 0.2233651519
C  C157  1  0.27790000  0.01442000  0.69880000  1.0 -0.1979379248
C  C158  1  0.27790000  0.48558000  0.19880000  1.0 -0.1979379248
C  C159  1  0.28490000  0.98681000  0.68020000  1.0 -0.0725063622
C  C160  1  0.28490000  0.51319000  0.18020000  1.0 -0.0725063622
C  C161  1  0.26740000  0.98485000  0.63950000  1.0 -0.0508716107
C  C162  1  0.26740000  0.51515000  0.13950000  1.0 -0.0508716107
C  C163  1  0.24170000  0.01183000  0.61750000  1.0 -0.0804987721
C  C164  1  0.24170000  0.48817000  0.11750000  1.0 -0.0804987721
C  C165  1  0.23387000  0.03938000  0.63557000  1.0 -0.2196470149
C  C166  1  0.23387000  0.46062000  0.13557000  1.0 -0.2196470149
C  C167  1  0.27920000  0.95517000  0.62090000  1.0 0.5360062882
C  C168  1  0.27920000  0.54483000  0.12090000  1.0 0.5360062882
C  C169  1  0.13801000  0.18614000  0.69701000  1.0 0.4551141426
C  C170  1  0.13801000  0.31386000  0.19701000  1.0 0.4551141426
C  C171  1  0.06950000  0.23956000  0.69060000  1.0 0.2285401935
C  C172  1  0.06950000  0.26044000  0.19060000  1.0 0.2285401935
C  C173  1  0.07010000  0.26594000  0.71320000  1.0 -0.1907161925
C  C174  1  0.07010000  0.23406000  0.21320000  1.0 -0.1907161925
C  C175  1  0.00770000  0.28979000  0.69710000  1.0 -0.0804987721
C  C176  1  0.00770000  0.21021000  0.19710000  1.0 -0.0804987721
C  C177  1  0.94020000  0.28817000  0.65890000  1.0 -0.0375975677
C  C178  1  0.94020000  0.21183000  0.15890000  1.0 -0.0375975677
C  C179  1  0.93690000  0.26166000  0.63750000  1.0 -0.0883900477
C  C180  1  0.93690000  0.23834000  0.13750000  1.0 -0.0883900477
C  C181  1  0.00200000  0.23764000  0.65300000  1.0 -0.1799104758
C  C182  1  0.00200000  0.26236000  0.15300000  1.0 -0.1799104758
C  C183  1  0.87120000  0.31490000  0.64160000  1.0 0.4837177933
C  C184  1  0.87120000  0.18510000  0.14160000  1.0 0.4837177933
C  C185  1  0.80260000  0.46400000  0.64310000  1.0 0.4496352644
C  C186  1  0.80260000  0.03600000  0.14310000  1.0 0.4496352644
C  C187  1  0.73760000  0.39375000  0.53280000  1.0 0.579475757
C  C188  1  0.73760000  0.10625000  0.03280000  1.0 0.579475757
C  C189  1  0.75114000  0.38904000  0.49344000  1.0 -0.0567440785
C  C190  1  0.75114000  0.11096000  0.99344000  1.0 -0.0567440785
C  C191  1  0.78920000  0.36220000  0.48490000  1.0 -0.0725063622
C  C192  1  0.78920000  0.13780000  0.98490000  1.0 -0.0725063622
C  C193  1  0.80070000  0.35826000  0.44860000  1.0 -0.2090321259
C  C194  1  0.80070000  0.14174000  0.94860000  1.0 -0.2090321259
C  C195  1  0.77544000  0.38081000  0.42034000  1.0 0.2285401935
C  C196  1  0.77544000  0.11919000  0.92034000  1.0 0.2285401935
C  C197  1  0.73290000  0.40763000  0.42760000  1.0 -0.1907161925
C  C198  1  0.73290000  0.09237000  0.92760000  1.0 -0.1907161925
C  C199  1  0.72180000  0.41132000  0.46430000  1.0 -0.0883900477
C  C200  1  0.72180000  0.08868000  0.96430000  1.0 -0.0883900477
C  C201  1  0.77382000  0.39427000  0.35272000  1.0 0.4496352644
C  C202  1  0.77382000  0.10573000  0.85272000  1.0 0.4496352644
C  C203  1  0.77323000  0.38061000  0.31383000  1.0 -0.0182992419
C  C204  1  0.77323000  0.11939000  0.81383000  1.0 -0.0182992419
C  C205  1  0.76175000  0.34938000  0.30545000  1.0 -0.160275582
C  C206  1  0.76175000  0.15062000  0.80545000  1.0 -0.160275582
C  C207  1  0.74671000  0.33871000  0.26671000  1.0 -0.0110141888
C  C208  1  0.74671000  0.16129000  0.76671000  1.0 -0.0110141888
C  C209  1  0.74696000  0.35971000  0.23766000  1.0 -0.1256987102
C  C210  1  0.74696000  0.14029000  0.73766000  1.0 -0.1256987102
C  C211  1  0.76086000  0.39124000  0.24596000  1.0 -0.0182992419
C  C212  1  0.76086000  0.10876000  0.74596000  1.0 -0.0182992419
C  C213  1  0.77360000  0.40165000  0.28410000  1.0 -0.1799104758
C  C214  1  0.77360000  0.09835000  0.78410000  1.0 -0.1799104758
C  C215  1  0.72475000  0.30500000  0.25935000  1.0 0.4669609643
C  C216  1  0.72475000  0.19500000  0.75935000  1.0 0.4669609643
C  C217  1  0.69180000  0.26398000  0.20840000  1.0 0.1878582701
C  C218  1  0.69180000  0.23602000  0.70840000  1.0 0.1878582701
C  C219  1  0.62080000  0.20751000  0.17120000  1.0 -0.0038223676
C  C220  1  0.62080000  0.29249000  0.67120000  1.0 -0.0038223676
C  C221  1  0.66410000  0.22809000  0.15450000  1.0 -0.1393432292
C  C222  1  0.66410000  0.27191000  0.65450000  1.0 -0.1393432292
C  C223  1  0.70130000  0.25591000  0.17340000  1.0 -0.2196470149
C  C224  1  0.70130000  0.24409000  0.67340000  1.0 -0.2196470149
C  C225  1  0.57450000  0.17793000  0.15120000  1.0 0.529525803
C  C226  1  0.57450000  0.32207000  0.65120000  1.0 0.529525803
C  C227  1  0.75822000  0.41191000  0.21142000  1.0 0.4496352644
C  C228  1  0.75822000  0.08809000  0.71142000  1.0 0.4496352644
C  C229  1  0.76700000  0.46587000  0.19000000  1.0 0.2233651519
C  C230  1  0.76700000  0.03413000  0.69000000  1.0 0.2233651519
C  C231  1  0.79680000  0.49543000  0.20530000  1.0 -0.2090321259
C  C232  1  0.79680000  0.00457000  0.70530000  1.0 -0.2090321259
C  C233  1  0.79480000  0.51960000  0.17960000  1.0 -0.0804987721
C  C234  1  0.79480000  0.98040000  0.67960000  1.0 -0.0804987721
C  C235  1  0.76180000  0.51550000  0.13960000  1.0 -0.0375975677
C  C236  1  0.76180000  0.98450000  0.63960000  1.0 -0.0375975677
C  C237  1  0.73390000  0.48610000  0.12450000  1.0 -0.0804987721
C  C238  1  0.73390000  0.01390000  0.62450000  1.0 -0.0804987721
C  C239  1  0.73830000  0.46070000  0.15060000  1.0 -0.1979379248
C  C240  1  0.73830000  0.03930000  0.65060000  1.0 -0.1979379248
C  C241  1  0.75360000  0.54330000  0.11210000  1.0 0.529525803
C  C242  1  0.75360000  0.95670000  0.61210000  1.0 0.5360062882
C  C243  1  0.60720000  0.25140000  0.21120000  1.0 -0.0508716107
C  C244  1  0.60720000  0.24860000  0.71120000  1.0 -0.0508716107
C  C245  1  0.56170000  0.22670000  0.19070000  1.0 -0.0804987721
C  C246  1  0.56170000  0.27330000  0.69070000  1.0 -0.0804987721
C  C247  1  0.74178000  0.11219000  0.48748000  1.0 0.579475757
C  C248  1  0.74178000  0.38781000  0.98748000  1.0 0.579475757
C  C249  1  0.33720000  0.74060000  0.27050000  1.0 -0.0375975677
C  C250  1  0.33720000  0.75940000  0.77050000  1.0 -0.0375975677
C  C251  1  0.37050000  0.71220000  0.28880000  1.0 -0.0725063622
C  C252  1  0.37050000  0.78780000  0.78880000  1.0 -0.0725063622
C  C253  1  0.78414000  0.12146000  0.53034000  1.0 -0.0375975677
C  C254  1  0.78414000  0.37854000  0.03034000  1.0 -0.0375975677
C  C255  1  0.88050000  0.12980000  0.54660000  1.0 -0.0725063622
C  C256  1  0.88050000  0.37020000  0.04660000  1.0 -0.0725063622
C  C257  1  0.92030000  0.13820000  0.58650000  1.0 -0.2090321259
C  C258  1  0.92030000  0.36180000  0.08650000  1.0 -0.2090321259
C  C259  1  0.86201000  0.13807000  0.61001000  1.0 0.240245793
C  C260  1  0.86201000  0.36193000  0.11001000  1.0 0.240245793
C  C261  1  0.76401000  0.12998000  0.59381000  1.0 -0.1799104758
C  C262  1  0.76401000  0.37002000  0.09381000  1.0 -0.1799104758
C  C263  1  0.72683000  0.12168000  0.55443000  1.0 -0.0883900477
C  C264  1  0.72683000  0.37832000  0.05443000  1.0 -0.0883900477
C  C265  1  0.87003000  0.16154000  0.67423000  1.0 0.4669609643
C  C266  1  0.87003000  0.33846000  0.17423000  1.0 0.4669609643
C  C267  1  0.93493000  0.16272000  0.71753000  1.0 -0.0182992419
C  C268  1  0.93493000  0.33728000  0.21753000  1.0 -0.0182992419
C  C269  1  0.97388000  0.13532000  0.73748000  1.0 -0.1907161925
C  C270  1  0.97388000  0.36468000  0.23748000  1.0 -0.1907161925
C  C271  1  0.02311000  0.13612000  0.77861000  1.0 -0.0038223676
C  C272  1  0.02311000  0.36388000  0.27861000  1.0 -0.0038223676
C  C273  1  0.03844000  0.16423000  0.79874000  1.0 -0.1526116863
C  C274  1  0.03844000  0.33577000  0.29874000  1.0 -0.1526116863
C  C275  1  0.00279000  0.19155000  0.77789000  1.0 -0.0182992419
C  C276  1  0.00279000  0.30845000  0.27789000  1.0 -0.0182992419
C  C277  1  0.94877000  0.19066000  0.73747000  1.0 -0.1393432292
C  C278  1  0.94877000  0.30934000  0.23747000  1.0 -0.1393432292
C  C279  1  0.06620000  0.10785000  0.80390000  1.0 0.4496352644
C  C280  1  0.06620000  0.39215000  0.30390000  1.0 0.4496352644
C  C281  1  0.09790000  0.05196000  0.80330000  1.0 0.2285401935
C  C282  1  0.09790000  0.44804000  0.30330000  1.0 0.2285401935
C  C283  1  0.04910000  0.02630000  0.78730000  1.0 -0.2090321259
C  C284  1  0.04910000  0.47370000  0.28730000  1.0 -0.2090321259
C  C285  1  0.07830000  0.99730000  0.80500000  1.0 -0.0883900477
C  C286  1  0.07830000  0.50270000  0.30500000  1.0 -0.0883900477
C  C287  1  0.16370000  0.99503000  0.83710000  1.0 -0.0375975677
C  C288  1  0.16370000  0.50497000  0.33710000  1.0 -0.0375975677
C  C289  1  0.21600000  0.02091000  0.85140000  1.0 -0.0804987721
C  C290  1  0.21600000  0.47909000  0.35140000  1.0 -0.0804987721
C  C291  1  0.18300000  0.04968000  0.83490000  1.0 -0.1677451566
C  C292  1  0.18300000  0.45032000  0.33490000  1.0 -0.1677451566
C  C293  1  0.02348000  0.22287000  0.79788000  1.0 0.4496352644
C  C294  1  0.02348000  0.27713000  0.29788000  1.0 0.4496352644
C  C295  1  0.15680000  0.25235000  0.84800000  1.0 0.240245793
C  C296  1  0.15680000  0.24765000  0.34800000  1.0 0.240245793
C  C297  1  0.25255000  0.25030000  0.87315000  1.0 -0.1979379248
C  C298  1  0.25255000  0.24970000  0.37315000  1.0 -0.1979379248
C  C299  1  0.30000000  0.27588000  0.89400000  1.0 -0.0804987721
C  C300  1  0.30000000  0.22412000  0.39400000  1.0 -0.0804987721
C  C301  1  0.25250000  0.30435000  0.89040000  1.0 -0.0508716107
C  C302  1  0.25250000  0.19565000  0.39040000  1.0 -0.0508716107
C  C303  1  0.15520000  0.30587000  0.86650000  1.0 -0.0804987721
C  C304  1  0.15520000  0.19413000  0.36650000  1.0 -0.0804987721
C  C305  1  0.10720000  0.28057000  0.84470000  1.0 -0.1907161925
C  C306  1  0.10720000  0.21943000  0.34470000  1.0 -0.1907161925
C  C307  1  0.30510000  0.33264000  0.91200000  1.0 0.6001810893
C  C308  1  0.30510000  0.16736000  0.41200000  1.0 0.6001810893
C  C309  1  0.42460000  0.38757000  0.01890000  1.0 0.6001810893
C  C310  1  0.42460000  0.11243000  0.51890000  1.0 0.6001810893
C  C311  1  0.44440000  0.38668000  0.06320000  1.0 -0.0375975677
C  C312  1  0.44440000  0.11332000  0.56320000  1.0 -0.0375975677
C  C313  1  0.50673000  0.36433000  0.08643000  1.0 -0.0883900477
C  C314  1  0.50673000  0.13567000  0.58643000  1.0 -0.0883900477
C  C315  1  0.52470000  0.36234000  0.12740000  1.0 -0.1677451566
C  C316  1  0.52470000  0.13766000  0.62740000  1.0 -0.1677451566
C  C317  1  0.47890000  0.38323000  0.14460000  1.0 0.240245793
C  C318  1  0.47890000  0.11677000  0.64460000  1.0 0.240245793
C  C319  1  0.41910000  0.40600000  0.12170000  1.0 -0.2090321259
C  C320  1  0.41910000  0.09400000  0.62170000  1.0 -0.2090321259
C  C321  1  0.40220000  0.40730000  0.08100000  1.0 -0.0804987721
C  C322  1  0.40220000  0.09270000  0.58100000  1.0 -0.0804987721
C  C323  1  0.50750000  0.35718000  0.20910000  1.0 0.4496352644
C  C324  1  0.50750000  0.14282000  0.70910000  1.0 0.4496352644
C  C325  1  0.51493000  0.36188000  0.25153000  1.0 -0.0110141888
C  C326  1  0.51493000  0.13812000  0.75153000  1.0 -0.0110141888
C  C327  1  0.51986000  0.33434000  0.27306000  1.0 -0.160275582
C  C328  1  0.51986000  0.16566000  0.77306000  1.0 -0.160275582
C  C329  1  0.52605000  0.33489000  0.31255000  1.0 -0.0110141888
C  C330  1  0.52605000  0.16511000  0.81255000  1.0 -0.0110141888
C  C331  1  0.52666000  0.36334000  0.33086000  1.0 -0.1393432292
C  C332  1  0.52666000  0.13666000  0.83086000  1.0 -0.1393432292
C  C333  1  0.52078000  0.39075000  0.30998000  1.0 -0.0110141888
C  C334  1  0.52078000  0.10925000  0.80998000  1.0 -0.0110141888
C  C335  1  0.51656000  0.39023000  0.27026000  1.0 -0.1907161925
C  C336  1  0.51656000  0.10977000  0.77026000  1.0 -0.1907161925
C  C337  1  0.52760000  0.30586000  0.33630000  1.0 0.4496352644
C  C338  1  0.52760000  0.19414000  0.83630000  1.0 0.4496352644
C  C339  1  0.58350000  0.25133000  0.34300000  1.0 0.240245793
C  C340  1  0.58350000  0.24867000  0.84300000  1.0 0.240245793
C  C341  1  0.65130000  0.23242000  0.33580000  1.0 -0.2090321259
C  C342  1  0.65130000  0.26758000  0.83580000  1.0 -0.2090321259
C  C343  1  0.66300000  0.20216000  0.34910000  1.0 -0.0804987721
C  C344  1  0.66300000  0.29784000  0.84910000  1.0 -0.0804987721
C  C345  1  0.60710000  0.19000000  0.36980000  1.0 -0.0375975677
C  C346  1  0.60710000  0.31000000  0.86980000  1.0 -0.0375975677
C  C347  1  0.53926000  0.20881000  0.37676000  1.0 -0.0883900477
C  C348  1  0.53926000  0.29119000  0.87676000  1.0 -0.0883900477
C  C349  1  0.52601000  0.23971000  0.36381000  1.0 -0.1799104758
C  C350  1  0.52601000  0.26029000  0.86381000  1.0 -0.1799104758
C  C351  1  0.62230000  0.15721000  0.38360000  1.0 0.579475757
C  C352  1  0.62230000  0.34279000  0.88360000  1.0 0.579475757
C  C353  1  0.44880000  0.07760000  0.39420000  1.0 0.5246776506
C  C354  1  0.44880000  0.42240000  0.89420000  1.0 0.529525803
C  C355  1  0.51142000  0.42033000  0.33082000  1.0 0.4669609643
C  C356  1  0.51142000  0.07967000  0.83082000  1.0 0.4669609643
C  C357  1  0.55380000  0.47565000  0.33830000  1.0 0.240245793
C  C358  1  0.55380000  0.02435000  0.83830000  1.0 0.240245793
C  C359  1  0.63990000  0.49280000  0.35140000  1.0 -0.1979379248
C  C360  1  0.63990000  0.00720000  0.85140000  1.0 -0.1979379248
C  C361  1  0.63680000  0.52330000  0.36280000  1.0 -0.0725063622
C  C362  1  0.63680000  0.97670000  0.86280000  1.0 -0.0725063622
C  C363  1  0.54980000  0.53674000  0.36240000  1.0 -0.0375975677
C  C364  1  0.54980000  0.96326000  0.86240000  1.0 -0.0375975677
C  C365  1  0.46770000  0.51880000  0.35130000  1.0 -0.0804987721
C  C366  1  0.46770000  0.98120000  0.85130000  1.0 -0.0804987721
C  C367  1  0.46770000  0.48827000  0.33840000  1.0 -0.1907161925
C  C368  1  0.46770000  0.01173000  0.83840000  1.0 -0.1907161925
C  C369  1  0.54970000  0.57032000  0.37300000  1.0 0.5670776084
C  C370  1  0.54970000  0.92968000  0.87300000  1.0 0.5670776084
C  C371  1  0.54689000  0.62994000  0.46589000  1.0 0.5913880184
C  C372  1  0.54689000  0.87006000  0.96589000  1.0 0.5913880184
C  C373  1  0.57517000  0.63095000  0.50987000  1.0 -0.0508716107
C  C374  1  0.57517000  0.86905000  0.00987000  1.0 -0.0508716107
C  C375  1  0.51505000  0.61880000  0.52855000  1.0 -0.0804987721
C  C376  1  0.51505000  0.88120000  0.02855000  1.0 -0.0804987721
C  C377  1  0.54100000  0.61919000  0.56930000  1.0 -0.1799104758
C  C378  1  0.54100000  0.88081000  0.06930000  1.0 -0.1799104758
C  C379  1  0.62846000  0.63252000  0.59226000  1.0 0.2497539386
C  C380  1  0.62846000  0.86748000  0.09226000  1.0 0.2497539386
C  C381  1  0.68958000  0.64490000  0.57448000  1.0 -0.1799104758
C  C382  1  0.68958000  0.85510000  0.07448000  1.0 -0.1799104758
C  C383  1  0.66200000  0.64394000  0.53290000  1.0 -0.0804987721
C  C384  1  0.66200000  0.85606000  0.03290000  1.0 -0.0804987721
C  C385  1  0.71087000  0.65278000  0.66037000  1.0 0.4669609643
C  C386  1  0.71087000  0.84722000  0.16037000  1.0 0.4669609643
C  C387  1  0.73247000  0.64551000  0.70387000  1.0 -0.0110141888
C  C388  1  0.73247000  0.85449000  0.20387000  1.0 -0.0110141888
C  C389  1  0.72057000  0.61655000  0.71757000  1.0 -0.1393432292
C  C390  1  0.72057000  0.88345000  0.21757000  1.0 -0.1393432292
C  C391  1  0.74658000  0.61063000  0.75828000  1.0 -0.0182992419
C  C392  1  0.74658000  0.88937000  0.25828000  1.0 -0.0182992419
C  C393  1  0.78960000  0.63391000  0.78550000  1.0 -0.1799104758
C  C394  1  0.78960000  0.86609000  0.28550000  1.0 -0.1799104758
C  C395  1  0.80341000  0.66341000  0.77231000  1.0 -0.0182992419
C  C396  1  0.80341000  0.83659000  0.27231000  1.0 -0.0182992419
C  C397  1  0.77381000  0.66927000  0.73171000  1.0 -0.160275582
C  C398  1  0.77381000  0.83073000  0.23171000  1.0 -0.160275582
C  C399  1  0.72868000  0.57742000  0.76888000  1.0 0.4496352644
C  C400  1  0.72868000  0.92258000  0.26888000  1.0 0.4496352644
C  C401  1  0.74740000  0.54134000  0.82410000  1.0 0.2233651519
C  C402  1  0.74740000  0.95866000  0.32410000  1.0 0.2233651519
C  C403  1  0.72210000  0.51442000  0.80120000  1.0 -0.1979379248
C  C404  1  0.72210000  0.98558000  0.30120000  1.0 -0.1979379248
C  C405  1  0.71510000  0.48681000  0.81980000  1.0 -0.0725063622
C  C406  1  0.71510000  0.01319000  0.31980000  1.0 -0.0725063622
C  C407  1  0.73260000  0.48485000  0.86050000  1.0 -0.0508716107
C  C408  1  0.73260000  0.01515000  0.36050000  1.0 -0.0508716107
C  C409  1  0.75830000  0.51183000  0.88250000  1.0 -0.0804987721
C  C410  1  0.75830000  0.98817000  0.38250000  1.0 -0.0804987721
C  C411  1  0.76613000  0.53938000  0.86443000  1.0 -0.2196470149
C  C412  1  0.76613000  0.96062000  0.36443000  1.0 -0.2196470149
C  C413  1  0.72080000  0.45517000  0.87910000  1.0 0.5360062882
C  C414  1  0.72080000  0.04483000  0.37910000  1.0 0.529525803
C  C415  1  0.86199000  0.68614000  0.80299000  1.0 0.4551141426
C  C416  1  0.86199000  0.81386000  0.30299000  1.0 0.4551141426
C  C417  1  0.93050000  0.73956000  0.80940000  1.0 0.2285401935
C  C418  1  0.93050000  0.76044000  0.30940000  1.0 0.2285401935
C  C419  1  0.92990000  0.76594000  0.78680000  1.0 -0.1907161925
C  C420  1  0.92990000  0.73406000  0.28680000  1.0 -0.1907161925
C  C421  1  0.99230000  0.78979000  0.80290000  1.0 -0.0804987721
C  C422  1  0.99230000  0.71021000  0.30290000  1.0 -0.0804987721
C  C423  1  0.05980000  0.78817000  0.84110000  1.0 -0.0375975677
C  C424  1  0.05980000  0.71183000  0.34110000  1.0 -0.0375975677
C  C425  1  0.06310000  0.76166000  0.86250000  1.0 -0.0883900477
C  C426  1  0.06310000  0.73834000  0.36250000  1.0 -0.0883900477
C  C427  1  0.99800000  0.73764000  0.84700000  1.0 -0.1799104758
C  C428  1  0.99800000  0.76236000  0.34700000  1.0 -0.1799104758
C  C429  1  0.12880000  0.81490000  0.85840000  1.0 0.4837177933
C  C430  1  0.12880000  0.68510000  0.35840000  1.0 0.4837177933
C  C431  1  0.19740000  0.96400000  0.85690000  1.0 0.4551141426
C  C432  1  0.19740000  0.53600000  0.35690000  1.0 0.4551141426
C  C433  1  0.26240000  0.89375000  0.96720000  1.0 0.579475757
C  C434  1  0.26240000  0.60625000  0.46720000  1.0 0.579475757
C  C435  1  0.24886000  0.88904000  0.00656000  1.0 -0.0567440785
C  C436  1  0.24886000  0.61096000  0.50656000  1.0 -0.0567440785
C  C437  1  0.21080000  0.86220000  0.01510000  1.0 -0.0725063622
C  C438  1  0.21080000  0.63780000  0.51510000  1.0 -0.0725063622
C  C439  1  0.19930000  0.85826000  0.05140000  1.0 -0.2090321259
C  C440  1  0.19930000  0.64174000  0.55140000  1.0 -0.2090321259
C  C441  1  0.22456000  0.88081000  0.07966000  1.0 0.2285401935
C  C442  1  0.22456000  0.61919000  0.57966000  1.0 0.2285401935
C  C443  1  0.26710000  0.90763000  0.07240000  1.0 -0.1907161925
C  C444  1  0.26710000  0.59237000  0.57240000  1.0 -0.1907161925
C  C445  1  0.27820000  0.91132000  0.03570000  1.0 -0.0883900477
C  C446  1  0.27820000  0.58868000  0.53570000  1.0 -0.0883900477
C  C447  1  0.22618000  0.89427000  0.14728000  1.0 0.4496352644
C  C448  1  0.22618000  0.60573000  0.64728000  1.0 0.4496352644
C  C449  1  0.22677000  0.88061000  0.18617000  1.0 -0.0182992419
C  C450  1  0.22677000  0.61939000  0.68617000  1.0 -0.0182992419
C  C451  1  0.23825000  0.84938000  0.19455000  1.0 -0.160275582
C  C452  1  0.23825000  0.65062000  0.69455000  1.0 -0.160275582
C  C453  1  0.25329000  0.83871000  0.23329000  1.0 -0.0110141888
C  C454  1  0.25329000  0.66129000  0.73329000  1.0 -0.0110141888
C  C455  1  0.25304000  0.85971000  0.26234000  1.0 -0.1256987102
C  C456  1  0.25304000  0.64029000  0.76234000  1.0 -0.1256987102
C  C457  1  0.23914000  0.89124000  0.25404000  1.0 -0.0182992419
C  C458  1  0.23914000  0.60876000  0.75404000  1.0 -0.0182992419
C  C459  1  0.22640000  0.90165000  0.21590000  1.0 -0.1799104758
C  C460  1  0.22640000  0.59835000  0.71590000  1.0 -0.1799104758
C  C461  1  0.27525000  0.80500000  0.24065000  1.0 0.4669609643
C  C462  1  0.27525000  0.69500000  0.74065000  1.0 0.4669609643
C  C463  1  0.30820000  0.76398000  0.29160000  1.0 0.1878582701
C  C464  1  0.30820000  0.73602000  0.79160000  1.0 0.1878582701
C  C465  1  0.37920000  0.70751000  0.32880000  1.0 -0.0038223676
C  C466  1  0.37920000  0.79249000  0.82880000  1.0 -0.0038223676
C  C467  1  0.33590000  0.72809000  0.34550000  1.0 -0.1393432292
C  C468  1  0.33590000  0.77191000  0.84550000  1.0 -0.1393432292
C  C469  1  0.29870000  0.75591000  0.32660000  1.0 -0.2196470149
C  C470  1  0.29870000  0.74409000  0.82660000  1.0 -0.2196470149
C  C471  1  0.42550000  0.67793000  0.34880000  1.0 0.529525803
C  C472  1  0.42550000  0.82207000  0.84880000  1.0 0.529525803
C  C473  1  0.24178000  0.91191000  0.28858000  1.0 0.4496352644
C  C474  1  0.24178000  0.58809000  0.78858000  1.0 0.4496352644
C  C475  1  0.23300000  0.96587000  0.31000000  1.0 0.2233651519
C  C476  1  0.23300000  0.53413000  0.81000000  1.0 0.2233651519
C  C477  1  0.20320000  0.99543000  0.29470000  1.0 -0.2090321259
C  C478  1  0.20320000  0.50457000  0.79470000  1.0 -0.2090321259
C  C479  1  0.20520000  0.01960000  0.32040000  1.0 -0.0804987721
C  C480  1  0.20520000  0.48040000  0.82040000  1.0 -0.0804987721
C  C481  1  0.23820000  0.01550000  0.36040000  1.0 -0.0375975677
C  C482  1  0.23820000  0.48450000  0.86040000  1.0 -0.0375975677
C  C483  1  0.26610000  0.98610000  0.37550000  1.0 -0.0804987721
C  C484  1  0.26610000  0.51390000  0.87550000  1.0 -0.0804987721
C  C485  1  0.26170000  0.96070000  0.34940000  1.0 -0.1979379248
C  C486  1  0.26170000  0.53930000  0.84940000  1.0 -0.1979379248
C  C487  1  0.24640000  0.04330000  0.38790000  1.0 0.529525803
C  C488  1  0.24640000  0.45670000  0.88790000  1.0 0.5360062882
C  C489  1  0.39280000  0.75140000  0.28880000  1.0 -0.0567440785
C  C490  1  0.39280000  0.74860000  0.78880000  1.0 -0.0508716107
C  C491  1  0.43830000  0.72670000  0.30930000  1.0 -0.0804987721
C  C492  1  0.43830000  0.77330000  0.80930000  1.0 -0.0804987721
N  N1  1  0.88716000  0.72565000  0.67326000  1.0 -0.3717354661
N  N2  1  0.88716000  0.77435000  0.17326000  1.0 -0.3717354661
N  N3  1  0.93830000  0.58112000  0.71530000  1.0 -0.3813524877
N  N4  1  0.93830000  0.91888000  0.21530000  1.0 -0.3813524877
N  N5  1  0.09155000  0.64505000  0.84905000  1.0 -0.3717354661
N  N6  1  0.09155000  0.85495000  0.34905000  1.0 -0.3717354661
N  N7  1  0.50671000  0.88272000  0.31411000  1.0 -0.3813524877
N  N8  1  0.50671000  0.61728000  0.81411000  1.0 -0.3813524877
N  N9  1  0.42469000  0.78166000  0.17239000  1.0 -0.3717354661
N  N10  1  0.42469000  0.71834000  0.67239000  1.0 -0.3717354661
N  N11  1  0.44190000  0.94528000  0.17640000  1.0 -0.3717354661
N  N12  1  0.44190000  0.55472000  0.67640000  1.0 -0.3717354661
N  N13  1  0.34470000  0.13165000  0.86540000  1.0 -0.3717354661
N  N14  1  0.34470000  0.36835000  0.36540000  1.0 -0.3717354661
N  N15  1  0.24541000  0.07056000  0.69241000  1.0 -0.3717354661
N  N16  1  0.24541000  0.42944000  0.19241000  1.0 -0.3717354661
N  N17  1  0.13680000  0.21579000  0.70970000  1.0 -0.3717354661
N  N18  1  0.13680000  0.28421000  0.20970000  1.0 -0.3717354661
N  N19  1  0.78633000  0.37426000  0.38333000  1.0 -0.3717354661
N  N20  1  0.78633000  0.12574000  0.88333000  1.0 -0.3717354661
N  N21  1  0.76857000  0.44250000  0.21847000  1.0 -0.3813524877
N  N22  1  0.76857000  0.05750000  0.71847000  1.0 -0.3813524877
N  N23  1  0.72314000  0.29357000  0.22384000  1.0 -0.3976210788
N  N24  1  0.72314000  0.20643000  0.72384000  1.0 -0.3976210788
N  N25  1  0.11284000  0.22565000  0.82674000  1.0 -0.3717354661
N  N26  1  0.11284000  0.27435000  0.32674000  1.0 -0.3717354661
N  N27  1  0.06170000  0.08112000  0.78470000  1.0 -0.3813524877
N  N28  1  0.06170000  0.41888000  0.28470000  1.0 -0.3813524877
N  N29  1  0.90845000  0.14505000  0.65095000  1.0 -0.3717354661
N  N30  1  0.90845000  0.35495000  0.15095000  1.0 -0.3717354661
N  N31  1  0.49329000  0.38272000  0.18589000  1.0 -0.3813524877
N  N32  1  0.49329000  0.11728000  0.68589000  1.0 -0.3813524877
N  N33  1  0.57531000  0.28166000  0.32761000  1.0 -0.3717354661
N  N34  1  0.57531000  0.21834000  0.82761000  1.0 -0.3717354661
N  N35  1  0.55810000  0.44528000  0.32360000  1.0 -0.3717354661
N  N36  1  0.55810000  0.05472000  0.82360000  1.0 -0.3717354661
N  N37  1  0.65530000  0.63165000  0.63460000  1.0 -0.3717354661
N  N38  1  0.65530000  0.86835000  0.13460000  1.0 -0.3717354661
N  N39  1  0.75459000  0.57056000  0.80759000  1.0 -0.3717354661
N  N40  1  0.75459000  0.92944000  0.30759000  1.0 -0.3717354661
N  N41  1  0.86320000  0.71579000  0.79030000  1.0 -0.3717354661
N  N42  1  0.86320000  0.78421000  0.29030000  1.0 -0.3717354661
N  N43  1  0.21367000  0.87426000  0.11667000  1.0 -0.3717354661
N  N44  1  0.21367000  0.62574000  0.61667000  1.0 -0.3717354661
N  N45  1  0.23143000  0.94250000  0.28153000  1.0 -0.3813524877
N  N46  1  0.23143000  0.55750000  0.78153000  1.0 -0.3813524877
N  N47  1  0.27686000  0.79357000  0.27616000  1.0 -0.3976210788
N  N48  1  0.27686000  0.70643000  0.77616000  1.0 -0.3976210788
O  O1  1  0.34738000  0.60550000  0.02748000  1.0 -0.5963185862
O  O2  1  0.34738000  0.89450000  0.52748000  1.0 -0.5963185862
O  O3  1  0.20283000  0.61091000  0.03283000  1.0 -0.5215840523
O  O4  1  0.20283000  0.88909000  0.53283000  1.0 -0.5215840523
O  O5  1  0.20829000  0.67433000  0.83749000  1.0 -0.4490930312
O  O6  1  0.20829000  0.82567000  0.33749000  1.0 -0.4554389949
O  O7  1  0.89684000  0.61047000  0.66054000  1.0 -0.4405607914
O  O8  1  0.89684000  0.88953000  0.16054000  1.0 -0.4405607914
O  O9  1  0.03513000  0.74395000  0.71303000  1.0 -0.4554389949
O  O10  1  0.03513000  0.75605000  0.21303000  1.0 -0.4554389949
O  O11  1  0.74383000  0.85706000  0.59083000  1.0 -0.5812620058
O  O12  1  0.74383000  0.64294000  0.09083000  1.0 -0.5812620058
O  O13  1  0.60460000  0.82947000  0.57010000  1.0 -0.5714053646
O  O14  1  0.60460000  0.67053000  0.07010000  1.0 -0.5714053646
O  O15  1  0.64428000  0.90439000  0.50208000  1.0 -0.5606350139
O  O16  1  0.64428000  0.59561000  0.00208000  1.0 -0.5606350139
O  O17  1  0.52017000  0.87152000  0.49367000  1.0 -0.5812620058
O  O18  1  0.52017000  0.62848000  0.99367000  1.0 -0.5812620058
O  O19  1  0.47988000  0.83170000  0.30278000  1.0 -0.4490930312
O  O20  1  0.47988000  0.66830000  0.80278000  1.0 -0.4490930312
O  O21  1  0.51490000  0.80533000  0.14000000  1.0 -0.4554389949
O  O22  1  0.51490000  0.69467000  0.64000000  1.0 -0.4554389949
O  O23  1  0.43637000  0.64524000  0.10197000  1.0 -0.5936711118
O  O24  1  0.43637000  0.85476000  0.60197000  1.0 -0.5936711118
O  O25  1  0.30905000  0.64243000  0.11965000  1.0 -0.4871299252
O  O26  1  0.30905000  0.85757000  0.61965000  1.0 -0.4871299252
O  O27  1  0.47570000  0.57449000  0.11370000  1.0 -0.4554389949
O  O28  1  0.47570000  0.92551000  0.61370000  1.0 -0.4554389949
O  O29  1  0.56593000  0.59488000  0.08063000  1.0 -0.5483255222
O  O30  1  0.56593000  0.90512000  0.58063000  1.0 -0.5483255222
O  O31  1  0.53877000  0.92080000  0.14797000  1.0 -0.471394602
O  O32  1  0.53877000  0.57920000  0.64797000  1.0 -0.471394602
O  O33  1  0.52721000  0.08157000  0.12351000  1.0 -0.5714053646
O  O34  1  0.52721000  0.41843000  0.62351000  1.0 -0.5714053646
O  O35  1  0.37810000  0.08678000  0.12360000  1.0 -0.5215840523
O  O36  1  0.37810000  0.41322000  0.62360000  1.0 -0.5215840523
O  O37  1  0.38893000  0.13674000  0.04883000  1.0 -0.5215840523
O  O38  1  0.38893000  0.36326000  0.54883000  1.0 -0.5215840523
O  O39  1  0.54055000  0.12241000  0.05515000  1.0 -0.6327904001
O  O40  1  0.54055000  0.37759000  0.55515000  1.0 -0.6327904001
O  O41  1  0.25557000  0.17599000  0.84977000  1.0 -0.4871299252
O  O42  1  0.25557000  0.32401000  0.34977000  1.0 -0.4871299252
O  O43  1  0.30774000  0.05909000  0.75804000  1.0 -0.4490930312
O  O44  1  0.30774000  0.44091000  0.25804000  1.0 -0.4490930312
O  O45  1  0.29721000  0.93095000  0.64161000  1.0 -0.5307067469
O  O46  1  0.29721000  0.56905000  0.14161000  1.0 -0.5307067469
O  O47  1  0.27399000  0.95476000  0.58529000  1.0 -0.5307067469
O  O48  1  0.27399000  0.54524000  0.08529000  1.0 -0.5307067469
O  O49  1  0.09211000  0.17731000  0.66351000  1.0 -0.471394602
O  O50  1  0.09211000  0.32269000  0.16351000  1.0 -0.471394602
O  O51  1  0.79966000  0.30997000  0.61096000  1.0 -0.471394602
O  O52  1  0.79966000  0.19003000  0.11096000  1.0 -0.471394602
O  O53  1  0.90490000  0.34240000  0.65190000  1.0 -0.2090321259
O  O54  1  0.90490000  0.15760000  0.15190000  1.0 -0.2090321259
O  O55  1  0.70940000  0.38465000  0.62790000  1.0 -0.8955444133
O  O56  1  0.70940000  0.11535000  0.12790000  1.0 -0.8948160246
O  O57  1  0.85630000  0.44480000  0.63930000  1.0 -0.1393432292
O  O58  1  0.85630000  0.05520000  0.13930000  1.0 -0.1393432292
O  O59  1  0.72112000  0.46234000  0.61822000  1.0 -0.4089491725
O  O60  1  0.72112000  0.03766000  0.11822000  1.0 -0.4089491725
O  O61  1  0.69728000  0.41782000  0.53828000  1.0 -0.536742045
O  O62  1  0.69728000  0.08218000  0.03828000  1.0 -0.536742045
O  O63  1  0.76651000  0.37176000  0.55771000  1.0 -0.5606350139
O  O64  1  0.76651000  0.12824000  0.05771000  1.0 -0.5606350139
O  O65  1  0.76136000  0.42227000  0.35496000  1.0 -0.4838377073
O  O66  1  0.76136000  0.07773000  0.85496000  1.0 -0.4838377073
O  O67  1  0.78300000  0.56844000  0.12700000  1.0 -0.5307067469
O  O68  1  0.78300000  0.93156000  0.62700000  1.0 -0.5307067469
O  O69  1  0.71110000  0.53954000  0.07510000  1.0 -0.5606350139
O  O70  1  0.71110000  0.96046000  0.57510000  1.0 -0.5606350139
O  O71  1  0.74944000  0.40021000  0.17944000  1.0 -0.4405607914
O  O72  1  0.74944000  0.09979000  0.67944000  1.0 -0.4405607914
O  O73  1  0.70576000  0.28885000  0.28416000  1.0 -0.5025433511
O  O74  1  0.70576000  0.21115000  0.78416000  1.0 -0.5025433511
O  O75  1  0.55060000  0.15705000  0.17000000  1.0 -0.4490930312
O  O76  1  0.55060000  0.34295000  0.67000000  1.0 -0.4490930312
O  O77  1  0.56858000  0.17355000  0.11698000  1.0 -0.5088557139
O  O78  1  0.56858000  0.32645000  0.61698000  1.0 -0.5088557139
O  O79  1  0.87130000  0.33620000  0.66930000  1.0 -0.2332176998
O  O80  1  0.87130000  0.16380000  0.16930000  1.0 -0.2332176998
O  O81  1  0.85900000  0.43900000  0.66960000  1.0 -0.1393432292
O  O82  1  0.85900000  0.06100000  0.16960000  1.0 -0.1393432292
O  O83  1  0.65262000  0.10550000  0.47252000  1.0 -0.5963185862
O  O84  1  0.65262000  0.39450000  0.97252000  1.0 -0.5963185862
O  O85  1  0.79717000  0.11091000  0.46717000  1.0 -0.5215840523
O  O86  1  0.79717000  0.38909000  0.96717000  1.0 -0.5215840523
O  O87  1  0.79171000  0.17433000  0.66251000  1.0 -0.4490930312
O  O88  1  0.79171000  0.32567000  0.16251000  1.0 -0.4490930312
O  O89  1  0.10316000  0.11047000  0.83946000  1.0 -0.4345552161
O  O90  1  0.10316000  0.38953000  0.33946000  1.0 -0.4345552161
O  O91  1  0.96487000  0.24395000  0.78697000  1.0 -0.4554389949
O  O92  1  0.96487000  0.25605000  0.28697000  1.0 -0.4554389949
O  O93  1  0.25617000  0.35706000  0.90917000  1.0 -0.5812620058
O  O94  1  0.25617000  0.14294000  0.40917000  1.0 -0.5812620058
O  O95  1  0.39540000  0.32947000  0.92990000  1.0 -0.5714053646
O  O96  1  0.39540000  0.17053000  0.42990000  1.0 -0.5714053646
O  O97  1  0.35572000  0.40439000  0.99792000  1.0 -0.5606350139
O  O98  1  0.35572000  0.09561000  0.49792000  1.0 -0.5606350139
O  O99  1  0.47983000  0.37152000  0.00633000  1.0 -0.5812620058
O  O100  1  0.47983000  0.12848000  0.50633000  1.0 -0.5812620058
O  O101  1  0.52012000  0.33170000  0.19722000  1.0 -0.4490930312
O  O102  1  0.52012000  0.16830000  0.69722000  1.0 -0.4490930312
O  O103  1  0.48510000  0.30533000  0.36000000  1.0 -0.4554389949
O  O104  1  0.48510000  0.19467000  0.86000000  1.0 -0.4554389949
O  O105  1  0.56363000  0.14524000  0.39803000  1.0 -0.5936711118
O  O106  1  0.56363000  0.35476000  0.89803000  1.0 -0.5936711118
O  O107  1  0.69095000  0.14243000  0.38035000  1.0 -0.4871299252
O  O108  1  0.69095000  0.35757000  0.88035000  1.0 -0.4871299252
O  O109  1  0.52430000  0.07449000  0.38630000  1.0 -0.4490930312
O  O110  1  0.52430000  0.42551000  0.88630000  1.0 -0.4554389949
O  O111  1  0.43407000  0.09488000  0.41937000  1.0 -0.5483255222
O  O112  1  0.43407000  0.40512000  0.91937000  1.0 -0.5483255222
O  O113  1  0.46123000  0.42080000  0.35203000  1.0 -0.471394602
O  O114  1  0.46123000  0.07920000  0.85203000  1.0 -0.471394602
O  O115  1  0.47279000  0.58157000  0.37649000  1.0 -0.5714053646
O  O116  1  0.47279000  0.91843000  0.87649000  1.0 -0.5714053646
O  O117  1  0.62190000  0.58678000  0.37640000  1.0 -0.5215840523
O  O118  1  0.62190000  0.91322000  0.87640000  1.0 -0.5215840523
O  O119  1  0.61107000  0.63674000  0.45117000  1.0 -0.5215840523
O  O120  1  0.61107000  0.86326000  0.95117000  1.0 -0.5215840523
O  O121  1  0.45945000  0.62241000  0.44485000  1.0 -0.6327904001
O  O122  1  0.45945000  0.87759000  0.94485000  1.0 -0.6327904001
O  O123  1  0.74443000  0.67599000  0.65023000  1.0 -0.4871299252
O  O124  1  0.74443000  0.82401000  0.15023000  1.0 -0.4871299252
O  O125  1  0.69226000  0.55909000  0.74196000  1.0 -0.4490930312
O  O126  1  0.69226000  0.94091000  0.24196000  1.0 -0.4490930312
O  O127  1  0.70279000  0.43095000  0.85839000  1.0 -0.5307067469
O  O128  1  0.70279000  0.06905000  0.35839000  1.0 -0.5307067469
O  O129  1  0.72601000  0.45476000  0.91471000  1.0 -0.5307067469
O  O130  1  0.72601000  0.04524000  0.41471000  1.0 -0.5307067469
O  O131  1  0.90789000  0.67731000  0.83649000  1.0 -0.471394602
O  O132  1  0.90789000  0.82269000  0.33649000  1.0 -0.471394602
O  O133  1  0.20034000  0.80997000  0.88904000  1.0 -0.471394602
O  O134  1  0.20034000  0.69003000  0.38904000  1.0 -0.471394602
O  O135  1  0.09510000  0.84240000  0.84810000  1.0 -0.2090321259
O  O136  1  0.09510000  0.65760000  0.34810000  1.0 -0.2090321259
O  O137  1  0.29060000  0.88465000  0.87210000  1.0 -0.8955444133
O  O138  1  0.29060000  0.61535000  0.37210000  1.0 -0.8955444133
O  O139  1  0.14370000  0.94480000  0.86070000  1.0 -0.1393432292
O  O140  1  0.14370000  0.55520000  0.36070000  1.0 -0.1393432292
O  O141  1  0.27888000  0.96234000  0.88178000  1.0 -0.4089491725
O  O142  1  0.27888000  0.53766000  0.38178000  1.0 -0.4089491725
O  O143  1  0.30272000  0.91782000  0.96172000  1.0 -0.536742045
O  O144  1  0.30272000  0.58218000  0.46172000  1.0 -0.536742045
O  O145  1  0.23349000  0.87176000  0.94229000  1.0 -0.5606350139
O  O146  1  0.23349000  0.62824000  0.44229000  1.0 -0.5606350139
O  O147  1  0.23864000  0.92227000  0.14504000  1.0 -0.4838377073
O  O148  1  0.23864000  0.57773000  0.64504000  1.0 -0.4838377073
O  O149  1  0.21700000  0.06844000  0.37300000  1.0 -0.5307067469
O  O150  1  0.21700000  0.43156000  0.87300000  1.0 -0.5307067469
O  O151  1  0.28890000  0.03954000  0.42490000  1.0 -0.5606350139
O  O152  1  0.28890000  0.46046000  0.92490000  1.0 -0.5606350139
O  O153  1  0.25056000  0.90021000  0.32056000  1.0 -0.4405607914
O  O154  1  0.25056000  0.59979000  0.82056000  1.0 -0.4405607914
O  O155  1  0.29424000  0.78885000  0.21584000  1.0 -0.5025433511
O  O156  1  0.29424000  0.71115000  0.71584000  1.0 -0.5025433511
O  O157  1  0.44940000  0.65705000  0.33000000  1.0 -0.4490930312
O  O158  1  0.44940000  0.84295000  0.83000000  1.0 -0.4490930312
O  O159  1  0.43142000  0.67355000  0.38302000  1.0 -0.5088557139
O  O160  1  0.43142000  0.82645000  0.88302000  1.0 -0.5088557139
O  O161  1  0.12870000  0.83620000  0.83070000  1.0 -0.2332176998
O  O162  1  0.12870000  0.66380000  0.33070000  1.0 -0.2332176998
O  O163  1  0.14100000  0.93900000  0.83040000  1.0 -0.1393432292
O  O164  1  0.14100000  0.56100000  0.33040000  1.0 -0.1393432292
