# DDEC6 charges by PACMAN v1.1 (https://github.com/mtap-research/PACMAN-charge/)
data_CIMTAV_FSR_pacman
_symmetry_space_group_name_H-M   'P 1'
_cell_length_a   18.48350000
_cell_length_b   27.14720000
_cell_length_c   37.92700000
_cell_angle_alpha   90.00000000
_cell_angle_beta   90.00000000
_cell_angle_gamma   90.00000000
_symmetry_Int_Tables_number   1
_chemical_formula_structural   La4B4H172C145N4O33
_chemical_formula_sum   'La16 B16 H688 C580 N16 O132'
_cell_volume   19030.83071080
_cell_formula_units_Z   4
loop_
 _symmetry_equiv_pos_site_id
 _symmetry_equiv_pos_as_xyz
  1  'x, y, z'
loop_
 _atom_site_type_symbol
 _atom_site_label
 _atom_site_symmetry_multiplicity
 _atom_site_fract_x
 _atom_site_fract_y
 _atom_site_fract_z
 _atom_site_occupancy
 _atom_site_charge
La  La1  1  0.62619000  0.74087000  0.02339000  1.0 1.923373209
La  La2  1  0.62619000  0.25913000  0.47661000  1.0 1.923373209
La  La3  1  0.87381000  0.75913000  0.02339000  1.0 1.923373209
La  La4  1  0.87381000  0.24087000  0.47661000  1.0 1.923373209
La  La5  1  0.37381000  0.25913000  0.97661000  1.0 1.923373209
La  La6  1  0.37381000  0.74087000  0.52339000  1.0 1.923373209
La  La7  1  0.12619000  0.24087000  0.97661000  1.0 1.923373209
La  La8  1  0.12619000  0.75913000  0.52339000  1.0 1.923373209
La  La9  1  0.61948000  0.74851000  0.90057000  1.0 1.8560119187
La  La10  1  0.61948000  0.25149000  0.59943000  1.0 1.8560119187
La  La11  1  0.88052000  0.75149000  0.90057000  1.0 1.8532582238
La  La12  1  0.88052000  0.24851000  0.59943000  1.0 1.8560119187
La  La13  1  0.38052000  0.25149000  0.09943000  1.0 1.8560119187
La  La14  1  0.38052000  0.74851000  0.40057000  1.0 1.8560119187
La  La15  1  0.11948000  0.24851000  0.09943000  1.0 1.8560119187
La  La16  1  0.11948000  0.75149000  0.40057000  1.0 1.8532582238
B  B1  1  0.24420000  0.56340000  0.96750000  1.0 0.4214076018
B  B2  1  0.24420000  0.43660000  0.53250000  1.0 0.4214076018
B  B3  1  0.25580000  0.93660000  0.96750000  1.0 0.4214076018
B  B4  1  0.25580000  0.06340000  0.53250000  1.0 0.4214076018
B  B5  1  0.75580000  0.43660000  0.03250000  1.0 0.4214076018
B  B6  1  0.75580000  0.56340000  0.46750000  1.0 0.4214076018
B  B7  1  0.74420000  0.06340000  0.03250000  1.0 0.4214076018
B  B8  1  0.74420000  0.93660000  0.46750000  1.0 0.4214076018
B  B9  1  0.25000000  0.75000000  0.75320000  1.0 0.4353386179
B  B10  1  0.25000000  0.25000000  0.74680000  1.0 0.4334467963
B  B11  1  0.75000000  0.25000000  0.24680000  1.0 0.4334467963
B  B12  1  0.75000000  0.75000000  0.25320000  1.0 0.4353386179
B  B13  1  0.75000000  0.75000000  0.67500000  1.0 0.4214076018
B  B14  1  0.75000000  0.25000000  0.82500000  1.0 0.4214076018
B  B15  1  0.25000000  0.25000000  0.32500000  1.0 0.4214076018
B  B16  1  0.25000000  0.75000000  0.17500000  1.0 0.4214076018
H  H1  1  0.44460000  0.72340000  0.00720000  1.0 0.1397579607
H  H2  1  0.44460000  0.27660000  0.49280000  1.0 0.1397579607
H  H3  1  0.05540000  0.77660000  0.00720000  1.0 0.1397579607
H  H4  1  0.05540000  0.22340000  0.49280000  1.0 0.1397579607
H  H5  1  0.55540000  0.27660000  0.99280000  1.0 0.1397579607
H  H6  1  0.55540000  0.72340000  0.50720000  1.0 0.1397579607
H  H7  1  0.94460000  0.22340000  0.99280000  1.0 0.1397579607
H  H8  1  0.94460000  0.77660000  0.50720000  1.0 0.1397579607
H  H9  1  0.36060000  0.73060000  0.00420000  1.0 0.1489983801
H  H10  1  0.36060000  0.26940000  0.49580000  1.0 0.1489983801
H  H11  1  0.13940000  0.76940000  0.00420000  1.0 0.1489983801
H  H12  1  0.13940000  0.23060000  0.49580000  1.0 0.1489983801
H  H13  1  0.63940000  0.26940000  0.99580000  1.0 0.1489983801
H  H14  1  0.63940000  0.73060000  0.50420000  1.0 0.1489983801
H  H15  1  0.86060000  0.23060000  0.99580000  1.0 0.1489983801
H  H16  1  0.86060000  0.76940000  0.50420000  1.0 0.1489983801
H  H17  1  0.39320000  0.70000000  0.03550000  1.0 0.1301822929
H  H18  1  0.39320000  0.30000000  0.46450000  1.0 0.1301822929
H  H19  1  0.10680000  0.80000000  0.03550000  1.0 0.1301822929
H  H20  1  0.10680000  0.20000000  0.46450000  1.0 0.1301822929
H  H21  1  0.60680000  0.30000000  0.96450000  1.0 0.1301822929
H  H22  1  0.60680000  0.70000000  0.53550000  1.0 0.1301822929
H  H23  1  0.89320000  0.20000000  0.96450000  1.0 0.1301822929
H  H24  1  0.89320000  0.80000000  0.53550000  1.0 0.1301822929
H  H25  1  0.29030000  0.67500000  0.03070000  1.0 0.1301822929
H  H26  1  0.29030000  0.32500000  0.46930000  1.0 0.1301822929
H  H27  1  0.20970000  0.82500000  0.03070000  1.0 0.1301822929
H  H28  1  0.20970000  0.17500000  0.46930000  1.0 0.1301822929
H  H29  1  0.70970000  0.32500000  0.96930000  1.0 0.1301822929
H  H30  1  0.70970000  0.67500000  0.53070000  1.0 0.1301822929
H  H31  1  0.79030000  0.17500000  0.96930000  1.0 0.1301822929
H  H32  1  0.79030000  0.82500000  0.53070000  1.0 0.1301822929
H  H33  1  0.22840000  0.65160000  0.00790000  1.0 0.1397579607
H  H34  1  0.22840000  0.34840000  0.49210000  1.0 0.1397579607
H  H35  1  0.27160000  0.84840000  0.00790000  1.0 0.1397579607
H  H36  1  0.27160000  0.15160000  0.49210000  1.0 0.1397579607
H  H37  1  0.77160000  0.34840000  0.99210000  1.0 0.1397579607
H  H38  1  0.77160000  0.65160000  0.50790000  1.0 0.1397579607
H  H39  1  0.72840000  0.15160000  0.99210000  1.0 0.1397579607
H  H40  1  0.72840000  0.84840000  0.50790000  1.0 0.1397579607
H  H41  1  0.27090000  0.61910000  0.03510000  1.0 0.1397579607
H  H42  1  0.27090000  0.38090000  0.46490000  1.0 0.1397579607
H  H43  1  0.22910000  0.88090000  0.03510000  1.0 0.1397579607
H  H44  1  0.22910000  0.11910000  0.46490000  1.0 0.1397579607
H  H45  1  0.72910000  0.38090000  0.96490000  1.0 0.1397579607
H  H46  1  0.72910000  0.61910000  0.53510000  1.0 0.1397579607
H  H47  1  0.77090000  0.11910000  0.96490000  1.0 0.1397579607
H  H48  1  0.77090000  0.88090000  0.53510000  1.0 0.1397579607
H  H49  1  0.31900000  0.52210000  0.92130000  1.0 0.1301822929
H  H50  1  0.31900000  0.47790000  0.57870000  1.0 0.1301822929
H  H51  1  0.18100000  0.97790000  0.92130000  1.0 0.1301822929
H  H52  1  0.18100000  0.02210000  0.57870000  1.0 0.1301822929
H  H53  1  0.68100000  0.47790000  0.07870000  1.0 0.1301822929
H  H54  1  0.68100000  0.52210000  0.42130000  1.0 0.1301822929
H  H55  1  0.81900000  0.02210000  0.07870000  1.0 0.1301822929
H  H56  1  0.81900000  0.97790000  0.42130000  1.0 0.1301822929
H  H57  1  0.36400000  0.55260000  0.89390000  1.0 0.1397579607
H  H58  1  0.36400000  0.44740000  0.60610000  1.0 0.1489983801
H  H59  1  0.13600000  0.94740000  0.89390000  1.0 0.1489983801
H  H60  1  0.13600000  0.05260000  0.60610000  1.0 0.1489983801
H  H61  1  0.63600000  0.44740000  0.10610000  1.0 0.1489983801
H  H62  1  0.63600000  0.55260000  0.39390000  1.0 0.1397579607
H  H63  1  0.86400000  0.05260000  0.10610000  1.0 0.1489983801
H  H64  1  0.86400000  0.94740000  0.39390000  1.0 0.1489983801
H  H65  1  0.40300000  0.51460000  0.91860000  1.0 0.1301822929
H  H66  1  0.40300000  0.48540000  0.58140000  1.0 0.1301822929
H  H67  1  0.09700000  0.98540000  0.91860000  1.0 0.1301822929
H  H68  1  0.09700000  0.01460000  0.58140000  1.0 0.1301822929
H  H69  1  0.59700000  0.48540000  0.08140000  1.0 0.1301822929
H  H70  1  0.59700000  0.51460000  0.41860000  1.0 0.1301822929
H  H71  1  0.90300000  0.01460000  0.08140000  1.0 0.1301822929
H  H72  1  0.90300000  0.98540000  0.41860000  1.0 0.1301822929
H  H73  1  0.48870000  0.56170000  0.90560000  1.0 0.1204172841
H  H74  1  0.48870000  0.43830000  0.59440000  1.0 0.1204172841
H  H75  1  0.01130000  0.93830000  0.90560000  1.0 0.1204172841
H  H76  1  0.01130000  0.06170000  0.59440000  1.0 0.1204172841
H  H77  1  0.51130000  0.43830000  0.09440000  1.0 0.1204172841
H  H78  1  0.51130000  0.56170000  0.40560000  1.0 0.1204172841
H  H79  1  0.98870000  0.06170000  0.09440000  1.0 0.1204172841
H  H80  1  0.98870000  0.93830000  0.40560000  1.0 0.1204172841
H  H81  1  0.51520000  0.61650000  0.90310000  1.0 0.1584378952
H  H82  1  0.51520000  0.38350000  0.59690000  1.0 0.1584378952
H  H83  1  0.98480000  0.88350000  0.90310000  1.0 0.1584378952
H  H84  1  0.98480000  0.11650000  0.59690000  1.0 0.1584378952
H  H85  1  0.48480000  0.38350000  0.09690000  1.0 0.1584378952
H  H86  1  0.48480000  0.61650000  0.40310000  1.0 0.1584378952
H  H87  1  0.01520000  0.11650000  0.09690000  1.0 0.1584378952
H  H88  1  0.01520000  0.88350000  0.40310000  1.0 0.1584378952
H  H89  1  0.54410000  0.58220000  0.93330000  1.0 0.1301822929
H  H90  1  0.54410000  0.41780000  0.56670000  1.0 0.1301822929
H  H91  1  0.95590000  0.91780000  0.93330000  1.0 0.1301822929
H  H92  1  0.95590000  0.08220000  0.56670000  1.0 0.1301822929
H  H93  1  0.45590000  0.41780000  0.06670000  1.0 0.1301822929
H  H94  1  0.45590000  0.58220000  0.43330000  1.0 0.1301822929
H  H95  1  0.04410000  0.08220000  0.06670000  1.0 0.1301822929
H  H96  1  0.04410000  0.91780000  0.43330000  1.0 0.1301822929
H  H97  1  0.31440000  0.54080000  0.02240000  1.0 0.1204172841
H  H98  1  0.31440000  0.45920000  0.47760000  1.0 0.1204172841
H  H99  1  0.18560000  0.95920000  0.02240000  1.0 0.1204172841
H  H100  1  0.18560000  0.04080000  0.47760000  1.0 0.1204172841
H  H101  1  0.68560000  0.45920000  0.97760000  1.0 0.1204172841
H  H102  1  0.68560000  0.54080000  0.52240000  1.0 0.1204172841
H  H103  1  0.81440000  0.04080000  0.97760000  1.0 0.1204172841
H  H104  1  0.81440000  0.95920000  0.52240000  1.0 0.1204172841
H  H105  1  0.29060000  0.49980000  0.04910000  1.0 0.1397579607
H  H106  1  0.29060000  0.50020000  0.45090000  1.0 0.1397579607
H  H107  1  0.20940000  0.00020000  0.04910000  1.0 0.1397579607
H  H108  1  0.20940000  0.99980000  0.45090000  1.0 0.1397579607
H  H109  1  0.70940000  0.50020000  0.95090000  1.0 0.1397579607
H  H110  1  0.70940000  0.49980000  0.54910000  1.0 0.1397579607
H  H111  1  0.79060000  0.99980000  0.95090000  1.0 0.1397579607
H  H112  1  0.79060000  0.00020000  0.54910000  1.0 0.1397579607
H  H113  1  0.36330000  0.49440000  0.02820000  1.0 0.1301822929
H  H114  1  0.36330000  0.50560000  0.47180000  1.0 0.1301822929
H  H115  1  0.13670000  0.00560000  0.02820000  1.0 0.1301822929
H  H116  1  0.13670000  0.99440000  0.47180000  1.0 0.1301822929
H  H117  1  0.63670000  0.50560000  0.97180000  1.0 0.1301822929
H  H118  1  0.63670000  0.49440000  0.52820000  1.0 0.1301822929
H  H119  1  0.86330000  0.99440000  0.97180000  1.0 0.1301822929
H  H120  1  0.86330000  0.00560000  0.52820000  1.0 0.1301822929
H  H121  1  0.29080000  0.36440000  0.02750000  1.0 0.1397579607
H  H122  1  0.29080000  0.63560000  0.47250000  1.0 0.1397579607
H  H123  1  0.20920000  0.13560000  0.02750000  1.0 0.1397579607
H  H124  1  0.20920000  0.86440000  0.47250000  1.0 0.1397579607
H  H125  1  0.70920000  0.63560000  0.97250000  1.0 0.1397579607
H  H126  1  0.70920000  0.36440000  0.52750000  1.0 0.1397579607
H  H127  1  0.79080000  0.86440000  0.97250000  1.0 0.1397579607
H  H128  1  0.79080000  0.13560000  0.52750000  1.0 0.1397579607
H  H129  1  0.35110000  0.40460000  0.03170000  1.0 0.1301822929
H  H130  1  0.35110000  0.59540000  0.46830000  1.0 0.1301822929
H  H131  1  0.14890000  0.09540000  0.03170000  1.0 0.1301822929
H  H132  1  0.14890000  0.90460000  0.46830000  1.0 0.1301822929
H  H133  1  0.64890000  0.59540000  0.96830000  1.0 0.1301822929
H  H134  1  0.64890000  0.40460000  0.53170000  1.0 0.1301822929
H  H135  1  0.85110000  0.90460000  0.96830000  1.0 0.1301822929
H  H136  1  0.85110000  0.09540000  0.53170000  1.0 0.1301822929
H  H137  1  0.27760000  0.41000000  0.05200000  1.0 0.1301822929
H  H138  1  0.27760000  0.59000000  0.44800000  1.0 0.1301822929
H  H139  1  0.22240000  0.09000000  0.05200000  1.0 0.1301822929
H  H140  1  0.22240000  0.91000000  0.44800000  1.0 0.1301822929
H  H141  1  0.72240000  0.59000000  0.94800000  1.0 0.1301822929
H  H142  1  0.72240000  0.41000000  0.55200000  1.0 0.1301822929
H  H143  1  0.77760000  0.91000000  0.94800000  1.0 0.1301822929
H  H144  1  0.77760000  0.09000000  0.55200000  1.0 0.1301822929
H  H145  1  0.15520000  0.36420000  0.92260000  1.0 0.1489983801
H  H146  1  0.15520000  0.63580000  0.57740000  1.0 0.1489983801
H  H147  1  0.34480000  0.13580000  0.92260000  1.0 0.1489983801
H  H148  1  0.34480000  0.86420000  0.57740000  1.0 0.1489983801
H  H149  1  0.84480000  0.63580000  0.07740000  1.0 0.1489983801
H  H150  1  0.84480000  0.36420000  0.42260000  1.0 0.1489983801
H  H151  1  0.65520000  0.86420000  0.07740000  1.0 0.1489983801
H  H152  1  0.65520000  0.13580000  0.42260000  1.0 0.1489983801
H  H153  1  0.10460000  0.40990000  0.91680000  1.0 0.1397579607
H  H154  1  0.10460000  0.59010000  0.58320000  1.0 0.1397579607
H  H155  1  0.39540000  0.09010000  0.91680000  1.0 0.1397579607
H  H156  1  0.39540000  0.90990000  0.58320000  1.0 0.1397579607
H  H157  1  0.89540000  0.59010000  0.08320000  1.0 0.1397579607
H  H158  1  0.89540000  0.40990000  0.41680000  1.0 0.1397579607
H  H159  1  0.60460000  0.90990000  0.08320000  1.0 0.1397579607
H  H160  1  0.60460000  0.09010000  0.41680000  1.0 0.1397579607
H  H161  1  0.17590000  0.40440000  0.89470000  1.0 0.1397579607
H  H162  1  0.17590000  0.59560000  0.60530000  1.0 0.1397579607
H  H163  1  0.32410000  0.09560000  0.89470000  1.0 0.1397579607
H  H164  1  0.32410000  0.90440000  0.60530000  1.0 0.1397579607
H  H165  1  0.82410000  0.59560000  0.10530000  1.0 0.1397579607
H  H166  1  0.82410000  0.40440000  0.39470000  1.0 0.1397579607
H  H167  1  0.67590000  0.90440000  0.10530000  1.0 0.1397579607
H  H168  1  0.67590000  0.09560000  0.39470000  1.0 0.1397579607
H  H169  1  0.14180000  0.48100000  0.89780000  1.0 0.1204172841
H  H170  1  0.14180000  0.51900000  0.60220000  1.0 0.1204172841
H  H171  1  0.35820000  0.01900000  0.89780000  1.0 0.1204172841
H  H172  1  0.35820000  0.98100000  0.60220000  1.0 0.1204172841
H  H173  1  0.85820000  0.51900000  0.10220000  1.0 0.1204172841
H  H174  1  0.85820000  0.48100000  0.39780000  1.0 0.1204172841
H  H175  1  0.64180000  0.98100000  0.10220000  1.0 0.1204172841
H  H176  1  0.64180000  0.01900000  0.39780000  1.0 0.1204172841
H  H177  1  0.13130000  0.52840000  0.92080000  1.0 0.1301822929
H  H178  1  0.13130000  0.47160000  0.57920000  1.0 0.1301822929
H  H179  1  0.36870000  0.97160000  0.92080000  1.0 0.1301822929
H  H180  1  0.36870000  0.02840000  0.57920000  1.0 0.1301822929
H  H181  1  0.86870000  0.47160000  0.07920000  1.0 0.1301822929
H  H182  1  0.86870000  0.52840000  0.42080000  1.0 0.1301822929
H  H183  1  0.63130000  0.02840000  0.07920000  1.0 0.1301822929
H  H184  1  0.63130000  0.97160000  0.42080000  1.0 0.1301822929
H  H185  1  0.20230000  0.52150000  0.89870000  1.0 0.1397579607
H  H186  1  0.20230000  0.47850000  0.60130000  1.0 0.1397579607
H  H187  1  0.29770000  0.97850000  0.89870000  1.0 0.1397579607
H  H188  1  0.29770000  0.02150000  0.60130000  1.0 0.1397579607
H  H189  1  0.79770000  0.47850000  0.10130000  1.0 0.1397579607
H  H190  1  0.79770000  0.52150000  0.39870000  1.0 0.1397579607
H  H191  1  0.70230000  0.02150000  0.10130000  1.0 0.1397579607
H  H192  1  0.70230000  0.97850000  0.39870000  1.0 0.1397579607
H  H193  1  0.15760000  0.52430000  0.01240000  1.0 0.1301822929
H  H194  1  0.15760000  0.47570000  0.48760000  1.0 0.1301822929
H  H195  1  0.34240000  0.97570000  0.01240000  1.0 0.1301822929
H  H196  1  0.34240000  0.02430000  0.48760000  1.0 0.1301822929
H  H197  1  0.84240000  0.47570000  0.98760000  1.0 0.1301822929
H  H198  1  0.84240000  0.52430000  0.51240000  1.0 0.1301822929
H  H199  1  0.65760000  0.02430000  0.98760000  1.0 0.1301822929
H  H200  1  0.65760000  0.97570000  0.51240000  1.0 0.1301822929
H  H201  1  0.11110000  0.55670000  0.03810000  1.0 0.1397579607
H  H202  1  0.11110000  0.44330000  0.46190000  1.0 0.1397579607
H  H203  1  0.38890000  0.94330000  0.03810000  1.0 0.1397579607
H  H204  1  0.38890000  0.05670000  0.46190000  1.0 0.1397579607
H  H205  1  0.88890000  0.44330000  0.96190000  1.0 0.1397579607
H  H206  1  0.88890000  0.55670000  0.53810000  1.0 0.1397579607
H  H207  1  0.61110000  0.05670000  0.96190000  1.0 0.1397579607
H  H208  1  0.61110000  0.94330000  0.53810000  1.0 0.1397579607
H  H209  1  0.07300000  0.52120000  0.01120000  1.0 0.1301822929
H  H210  1  0.07300000  0.47880000  0.48880000  1.0 0.1301822929
H  H211  1  0.42700000  0.97880000  0.01120000  1.0 0.1301822929
H  H212  1  0.42700000  0.02120000  0.48880000  1.0 0.1301822929
H  H213  1  0.92700000  0.47880000  0.98880000  1.0 0.1301822929
H  H214  1  0.92700000  0.52120000  0.51120000  1.0 0.1301822929
H  H215  1  0.57300000  0.02120000  0.98880000  1.0 0.1301822929
H  H216  1  0.57300000  0.97880000  0.51120000  1.0 0.1301822929
H  H217  1  0.94670000  0.62620000  0.00530000  1.0 0.1397579607
H  H218  1  0.94670000  0.37380000  0.49470000  1.0 0.1397579607
H  H219  1  0.55330000  0.87380000  0.00530000  1.0 0.1397579607
H  H220  1  0.55330000  0.12620000  0.49470000  1.0 0.1397579607
H  H221  1  0.05330000  0.37380000  0.99470000  1.0 0.1397579607
H  H222  1  0.05330000  0.62620000  0.50530000  1.0 0.1397579607
H  H223  1  0.44670000  0.12620000  0.99470000  1.0 0.1397579607
H  H224  1  0.44670000  0.87380000  0.50530000  1.0 0.1397579607
H  H225  1  0.96430000  0.57010000  0.00030000  1.0 0.1301822929
H  H226  1  0.96430000  0.42990000  0.49970000  1.0 0.1301822929
H  H227  1  0.53570000  0.92990000  0.00030000  1.0 0.1301822929
H  H228  1  0.53570000  0.07010000  0.49970000  1.0 0.1301822929
H  H229  1  0.03570000  0.42990000  0.99970000  1.0 0.1301822929
H  H230  1  0.03570000  0.57010000  0.50030000  1.0 0.1301822929
H  H231  1  0.46430000  0.07010000  0.99970000  1.0 0.1301822929
H  H232  1  0.46430000  0.92990000  0.50030000  1.0 0.1301822929
H  H233  1  0.99500000  0.59860000  0.03300000  1.0 0.1489983801
H  H234  1  0.99500000  0.40140000  0.46700000  1.0 0.1489983801
H  H235  1  0.50500000  0.90140000  0.03300000  1.0 0.1489983801
H  H236  1  0.50500000  0.09860000  0.46700000  1.0 0.1489983801
H  H237  1  0.00500000  0.40140000  0.96700000  1.0 0.1489983801
H  H238  1  0.00500000  0.59860000  0.53300000  1.0 0.1489983801
H  H239  1  0.49500000  0.09860000  0.96700000  1.0 0.1489983801
H  H240  1  0.49500000  0.90140000  0.53300000  1.0 0.1489983801
H  H241  1  0.06490000  0.73270000  0.92550000  1.0 0.1397579607
H  H242  1  0.06490000  0.26730000  0.57450000  1.0 0.1397579607
H  H243  1  0.43510000  0.76730000  0.92550000  1.0 0.1397579607
H  H244  1  0.43510000  0.23270000  0.57450000  1.0 0.1397579607
H  H245  1  0.93510000  0.26730000  0.07450000  1.0 0.1397579607
H  H246  1  0.93510000  0.73270000  0.42550000  1.0 0.1397579607
H  H247  1  0.56490000  0.23270000  0.07450000  1.0 0.1397579607
H  H248  1  0.56490000  0.76730000  0.42550000  1.0 0.1397579607
H  H249  1  0.14850000  0.73660000  0.93160000  1.0 0.1397579607
H  H250  1  0.14850000  0.26340000  0.56840000  1.0 0.1397579607
H  H251  1  0.35150000  0.76340000  0.93160000  1.0 0.1397579607
H  H252  1  0.35150000  0.23660000  0.56840000  1.0 0.1397579607
H  H253  1  0.85150000  0.26340000  0.06840000  1.0 0.1397579607
H  H254  1  0.85150000  0.73660000  0.43160000  1.0 0.1397579607
H  H255  1  0.64850000  0.23660000  0.06840000  1.0 0.1397579607
H  H256  1  0.64850000  0.76340000  0.43160000  1.0 0.1397579607
H  H257  1  0.11850000  0.70870000  0.89850000  1.0 0.1489983801
H  H258  1  0.11850000  0.29130000  0.60150000  1.0 0.1489983801
H  H259  1  0.38150000  0.79130000  0.89850000  1.0 0.1489983801
H  H260  1  0.38150000  0.20870000  0.60150000  1.0 0.1489983801
H  H261  1  0.88150000  0.29130000  0.10150000  1.0 0.1489983801
H  H262  1  0.88150000  0.70870000  0.39850000  1.0 0.1489983801
H  H263  1  0.61850000  0.20870000  0.10150000  1.0 0.1489983801
H  H264  1  0.61850000  0.79130000  0.39850000  1.0 0.1489983801
H  H265  1  0.26670000  0.62450000  0.91910000  1.0 0.1301822929
H  H266  1  0.26670000  0.37550000  0.58090000  1.0 0.1301822929
H  H267  1  0.23330000  0.87550000  0.91910000  1.0 0.1301822929
H  H268  1  0.23330000  0.12450000  0.58090000  1.0 0.1301822929
H  H269  1  0.73330000  0.37550000  0.08090000  1.0 0.1301822929
H  H270  1  0.73330000  0.62450000  0.41910000  1.0 0.1301822929
H  H271  1  0.76670000  0.12450000  0.08090000  1.0 0.1301822929
H  H272  1  0.76670000  0.87550000  0.41910000  1.0 0.1301822929
H  H273  1  0.20730000  0.64450000  0.89330000  1.0 0.1397579607
H  H274  1  0.20730000  0.35550000  0.60670000  1.0 0.1397579607
H  H275  1  0.29270000  0.85550000  0.89330000  1.0 0.1397579607
H  H276  1  0.29270000  0.14450000  0.60670000  1.0 0.1397579607
H  H277  1  0.79270000  0.35550000  0.10670000  1.0 0.1397579607
H  H278  1  0.79270000  0.64450000  0.39330000  1.0 0.1397579607
H  H279  1  0.70730000  0.14450000  0.10670000  1.0 0.1397579607
H  H280  1  0.70730000  0.85550000  0.39330000  1.0 0.1397579607
H  H281  1  0.24600000  0.68050000  0.91960000  1.0 0.1397579607
H  H282  1  0.24600000  0.31950000  0.58040000  1.0 0.1397579607
H  H283  1  0.25400000  0.81950000  0.91960000  1.0 0.1397579607
H  H284  1  0.25400000  0.18050000  0.58040000  1.0 0.1397579607
H  H285  1  0.75400000  0.31950000  0.08040000  1.0 0.1397579607
H  H286  1  0.75400000  0.68050000  0.41960000  1.0 0.1397579607
H  H287  1  0.74600000  0.18050000  0.08040000  1.0 0.1397579607
H  H288  1  0.74600000  0.81950000  0.41960000  1.0 0.1397579607
H  H289  1  0.42610000  0.67830000  0.87310000  1.0 0.1489983801
H  H290  1  0.42610000  0.32170000  0.62690000  1.0 0.1489983801
H  H291  1  0.07390000  0.82170000  0.87310000  1.0 0.1489983801
H  H292  1  0.07390000  0.17830000  0.62690000  1.0 0.1489983801
H  H293  1  0.57390000  0.32170000  0.12690000  1.0 0.1489983801
H  H294  1  0.57390000  0.67830000  0.37310000  1.0 0.1489983801
H  H295  1  0.92610000  0.17830000  0.12690000  1.0 0.1489983801
H  H296  1  0.92610000  0.82170000  0.37310000  1.0 0.1489983801
H  H297  1  0.34310000  0.68940000  0.87620000  1.0 0.1301822929
H  H298  1  0.34310000  0.31060000  0.62380000  1.0 0.1301822929
H  H299  1  0.15690000  0.81060000  0.87620000  1.0 0.1301822929
H  H300  1  0.15690000  0.18940000  0.62380000  1.0 0.1301822929
H  H301  1  0.65690000  0.31060000  0.12380000  1.0 0.1301822929
H  H302  1  0.65690000  0.68940000  0.37620000  1.0 0.1301822929
H  H303  1  0.84310000  0.18940000  0.12380000  1.0 0.1301822929
H  H304  1  0.84310000  0.81060000  0.37620000  1.0 0.1301822929
H  H305  1  0.36980000  0.64310000  0.85520000  1.0 0.1397579607
H  H306  1  0.36980000  0.35690000  0.64480000  1.0 0.1397579607
H  H307  1  0.13020000  0.85690000  0.85520000  1.0 0.1397579607
H  H308  1  0.13020000  0.14310000  0.64480000  1.0 0.1397579607
H  H309  1  0.63020000  0.35690000  0.14480000  1.0 0.1397579607
H  H310  1  0.63020000  0.64310000  0.35520000  1.0 0.1397579607
H  H311  1  0.86980000  0.14310000  0.14480000  1.0 0.1397579607
H  H312  1  0.86980000  0.85690000  0.35520000  1.0 0.1397579607
H  H313  1  0.21960000  0.68310000  0.79700000  1.0 0.1397579607
H  H314  1  0.21960000  0.31690000  0.70300000  1.0 0.1397579607
H  H315  1  0.28040000  0.81690000  0.79700000  1.0 0.1397579607
H  H316  1  0.28040000  0.18310000  0.70300000  1.0 0.1397579607
H  H317  1  0.78040000  0.31690000  0.20300000  1.0 0.1397579607
H  H318  1  0.78040000  0.68310000  0.29700000  1.0 0.1397579607
H  H319  1  0.71960000  0.18310000  0.20300000  1.0 0.1397579607
H  H320  1  0.71960000  0.81690000  0.29700000  1.0 0.1397579607
H  H321  1  0.27170000  0.64350000  0.81300000  1.0 0.1397579607
H  H322  1  0.27170000  0.35650000  0.68700000  1.0 0.1397579607
H  H323  1  0.22830000  0.85650000  0.81300000  1.0 0.1397579607
H  H324  1  0.22830000  0.14350000  0.68700000  1.0 0.1397579607
H  H325  1  0.72830000  0.35650000  0.18700000  1.0 0.1397579607
H  H326  1  0.72830000  0.64350000  0.31300000  1.0 0.1397579607
H  H327  1  0.77170000  0.14350000  0.18700000  1.0 0.1397579607
H  H328  1  0.77170000  0.85650000  0.31300000  1.0 0.1397579607
H  H329  1  0.23980000  0.68500000  0.83710000  1.0 0.1397579607
H  H330  1  0.23980000  0.31500000  0.66290000  1.0 0.1397579607
H  H331  1  0.26020000  0.81500000  0.83710000  1.0 0.1397579607
H  H332  1  0.26020000  0.18500000  0.66290000  1.0 0.1397579607
H  H333  1  0.76020000  0.31500000  0.16290000  1.0 0.1397579607
H  H334  1  0.76020000  0.68500000  0.33710000  1.0 0.1397579607
H  H335  1  0.73980000  0.18500000  0.16290000  1.0 0.1397579607
H  H336  1  0.73980000  0.81500000  0.33710000  1.0 0.1397579607
H  H337  1  0.34690000  0.80020000  0.72060000  1.0 0.1301822929
H  H338  1  0.34690000  0.19980000  0.77940000  1.0 0.1301822929
H  H339  1  0.15310000  0.69980000  0.72060000  1.0 0.1301822929
H  H340  1  0.15310000  0.30020000  0.77940000  1.0 0.1301822929
H  H341  1  0.65310000  0.19980000  0.27940000  1.0 0.1301822929
H  H342  1  0.65310000  0.80020000  0.22060000  1.0 0.1301822929
H  H343  1  0.84690000  0.30020000  0.27940000  1.0 0.1301822929
H  H344  1  0.84690000  0.69980000  0.22060000  1.0 0.1301822929
H  H345  1  0.40040000  0.83450000  0.74130000  1.0 0.1397579607
H  H346  1  0.40040000  0.16550000  0.75870000  1.0 0.1397579607
H  H347  1  0.09960000  0.66550000  0.74130000  1.0 0.1397579607
H  H348  1  0.09960000  0.33450000  0.75870000  1.0 0.1397579607
H  H349  1  0.59960000  0.16550000  0.25870000  1.0 0.1397579607
H  H350  1  0.59960000  0.83450000  0.24130000  1.0 0.1397579607
H  H351  1  0.90040000  0.33450000  0.25870000  1.0 0.1397579607
H  H352  1  0.90040000  0.66550000  0.24130000  1.0 0.1397579607
H  H353  1  0.43050000  0.79120000  0.71820000  1.0 0.1489983801
H  H354  1  0.43050000  0.20880000  0.78180000  1.0 0.1489983801
H  H355  1  0.06950000  0.70880000  0.71820000  1.0 0.1489983801
H  H356  1  0.06950000  0.29120000  0.78180000  1.0 0.1489983801
H  H357  1  0.56950000  0.20880000  0.28180000  1.0 0.1489983801
H  H358  1  0.56950000  0.79120000  0.21820000  1.0 0.1489983801
H  H359  1  0.93050000  0.29120000  0.28180000  1.0 0.1489983801
H  H360  1  0.93050000  0.70880000  0.21820000  1.0 0.1489983801
H  H361  1  0.51420000  0.80560000  0.75630000  1.0 0.1301822929
H  H362  1  0.51420000  0.19440000  0.74370000  1.0 0.1301822929
H  H363  1  0.98580000  0.69440000  0.75630000  1.0 0.1301822929
H  H364  1  0.98580000  0.30560000  0.74370000  1.0 0.1301822929
H  H365  1  0.48580000  0.19440000  0.24370000  1.0 0.1301822929
H  H366  1  0.48580000  0.80560000  0.25630000  1.0 0.1301822929
H  H367  1  0.01420000  0.30560000  0.24370000  1.0 0.1301822929
H  H368  1  0.01420000  0.69440000  0.25630000  1.0 0.1301822929
H  H369  1  0.53650000  0.80810000  0.79620000  1.0 0.1397579607
H  H370  1  0.53650000  0.19190000  0.70380000  1.0 0.1397579607
H  H371  1  0.96350000  0.69190000  0.79620000  1.0 0.1397579607
H  H372  1  0.96350000  0.30810000  0.70380000  1.0 0.1397579607
H  H373  1  0.46350000  0.19190000  0.20380000  1.0 0.1397579607
H  H374  1  0.46350000  0.80810000  0.29620000  1.0 0.1397579607
H  H375  1  0.03650000  0.30810000  0.20380000  1.0 0.1397579607
H  H376  1  0.03650000  0.69190000  0.29620000  1.0 0.1397579607
H  H377  1  0.55580000  0.76150000  0.77360000  1.0 0.1489983801
H  H378  1  0.55580000  0.23850000  0.72640000  1.0 0.1489983801
H  H379  1  0.94420000  0.73850000  0.77360000  1.0 0.1489983801
H  H380  1  0.94420000  0.26150000  0.72640000  1.0 0.1489983801
H  H381  1  0.44420000  0.23850000  0.22640000  1.0 0.1489983801
H  H382  1  0.44420000  0.76150000  0.27360000  1.0 0.1489983801
H  H383  1  0.05580000  0.26150000  0.22640000  1.0 0.1489983801
H  H384  1  0.05580000  0.73850000  0.27360000  1.0 0.1489983801
H  H385  1  0.18490000  0.86210000  0.69720000  1.0 0.1204172841
H  H386  1  0.18490000  0.13790000  0.80280000  1.0 0.1204172841
H  H387  1  0.31510000  0.63790000  0.69720000  1.0 0.1204172841
H  H388  1  0.31510000  0.36210000  0.80280000  1.0 0.1204172841
H  H389  1  0.81510000  0.13790000  0.30280000  1.0 0.1204172841
H  H390  1  0.81510000  0.86210000  0.19720000  1.0 0.1204172841
H  H391  1  0.68490000  0.36210000  0.30280000  1.0 0.1204172841
H  H392  1  0.68490000  0.63790000  0.19720000  1.0 0.1204172841
H  H393  1  0.16070000  0.82840000  0.72870000  1.0 0.1301822929
H  H394  1  0.16070000  0.17160000  0.77130000  1.0 0.1301822929
H  H395  1  0.33930000  0.67160000  0.72870000  1.0 0.1301822929
H  H396  1  0.33930000  0.32840000  0.77130000  1.0 0.1301822929
H  H397  1  0.83930000  0.17160000  0.27130000  1.0 0.1301822929
H  H398  1  0.83930000  0.82840000  0.22870000  1.0 0.1301822929
H  H399  1  0.66070000  0.32840000  0.27130000  1.0 0.1301822929
H  H400  1  0.66070000  0.67160000  0.22870000  1.0 0.1301822929
H  H401  1  0.23970000  0.84930000  0.72740000  1.0 0.1397579607
H  H402  1  0.23970000  0.15070000  0.77260000  1.0 0.1397579607
H  H403  1  0.26030000  0.65070000  0.72740000  1.0 0.1397579607
H  H404  1  0.26030000  0.34930000  0.77260000  1.0 0.1397579607
H  H405  1  0.76030000  0.15070000  0.27260000  1.0 0.1397579607
H  H406  1  0.76030000  0.84930000  0.22740000  1.0 0.1397579607
H  H407  1  0.73970000  0.34930000  0.27260000  1.0 0.1397579607
H  H408  1  0.73970000  0.65070000  0.22740000  1.0 0.1397579607
H  H409  1  0.18810000  0.86310000  0.64940000  1.0 0.1301822929
H  H410  1  0.18810000  0.13690000  0.85060000  1.0 0.1301822929
H  H411  1  0.31190000  0.63690000  0.64940000  1.0 0.1301822929
H  H412  1  0.31190000  0.36310000  0.85060000  1.0 0.1301822929
H  H413  1  0.81190000  0.13690000  0.35060000  1.0 0.1301822929
H  H414  1  0.81190000  0.86310000  0.14940000  1.0 0.1301822929
H  H415  1  0.68810000  0.36310000  0.35060000  1.0 0.1301822929
H  H416  1  0.68810000  0.63690000  0.14940000  1.0 0.1301822929
H  H417  1  0.24380000  0.84790000  0.62010000  1.0 0.1397579607
H  H418  1  0.24380000  0.15210000  0.87990000  1.0 0.1397579607
H  H419  1  0.25620000  0.65210000  0.62010000  1.0 0.1397579607
H  H420  1  0.25620000  0.34790000  0.87990000  1.0 0.1397579607
H  H421  1  0.75620000  0.15210000  0.37990000  1.0 0.1397579607
H  H422  1  0.75620000  0.84790000  0.12010000  1.0 0.1397579607
H  H423  1  0.74380000  0.34790000  0.37990000  1.0 0.1397579607
H  H424  1  0.74380000  0.65210000  0.12010000  1.0 0.1397579607
H  H425  1  0.16420000  0.82810000  0.61870000  1.0 0.1397579607
H  H426  1  0.16420000  0.17190000  0.88130000  1.0 0.1397579607
H  H427  1  0.33580000  0.67190000  0.61870000  1.0 0.1397579607
H  H428  1  0.33580000  0.32810000  0.88130000  1.0 0.1397579607
H  H429  1  0.83580000  0.17190000  0.38130000  1.0 0.1397579607
H  H430  1  0.83580000  0.82810000  0.11870000  1.0 0.1397579607
H  H431  1  0.66420000  0.32810000  0.38130000  1.0 0.1397579607
H  H432  1  0.66420000  0.67190000  0.11870000  1.0 0.1397579607
H  H433  1  0.79310000  0.66860000  0.81820000  1.0 0.1397579607
H  H434  1  0.79310000  0.33140000  0.68180000  1.0 0.1397579607
H  H435  1  0.70690000  0.83140000  0.81820000  1.0 0.1397579607
H  H436  1  0.70690000  0.16860000  0.68180000  1.0 0.1397579607
H  H437  1  0.20690000  0.33140000  0.18180000  1.0 0.1397579607
H  H438  1  0.20690000  0.66860000  0.31820000  1.0 0.1397579607
H  H439  1  0.29310000  0.16860000  0.18180000  1.0 0.1397579607
H  H440  1  0.29310000  0.83140000  0.31820000  1.0 0.1397579607
H  H441  1  0.76760000  0.63530000  0.78680000  1.0 0.1397579607
H  H442  1  0.76760000  0.36470000  0.71320000  1.0 0.1397579607
H  H443  1  0.73240000  0.86470000  0.78680000  1.0 0.1397579607
H  H444  1  0.73240000  0.13530000  0.71320000  1.0 0.1397579607
H  H445  1  0.23240000  0.36470000  0.21320000  1.0 0.1397579607
H  H446  1  0.23240000  0.63530000  0.28680000  1.0 0.1397579607
H  H447  1  0.26760000  0.13530000  0.21320000  1.0 0.1397579607
H  H448  1  0.26760000  0.86470000  0.28680000  1.0 0.1397579607
H  H449  1  0.84730000  0.65490000  0.78800000  1.0 0.1301822929
H  H450  1  0.84730000  0.34510000  0.71200000  1.0 0.1301822929
H  H451  1  0.65270000  0.84510000  0.78800000  1.0 0.1301822929
H  H452  1  0.65270000  0.15490000  0.71200000  1.0 0.1301822929
H  H453  1  0.15270000  0.34510000  0.21200000  1.0 0.1301822929
H  H454  1  0.15270000  0.65490000  0.28800000  1.0 0.1301822929
H  H455  1  0.34730000  0.15490000  0.21200000  1.0 0.1301822929
H  H456  1  0.34730000  0.84510000  0.28800000  1.0 0.1301822929
H  H457  1  0.82340000  0.64050000  0.73480000  1.0 0.1204172841
H  H458  1  0.82340000  0.35950000  0.76520000  1.0 0.1204172841
H  H459  1  0.67660000  0.85950000  0.73480000  1.0 0.1204172841
H  H460  1  0.67660000  0.14050000  0.76520000  1.0 0.1204172841
H  H461  1  0.17660000  0.35950000  0.26520000  1.0 0.1204172841
H  H462  1  0.17660000  0.64050000  0.23480000  1.0 0.1204172841
H  H463  1  0.32340000  0.14050000  0.26520000  1.0 0.1204172841
H  H464  1  0.32340000  0.85950000  0.23480000  1.0 0.1204172841
H  H465  1  0.77230000  0.64940000  0.70240000  1.0 0.1301822929
H  H466  1  0.77230000  0.35060000  0.79760000  1.0 0.1301822929
H  H467  1  0.72770000  0.85060000  0.70240000  1.0 0.1301822929
H  H468  1  0.72770000  0.14940000  0.79760000  1.0 0.1301822929
H  H469  1  0.22770000  0.35060000  0.29760000  1.0 0.1301822929
H  H470  1  0.22770000  0.64940000  0.20240000  1.0 0.1301822929
H  H471  1  0.27230000  0.14940000  0.29760000  1.0 0.1301822929
H  H472  1  0.27230000  0.85060000  0.20240000  1.0 0.1301822929
H  H473  1  0.84920000  0.67360000  0.70330000  1.0 0.1397579607
H  H474  1  0.84920000  0.32640000  0.79670000  1.0 0.1397579607
H  H475  1  0.65080000  0.82640000  0.70330000  1.0 0.1397579607
H  H476  1  0.65080000  0.17360000  0.79670000  1.0 0.1397579607
H  H477  1  0.15080000  0.32640000  0.29670000  1.0 0.1397579607
H  H478  1  0.15080000  0.67360000  0.20330000  1.0 0.1397579607
H  H479  1  0.34920000  0.17360000  0.29670000  1.0 0.1397579607
H  H480  1  0.34920000  0.82640000  0.20330000  1.0 0.1397579607
H  H481  1  0.83490000  0.81220000  0.70250000  1.0 0.1204172841
H  H482  1  0.83490000  0.18780000  0.79750000  1.0 0.1204172841
H  H483  1  0.66510000  0.68780000  0.70250000  1.0 0.1204172841
H  H484  1  0.66510000  0.31220000  0.79750000  1.0 0.1204172841
H  H485  1  0.16510000  0.18780000  0.29750000  1.0 0.1204172841
H  H486  1  0.16510000  0.81220000  0.20250000  1.0 0.1204172841
H  H487  1  0.33490000  0.31220000  0.29750000  1.0 0.1204172841
H  H488  1  0.33490000  0.68780000  0.20250000  1.0 0.1204172841
H  H489  1  0.91800000  0.80600000  0.70960000  1.0 0.1397579607
H  H490  1  0.91800000  0.19400000  0.79040000  1.0 0.1397579607
H  H491  1  0.58200000  0.69400000  0.70960000  1.0 0.1397579607
H  H492  1  0.58200000  0.30600000  0.79040000  1.0 0.1397579607
H  H493  1  0.08200000  0.19400000  0.29040000  1.0 0.1397579607
H  H494  1  0.08200000  0.80600000  0.20960000  1.0 0.1397579607
H  H495  1  0.41800000  0.30600000  0.29040000  1.0 0.1397579607
H  H496  1  0.41800000  0.69400000  0.20960000  1.0 0.1397579607
H  H497  1  0.89100000  0.84290000  0.68070000  1.0 0.1397579607
H  H498  1  0.89100000  0.15710000  0.81930000  1.0 0.1397579607
H  H499  1  0.60900000  0.65710000  0.68070000  1.0 0.1397579607
H  H500  1  0.60900000  0.34290000  0.81930000  1.0 0.1397579607
H  H501  1  0.10900000  0.15710000  0.31930000  1.0 0.1397579607
H  H502  1  0.10900000  0.84290000  0.18070000  1.0 0.1397579607
H  H503  1  0.39100000  0.34290000  0.31930000  1.0 0.1397579607
H  H504  1  0.39100000  0.65710000  0.18070000  1.0 0.1397579607
H  H505  1  0.00280000  0.81880000  0.67470000  1.0 0.1204172841
H  H506  1  0.00280000  0.18120000  0.82530000  1.0 0.1204172841
H  H507  1  0.49720000  0.68120000  0.67470000  1.0 0.1204172841
H  H508  1  0.49720000  0.31880000  0.82530000  1.0 0.1204172841
H  H509  1  0.99720000  0.18120000  0.32530000  1.0 0.1204172841
H  H510  1  0.99720000  0.81880000  0.17470000  1.0 0.1204172841
H  H511  1  0.50280000  0.31880000  0.32530000  1.0 0.1204172841
H  H512  1  0.50280000  0.68120000  0.17470000  1.0 0.1204172841
H  H513  1  0.05580000  0.77750000  0.66170000  1.0 0.1489983801
H  H514  1  0.05580000  0.22250000  0.83830000  1.0 0.1489983801
H  H515  1  0.44420000  0.72250000  0.66170000  1.0 0.1489983801
H  H516  1  0.44420000  0.27750000  0.83830000  1.0 0.1489983801
H  H517  1  0.94420000  0.22250000  0.33830000  1.0 0.1489983801
H  H518  1  0.94420000  0.77750000  0.16170000  1.0 0.1489983801
H  H519  1  0.55580000  0.27750000  0.33830000  1.0 0.1489983801
H  H520  1  0.55580000  0.72250000  0.16170000  1.0 0.1489983801
H  H521  1  0.02790000  0.81760000  0.63530000  1.0 0.1397579607
H  H522  1  0.02790000  0.18240000  0.86470000  1.0 0.1397579607
H  H523  1  0.47210000  0.68240000  0.63530000  1.0 0.1397579607
H  H524  1  0.47210000  0.31760000  0.86470000  1.0 0.1397579607
H  H525  1  0.97210000  0.18240000  0.36470000  1.0 0.1397579607
H  H526  1  0.97210000  0.81760000  0.13530000  1.0 0.1397579607
H  H527  1  0.52790000  0.31760000  0.36470000  1.0 0.1397579607
H  H528  1  0.52790000  0.68240000  0.13530000  1.0 0.1397579607
H  H529  1  0.95000000  0.66500000  0.56860000  1.0 0.1397579607
H  H530  1  0.95000000  0.33500000  0.93140000  1.0 0.1397579607
H  H531  1  0.55000000  0.83500000  0.56860000  1.0 0.1397579607
H  H532  1  0.55000000  0.16500000  0.93140000  1.0 0.1397579607
H  H533  1  0.05000000  0.33500000  0.43140000  1.0 0.1397579607
H  H534  1  0.05000000  0.66500000  0.06860000  1.0 0.1397579607
H  H535  1  0.45000000  0.16500000  0.43140000  1.0 0.1397579607
H  H536  1  0.45000000  0.83500000  0.06860000  1.0 0.1397579607
H  H537  1  0.89180000  0.63180000  0.58700000  1.0 0.1397579607
H  H538  1  0.89180000  0.36820000  0.91300000  1.0 0.1397579607
H  H539  1  0.60820000  0.86820000  0.58700000  1.0 0.1397579607
H  H540  1  0.60820000  0.13180000  0.91300000  1.0 0.1397579607
H  H541  1  0.10820000  0.36820000  0.41300000  1.0 0.1397579607
H  H542  1  0.10820000  0.63180000  0.08700000  1.0 0.1397579607
H  H543  1  0.39180000  0.13180000  0.41300000  1.0 0.1397579607
H  H544  1  0.39180000  0.86820000  0.08700000  1.0 0.1397579607
H  H545  1  0.86770000  0.67220000  0.55990000  1.0 0.1397579607
H  H546  1  0.86770000  0.32780000  0.94010000  1.0 0.1397579607
H  H547  1  0.63230000  0.82780000  0.55990000  1.0 0.1397579607
H  H548  1  0.63230000  0.17220000  0.94010000  1.0 0.1397579607
H  H549  1  0.13230000  0.32780000  0.44010000  1.0 0.1397579607
H  H550  1  0.13230000  0.67220000  0.05990000  1.0 0.1397579607
H  H551  1  0.36770000  0.17220000  0.44010000  1.0 0.1397579607
H  H552  1  0.36770000  0.82780000  0.05990000  1.0 0.1397579607
H  H553  1  0.78130000  0.65510000  0.59640000  1.0 0.1204172841
H  H554  1  0.78130000  0.34490000  0.90360000  1.0 0.1204172841
H  H555  1  0.71870000  0.84490000  0.59640000  1.0 0.1204172841
H  H556  1  0.71870000  0.15510000  0.90360000  1.0 0.1204172841
H  H557  1  0.21870000  0.34490000  0.40360000  1.0 0.1204172841
H  H558  1  0.21870000  0.65510000  0.09640000  1.0 0.1204172841
H  H559  1  0.28130000  0.15510000  0.40360000  1.0 0.1204172841
H  H560  1  0.28130000  0.84490000  0.09640000  1.0 0.1204172841
H  H561  1  0.75190000  0.65520000  0.63520000  1.0 0.1397579607
H  H562  1  0.75190000  0.34480000  0.86480000  1.0 0.1397579607
H  H563  1  0.74810000  0.84480000  0.63520000  1.0 0.1397579607
H  H564  1  0.74810000  0.15520000  0.86480000  1.0 0.1397579607
H  H565  1  0.24810000  0.34480000  0.36480000  1.0 0.1397579607
H  H566  1  0.24810000  0.65520000  0.13520000  1.0 0.1397579607
H  H567  1  0.25190000  0.15520000  0.36480000  1.0 0.1397579607
H  H568  1  0.25190000  0.84480000  0.13520000  1.0 0.1397579607
H  H569  1  0.72660000  0.69580000  0.60850000  1.0 0.1397579607
H  H570  1  0.72660000  0.30420000  0.89150000  1.0 0.1397579607
H  H571  1  0.77340000  0.80420000  0.60850000  1.0 0.1397579607
H  H572  1  0.77340000  0.19580000  0.89150000  1.0 0.1397579607
H  H573  1  0.27340000  0.30420000  0.39150000  1.0 0.1397579607
H  H574  1  0.27340000  0.69580000  0.10850000  1.0 0.1397579607
H  H575  1  0.22660000  0.19580000  0.39150000  1.0 0.1397579607
H  H576  1  0.22660000  0.80420000  0.10850000  1.0 0.1397579607
H  H577  1  0.47420000  0.53440000  0.04030000  1.0 0.1397579607
H  H578  1  0.47420000  0.46560000  0.45970000  1.0 0.1397579607
H  H579  1  0.02580000  0.96560000  0.04030000  1.0 0.1397579607
H  H580  1  0.02580000  0.03440000  0.45970000  1.0 0.1397579607
H  H581  1  0.52580000  0.46560000  0.95970000  1.0 0.1397579607
H  H582  1  0.52580000  0.53440000  0.54030000  1.0 0.1397579607
H  H583  1  0.97420000  0.03440000  0.95970000  1.0 0.1397579607
H  H584  1  0.97420000  0.96560000  0.54030000  1.0 0.1397579607
H  H585  1  0.51810000  0.56220000  0.01100000  1.0 0.1489983801
H  H586  1  0.51810000  0.43780000  0.48900000  1.0 0.1489983801
H  H587  1  0.98190000  0.93780000  0.01100000  1.0 0.1489983801
H  H588  1  0.98190000  0.06220000  0.48900000  1.0 0.1489983801
H  H589  1  0.48190000  0.43780000  0.98900000  1.0 0.1489983801
H  H590  1  0.48190000  0.56220000  0.51100000  1.0 0.1489983801
H  H591  1  0.01810000  0.06220000  0.98900000  1.0 0.1489983801
H  H592  1  0.01810000  0.93780000  0.51100000  1.0 0.1489983801
H  H593  1  0.55900000  0.53340000  0.04080000  1.0 0.1397579607
H  H594  1  0.55900000  0.46660000  0.45920000  1.0 0.1397579607
H  H595  1  0.94100000  0.96660000  0.04080000  1.0 0.1397579607
H  H596  1  0.94100000  0.03340000  0.45920000  1.0 0.1397579607
H  H597  1  0.44100000  0.46660000  0.95920000  1.0 0.1397579607
H  H598  1  0.44100000  0.53340000  0.54080000  1.0 0.1397579607
H  H599  1  0.05900000  0.03340000  0.95920000  1.0 0.1397579607
H  H600  1  0.05900000  0.96660000  0.54080000  1.0 0.1397579607
H  H601  1  0.42270000  0.58490000  0.07560000  1.0 0.1397579607
H  H602  1  0.42270000  0.41510000  0.42440000  1.0 0.1397579607
H  H603  1  0.07730000  0.91510000  0.07560000  1.0 0.1397579607
H  H604  1  0.07730000  0.08490000  0.42440000  1.0 0.1397579607
H  H605  1  0.57730000  0.41510000  0.92440000  1.0 0.1397579607
H  H606  1  0.57730000  0.58490000  0.57560000  1.0 0.1397579607
H  H607  1  0.92270000  0.08490000  0.92440000  1.0 0.1397579607
H  H608  1  0.92270000  0.91510000  0.57560000  1.0 0.1397579607
H  H609  1  0.47280000  0.61730000  0.09960000  1.0 0.1489983801
H  H610  1  0.47280000  0.38270000  0.40040000  1.0 0.1489983801
H  H611  1  0.02720000  0.88270000  0.09960000  1.0 0.1489983801
H  H612  1  0.02720000  0.11730000  0.40040000  1.0 0.1489983801
H  H613  1  0.52720000  0.38270000  0.90040000  1.0 0.1489983801
H  H614  1  0.52720000  0.61730000  0.59960000  1.0 0.1489983801
H  H615  1  0.97280000  0.11730000  0.90040000  1.0 0.1489983801
H  H616  1  0.97280000  0.88270000  0.59960000  1.0 0.1489983801
H  H617  1  0.43820000  0.63980000  0.06550000  1.0 0.1489983801
H  H618  1  0.43820000  0.36020000  0.43450000  1.0 0.1489983801
H  H619  1  0.06180000  0.86020000  0.06550000  1.0 0.1489983801
H  H620  1  0.06180000  0.13980000  0.43450000  1.0 0.1489983801
H  H621  1  0.56180000  0.36020000  0.93450000  1.0 0.1489983801
H  H622  1  0.56180000  0.63980000  0.56550000  1.0 0.1489983801
H  H623  1  0.93820000  0.13980000  0.93450000  1.0 0.1489983801
H  H624  1  0.93820000  0.86020000  0.56550000  1.0 0.1489983801
H  H625  1  0.62010000  0.61900000  0.04040000  1.0 0.1084638656
H  H626  1  0.62010000  0.38100000  0.45960000  1.0 0.1084638656
H  H627  1  0.87990000  0.88100000  0.04040000  1.0 0.1084638656
H  H628  1  0.87990000  0.11900000  0.45960000  1.0 0.1084638656
H  H629  1  0.37990000  0.38100000  0.95960000  1.0 0.1084638656
H  H630  1  0.37990000  0.61900000  0.54040000  1.0 0.1084638656
H  H631  1  0.12010000  0.11900000  0.95960000  1.0 0.1084638656
H  H632  1  0.12010000  0.88100000  0.54040000  1.0 0.1084638656
H  H633  1  0.51130000  0.92050000  0.86220000  1.0 0.1397579607
H  H634  1  0.51130000  0.07950000  0.63780000  1.0 0.1397579607
H  H635  1  0.98870000  0.57950000  0.86220000  1.0 0.1397579607
H  H636  1  0.98870000  0.42050000  0.63780000  1.0 0.1397579607
H  H637  1  0.48870000  0.07950000  0.13780000  1.0 0.1397579607
H  H638  1  0.48870000  0.92050000  0.36220000  1.0 0.1397579607
H  H639  1  0.01130000  0.42050000  0.13780000  1.0 0.1397579607
H  H640  1  0.01130000  0.57950000  0.36220000  1.0 0.1397579607
H  H641  1  0.56100000  0.87540000  0.85340000  1.0 0.1584378952
H  H642  1  0.56100000  0.12460000  0.64660000  1.0 0.1584378952
H  H643  1  0.93900000  0.62460000  0.85340000  1.0 0.1584378952
H  H644  1  0.93900000  0.37540000  0.64660000  1.0 0.1584378952
H  H645  1  0.43900000  0.12460000  0.14660000  1.0 0.1584378952
H  H646  1  0.43900000  0.87540000  0.35340000  1.0 0.1584378952
H  H647  1  0.06100000  0.37540000  0.14660000  1.0 0.1584378952
H  H648  1  0.06100000  0.62460000  0.35340000  1.0 0.1584378952
H  H649  1  0.51100000  0.87400000  0.88670000  1.0 0.1489983801
H  H650  1  0.51100000  0.12600000  0.61330000  1.0 0.1489983801
H  H651  1  0.98900000  0.62600000  0.88670000  1.0 0.1489983801
H  H652  1  0.98900000  0.37400000  0.61330000  1.0 0.1489983801
H  H653  1  0.48900000  0.12600000  0.11330000  1.0 0.1489983801
H  H654  1  0.48900000  0.87400000  0.38670000  1.0 0.1489983801
H  H655  1  0.01100000  0.37400000  0.11330000  1.0 0.1489983801
H  H656  1  0.01100000  0.62600000  0.38670000  1.0 0.1489983801
H  H657  1  0.61210000  0.96650000  0.93420000  1.0 0.1397579607
H  H658  1  0.61210000  0.03350000  0.56580000  1.0 0.1397579607
H  H659  1  0.88790000  0.53350000  0.93420000  1.0 0.1397579607
H  H660  1  0.88790000  0.46650000  0.56580000  1.0 0.1397579607
H  H661  1  0.38790000  0.03350000  0.06580000  1.0 0.1397579607
H  H662  1  0.38790000  0.96650000  0.43420000  1.0 0.1397579607
H  H663  1  0.11210000  0.46650000  0.06580000  1.0 0.1397579607
H  H664  1  0.11210000  0.53350000  0.43420000  1.0 0.1397579607
H  H665  1  0.54900000  0.98010000  0.90840000  1.0 0.1489983801
H  H666  1  0.54900000  0.01990000  0.59160000  1.0 0.1489983801
H  H667  1  0.95100000  0.51990000  0.90840000  1.0 0.1489983801
H  H668  1  0.95100000  0.48010000  0.59160000  1.0 0.1489983801
H  H669  1  0.45100000  0.01990000  0.09160000  1.0 0.1489983801
H  H670  1  0.45100000  0.98010000  0.40840000  1.0 0.1489983801
H  H671  1  0.04900000  0.48010000  0.09160000  1.0 0.1489983801
H  H672  1  0.04900000  0.51990000  0.40840000  1.0 0.1489983801
H  H673  1  0.53880000  0.93750000  0.93580000  1.0 0.1397579607
H  H674  1  0.53880000  0.06250000  0.56420000  1.0 0.1397579607
H  H675  1  0.96120000  0.56250000  0.93580000  1.0 0.1397579607
H  H676  1  0.96120000  0.43750000  0.56420000  1.0 0.1397579607
H  H677  1  0.46120000  0.06250000  0.06420000  1.0 0.1397579607
H  H678  1  0.46120000  0.93750000  0.43580000  1.0 0.1397579607
H  H679  1  0.03880000  0.43750000  0.06420000  1.0 0.1397579607
H  H680  1  0.03880000  0.56250000  0.43580000  1.0 0.1397579607
H  H681  1  0.66340000  0.87920000  0.93360000  1.0 0.1084638656
H  H682  1  0.66340000  0.12080000  0.56640000  1.0 0.1084638656
H  H683  1  0.83660000  0.62080000  0.93360000  1.0 0.1084638656
H  H684  1  0.83660000  0.37920000  0.56640000  1.0 0.1084638656
H  H685  1  0.33660000  0.12080000  0.06640000  1.0 0.1084638656
H  H686  1  0.33660000  0.87920000  0.43360000  1.0 0.1084638656
H  H687  1  0.16340000  0.37920000  0.06640000  1.0 0.1084638656
H  H688  1  0.16340000  0.62080000  0.43360000  1.0 0.1084638656
C  C1  1  0.51660000  0.67750000  0.96340000  1.0 0.6291204408
C  C2  1  0.51660000  0.32250000  0.53660000  1.0 0.6291204408
C  C3  1  0.98340000  0.82250000  0.96340000  1.0 0.6291204408
C  C4  1  0.98340000  0.17750000  0.53660000  1.0 0.6291204408
C  C5  1  0.48340000  0.32250000  0.03660000  1.0 0.6291204408
C  C6  1  0.48340000  0.67750000  0.46340000  1.0 0.6291204408
C  C7  1  0.01660000  0.17750000  0.03660000  1.0 0.6291204408
C  C8  1  0.01660000  0.82250000  0.46340000  1.0 0.6291204408
C  C9  1  0.44750000  0.64738000  0.96486000  1.0 -0.151089976
C  C10  1  0.44750000  0.35262000  0.53514000  1.0 -0.151089976
C  C11  1  0.05250000  0.85262000  0.96486000  1.0 -0.151089976
C  C12  1  0.05250000  0.14738000  0.53514000  1.0 -0.151089976
C  C13  1  0.55250000  0.35262000  0.03514000  1.0 -0.151089976
C  C14  1  0.55250000  0.64738000  0.46486000  1.0 -0.151089976
C  C15  1  0.94750000  0.14738000  0.03514000  1.0 -0.151089976
C  C16  1  0.94750000  0.85262000  0.46486000  1.0 -0.151089976
C  C17  1  0.39290000  0.66029000  0.98831000  1.0 0.0903978047
C  C18  1  0.39290000  0.33971000  0.51169000  1.0 0.0903978047
C  C19  1  0.10710000  0.83971000  0.98831000  1.0 0.0903978047
C  C20  1  0.10710000  0.16029000  0.51169000  1.0 0.0903978047
C  C21  1  0.60710000  0.33971000  0.01169000  1.0 0.0903978047
C  C22  1  0.60710000  0.66029000  0.48831000  1.0 0.0903978047
C  C23  1  0.89290000  0.16029000  0.01169000  1.0 0.0903978047
C  C24  1  0.89290000  0.83971000  0.48831000  1.0 0.0903978047
C  C25  1  0.32990000  0.63246000  0.98994000  1.0 0.1084638656
C  C26  1  0.32990000  0.36754000  0.51006000  1.0 0.1084638656
C  C27  1  0.17010000  0.86754000  0.98994000  1.0 0.1084638656
C  C28  1  0.17010000  0.13246000  0.51006000  1.0 0.1084638656
C  C29  1  0.67010000  0.36754000  0.01006000  1.0 0.1084638656
C  C30  1  0.67010000  0.63246000  0.48994000  1.0 0.1084638656
C  C31  1  0.82990000  0.13246000  0.01006000  1.0 0.1084638656
C  C32  1  0.82990000  0.86754000  0.48994000  1.0 0.1084638656
C  C33  1  0.32140000  0.59172000  0.96812000  1.0 -0.2278820629
C  C34  1  0.32140000  0.40828000  0.53188000  1.0 -0.2278820629
C  C35  1  0.17860000  0.90828000  0.96812000  1.0 -0.2278820629
C  C36  1  0.17860000  0.09172000  0.53188000  1.0 -0.2278820629
C  C37  1  0.67860000  0.40828000  0.03188000  1.0 -0.2278820629
C  C38  1  0.67860000  0.59172000  0.46812000  1.0 -0.2278820629
C  C39  1  0.82140000  0.09172000  0.03188000  1.0 -0.2278820629
C  C40  1  0.82140000  0.90828000  0.46812000  1.0 -0.2278820629
C  C41  1  0.37600000  0.57881000  0.94467000  1.0 0.1000523828
C  C42  1  0.37600000  0.42119000  0.55533000  1.0 0.1000523828
C  C43  1  0.12400000  0.92119000  0.94467000  1.0 0.1000523828
C  C44  1  0.12400000  0.07881000  0.55533000  1.0 0.1000523828
C  C45  1  0.62400000  0.42119000  0.05533000  1.0 0.1000523828
C  C46  1  0.62400000  0.57881000  0.44467000  1.0 0.1000523828
C  C47  1  0.87600000  0.07881000  0.05533000  1.0 0.1000523828
C  C48  1  0.87600000  0.92119000  0.44467000  1.0 0.1000523828
C  C49  1  0.43910000  0.60664000  0.94304000  1.0 0.0903978047
C  C50  1  0.43910000  0.39336000  0.55696000  1.0 0.0903978047
C  C51  1  0.06090000  0.89336000  0.94304000  1.0 0.0903978047
C  C52  1  0.06090000  0.10664000  0.55696000  1.0 0.0903978047
C  C53  1  0.56090000  0.39336000  0.05696000  1.0 0.0903978047
C  C54  1  0.56090000  0.60664000  0.44304000  1.0 0.0903978047
C  C55  1  0.93910000  0.10664000  0.05696000  1.0 0.0903978047
C  C56  1  0.93910000  0.89336000  0.44304000  1.0 0.0903978047
C  C57  1  0.39830000  0.70820000  0.01100000  1.0 -0.4415451787
C  C58  1  0.39830000  0.29180000  0.48900000  1.0 -0.4499757032
C  C59  1  0.10170000  0.79180000  0.01100000  1.0 -0.4415451787
C  C60  1  0.10170000  0.20820000  0.48900000  1.0 -0.4415451787
C  C61  1  0.60170000  0.29180000  0.98900000  1.0 -0.4499757032
C  C62  1  0.60170000  0.70820000  0.51100000  1.0 -0.4415451787
C  C63  1  0.89830000  0.20820000  0.98900000  1.0 -0.4415451787
C  C64  1  0.89830000  0.79180000  0.51100000  1.0 -0.4415451787
C  C65  1  0.27470000  0.64580000  0.01859000  1.0 -0.4716489458
C  C66  1  0.27470000  0.35420000  0.48141000  1.0 -0.4716489458
C  C67  1  0.22530000  0.85420000  0.01859000  1.0 -0.4716489458
C  C68  1  0.22530000  0.14580000  0.48141000  1.0 -0.4716489458
C  C69  1  0.72530000  0.35420000  0.98141000  1.0 -0.4716489458
C  C70  1  0.72530000  0.64580000  0.51859000  1.0 -0.4716489458
C  C71  1  0.77470000  0.14580000  0.98141000  1.0 -0.4716489458
C  C72  1  0.77470000  0.85420000  0.51859000  1.0 -0.4716489458
C  C73  1  0.36440000  0.53820000  0.91702000  1.0 -0.4612573926
C  C74  1  0.36440000  0.46180000  0.58298000  1.0 -0.4612573926
C  C75  1  0.13560000  0.96180000  0.91702000  1.0 -0.4716489458
C  C76  1  0.13560000  0.03820000  0.58298000  1.0 -0.4612573926
C  C77  1  0.63560000  0.46180000  0.08298000  1.0 -0.4612573926
C  C78  1  0.63560000  0.53820000  0.41702000  1.0 -0.4612573926
C  C79  1  0.86440000  0.03820000  0.08298000  1.0 -0.4612573926
C  C80  1  0.86440000  0.96180000  0.41702000  1.0 -0.4716489458
C  C81  1  0.50290000  0.59020000  0.91900000  1.0 -0.4415451787
C  C82  1  0.50290000  0.40980000  0.58100000  1.0 -0.4415451787
C  C83  1  0.99710000  0.90980000  0.91900000  1.0 -0.4415451787
C  C84  1  0.99710000  0.09020000  0.58100000  1.0 -0.4415451787
C  C85  1  0.49710000  0.40980000  0.08100000  1.0 -0.4415451787
C  C86  1  0.49710000  0.59020000  0.41900000  1.0 -0.4415451787
C  C87  1  0.00290000  0.09020000  0.08100000  1.0 -0.4415451787
C  C88  1  0.00290000  0.90980000  0.41900000  1.0 -0.4415451787
C  C89  1  0.24060000  0.50411000  0.96943000  1.0 -0.2380897587
C  C90  1  0.24060000  0.49589000  0.53057000  1.0 -0.2380897587
C  C91  1  0.25940000  0.99589000  0.96943000  1.0 -0.2380897587
C  C92  1  0.25940000  0.00411000  0.53057000  1.0 -0.2380897587
C  C93  1  0.75940000  0.49589000  0.03057000  1.0 -0.2380897587
C  C94  1  0.75940000  0.50411000  0.46943000  1.0 -0.2380897587
C  C95  1  0.74060000  0.00411000  0.03057000  1.0 -0.2380897587
C  C96  1  0.74060000  0.99589000  0.46943000  1.0 -0.2380897587
C  C97  1  0.27350000  0.47872000  0.99691000  1.0 0.1000523828
C  C98  1  0.27350000  0.52128000  0.50309000  1.0 0.1000523828
C  C99  1  0.22650000  0.02128000  0.99691000  1.0 0.1000523828
C  C100  1  0.22650000  0.97872000  0.50309000  1.0 0.1000523828
C  C101  1  0.72650000  0.52128000  0.00309000  1.0 0.1000523828
C  C102  1  0.72650000  0.47872000  0.49691000  1.0 0.1000523828
C  C103  1  0.77350000  0.97872000  0.00309000  1.0 0.1000523828
C  C104  1  0.77350000  0.02128000  0.49691000  1.0 0.1000523828
C  C105  1  0.26770000  0.42775000  0.99888000  1.0 0.0693425328
C  C106  1  0.26770000  0.57225000  0.50112000  1.0 0.0693425328
C  C107  1  0.23230000  0.07225000  0.99888000  1.0 0.0693425328
C  C108  1  0.23230000  0.92775000  0.50112000  1.0 0.0693425328
C  C109  1  0.73230000  0.57225000  0.00112000  1.0 0.0693425328
C  C110  1  0.73230000  0.42775000  0.49888000  1.0 0.0693425328
C  C111  1  0.76770000  0.92775000  0.00112000  1.0 0.0693425328
C  C112  1  0.76770000  0.07225000  0.49888000  1.0 0.0693425328
C  C113  1  0.22900000  0.40216000  0.97337000  1.0 -0.151089976
C  C114  1  0.22900000  0.59784000  0.52663000  1.0 -0.151089976
C  C115  1  0.27100000  0.09784000  0.97337000  1.0 -0.151089976
C  C116  1  0.27100000  0.90216000  0.52663000  1.0 -0.151089976
C  C117  1  0.77100000  0.59784000  0.02663000  1.0 -0.151089976
C  C118  1  0.77100000  0.40216000  0.47337000  1.0 -0.151089976
C  C119  1  0.72900000  0.90216000  0.02663000  1.0 -0.151089976
C  C120  1  0.72900000  0.09784000  0.47337000  1.0 -0.151089976
C  C121  1  0.19600000  0.42755000  0.94589000  1.0 0.0903978047
C  C122  1  0.19600000  0.57245000  0.55411000  1.0 0.0903978047
C  C123  1  0.30400000  0.07245000  0.94589000  1.0 0.0903978047
C  C124  1  0.30400000  0.92755000  0.55411000  1.0 0.0903978047
C  C125  1  0.80400000  0.57245000  0.05411000  1.0 0.0903978047
C  C126  1  0.80400000  0.42755000  0.44589000  1.0 0.0903978047
C  C127  1  0.69600000  0.92755000  0.05411000  1.0 0.0903978047
C  C128  1  0.69600000  0.07245000  0.44589000  1.0 0.0903978047
C  C129  1  0.20180000  0.47853000  0.94392000  1.0 0.1084638656
C  C130  1  0.20180000  0.52147000  0.55608000  1.0 0.1084638656
C  C131  1  0.29820000  0.02147000  0.94392000  1.0 0.1084638656
C  C132  1  0.29820000  0.97853000  0.55608000  1.0 0.1084638656
C  C133  1  0.79820000  0.52147000  0.05608000  1.0 0.1084638656
C  C134  1  0.79820000  0.47853000  0.44392000  1.0 0.1084638656
C  C135  1  0.70180000  0.97853000  0.05608000  1.0 0.1084638656
C  C136  1  0.70180000  0.02147000  0.44392000  1.0 0.1084638656
C  C137  1  0.31440000  0.50600000  0.02702000  1.0 -0.476738932
C  C138  1  0.31440000  0.49400000  0.47298000  1.0 -0.476738932
C  C139  1  0.18560000  0.99400000  0.02702000  1.0 -0.476738932
C  C140  1  0.18560000  0.00600000  0.47298000  1.0 -0.476738932
C  C141  1  0.68560000  0.49400000  0.97298000  1.0 -0.476738932
C  C142  1  0.68560000  0.50600000  0.52702000  1.0 -0.476738932
C  C143  1  0.81440000  0.00600000  0.97298000  1.0 -0.476738932
C  C144  1  0.81440000  0.99400000  0.52702000  1.0 -0.476738932
C  C145  1  0.29990000  0.39890000  0.03053000  1.0 -0.4499757032
C  C146  1  0.29990000  0.60110000  0.46947000  1.0 -0.4499757032
C  C147  1  0.20010000  0.10110000  0.03053000  1.0 -0.4499757032
C  C148  1  0.20010000  0.89890000  0.46947000  1.0 -0.4415451787
C  C149  1  0.70010000  0.60110000  0.96947000  1.0 -0.4415451787
C  C150  1  0.70010000  0.39890000  0.53053000  1.0 -0.4415451787
C  C151  1  0.79990000  0.89890000  0.96947000  1.0 -0.4415451787
C  C152  1  0.79990000  0.10110000  0.53053000  1.0 -0.4499757032
C  C153  1  0.15390000  0.39880000  0.91727000  1.0 -0.4322603172
C  C154  1  0.15390000  0.60120000  0.58273000  1.0 -0.4322603172
C  C155  1  0.34610000  0.10120000  0.91727000  1.0 -0.4322603172
C  C156  1  0.34610000  0.89880000  0.58273000  1.0 -0.4322603172
C  C157  1  0.84610000  0.60120000  0.08273000  1.0 -0.4322603172
C  C158  1  0.84610000  0.39880000  0.41727000  1.0 -0.4322603172
C  C159  1  0.65390000  0.89880000  0.08273000  1.0 -0.4322603172
C  C160  1  0.65390000  0.10120000  0.41727000  1.0 -0.4322603172
C  C161  1  0.16590000  0.50490000  0.91232000  1.0 -0.4612573926
C  C162  1  0.16590000  0.49510000  0.58768000  1.0 -0.4612573926
C  C163  1  0.33410000  0.99510000  0.91232000  1.0 -0.4612573926
C  C164  1  0.33410000  0.00490000  0.58768000  1.0 -0.4612573926
C  C165  1  0.83410000  0.49510000  0.08768000  1.0 -0.4612573926
C  C166  1  0.83410000  0.50490000  0.41232000  1.0 -0.4612573926
C  C167  1  0.66590000  0.00490000  0.08768000  1.0 -0.4612573926
C  C168  1  0.66590000  0.99510000  0.41232000  1.0 -0.4612573926
C  C169  1  0.22400000  0.34628000  0.97498000  1.0 0.6371613272
C  C170  1  0.22400000  0.65372000  0.52502000  1.0 0.6371613272
C  C171  1  0.27600000  0.15372000  0.97498000  1.0 0.6371613272
C  C172  1  0.27600000  0.84628000  0.52502000  1.0 0.6371613272
C  C173  1  0.77600000  0.65372000  0.02502000  1.0 0.6371613272
C  C174  1  0.77600000  0.34628000  0.47498000  1.0 0.6371613272
C  C175  1  0.72400000  0.84628000  0.02502000  1.0 0.6371613272
C  C176  1  0.72400000  0.15372000  0.47498000  1.0 0.6371613272
C  C177  1  0.17080000  0.59561000  0.96579000  1.0 -0.220968394
C  C178  1  0.17080000  0.40439000  0.53421000  1.0 -0.220968394
C  C179  1  0.32920000  0.90439000  0.96579000  1.0 -0.220968394
C  C180  1  0.32920000  0.09561000  0.53421000  1.0 -0.220968394
C  C181  1  0.82920000  0.40439000  0.03421000  1.0 -0.220968394
C  C182  1  0.82920000  0.59561000  0.46579000  1.0 -0.220968394
C  C183  1  0.67080000  0.09561000  0.03421000  1.0 -0.220968394
C  C184  1  0.67080000  0.90439000  0.46579000  1.0 -0.220968394
C  C185  1  0.11190000  0.58447000  0.98713000  1.0 0.1000523828
C  C186  1  0.11190000  0.41553000  0.51287000  1.0 0.1000523828
C  C187  1  0.38810000  0.91553000  0.98713000  1.0 0.1000523828
C  C188  1  0.38810000  0.08447000  0.51287000  1.0 0.1000523828
C  C189  1  0.88810000  0.41553000  0.01287000  1.0 0.1000523828
C  C190  1  0.88810000  0.58447000  0.48713000  1.0 0.1000523828
C  C191  1  0.61190000  0.08447000  0.01287000  1.0 0.1000523828
C  C192  1  0.61190000  0.91553000  0.48713000  1.0 0.1000523828
C  C193  1  0.05140000  0.61485000  0.98703000  1.0 0.0903978047
C  C194  1  0.05140000  0.38515000  0.51297000  1.0 0.0903978047
C  C195  1  0.44860000  0.88515000  0.98703000  1.0 0.0903978047
C  C196  1  0.44860000  0.11485000  0.51297000  1.0 0.0903978047
C  C197  1  0.94860000  0.38515000  0.01297000  1.0 0.0903978047
C  C198  1  0.94860000  0.61485000  0.48703000  1.0 0.0903978047
C  C199  1  0.55140000  0.11485000  0.01297000  1.0 0.0903978047
C  C200  1  0.55140000  0.88515000  0.48703000  1.0 0.0903978047
C  C201  1  0.04980000  0.65637000  0.96560000  1.0 -0.151089976
C  C202  1  0.04980000  0.34363000  0.53440000  1.0 -0.151089976
C  C203  1  0.45020000  0.84363000  0.96560000  1.0 -0.151089976
C  C204  1  0.45020000  0.15637000  0.53440000  1.0 -0.151089976
C  C205  1  0.95020000  0.34363000  0.03440000  1.0 -0.151089976
C  C206  1  0.95020000  0.65637000  0.46560000  1.0 -0.151089976
C  C207  1  0.54980000  0.15637000  0.03440000  1.0 -0.151089976
C  C208  1  0.54980000  0.84363000  0.46560000  1.0 -0.151089976
C  C209  1  0.10870000  0.66751000  0.94426000  1.0 0.0903978047
C  C210  1  0.10870000  0.33249000  0.55574000  1.0 0.0903978047
C  C211  1  0.39130000  0.83249000  0.94426000  1.0 0.0903978047
C  C212  1  0.39130000  0.16751000  0.55574000  1.0 0.0903978047
C  C213  1  0.89130000  0.33249000  0.05574000  1.0 0.0903978047
C  C214  1  0.89130000  0.66751000  0.44426000  1.0 0.0903978047
C  C215  1  0.60870000  0.16751000  0.05574000  1.0 0.0903978047
C  C216  1  0.60870000  0.83249000  0.44426000  1.0 0.0903978047
C  C217  1  0.16920000  0.63713000  0.94436000  1.0 0.1084638656
C  C218  1  0.16920000  0.36287000  0.55564000  1.0 0.1084638656
C  C219  1  0.33080000  0.86287000  0.94436000  1.0 0.1084638656
C  C220  1  0.33080000  0.13713000  0.55564000  1.0 0.1084638656
C  C221  1  0.83080000  0.36287000  0.05564000  1.0 0.1084638656
C  C222  1  0.83080000  0.63713000  0.44436000  1.0 0.1084638656
C  C223  1  0.66920000  0.13713000  0.05564000  1.0 0.1084638656
C  C224  1  0.66920000  0.86287000  0.44436000  1.0 0.1084638656
C  C225  1  0.11360000  0.54270000  0.01484000  1.0 -0.4716489458
C  C226  1  0.11360000  0.45730000  0.48516000  1.0 -0.4716489458
C  C227  1  0.38640000  0.95730000  0.01484000  1.0 -0.4716489458
C  C228  1  0.38640000  0.04270000  0.48516000  1.0 -0.4716489458
C  C229  1  0.88640000  0.45730000  0.98516000  1.0 -0.4716489458
C  C230  1  0.88640000  0.54270000  0.51484000  1.0 -0.4716489458
C  C231  1  0.61360000  0.04270000  0.98516000  1.0 -0.4716489458
C  C232  1  0.61360000  0.95730000  0.51484000  1.0 -0.4716489458
C  C233  1  0.98280000  0.60110000  0.00844000  1.0 -0.4612573926
C  C234  1  0.98280000  0.39890000  0.49156000  1.0 -0.4612573926
C  C235  1  0.51720000  0.89890000  0.00844000  1.0 -0.4612573926
C  C236  1  0.51720000  0.10110000  0.49156000  1.0 -0.4612573926
C  C237  1  0.01720000  0.39890000  0.99156000  1.0 -0.4612573926
C  C238  1  0.01720000  0.60110000  0.50844000  1.0 -0.4612573926
C  C239  1  0.48280000  0.10110000  0.99156000  1.0 -0.4612573926
C  C240  1  0.48280000  0.89890000  0.50844000  1.0 -0.4612573926
C  C241  1  0.11030000  0.71599000  0.92296000  1.0 -0.4499757032
C  C242  1  0.11030000  0.28401000  0.57704000  1.0 -0.4499757032
C  C243  1  0.38970000  0.78401000  0.92296000  1.0 -0.4499757032
C  C244  1  0.38970000  0.21599000  0.57704000  1.0 -0.4499757032
C  C245  1  0.88970000  0.28401000  0.07704000  1.0 -0.4499757032
C  C246  1  0.88970000  0.71599000  0.42296000  1.0 -0.4499757032
C  C247  1  0.61030000  0.21599000  0.07704000  1.0 -0.4499757032
C  C248  1  0.61030000  0.78401000  0.42296000  1.0 -0.4499757032
C  C249  1  0.22780000  0.64764000  0.91649000  1.0 -0.4716489458
C  C250  1  0.22780000  0.35236000  0.58351000  1.0 -0.4716489458
C  C251  1  0.27220000  0.85236000  0.91649000  1.0 -0.4716489458
C  C252  1  0.27220000  0.14764000  0.58351000  1.0 -0.4716489458
C  C253  1  0.77220000  0.35236000  0.08351000  1.0 -0.4716489458
C  C254  1  0.77220000  0.64764000  0.41649000  1.0 -0.4716489458
C  C255  1  0.72780000  0.14764000  0.08351000  1.0 -0.4716489458
C  C256  1  0.72780000  0.85236000  0.41649000  1.0 -0.4716489458
C  C257  1  0.98400000  0.68990000  0.96521000  1.0 0.6371613272
C  C258  1  0.98400000  0.31010000  0.53479000  1.0 0.6371613272
C  C259  1  0.51600000  0.81010000  0.96521000  1.0 0.6371613272
C  C260  1  0.51600000  0.18990000  0.53479000  1.0 0.6371613272
C  C261  1  0.01600000  0.31010000  0.03479000  1.0 0.6371613272
C  C262  1  0.01600000  0.68990000  0.46521000  1.0 0.6371613272
C  C263  1  0.48400000  0.18990000  0.03479000  1.0 0.6371613272
C  C264  1  0.48400000  0.81010000  0.46521000  1.0 0.6371613272
C  C265  1  0.50700000  0.73800000  0.84440000  1.0 0.5708124355
C  C266  1  0.50700000  0.26200000  0.65560000  1.0 0.5708124355
C  C267  1  0.99300000  0.76200000  0.84440000  1.0 0.5708124355
C  C268  1  0.99300000  0.23800000  0.65560000  1.0 0.5708124355
C  C269  1  0.49300000  0.26200000  0.15560000  1.0 0.5708124355
C  C270  1  0.49300000  0.73800000  0.34440000  1.0 0.5708124355
C  C271  1  0.00700000  0.23800000  0.15560000  1.0 0.5708124355
C  C272  1  0.00700000  0.76200000  0.34440000  1.0 0.5708124355
C  C273  1  0.44630000  0.73410000  0.81811000  1.0 -0.1220546871
C  C274  1  0.44630000  0.26590000  0.68189000  1.0 -0.1220546871
C  C275  1  0.05370000  0.76590000  0.81811000  1.0 -0.1220546871
C  C276  1  0.05370000  0.23410000  0.68189000  1.0 -0.1220546871
C  C277  1  0.55370000  0.26590000  0.18189000  1.0 -0.1220546871
C  C278  1  0.55370000  0.73410000  0.31811000  1.0 -0.1220546871
C  C279  1  0.94630000  0.23410000  0.18189000  1.0 -0.1220546871
C  C280  1  0.94630000  0.76590000  0.31811000  1.0 -0.1220546871
C  C281  1  0.38410000  0.70810000  0.82675000  1.0 0.0828445504
C  C282  1  0.38410000  0.29190000  0.67325000  1.0 0.0828445504
C  C283  1  0.11590000  0.79190000  0.82675000  1.0 0.0828445504
C  C284  1  0.11590000  0.20810000  0.67325000  1.0 0.0828445504
C  C285  1  0.61590000  0.29190000  0.17325000  1.0 0.0828445504
C  C286  1  0.61590000  0.70810000  0.32675000  1.0 0.0828445504
C  C287  1  0.88410000  0.20810000  0.17325000  1.0 0.0828445504
C  C288  1  0.88410000  0.79190000  0.32675000  1.0 0.0828445504
C  C289  1  0.32350000  0.71090000  0.80515000  1.0 0.1204172841
C  C290  1  0.32350000  0.28910000  0.69485000  1.0 0.1204172841
C  C291  1  0.17650000  0.78910000  0.80515000  1.0 0.1204172841
C  C292  1  0.17650000  0.21090000  0.69485000  1.0 0.1204172841
C  C293  1  0.67650000  0.28910000  0.19485000  1.0 0.1204172841
C  C294  1  0.67650000  0.71090000  0.30515000  1.0 0.1204172841
C  C295  1  0.82350000  0.21090000  0.19485000  1.0 0.1204172841
C  C296  1  0.82350000  0.78910000  0.30515000  1.0 0.1204172841
C  C297  1  0.32510000  0.73982000  0.77492000  1.0 -0.2278820629
C  C298  1  0.32510000  0.26018000  0.72508000  1.0 -0.2278820629
C  C299  1  0.17490000  0.76018000  0.77492000  1.0 -0.2278820629
C  C300  1  0.17490000  0.23982000  0.72508000  1.0 -0.2278820629
C  C301  1  0.67490000  0.26018000  0.22508000  1.0 -0.2278820629
C  C302  1  0.67490000  0.73982000  0.27492000  1.0 -0.2278820629
C  C303  1  0.82510000  0.23982000  0.22508000  1.0 -0.2278820629
C  C304  1  0.82510000  0.76018000  0.27492000  1.0 -0.2278820629
C  C305  1  0.38730000  0.76590000  0.76628000  1.0 0.1084638656
C  C306  1  0.38730000  0.23410000  0.73372000  1.0 0.1084638656
C  C307  1  0.11270000  0.73410000  0.76628000  1.0 0.1084638656
C  C308  1  0.11270000  0.26590000  0.73372000  1.0 0.1084638656
C  C309  1  0.61270000  0.23410000  0.23372000  1.0 0.1084638656
C  C310  1  0.61270000  0.76590000  0.26628000  1.0 0.1084638656
C  C311  1  0.88730000  0.26590000  0.23372000  1.0 0.1084638656
C  C312  1  0.88730000  0.73410000  0.26628000  1.0 0.1084638656
C  C313  1  0.44800000  0.76306000  0.78787000  1.0 0.0828445504
C  C314  1  0.44800000  0.23694000  0.71213000  1.0 0.0828445504
C  C315  1  0.05200000  0.73694000  0.78787000  1.0 0.0828445504
C  C316  1  0.05200000  0.26306000  0.71213000  1.0 0.0828445504
C  C317  1  0.55200000  0.23694000  0.21213000  1.0 0.0828445504
C  C318  1  0.55200000  0.76306000  0.28787000  1.0 0.0828445504
C  C319  1  0.94800000  0.26306000  0.21213000  1.0 0.0828445504
C  C320  1  0.94800000  0.73694000  0.28787000  1.0 0.0828445504
C  C321  1  0.38040000  0.67670000  0.86110000  1.0 -0.4322603172
C  C322  1  0.38040000  0.32330000  0.63890000  1.0 -0.4322603172
C  C323  1  0.11960000  0.82330000  0.86110000  1.0 -0.4322603172
C  C324  1  0.11960000  0.17670000  0.63890000  1.0 -0.4322603172
C  C325  1  0.61960000  0.32330000  0.13890000  1.0 -0.4322603172
C  C326  1  0.61960000  0.67670000  0.36110000  1.0 -0.4322603172
C  C327  1  0.88040000  0.17670000  0.13890000  1.0 -0.4322603172
C  C328  1  0.88040000  0.82330000  0.36110000  1.0 -0.4322603172
C  C329  1  0.25730000  0.67740000  0.81388000  1.0 -0.4499757032
C  C330  1  0.25730000  0.32260000  0.68612000  1.0 -0.4499757032
C  C331  1  0.24270000  0.82260000  0.81388000  1.0 -0.4499757032
C  C332  1  0.24270000  0.17740000  0.68612000  1.0 -0.4499757032
C  C333  1  0.74270000  0.32260000  0.18612000  1.0 -0.4499757032
C  C334  1  0.74270000  0.67740000  0.31388000  1.0 -0.4499757032
C  C335  1  0.75730000  0.17740000  0.18612000  1.0 -0.4499757032
C  C336  1  0.75730000  0.82260000  0.31388000  1.0 -0.4499757032
C  C337  1  0.39170000  0.80142000  0.73338000  1.0 -0.4415451787
C  C338  1  0.39170000  0.19858000  0.76662000  1.0 -0.4415451787
C  C339  1  0.10830000  0.69858000  0.73338000  1.0 -0.4415451787
C  C340  1  0.10830000  0.30142000  0.76662000  1.0 -0.4415451787
C  C341  1  0.60830000  0.19858000  0.26662000  1.0 -0.4415451787
C  C342  1  0.60830000  0.80142000  0.23338000  1.0 -0.4415451787
C  C343  1  0.89170000  0.30142000  0.26662000  1.0 -0.4415451787
C  C344  1  0.89170000  0.69858000  0.23338000  1.0 -0.4415451787
C  C345  1  0.52040000  0.78679000  0.77751000  1.0 -0.4415451787
C  C346  1  0.52040000  0.21321000  0.72249000  1.0 -0.4415451787
C  C347  1  0.97960000  0.71321000  0.77751000  1.0 -0.4415451787
C  C348  1  0.97960000  0.28679000  0.72249000  1.0 -0.4415451787
C  C349  1  0.47960000  0.21321000  0.22249000  1.0 -0.4415451787
C  C350  1  0.47960000  0.78679000  0.27751000  1.0 -0.4415451787
C  C351  1  0.02040000  0.28679000  0.22249000  1.0 -0.4415451787
C  C352  1  0.02040000  0.71321000  0.27751000  1.0 -0.4415451787
C  C353  1  0.25000000  0.75000000  0.71137000  1.0 -0.2278820629
C  C354  1  0.25000000  0.25000000  0.78863000  1.0 -0.2278820629
C  C355  1  0.75000000  0.25000000  0.28863000  1.0 -0.2278820629
C  C356  1  0.75000000  0.75000000  0.21137000  1.0 -0.2278820629
C  C357  1  0.22500000  0.79120000  0.69280000  1.0 0.1084638656
C  C358  1  0.22500000  0.20880000  0.80720000  1.0 0.1084638656
C  C359  1  0.27500000  0.70880000  0.69280000  1.0 0.1084638656
C  C360  1  0.27500000  0.29120000  0.80720000  1.0 0.1084638656
C  C361  1  0.77500000  0.20880000  0.30720000  1.0 0.1084638656
C  C362  1  0.77500000  0.79120000  0.19280000  1.0 0.1084638656
C  C363  1  0.72500000  0.29120000  0.30720000  1.0 0.1084638656
C  C364  1  0.72500000  0.70880000  0.19280000  1.0 0.1084638656
C  C365  1  0.22580000  0.79210000  0.65615000  1.0 0.0903978047
C  C366  1  0.22580000  0.20790000  0.84385000  1.0 0.0903978047
C  C367  1  0.27420000  0.70790000  0.65615000  1.0 0.0903978047
C  C368  1  0.27420000  0.29210000  0.84385000  1.0 0.0903978047
C  C369  1  0.77420000  0.20790000  0.34385000  1.0 0.0903978047
C  C370  1  0.77420000  0.79210000  0.15615000  1.0 0.0903978047
C  C371  1  0.72580000  0.29210000  0.34385000  1.0 0.0903978047
C  C372  1  0.72580000  0.70790000  0.15615000  1.0 0.0903978047
C  C373  1  0.25000000  0.75000000  0.63833000  1.0 -0.0695930853
C  C374  1  0.25000000  0.25000000  0.86167000  1.0 -0.0695930853
C  C375  1  0.75000000  0.25000000  0.36167000  1.0 -0.0695930853
C  C376  1  0.75000000  0.75000000  0.13833000  1.0 -0.0695930853
C  C377  1  0.20020000  0.83710000  0.71350000  1.0 -0.4322603172
C  C378  1  0.20020000  0.16290000  0.78650000  1.0 -0.4322603172
C  C379  1  0.29980000  0.66290000  0.71350000  1.0 -0.4322603172
C  C380  1  0.29980000  0.33710000  0.78650000  1.0 -0.4322603172
C  C381  1  0.79980000  0.16290000  0.28650000  1.0 -0.4322603172
C  C382  1  0.79980000  0.83710000  0.21350000  1.0 -0.4322603172
C  C383  1  0.70020000  0.33710000  0.28650000  1.0 -0.4322603172
C  C384  1  0.70020000  0.66290000  0.21350000  1.0 -0.4322603172
C  C385  1  0.20340000  0.83700000  0.63400000  1.0 -0.4322603172
C  C386  1  0.20340000  0.16300000  0.86600000  1.0 -0.4322603172
C  C387  1  0.29660000  0.66300000  0.63400000  1.0 -0.4322603172
C  C388  1  0.29660000  0.33700000  0.86600000  1.0 -0.4322603172
C  C389  1  0.79660000  0.16300000  0.36600000  1.0 -0.4322603172
C  C390  1  0.79660000  0.83700000  0.13400000  1.0 -0.4322603172
C  C391  1  0.70340000  0.33700000  0.36600000  1.0 -0.4322603172
C  C392  1  0.70340000  0.66300000  0.13400000  1.0 -0.4322603172
C  C393  1  0.25000000  0.75000000  0.59785000  1.0 0.6214836404
C  C394  1  0.25000000  0.25000000  0.90215000  1.0 0.6214836404
C  C395  1  0.75000000  0.25000000  0.40215000  1.0 0.6214836404
C  C396  1  0.75000000  0.75000000  0.09785000  1.0 0.6214836404
C  C397  1  0.75000000  0.75000000  0.83068000  1.0 0.6214836404
C  C398  1  0.75000000  0.25000000  0.66932000  1.0 0.6214836404
C  C399  1  0.25000000  0.25000000  0.16932000  1.0 0.6214836404
C  C400  1  0.25000000  0.75000000  0.33068000  1.0 0.6214836404
C  C401  1  0.75000000  0.75000000  0.79076000  1.0 -0.1220546871
C  C402  1  0.75000000  0.25000000  0.70924000  1.0 -0.1220546871
C  C403  1  0.25000000  0.25000000  0.20924000  1.0 -0.1220546871
C  C404  1  0.25000000  0.75000000  0.29076000  1.0 -0.1220546871
C  C405  1  0.77450000  0.70900000  0.77261000  1.0 0.0828445504
C  C406  1  0.77450000  0.29100000  0.72739000  1.0 0.0828445504
C  C407  1  0.72550000  0.79100000  0.77261000  1.0 0.0828445504
C  C408  1  0.72550000  0.20900000  0.72739000  1.0 0.0828445504
C  C409  1  0.22550000  0.29100000  0.22739000  1.0 0.0828445504
C  C410  1  0.22550000  0.70900000  0.27261000  1.0 0.0828445504
C  C411  1  0.27450000  0.20900000  0.22739000  1.0 0.0828445504
C  C412  1  0.27450000  0.79100000  0.27261000  1.0 0.0828445504
C  C413  1  0.77660000  0.70930000  0.73560000  1.0 0.1084638656
C  C414  1  0.77660000  0.29070000  0.76440000  1.0 0.1084638656
C  C415  1  0.72340000  0.79070000  0.73560000  1.0 0.1084638656
C  C416  1  0.72340000  0.20930000  0.76440000  1.0 0.1084638656
C  C417  1  0.22340000  0.29070000  0.26440000  1.0 0.1084638656
C  C418  1  0.22340000  0.70930000  0.23560000  1.0 0.1084638656
C  C419  1  0.27660000  0.20930000  0.26440000  1.0 0.1084638656
C  C420  1  0.27660000  0.79070000  0.23560000  1.0 0.1084638656
C  C421  1  0.75000000  0.75000000  0.71682000  1.0 -0.2380897587
C  C422  1  0.75000000  0.25000000  0.78318000  1.0 -0.2380897587
C  C423  1  0.25000000  0.25000000  0.28318000  1.0 -0.2380897587
C  C424  1  0.25000000  0.75000000  0.21682000  1.0 -0.2380897587
C  C425  1  0.79780000  0.66250000  0.79335000  1.0 -0.418152681
C  C426  1  0.79780000  0.33750000  0.70665000  1.0 -0.418152681
C  C427  1  0.70220000  0.83750000  0.79335000  1.0 -0.418152681
C  C428  1  0.70220000  0.16250000  0.70665000  1.0 -0.418152681
C  C429  1  0.20220000  0.33750000  0.20665000  1.0 -0.418152681
C  C430  1  0.20220000  0.66250000  0.29335000  1.0 -0.418152681
C  C431  1  0.29780000  0.16250000  0.20665000  1.0 -0.418152681
C  C432  1  0.29780000  0.83750000  0.29335000  1.0 -0.418152681
C  C433  1  0.80830000  0.66400000  0.71733000  1.0 -0.4415451787
C  C434  1  0.80830000  0.33600000  0.78267000  1.0 -0.4415451787
C  C435  1  0.69170000  0.83600000  0.71733000  1.0 -0.4415451787
C  C436  1  0.69170000  0.16400000  0.78267000  1.0 -0.4415451787
C  C437  1  0.19170000  0.33600000  0.28267000  1.0 -0.4415451787
C  C438  1  0.19170000  0.66400000  0.21733000  1.0 -0.4415451787
C  C439  1  0.30830000  0.16400000  0.28267000  1.0 -0.4415451787
C  C440  1  0.30830000  0.83600000  0.21733000  1.0 -0.4415451787
C  C441  1  0.82550000  0.74250000  0.65463000  1.0 -0.2278820629
C  C442  1  0.82550000  0.25750000  0.84537000  1.0 -0.2278820629
C  C443  1  0.67450000  0.75750000  0.65463000  1.0 -0.2278820629
C  C444  1  0.67450000  0.24250000  0.84537000  1.0 -0.2278820629
C  C445  1  0.17450000  0.25750000  0.34537000  1.0 -0.2278820629
C  C446  1  0.17450000  0.74250000  0.15463000  1.0 -0.2278820629
C  C447  1  0.32550000  0.24250000  0.34537000  1.0 -0.2278820629
C  C448  1  0.32550000  0.75750000  0.15463000  1.0 -0.2278820629
C  C449  1  0.88540000  0.77060000  0.66404000  1.0 0.1084638656
C  C450  1  0.88540000  0.22940000  0.83596000  1.0 0.1084638656
C  C451  1  0.61460000  0.72940000  0.66404000  1.0 0.1084638656
C  C452  1  0.61460000  0.27060000  0.83596000  1.0 0.1084638656
C  C453  1  0.11460000  0.22940000  0.33596000  1.0 0.1084638656
C  C454  1  0.11460000  0.77060000  0.16404000  1.0 0.1084638656
C  C455  1  0.38540000  0.27060000  0.33596000  1.0 0.1084638656
C  C456  1  0.38540000  0.72940000  0.16404000  1.0 0.1084638656
C  C457  1  0.95030000  0.76480000  0.64599000  1.0 0.0903978047
C  C458  1  0.95030000  0.23520000  0.85401000  1.0 0.0903978047
C  C459  1  0.54970000  0.73520000  0.64599000  1.0 0.0903978047
C  C460  1  0.54970000  0.26480000  0.85401000  1.0 0.0903978047
C  C461  1  0.04970000  0.23520000  0.35401000  1.0 0.0903978047
C  C462  1  0.04970000  0.76480000  0.14599000  1.0 0.0903978047
C  C463  1  0.45030000  0.26480000  0.35401000  1.0 0.0903978047
C  C464  1  0.45030000  0.73520000  0.14599000  1.0 0.0903978047
C  C465  1  0.95530000  0.73110000  0.61853000  1.0 -0.151089976
C  C466  1  0.95530000  0.26890000  0.88147000  1.0 -0.151089976
C  C467  1  0.54470000  0.76890000  0.61853000  1.0 -0.151089976
C  C468  1  0.54470000  0.23110000  0.88147000  1.0 -0.151089976
C  C469  1  0.04470000  0.26890000  0.38147000  1.0 -0.151089976
C  C470  1  0.04470000  0.73110000  0.11853000  1.0 -0.151089976
C  C471  1  0.45530000  0.23110000  0.38147000  1.0 -0.151089976
C  C472  1  0.45530000  0.76890000  0.11853000  1.0 -0.151089976
C  C473  1  0.89540000  0.70310000  0.60912000  1.0 0.0903978047
C  C474  1  0.89540000  0.29690000  0.89088000  1.0 0.0903978047
C  C475  1  0.60460000  0.79690000  0.60912000  1.0 0.0903978047
C  C476  1  0.60460000  0.20310000  0.89088000  1.0 0.0903978047
C  C477  1  0.10460000  0.29690000  0.39088000  1.0 0.0903978047
C  C478  1  0.10460000  0.70310000  0.10912000  1.0 0.0903978047
C  C479  1  0.39540000  0.20310000  0.39088000  1.0 0.0903978047
C  C480  1  0.39540000  0.79690000  0.10912000  1.0 0.0903978047
C  C481  1  0.83050000  0.70880000  0.62717000  1.0 0.1084638656
C  C482  1  0.83050000  0.29120000  0.87283000  1.0 0.1084638656
C  C483  1  0.66950000  0.79120000  0.62717000  1.0 0.1084638656
C  C484  1  0.66950000  0.20880000  0.87283000  1.0 0.1084638656
C  C485  1  0.16950000  0.29120000  0.37283000  1.0 0.1084638656
C  C486  1  0.16950000  0.70880000  0.12717000  1.0 0.1084638656
C  C487  1  0.33050000  0.20880000  0.37283000  1.0 0.1084638656
C  C488  1  0.33050000  0.79120000  0.12717000  1.0 0.1084638656
C  C489  1  0.88200000  0.81180000  0.69180000  1.0 -0.4499757032
C  C490  1  0.88200000  0.18820000  0.80820000  1.0 -0.4499757032
C  C491  1  0.61800000  0.68820000  0.69180000  1.0 -0.4499757032
C  C492  1  0.61800000  0.31180000  0.80820000  1.0 -0.4499757032
C  C493  1  0.11800000  0.18820000  0.30820000  1.0 -0.4499757032
C  C494  1  0.11800000  0.81180000  0.19180000  1.0 -0.4499757032
C  C495  1  0.38200000  0.31180000  0.30820000  1.0 -0.4499757032
C  C496  1  0.38200000  0.68820000  0.19180000  1.0 -0.4499757032
C  C497  1  0.01530000  0.79780000  0.65530000  1.0 -0.4415451787
C  C498  1  0.01530000  0.20220000  0.84470000  1.0 -0.4415451787
C  C499  1  0.48470000  0.70220000  0.65530000  1.0 -0.4415451787
C  C500  1  0.48470000  0.29780000  0.84470000  1.0 -0.4415451787
C  C501  1  0.98470000  0.20220000  0.34470000  1.0 -0.4415451787
C  C502  1  0.98470000  0.79780000  0.15530000  1.0 -0.4415451787
C  C503  1  0.51530000  0.29780000  0.34470000  1.0 -0.4415451787
C  C504  1  0.51530000  0.70220000  0.15530000  1.0 -0.4415451787
C  C505  1  0.90190000  0.66420000  0.57810000  1.0 -0.4415451787
C  C506  1  0.90190000  0.33580000  0.92190000  1.0 -0.4415451787
C  C507  1  0.59810000  0.83580000  0.57810000  1.0 -0.4415451787
C  C508  1  0.59810000  0.16420000  0.92190000  1.0 -0.4415451787
C  C509  1  0.09810000  0.33580000  0.42190000  1.0 -0.4415451787
C  C510  1  0.09810000  0.66420000  0.07810000  1.0 -0.4415451787
C  C511  1  0.40190000  0.16420000  0.42190000  1.0 -0.4415451787
C  C512  1  0.40190000  0.83580000  0.07810000  1.0 -0.4415451787
C  C513  1  0.76650000  0.67560000  0.61570000  1.0 -0.4499757032
C  C514  1  0.76650000  0.32440000  0.88430000  1.0 -0.4499757032
C  C515  1  0.73350000  0.82440000  0.61570000  1.0 -0.4499757032
C  C516  1  0.73350000  0.17560000  0.88430000  1.0 -0.4499757032
C  C517  1  0.23350000  0.32440000  0.38430000  1.0 -0.4499757032
C  C518  1  0.23350000  0.67560000  0.11570000  1.0 -0.4499757032
C  C519  1  0.26650000  0.17560000  0.38430000  1.0 -0.4499757032
C  C520  1  0.26650000  0.82440000  0.11570000  1.0 -0.4499757032
C  C521  1  0.02560000  0.72440000  0.60000000  1.0 0.5911731586
C  C522  1  0.02560000  0.27560000  0.90000000  1.0 0.5911731586
C  C523  1  0.47440000  0.77560000  0.60000000  1.0 0.5911731586
C  C524  1  0.47440000  0.22440000  0.90000000  1.0 0.5911731586
C  C525  1  0.97440000  0.27560000  0.40000000  1.0 0.5911731586
C  C526  1  0.97440000  0.72440000  0.10000000  1.0 0.5911731586
C  C527  1  0.52560000  0.22440000  0.40000000  1.0 0.5911731586
C  C528  1  0.52560000  0.77560000  0.10000000  1.0 0.5911731586
C  C529  1  0.51720000  0.55300000  0.03550000  1.0 -0.3434220259
C  C530  1  0.51720000  0.44700000  0.46450000  1.0 -0.3434220259
C  C531  1  0.98280000  0.94700000  0.03550000  1.0 -0.3434220259
C  C532  1  0.98280000  0.05300000  0.46450000  1.0 -0.3434220259
C  C533  1  0.48280000  0.44700000  0.96450000  1.0 -0.3434220259
C  C534  1  0.48280000  0.55300000  0.53550000  1.0 -0.3434220259
C  C535  1  0.01720000  0.05300000  0.96450000  1.0 -0.3434220259
C  C536  1  0.01720000  0.94700000  0.53550000  1.0 -0.3434220259
C  C537  1  0.45840000  0.61060000  0.07580000  1.0 -0.2922198012
C  C538  1  0.45840000  0.38940000  0.42420000  1.0 -0.2922198012
C  C539  1  0.04160000  0.88940000  0.07580000  1.0 -0.2922198012
C  C540  1  0.04160000  0.11060000  0.42420000  1.0 -0.2922198012
C  C541  1  0.54160000  0.38940000  0.92420000  1.0 -0.2922198012
C  C542  1  0.54160000  0.61060000  0.57580000  1.0 -0.2922198012
C  C543  1  0.95840000  0.11060000  0.92420000  1.0 -0.2922198012
C  C544  1  0.95840000  0.88940000  0.57580000  1.0 -0.2922198012
C  C545  1  0.57950000  0.62930000  0.05290000  1.0 0.3103786945
C  C546  1  0.57950000  0.37070000  0.44710000  1.0 0.3103786945
C  C547  1  0.92050000  0.87070000  0.05290000  1.0 0.3103786945
C  C548  1  0.92050000  0.12930000  0.44710000  1.0 0.3103786945
C  C549  1  0.42050000  0.37070000  0.94710000  1.0 0.3103786945
C  C550  1  0.42050000  0.62930000  0.55290000  1.0 0.3103786945
C  C551  1  0.07950000  0.12930000  0.94710000  1.0 0.3103786945
C  C552  1  0.07950000  0.87070000  0.55290000  1.0 0.3103786945
C  C553  1  0.75000000  0.75000000  0.95050000  1.0 0.8460678771
C  C554  1  0.75000000  0.25000000  0.54950000  1.0 0.8460678771
C  C555  1  0.25000000  0.25000000  0.04950000  1.0 0.8460678771
C  C556  1  0.25000000  0.75000000  0.45050000  1.0 0.8460678771
C  C557  1  0.54000000  0.89470000  0.87210000  1.0 -0.3434220259
C  C558  1  0.54000000  0.10530000  0.62790000  1.0 -0.3434220259
C  C559  1  0.96000000  0.60530000  0.87210000  1.0 -0.3434220259
C  C560  1  0.96000000  0.39470000  0.62790000  1.0 -0.3434220259
C  C561  1  0.46000000  0.10530000  0.12790000  1.0 -0.3434220259
C  C562  1  0.46000000  0.89470000  0.37210000  1.0 -0.3434220259
C  C563  1  0.04000000  0.39470000  0.12790000  1.0 -0.3434220259
C  C564  1  0.04000000  0.60530000  0.37210000  1.0 -0.3454411015
C  C565  1  0.57300000  0.95360000  0.92050000  1.0 -0.3599840425
C  C566  1  0.57300000  0.04640000  0.57950000  1.0 -0.3599840425
C  C567  1  0.92700000  0.54640000  0.92050000  1.0 -0.3599840425
C  C568  1  0.92700000  0.45360000  0.57950000  1.0 -0.3599840425
C  C569  1  0.42700000  0.04640000  0.07950000  1.0 -0.3599840425
C  C570  1  0.42700000  0.95360000  0.42050000  1.0 -0.3599840425
C  C571  1  0.07300000  0.45360000  0.07950000  1.0 -0.3599840425
C  C572  1  0.07300000  0.54640000  0.42050000  1.0 -0.3599840425
C  C573  1  0.64800000  0.87700000  0.91030000  1.0 0.3030377194
C  C574  1  0.64800000  0.12300000  0.58970000  1.0 0.3030377194
C  C575  1  0.85200000  0.62300000  0.91030000  1.0 0.3030377194
C  C576  1  0.85200000  0.37700000  0.58970000  1.0 0.3030377194
C  C577  1  0.35200000  0.12300000  0.08970000  1.0 0.3030377194
C  C578  1  0.35200000  0.87700000  0.41030000  1.0 0.3030377194
C  C579  1  0.14800000  0.37700000  0.08970000  1.0 0.3030377194
C  C580  1  0.14800000  0.62300000  0.41030000  1.0 0.3030377194
N  N1  1  0.51770000  0.59590000  0.05650000  1.0 0.0410629996
N  N2  1  0.51770000  0.40410000  0.44350000  1.0 0.0410629996
N  N3  1  0.98230000  0.90410000  0.05650000  1.0 0.0410629996
N  N4  1  0.98230000  0.09590000  0.44350000  1.0 0.0410629996
N  N5  1  0.48230000  0.40410000  0.94350000  1.0 0.0410629996
N  N6  1  0.48230000  0.59590000  0.55650000  1.0 0.0410629996
N  N7  1  0.01770000  0.09590000  0.94350000  1.0 0.0410629996
N  N8  1  0.01770000  0.90410000  0.55650000  1.0 0.0410629996
N  N9  1  0.60130000  0.91730000  0.89420000  1.0 0.0903978047
N  N10  1  0.60130000  0.08270000  0.60580000  1.0 0.0903978047
N  N11  1  0.89870000  0.58270000  0.89420000  1.0 0.0903978047
N  N12  1  0.89870000  0.41730000  0.60580000  1.0 0.0903978047
N  N13  1  0.39870000  0.08270000  0.10580000  1.0 0.0903978047
N  N14  1  0.39870000  0.91730000  0.39420000  1.0 0.0903978047
N  N15  1  0.10130000  0.41730000  0.10580000  1.0 0.0903978047
N  N16  1  0.10130000  0.58270000  0.39420000  1.0 0.0903978047
O  O1  1  0.55520000  0.67930000  0.99060000  1.0 -0.6183658339
O  O2  1  0.55520000  0.32070000  0.50940000  1.0 -0.6183658339
O  O3  1  0.94480000  0.82070000  0.99060000  1.0 -0.6183658339
O  O4  1  0.94480000  0.17930000  0.50940000  1.0 -0.6183658339
O  O5  1  0.44480000  0.32070000  0.00940000  1.0 -0.6183658339
O  O6  1  0.44480000  0.67930000  0.49060000  1.0 -0.6183658339
O  O7  1  0.05520000  0.17930000  0.00940000  1.0 -0.6183658339
O  O8  1  0.05520000  0.82070000  0.49060000  1.0 -0.6183658339
O  O9  1  0.53210000  0.69860000  0.93470000  1.0 -0.5896638319
O  O10  1  0.53210000  0.30140000  0.56530000  1.0 -0.5896638319
O  O11  1  0.96790000  0.80140000  0.93470000  1.0 -0.5896638319
O  O12  1  0.96790000  0.19860000  0.56530000  1.0 -0.5896638319
O  O13  1  0.46790000  0.30140000  0.06530000  1.0 -0.5896638319
O  O14  1  0.46790000  0.69860000  0.43470000  1.0 -0.5896638319
O  O15  1  0.03210000  0.19860000  0.06530000  1.0 -0.5896638319
O  O16  1  0.03210000  0.80140000  0.43470000  1.0 -0.5896638319
O  O17  1  0.28080000  0.32180000  0.97240000  1.0 -0.643878369
O  O18  1  0.28080000  0.67820000  0.52760000  1.0 -0.643878369
O  O19  1  0.21920000  0.17820000  0.97240000  1.0 -0.643878369
O  O20  1  0.21920000  0.82180000  0.52760000  1.0 -0.643878369
O  O21  1  0.71920000  0.67820000  0.02760000  1.0 -0.643878369
O  O22  1  0.71920000  0.32180000  0.47240000  1.0 -0.643878369
O  O23  1  0.78080000  0.82180000  0.02760000  1.0 -0.643878369
O  O24  1  0.78080000  0.17820000  0.47240000  1.0 -0.643878369
O  O25  1  0.16310000  0.32770000  0.97920000  1.0 -0.5746202752
O  O26  1  0.16310000  0.67230000  0.52080000  1.0 -0.5746202752
O  O27  1  0.33690000  0.17230000  0.97920000  1.0 -0.5746202752
O  O28  1  0.33690000  0.82770000  0.52080000  1.0 -0.5746202752
O  O29  1  0.83690000  0.67230000  0.02080000  1.0 -0.5746202752
O  O30  1  0.83690000  0.32770000  0.47920000  1.0 -0.5746202752
O  O31  1  0.66310000  0.82770000  0.02080000  1.0 -0.5746202752
O  O32  1  0.66310000  0.17230000  0.47920000  1.0 -0.5746202752
O  O33  1  0.94860000  0.69170000  0.93700000  1.0 -0.6183658339
O  O34  1  0.94860000  0.30830000  0.56300000  1.0 -0.6183658339
O  O35  1  0.55140000  0.80830000  0.93700000  1.0 -0.6183658339
O  O36  1  0.55140000  0.19170000  0.56300000  1.0 -0.6183658339
O  O37  1  0.05140000  0.30830000  0.06300000  1.0 -0.6183658339
O  O38  1  0.05140000  0.69170000  0.43700000  1.0 -0.6183658339
O  O39  1  0.44860000  0.19170000  0.06300000  1.0 -0.6183658339
O  O40  1  0.44860000  0.80830000  0.43700000  1.0 -0.6183658339
O  O41  1  0.96880000  0.71280000  0.99310000  1.0 -0.6040347055
O  O42  1  0.96880000  0.28720000  0.50690000  1.0 -0.6040347055
O  O43  1  0.53120000  0.78720000  0.99310000  1.0 -0.6040347055
O  O44  1  0.53120000  0.21280000  0.50690000  1.0 -0.6040347055
O  O45  1  0.03120000  0.28720000  0.00690000  1.0 -0.6040347055
O  O46  1  0.03120000  0.71280000  0.49310000  1.0 -0.6040347055
O  O47  1  0.46880000  0.21280000  0.00690000  1.0 -0.6040347055
O  O48  1  0.46880000  0.78720000  0.49310000  1.0 -0.6040347055
O  O49  1  0.54190000  0.70010000  0.85280000  1.0 -0.5307104424
O  O50  1  0.54190000  0.29990000  0.64720000  1.0 -0.5307104424
O  O51  1  0.95810000  0.79990000  0.85280000  1.0 -0.5307104424
O  O52  1  0.95810000  0.20010000  0.64720000  1.0 -0.5307104424
O  O53  1  0.45810000  0.29990000  0.14720000  1.0 -0.5307104424
O  O54  1  0.45810000  0.70010000  0.35280000  1.0 -0.5307104424
O  O55  1  0.04190000  0.20010000  0.14720000  1.0 -0.5307104424
O  O56  1  0.04190000  0.79990000  0.35280000  1.0 -0.5307104424
O  O57  1  0.52190000  0.77910000  0.85820000  1.0 -0.5832524955
O  O58  1  0.52190000  0.22090000  0.64180000  1.0 -0.5832524955
O  O59  1  0.97810000  0.72090000  0.85820000  1.0 -0.5832524955
O  O60  1  0.97810000  0.27910000  0.64180000  1.0 -0.5832524955
O  O61  1  0.47810000  0.22090000  0.14180000  1.0 -0.5832524955
O  O62  1  0.47810000  0.77910000  0.35820000  1.0 -0.5832524955
O  O63  1  0.02190000  0.27910000  0.14180000  1.0 -0.5832524955
O  O64  1  0.02190000  0.72090000  0.35820000  1.0 -0.5832524955
O  O65  1  0.19170000  0.73990000  0.58230000  1.0 -0.5832524955
O  O66  1  0.19170000  0.26010000  0.91770000  1.0 -0.5832524955
O  O67  1  0.30830000  0.76010000  0.58230000  1.0 -0.5832524955
O  O68  1  0.30830000  0.23990000  0.91770000  1.0 -0.5832524955
O  O69  1  0.80830000  0.26010000  0.41770000  1.0 -0.5832524955
O  O70  1  0.80830000  0.73990000  0.08230000  1.0 -0.5832524955
O  O71  1  0.69170000  0.23990000  0.41770000  1.0 -0.5832524955
O  O72  1  0.69170000  0.76010000  0.08230000  1.0 -0.5832524955
O  O73  1  0.69000000  0.74930000  0.84520000  1.0 -0.5490195811
O  O74  1  0.69000000  0.25070000  0.65480000  1.0 -0.5490195811
O  O75  1  0.81000000  0.75070000  0.84520000  1.0 -0.5490195811
O  O76  1  0.81000000  0.24930000  0.65480000  1.0 -0.5490195811
O  O77  1  0.31000000  0.25070000  0.15480000  1.0 -0.5490195811
O  O78  1  0.31000000  0.74930000  0.34520000  1.0 -0.5490195811
O  O79  1  0.19000000  0.24930000  0.15480000  1.0 -0.5490195811
O  O80  1  0.19000000  0.75070000  0.34520000  1.0 -0.5490195811
O  O81  1  0.08120000  0.71110000  0.62090000  1.0 -0.5307104424
O  O82  1  0.08120000  0.28890000  0.87910000  1.0 -0.5307104424
O  O83  1  0.41880000  0.78890000  0.62090000  1.0 -0.5307104424
O  O84  1  0.41880000  0.21110000  0.87910000  1.0 -0.5307104424
O  O85  1  0.91880000  0.28890000  0.37910000  1.0 -0.5307104424
O  O86  1  0.91880000  0.71110000  0.12090000  1.0 -0.5307104424
O  O87  1  0.58120000  0.21110000  0.37910000  1.0 -0.5307104424
O  O88  1  0.58120000  0.78890000  0.12090000  1.0 -0.5307104424
O  O89  1  0.03270000  0.73080000  0.56900000  1.0 -0.5110886678
O  O90  1  0.03270000  0.26920000  0.93100000  1.0 -0.5110886678
O  O91  1  0.46730000  0.76920000  0.56900000  1.0 -0.5110886678
O  O92  1  0.46730000  0.23080000  0.93100000  1.0 -0.5110886678
O  O93  1  0.96730000  0.26920000  0.43100000  1.0 -0.5110886678
O  O94  1  0.96730000  0.73080000  0.06900000  1.0 -0.5110886678
O  O95  1  0.53270000  0.23080000  0.43100000  1.0 -0.5110886678
O  O96  1  0.53270000  0.76920000  0.06900000  1.0 -0.5110886678
O  O97  1  0.57860000  0.67120000  0.06610000  1.0 -0.4716489458
O  O98  1  0.57860000  0.32880000  0.43390000  1.0 -0.4716489458
O  O99  1  0.92140000  0.82880000  0.06610000  1.0 -0.4716489458
O  O100  1  0.92140000  0.17120000  0.43390000  1.0 -0.4716489458
O  O101  1  0.42140000  0.32880000  0.93390000  1.0 -0.4716489458
O  O102  1  0.42140000  0.67120000  0.56610000  1.0 -0.4716489458
O  O103  1  0.07860000  0.17120000  0.93390000  1.0 -0.4716489458
O  O104  1  0.07860000  0.82880000  0.56610000  1.0 -0.4716489458
O  O105  1  0.66440000  0.83930000  0.89100000  1.0 -0.476738932
O  O106  1  0.66440000  0.16070000  0.60900000  1.0 -0.476738932
O  O107  1  0.83560000  0.66070000  0.89100000  1.0 -0.476738932
O  O108  1  0.83560000  0.33930000  0.60900000  1.0 -0.476738932
O  O109  1  0.33560000  0.16070000  0.10900000  1.0 -0.476738932
O  O110  1  0.33560000  0.83930000  0.39100000  1.0 -0.476738932
O  O111  1  0.16440000  0.33930000  0.10900000  1.0 -0.476738932
O  O112  1  0.16440000  0.66070000  0.39100000  1.0 -0.476738932
O  O113  1  0.75000000  0.75000000  0.91650000  1.0 -0.6561794266
O  O114  1  0.75000000  0.25000000  0.58350000  1.0 -0.6561794266
O  O115  1  0.25000000  0.25000000  0.08350000  1.0 -0.6561794266
O  O116  1  0.25000000  0.75000000  0.41650000  1.0 -0.6561794266
O  O117  1  0.68900000  0.74610000  0.96570000  1.0 -0.7056997702
O  O118  1  0.68900000  0.25390000  0.53430000  1.0 -0.7056997702
O  O119  1  0.81100000  0.75390000  0.96570000  1.0 -0.7056997702
O  O120  1  0.81100000  0.24610000  0.53430000  1.0 -0.7056997702
O  O121  1  0.31100000  0.25390000  0.03430000  1.0 -0.7056997702
O  O122  1  0.31100000  0.74610000  0.46570000  1.0 -0.7056997702
O  O123  1  0.18900000  0.24610000  0.03430000  1.0 -0.7056997702
O  O124  1  0.18900000  0.75390000  0.46570000  1.0 -0.7056997702
O  O125  1  0.67480000  0.66000000  0.89370000  1.0 -0.3667389549
O  O126  1  0.67480000  0.34000000  0.60630000  1.0 -0.3667389549
O  O127  1  0.82520000  0.84000000  0.89370000  1.0 -0.3667389549
O  O128  1  0.82520000  0.16000000  0.60630000  1.0 -0.3667389549
O  O129  1  0.32520000  0.34000000  0.10630000  1.0 -0.3667389549
O  O130  1  0.32520000  0.66000000  0.39370000  1.0 -0.3667389549
O  O131  1  0.17480000  0.16000000  0.10630000  1.0 -0.3667389549
O  O132  1  0.17480000  0.84000000  0.39370000  1.0 -0.3667389549
