# DDEC6 charges by PACMAN v1.1 (https://github.com/mtap-research/PACMAN-charge/)
data_CIPREZ_ASR_pacman
_symmetry_space_group_name_H-M   'P 1'
_cell_length_a   14.50600000
_cell_length_b   15.91200000
_cell_length_c   16.68900000
_cell_angle_alpha   90.00000000
_cell_angle_beta   90.00000000
_cell_angle_gamma   90.00000000
_symmetry_Int_Tables_number   1
_chemical_formula_structural   LaCu2H24C22S4(NO2)6
_chemical_formula_sum   'La4 Cu8 H96 C88 S16 N24 O48'
_cell_volume   3852.14616821
_cell_formula_units_Z   4
loop_
 _symmetry_equiv_pos_site_id
 _symmetry_equiv_pos_as_xyz
  1  'x, y, z'
loop_
 _atom_site_type_symbol
 _atom_site_label
 _atom_site_symmetry_multiplicity
 _atom_site_fract_x
 _atom_site_fract_y
 _atom_site_fract_z
 _atom_site_occupancy
 _atom_site_charge
La  La1  1  0.89294000  0.25000000  0.25000000  1.0 1.7662640587
La  La2  1  0.60706000  0.75000000  0.75000000  1.0 1.7662640587
La  La3  1  0.10706000  0.75000000  0.75000000  1.0 1.7662640587
La  La4  1  0.39294000  0.25000000  0.25000000  1.0 1.7662640587
Cu  Cu1  1  0.71232000  0.43722000  0.11394000  1.0 0.6685325281
Cu  Cu2  1  0.71232000  0.06278000  0.38606000  1.0 0.6685325281
Cu  Cu3  1  0.78768000  0.56278000  0.61394000  1.0 0.6685325281
Cu  Cu4  1  0.78768000  0.93722000  0.88606000  1.0 0.6685325281
Cu  Cu5  1  0.28768000  0.56278000  0.88606000  1.0 0.6685325281
Cu  Cu6  1  0.28768000  0.93722000  0.61394000  1.0 0.6685325281
Cu  Cu7  1  0.21232000  0.43722000  0.38606000  1.0 0.6685325281
Cu  Cu8  1  0.21232000  0.06278000  0.11394000  1.0 0.6685325281
H  H1  1  0.77580000  0.53730000  0.30720000  1.0 0.1335871891
H  H2  1  0.77580000  0.96270000  0.19280000  1.0 0.1335871891
H  H3  1  0.72420000  0.46270000  0.80720000  1.0 0.1335871891
H  H4  1  0.72420000  0.03730000  0.69280000  1.0 0.1335871891
H  H5  1  0.22420000  0.46270000  0.69280000  1.0 0.1335871891
H  H6  1  0.22420000  0.03730000  0.80720000  1.0 0.1335871891
H  H7  1  0.27580000  0.53730000  0.19280000  1.0 0.1335871891
H  H8  1  0.27580000  0.96270000  0.30720000  1.0 0.1335871891
H  H9  1  0.81800000  0.55900000  0.22300000  1.0 0.151082414
H  H10  1  0.81800000  0.94100000  0.27700000  1.0 0.151082414
H  H11  1  0.68200000  0.44100000  0.72300000  1.0 0.151082414
H  H12  1  0.68200000  0.05900000  0.77700000  1.0 0.151082414
H  H13  1  0.18200000  0.44100000  0.77700000  1.0 0.151082414
H  H14  1  0.18200000  0.05900000  0.72300000  1.0 0.151082414
H  H15  1  0.31800000  0.55900000  0.27700000  1.0 0.151082414
H  H16  1  0.31800000  0.94100000  0.22300000  1.0 0.151082414
H  H17  1  0.57650000  0.49630000  0.28520000  1.0 0.1436603741
H  H18  1  0.57650000  0.00370000  0.21480000  1.0 0.1436603741
H  H19  1  0.92350000  0.50370000  0.78520000  1.0 0.1436603741
H  H20  1  0.92350000  0.99630000  0.71480000  1.0 0.1436603741
H  H21  1  0.42350000  0.50370000  0.71480000  1.0 0.1436603741
H  H22  1  0.42350000  0.99630000  0.78520000  1.0 0.1436603741
H  H23  1  0.07650000  0.49630000  0.21480000  1.0 0.1436603741
H  H24  1  0.07650000  0.00370000  0.28520000  1.0 0.1436603741
H  H25  1  0.66060000  0.44570000  0.31900000  1.0 0.1550588087
H  H26  1  0.66060000  0.05430000  0.18100000  1.0 0.151082414
H  H27  1  0.83940000  0.55430000  0.81900000  1.0 0.151082414
H  H28  1  0.83940000  0.94570000  0.68100000  1.0 0.1550588087
H  H29  1  0.33940000  0.55430000  0.68100000  1.0 0.1550588087
H  H30  1  0.33940000  0.94570000  0.81900000  1.0 0.151082414
H  H31  1  0.16060000  0.44570000  0.18100000  1.0 0.151082414
H  H32  1  0.16060000  0.05430000  0.31900000  1.0 0.1550588087
H  H33  1  0.69620000  0.62170000  0.16670000  1.0 0.0923055527
H  H34  1  0.69620000  0.87830000  0.33333333  1.0 0.0923055527
H  H35  1  0.80380000  0.37830000  0.66666667  1.0 0.0923055527
H  H36  1  0.80380000  0.12170000  0.83330000  1.0 0.0923055527
H  H37  1  0.30380000  0.37830000  0.83330000  1.0 0.0923055527
H  H38  1  0.30380000  0.12170000  0.66666667  1.0 0.0923055527
H  H39  1  0.19620000  0.62170000  0.33333333  1.0 0.0923055527
H  H40  1  0.19620000  0.87830000  0.16670000  1.0 0.0923055527
H  H41  1  0.62330000  0.61440000  0.23590000  1.0 0.1082690946
H  H42  1  0.62330000  0.88560000  0.26410000  1.0 0.1082690946
H  H43  1  0.87670000  0.38560000  0.73590000  1.0 0.1082690946
H  H44  1  0.87670000  0.11440000  0.76410000  1.0 0.1082690946
H  H45  1  0.37670000  0.38560000  0.76410000  1.0 0.1082690946
H  H46  1  0.37670000  0.11440000  0.73590000  1.0 0.1082690946
H  H47  1  0.12330000  0.61440000  0.26410000  1.0 0.1082690946
H  H48  1  0.12330000  0.88560000  0.23590000  1.0 0.1082690946
H  H49  1  0.52470000  0.53900000  0.15360000  1.0 0.1082690946
H  H50  1  0.52470000  0.96100000  0.34640000  1.0 0.1082690946
H  H51  1  0.97530000  0.46100000  0.65360000  1.0 0.1082690946
H  H52  1  0.97530000  0.03900000  0.84640000  1.0 0.1082690946
H  H53  1  0.47530000  0.46100000  0.84640000  1.0 0.1082690946
H  H54  1  0.47530000  0.03900000  0.65360000  1.0 0.1082690946
H  H55  1  0.02470000  0.53900000  0.34640000  1.0 0.1082690946
H  H56  1  0.02470000  0.96100000  0.15360000  1.0 0.1082690946
H  H57  1  0.55010000  0.62360000  0.11040000  1.0 0.1082690946
H  H58  1  0.55010000  0.87640000  0.38960000  1.0 0.1082690946
H  H59  1  0.94990000  0.37640000  0.61040000  1.0 0.1082690946
H  H60  1  0.94990000  0.12360000  0.88960000  1.0 0.1082690946
H  H61  1  0.44990000  0.37640000  0.88960000  1.0 0.1082690946
H  H62  1  0.44990000  0.12360000  0.61040000  1.0 0.1082690946
H  H63  1  0.05010000  0.62360000  0.38960000  1.0 0.1082690946
H  H64  1  0.05010000  0.87640000  0.11040000  1.0 0.1082690946
H  H65  1  0.63870000  0.63440000  0.00920000  1.0 0.1082690946
H  H66  1  0.63870000  0.86560000  0.49080000  1.0 0.1082690946
H  H67  1  0.86130000  0.36560000  0.50920000  1.0 0.1082690946
H  H68  1  0.86130000  0.13440000  0.99080000  1.0 0.1082690946
H  H69  1  0.36130000  0.36560000  0.99080000  1.0 0.1082690946
H  H70  1  0.36130000  0.13440000  0.50920000  1.0 0.1082690946
H  H71  1  0.13870000  0.63440000  0.49080000  1.0 0.1082690946
H  H72  1  0.13870000  0.86560000  0.00920000  1.0 0.1082690946
H  H73  1  0.64630000  0.56000000  0.94820000  1.0 0.1207816862
H  H74  1  0.64630000  0.94000000  0.55180000  1.0 0.1207816862
H  H75  1  0.85370000  0.44000000  0.44820000  1.0 0.1207816862
H  H76  1  0.85370000  0.06000000  0.05180000  1.0 0.1207816862
H  H77  1  0.35370000  0.44000000  0.05180000  1.0 0.1207816862
H  H78  1  0.35370000  0.06000000  0.44820000  1.0 0.1207816862
H  H79  1  0.14630000  0.56000000  0.55180000  1.0 0.1207816862
H  H80  1  0.14630000  0.94000000  0.94820000  1.0 0.1207816862
H  H81  1  0.50920000  0.43490000  0.05690000  1.0 0.1082690946
H  H82  1  0.50920000  0.06510000  0.44310000  1.0 0.1082690946
H  H83  1  0.99080000  0.56510000  0.55690000  1.0 0.1082690946
H  H84  1  0.99080000  0.93490000  0.94310000  1.0 0.1082690946
H  H85  1  0.49080000  0.56510000  0.94310000  1.0 0.1082690946
H  H86  1  0.49080000  0.93490000  0.55690000  1.0 0.1082690946
H  H87  1  0.00920000  0.43490000  0.44310000  1.0 0.1082690946
H  H88  1  0.00920000  0.06510000  0.05690000  1.0 0.1082690946
H  H89  1  0.56490000  0.43860000  0.97650000  1.0 0.0980304927
H  H90  1  0.56490000  0.06140000  0.52350000  1.0 0.0980304927
H  H91  1  0.93510000  0.56140000  0.47650000  1.0 0.0980304927
H  H92  1  0.93510000  0.93860000  0.02350000  1.0 0.0980304927
H  H93  1  0.43510000  0.56140000  0.02350000  1.0 0.0980304927
H  H94  1  0.43510000  0.93860000  0.47650000  1.0 0.0980304927
H  H95  1  0.06490000  0.43860000  0.52350000  1.0 0.0980304927
H  H96  1  0.06490000  0.06140000  0.97650000  1.0 0.0980304927
C  C1  1  0.83360000  0.43550000  0.25270000  1.0 0.5969625786
C  C2  1  0.83360000  0.06450000  0.24730000  1.0 0.5969625786
C  C3  1  0.66640000  0.56450000  0.75270000  1.0 0.5969625786
C  C4  1  0.66640000  0.93550000  0.74730000  1.0 0.5969625786
C  C5  1  0.16640000  0.56450000  0.74730000  1.0 0.5969625786
C  C6  1  0.16640000  0.93550000  0.75270000  1.0 0.5969625786
C  C7  1  0.33360000  0.43550000  0.24730000  1.0 0.5969625786
C  C8  1  0.33360000  0.06450000  0.25270000  1.0 0.5969625786
C  C9  1  0.78300000  0.51740000  0.25270000  1.0 -0.2838209383
C  C10  1  0.78300000  0.98260000  0.24730000  1.0 -0.2838209383
C  C11  1  0.71700000  0.48260000  0.75270000  1.0 -0.2838209383
C  C12  1  0.71700000  0.01740000  0.74730000  1.0 -0.2838209383
C  C13  1  0.21700000  0.48260000  0.74730000  1.0 -0.2838209383
C  C14  1  0.21700000  0.01740000  0.75270000  1.0 -0.2838209383
C  C15  1  0.28300000  0.51740000  0.24730000  1.0 -0.2838209383
C  C16  1  0.28300000  0.98260000  0.25270000  1.0 -0.2838209383
C  C17  1  0.62710000  0.45970000  0.27040000  1.0 -0.2905668392
C  C18  1  0.62710000  0.04030000  0.22960000  1.0 -0.2905668392
C  C19  1  0.87290000  0.54030000  0.77040000  1.0 -0.2905668392
C  C20  1  0.87290000  0.95970000  0.72960000  1.0 -0.2905668392
C  C21  1  0.37290000  0.54030000  0.72960000  1.0 -0.2905668392
C  C22  1  0.37290000  0.95970000  0.77040000  1.0 -0.2905668392
C  C23  1  0.12710000  0.45970000  0.22960000  1.0 -0.2905668392
C  C24  1  0.12710000  0.04030000  0.27040000  1.0 -0.2905668392
C  C25  1  0.58800000  0.37940000  0.23460000  1.0 0.626975447
C  C26  1  0.58800000  0.12060000  0.26540000  1.0 0.626975447
C  C27  1  0.91200000  0.62060000  0.73460000  1.0 0.626975447
C  C28  1  0.91200000  0.87940000  0.76540000  1.0 0.626975447
C  C29  1  0.41200000  0.62060000  0.76540000  1.0 0.626975447
C  C30  1  0.41200000  0.87940000  0.73460000  1.0 0.626975447
C  C31  1  0.08800000  0.37940000  0.26540000  1.0 0.626975447
C  C32  1  0.08800000  0.12060000  0.23460000  1.0 0.626975447
C  C33  1  0.64910000  0.58580000  0.18970000  1.0 -0.1508427895
C  C34  1  0.64910000  0.91420000  0.31030000  1.0 -0.1508427895
C  C35  1  0.85090000  0.41420000  0.68970000  1.0 -0.1508427895
C  C36  1  0.85090000  0.08580000  0.81030000  1.0 -0.1508427895
C  C37  1  0.35090000  0.41420000  0.81030000  1.0 -0.1508427895
C  C38  1  0.35090000  0.08580000  0.68970000  1.0 -0.1508427895
C  C39  1  0.14910000  0.58580000  0.31030000  1.0 -0.1508427895
C  C40  1  0.14910000  0.91420000  0.18970000  1.0 -0.1508427895
C  C41  1  0.57460000  0.57030000  0.12890000  1.0 -0.1336803119
C  C42  1  0.57460000  0.92970000  0.37110000  1.0 -0.1336803119
C  C43  1  0.92540000  0.42970000  0.62890000  1.0 -0.1336803119
C  C44  1  0.92540000  0.07030000  0.87110000  1.0 -0.1336803119
C  C45  1  0.42540000  0.42970000  0.87110000  1.0 -0.1336803119
C  C46  1  0.42540000  0.07030000  0.62890000  1.0 -0.1336803119
C  C47  1  0.07460000  0.57030000  0.37110000  1.0 -0.1336803119
C  C48  1  0.07460000  0.92970000  0.12890000  1.0 -0.1336803119
C  C49  1  0.66100000  0.57740000  0.00240000  1.0 -0.2905668392
C  C50  1  0.66100000  0.92260000  0.49760000  1.0 -0.2905668392
C  C51  1  0.83900000  0.42260000  0.50240000  1.0 -0.2905668392
C  C52  1  0.83900000  0.07740000  0.99760000  1.0 -0.2905668392
C  C53  1  0.33900000  0.42260000  0.99760000  1.0 -0.2905668392
C  C54  1  0.33900000  0.07740000  0.50240000  1.0 -0.2905668392
C  C55  1  0.16100000  0.57740000  0.49760000  1.0 -0.2905668392
C  C56  1  0.16100000  0.92260000  0.00240000  1.0 -0.2905668392
C  C57  1  0.76410000  0.57710000  0.01250000  1.0 0.5856820122
C  C58  1  0.76410000  0.92290000  0.48750000  1.0 0.5856820122
C  C59  1  0.73590000  0.42290000  0.51250000  1.0 0.5856820122
C  C60  1  0.73590000  0.07710000  0.98750000  1.0 0.5856820122
C  C61  1  0.23590000  0.42290000  0.98750000  1.0 0.5856820122
C  C62  1  0.23590000  0.07710000  0.51250000  1.0 0.5856820122
C  C63  1  0.26410000  0.57710000  0.48750000  1.0 0.5856820122
C  C64  1  0.26410000  0.92290000  0.01250000  1.0 0.5856820122
C  C65  1  0.53730000  0.47260000  0.01830000  1.0 -0.1336803119
C  C66  1  0.53730000  0.02740000  0.48170000  1.0 -0.1336803119
C  C67  1  0.96270000  0.52740000  0.51830000  1.0 -0.1336803119
C  C68  1  0.96270000  0.97260000  0.98170000  1.0 -0.1336803119
C  C69  1  0.46270000  0.52740000  0.98170000  1.0 -0.1336803119
C  C70  1  0.46270000  0.97260000  0.51830000  1.0 -0.1336803119
C  C71  1  0.03730000  0.47260000  0.48170000  1.0 -0.1336803119
C  C72  1  0.03730000  0.02740000  0.01830000  1.0 -0.1336803119
C  C73  1  0.77290000  0.34290000  0.97400000  1.0 0.0923055527
C  C74  1  0.77290000  0.15710000  0.52600000  1.0 0.0923055527
C  C75  1  0.72710000  0.65710000  0.47400000  1.0 0.0923055527
C  C76  1  0.72710000  0.84290000  0.02600000  1.0 0.0923055527
C  C77  1  0.22710000  0.65710000  0.02600000  1.0 0.0923055527
C  C78  1  0.22710000  0.84290000  0.47400000  1.0 0.0923055527
C  C79  1  0.27290000  0.34290000  0.52600000  1.0 0.0923055527
C  C80  1  0.27290000  0.15710000  0.97400000  1.0 0.0923055527
C  C81  1  0.73800000  0.33600000  0.96770000  1.0 0.1082690946
C  C82  1  0.73800000  0.16400000  0.53230000  1.0 0.1082690946
C  C83  1  0.76200000  0.66400000  0.46770000  1.0 0.1082690946
C  C84  1  0.76200000  0.83600000  0.03230000  1.0 0.1082690946
C  C85  1  0.26200000  0.66400000  0.03230000  1.0 0.1082690946
C  C86  1  0.26200000  0.83600000  0.46770000  1.0 0.1082690946
C  C87  1  0.23800000  0.33600000  0.53230000  1.0 0.1082690946
C  C88  1  0.23800000  0.16400000  0.96770000  1.0 0.1082690946
S  S1  1  0.81640000  0.29790000  0.88590000  1.0 -0.0425427699
S  S2  1  0.81640000  0.20210000  0.61410000  1.0 -0.0425427699
S  S3  1  0.68360000  0.70210000  0.38590000  1.0 -0.0425427699
S  S4  1  0.68360000  0.79790000  0.11410000  1.0 -0.0425427699
S  S5  1  0.18360000  0.70210000  0.11410000  1.0 -0.0425427699
S  S6  1  0.18360000  0.79790000  0.38590000  1.0 -0.0425427699
S  S7  1  0.31640000  0.29790000  0.61410000  1.0 -0.0425427699
S  S8  1  0.31640000  0.20210000  0.88590000  1.0 -0.0425427699
S  S9  1  0.73490000  0.28430000  0.87380000  1.0 -0.0106894427
S  S10  1  0.73490000  0.21570000  0.62620000  1.0 -0.0106894427
S  S11  1  0.76510000  0.71570000  0.37380000  1.0 -0.0106894427
S  S12  1  0.76510000  0.78430000  0.12620000  1.0 -0.0106894427
S  S13  1  0.26510000  0.71570000  0.12620000  1.0 -0.0106894427
S  S14  1  0.26510000  0.78430000  0.37380000  1.0 -0.0106894427
S  S15  1  0.23490000  0.28430000  0.62620000  1.0 -0.0106894427
S  S16  1  0.23490000  0.21570000  0.87380000  1.0 -0.0106894427
N  N1  1  0.69040000  0.50630000  0.21500000  1.0 0.0034040879
N  N2  1  0.69040000  0.99370000  0.28500000  1.0 0.0034040879
N  N3  1  0.80960000  0.49370000  0.71500000  1.0 0.0034040879
N  N4  1  0.80960000  0.00630000  0.78500000  1.0 0.0034040879
N  N5  1  0.30960000  0.49370000  0.78500000  1.0 0.0034040879
N  N6  1  0.30960000  0.00630000  0.71500000  1.0 0.0034040879
N  N7  1  0.19040000  0.50630000  0.28500000  1.0 0.0034040879
N  N8  1  0.19040000  0.99370000  0.21500000  1.0 0.0034040879
N  N9  1  0.61150000  0.52200000  0.05920000  1.0 -0.081027627
N  N10  1  0.61150000  0.97800000  0.44080000  1.0 -0.081027627
N  N11  1  0.88850000  0.47800000  0.55920000  1.0 -0.081027627
N  N12  1  0.88850000  0.02200000  0.94080000  1.0 -0.081027627
N  N13  1  0.38850000  0.47800000  0.94080000  1.0 -0.081027627
N  N14  1  0.38850000  0.02200000  0.55920000  1.0 -0.081027627
N  N15  1  0.11150000  0.52200000  0.44080000  1.0 -0.081027627
N  N16  1  0.11150000  0.97800000  0.05920000  1.0 -0.081027627
N  N17  1  0.73660000  0.36900000  0.02590000  1.0 -0.2681999988
N  N18  1  0.73660000  0.13100000  0.47410000  1.0 -0.2681999988
N  N19  1  0.76340000  0.63100000  0.52590000  1.0 -0.2681999988
N  N20  1  0.76340000  0.86900000  0.97410000  1.0 -0.2681999988
N  N21  1  0.26340000  0.63100000  0.97410000  1.0 -0.2681999988
N  N22  1  0.26340000  0.86900000  0.52590000  1.0 -0.2681999988
N  N23  1  0.23660000  0.36900000  0.47410000  1.0 -0.2681999988
N  N24  1  0.23660000  0.13100000  0.02590000  1.0 -0.2681999988
O  O1  1  0.82060000  0.38760000  0.19110000  1.0 -0.6076037287
O  O2  1  0.82060000  0.11240000  0.30890000  1.0 -0.6076037287
O  O3  1  0.67940000  0.61240000  0.69110000  1.0 -0.6076037287
O  O4  1  0.67940000  0.88760000  0.80890000  1.0 -0.6076037287
O  O5  1  0.17940000  0.61240000  0.80890000  1.0 -0.6076037287
O  O6  1  0.17940000  0.88760000  0.69110000  1.0 -0.6076037287
O  O7  1  0.32060000  0.38760000  0.30890000  1.0 -0.6076037287
O  O8  1  0.32060000  0.11240000  0.19110000  1.0 -0.6076037287
O  O9  1  0.88380000  0.41510000  0.30920000  1.0 -0.5408340319
O  O10  1  0.88380000  0.08490000  0.19080000  1.0 -0.5408340319
O  O11  1  0.61620000  0.58490000  0.80920000  1.0 -0.5408340319
O  O12  1  0.61620000  0.91510000  0.69080000  1.0 -0.5408340319
O  O13  1  0.11620000  0.58490000  0.69080000  1.0 -0.5408340319
O  O14  1  0.11620000  0.91510000  0.80920000  1.0 -0.5408340319
O  O15  1  0.38380000  0.41510000  0.19080000  1.0 -0.5408340319
O  O16  1  0.38380000  0.08490000  0.30920000  1.0 -0.5408340319
O  O17  1  0.61240000  0.35770000  0.16490000  1.0 -0.5408340319
O  O18  1  0.61240000  0.14230000  0.33510000  1.0 -0.5408340319
O  O19  1  0.88760000  0.64230000  0.66490000  1.0 -0.5408340319
O  O20  1  0.88760000  0.85770000  0.83510000  1.0 -0.5408340319
O  O21  1  0.38760000  0.64230000  0.83510000  1.0 -0.5408340319
O  O22  1  0.38760000  0.85770000  0.66490000  1.0 -0.5408340319
O  O23  1  0.11240000  0.35770000  0.33510000  1.0 -0.5408340319
O  O24  1  0.11240000  0.14230000  0.16490000  1.0 -0.5408340319
O  O25  1  0.53140000  0.34180000  0.27700000  1.0 -0.5671716555
O  O26  1  0.53140000  0.15820000  0.22300000  1.0 -0.5671716555
O  O27  1  0.96860000  0.65820000  0.77700000  1.0 -0.5671716555
O  O28  1  0.96860000  0.84180000  0.72300000  1.0 -0.5671716555
O  O29  1  0.46860000  0.65820000  0.72300000  1.0 -0.5671716555
O  O30  1  0.46860000  0.84180000  0.77700000  1.0 -0.5671716555
O  O31  1  0.03140000  0.34180000  0.22300000  1.0 -0.5671716555
O  O32  1  0.03140000  0.15820000  0.27700000  1.0 -0.5671716555
O  O33  1  0.80040000  0.53430000  0.06570000  1.0 -0.511482425
O  O34  1  0.80040000  0.96570000  0.43430000  1.0 -0.511482425
O  O35  1  0.69960000  0.46570000  0.56570000  1.0 -0.511482425
O  O36  1  0.69960000  0.03430000  0.93430000  1.0 -0.511482425
O  O37  1  0.19960000  0.46570000  0.93430000  1.0 -0.511482425
O  O38  1  0.19960000  0.03430000  0.56570000  1.0 -0.511482425
O  O39  1  0.30040000  0.53430000  0.43430000  1.0 -0.511482425
O  O40  1  0.30040000  0.96570000  0.06570000  1.0 -0.511482425
O  O41  1  0.80680000  0.62130000  0.96170000  1.0 -0.5455833822
O  O42  1  0.80680000  0.87870000  0.53830000  1.0 -0.5455833822
O  O43  1  0.69320000  0.37870000  0.46170000  1.0 -0.5455833822
O  O44  1  0.69320000  0.12130000  0.03830000  1.0 -0.5455833822
O  O45  1  0.19320000  0.37870000  0.03830000  1.0 -0.5455833822
O  O46  1  0.19320000  0.12130000  0.46170000  1.0 -0.5455833822
O  O47  1  0.30680000  0.62130000  0.53830000  1.0 -0.5455833822
O  O48  1  0.30680000  0.87870000  0.96170000  1.0 -0.5455833822
