# DDEC6 charges by PACMAN v1.1 (https://github.com/mtap-research/PACMAN-charge/)
data_CIQQIE_ASR_pacman
_symmetry_space_group_name_H-M   'P 1'
_cell_length_a   34.26580000
_cell_length_b   34.26580000
_cell_length_c   21.86810000
_cell_angle_alpha   90.00000000
_cell_angle_beta   90.00000000
_cell_angle_gamma   120.00000000
_symmetry_Int_Tables_number   1
_chemical_formula_structural   La3H77C123N2O19
_chemical_formula_sum   'La18 H462 C738 N12 O114'
_cell_volume   22236.34657352
_cell_formula_units_Z   6
loop_
 _symmetry_equiv_pos_site_id
 _symmetry_equiv_pos_as_xyz
  1  'x, y, z'
loop_
 _atom_site_type_symbol
 _atom_site_label
 _atom_site_symmetry_multiplicity
 _atom_site_fract_x
 _atom_site_fract_y
 _atom_site_fract_z
 _atom_site_occupancy
 _atom_site_charge
La  La1  1  0.04516000  0.96919000  0.66368000  1.0 1.8191004039
La  La2  1  0.07597000  0.04516000  0.49701000  1.0 1.8147583139
La  La3  1  0.03081000  0.07597000  0.33035000  1.0 1.8191004039
La  La4  1  0.95484000  0.03081000  0.16368000  1.0 1.8191004039
La  La5  1  0.92403000  0.95484000  0.99701000  1.0 1.8191004039
La  La6  1  0.96919000  0.92403000  0.83035000  1.0 1.8191004039
La  La7  1  0.40953000  0.69778000  0.37481000  1.0 1.8191004039
La  La8  1  0.71175000  0.40953000  0.20814000  1.0 1.8191004039
La  La9  1  0.30222000  0.71175000  0.04148000  1.0 1.8191004039
La  La10  1  0.59047000  0.30222000  0.87481000  1.0 1.8191004039
La  La11  1  0.28825000  0.59047000  0.70814000  1.0 1.8191004039
La  La12  1  0.69778000  0.28825000  0.54148000  1.0 1.8191004039
La  La13  1  0.36418000  0.62098000  0.54099000  1.0 1.7622467411
La  La14  1  0.74320000  0.36418000  0.37432000  1.0 1.7622467411
La  La15  1  0.37902000  0.74320000  0.20766000  1.0 1.7622467411
La  La16  1  0.63582000  0.37902000  0.04099000  1.0 1.7622467411
La  La17  1  0.25680000  0.63582000  0.87432000  1.0 1.7622467411
La  La18  1  0.62098000  0.25680000  0.70766000  1.0 1.7622467411
H  H1  1  0.86593000  0.33937000  0.61256000  1.0 0.1297577456
H  H2  1  0.52656000  0.86593000  0.44589000  1.0 0.1297577456
H  H3  1  0.66063000  0.52656000  0.27923000  1.0 0.1297577456
H  H4  1  0.13407000  0.66063000  0.11256000  1.0 0.1297577456
H  H5  1  0.47344000  0.13407000  0.94589000  1.0 0.1297577456
H  H6  1  0.33937000  0.47344000  0.77923000  1.0 0.1297577456
H  H7  1  0.93170000  0.33955000  0.62201000  1.0 0.1106530547
H  H8  1  0.59215000  0.93170000  0.45534000  1.0 0.1106530547
H  H9  1  0.66045000  0.59215000  0.28868000  1.0 0.1106530547
H  H10  1  0.06830000  0.66045000  0.12201000  1.0 0.1106530547
H  H11  1  0.40785000  0.06830000  0.95534000  1.0 0.1106530547
H  H12  1  0.33955000  0.40785000  0.78868000  1.0 0.1106530547
H  H13  1  0.16621000  0.60521000  0.57340000  1.0 0.1194661603
H  H14  1  0.56100000  0.16621000  0.40673000  1.0 0.1194661603
H  H15  1  0.39479000  0.56100000  0.24007000  1.0 0.1194661603
H  H16  1  0.83379000  0.39479000  0.07340000  1.0 0.1194661603
H  H17  1  0.43900000  0.83379000  0.90673000  1.0 0.1194661603
H  H18  1  0.60521000  0.43900000  0.74007000  1.0 0.1194661603
H  H19  1  0.44543000  0.57217000  0.53757000  1.0 0.1297577456
H  H20  1  0.87326000  0.44543000  0.37090000  1.0 0.1297577456
H  H21  1  0.42783000  0.87326000  0.20424000  1.0 0.1297577456
H  H22  1  0.55457000  0.42783000  0.03757000  1.0 0.1297577456
H  H23  1  0.12674000  0.55457000  0.87090000  1.0 0.1297577456
H  H24  1  0.57217000  0.12674000  0.70424000  1.0 0.1297577456
H  H25  1  0.36933000  0.46797000  0.64838000  1.0 0.1011427092
H  H26  1  0.90136000  0.36933000  0.48171000  1.0 0.1011427092
H  H27  1  0.53203000  0.90136000  0.31505000  1.0 0.1011427092
H  H28  1  0.63067000  0.53203000  0.14838000  1.0 0.1011427092
H  H29  1  0.09864000  0.63067000  0.98171000  1.0 0.1011427092
H  H30  1  0.46797000  0.09864000  0.81505000  1.0 0.1011427092
H  H31  1  0.34676000  0.48525000  0.59924000  1.0 0.1297577456
H  H32  1  0.86151000  0.34676000  0.43257000  1.0 0.1297577456
H  H33  1  0.51475000  0.86151000  0.26591000  1.0 0.1297577456
H  H34  1  0.65324000  0.51475000  0.09924000  1.0 0.1297577456
H  H35  1  0.13849000  0.65324000  0.93257000  1.0 0.1297577456
H  H36  1  0.48525000  0.13849000  0.76591000  1.0 0.1297577456
H  H37  1  0.37153000  0.51533000  0.65803000  1.0 0.1194661603
H  H38  1  0.85620000  0.37153000  0.49136000  1.0 0.1194661603
H  H39  1  0.48467000  0.85620000  0.32470000  1.0 0.1194661603
H  H40  1  0.62847000  0.48467000  0.15803000  1.0 0.1194661603
H  H41  1  0.14380000  0.62847000  0.99136000  1.0 0.1194661603
H  H42  1  0.51533000  0.14380000  0.82470000  1.0 0.1194661603
H  H43  1  0.40313000  0.46062000  0.63703000  1.0 0.089840172
H  H44  1  0.94251000  0.40313000  0.47036000  1.0 0.089840172
H  H45  1  0.53938000  0.94251000  0.30370000  1.0 0.089840172
H  H46  1  0.59687000  0.53938000  0.13703000  1.0 0.089840172
H  H47  1  0.05749000  0.59687000  0.97036000  1.0 0.089840172
H  H48  1  0.46062000  0.05749000  0.80370000  1.0 0.089840172
H  H49  1  0.45426000  0.50075000  0.64168000  1.0 0.1297577456
H  H50  1  0.95351000  0.45426000  0.47501000  1.0 0.1297577456
H  H51  1  0.49925000  0.95351000  0.30835000  1.0 0.1297577456
H  H52  1  0.54574000  0.49925000  0.14168000  1.0 0.1297577456
H  H53  1  0.04649000  0.54574000  0.97501000  1.0 0.1297577456
H  H54  1  0.50075000  0.04649000  0.80835000  1.0 0.1297577456
H  H55  1  0.43595000  0.47302000  0.57930000  1.0 0.1194661603
H  H56  1  0.96293000  0.43595000  0.41263000  1.0 0.1194661603
H  H57  1  0.52698000  0.96293000  0.24597000  1.0 0.1194661603
H  H58  1  0.56405000  0.52698000  0.07930000  1.0 0.1194661603
H  H59  1  0.03707000  0.56405000  0.91263000  1.0 0.1194661603
H  H60  1  0.47302000  0.03707000  0.74597000  1.0 0.1194661603
H  H61  1  0.14499000  0.13522000  0.59927000  1.0 0.1381845345
H  H62  1  0.00977000  0.14499000  0.43260000  1.0 0.1381845345
H  H63  1  0.86478000  0.00977000  0.26594000  1.0 0.1381845345
H  H64  1  0.85501000  0.86478000  0.09927000  1.0 0.1381845345
H  H65  1  0.99023000  0.85501000  0.93260000  1.0 0.1381845345
H  H66  1  0.13522000  0.99023000  0.76594000  1.0 0.1381845345
H  H67  1  0.32033000  0.22811000  0.61991000  1.0 0.1106530547
H  H68  1  0.09222000  0.32033000  0.45324000  1.0 0.1106530547
H  H69  1  0.77189000  0.09222000  0.28658000  1.0 0.1011427092
H  H70  1  0.67967000  0.77189000  0.11991000  1.0 0.1106530547
H  H71  1  0.90778000  0.67967000  0.95324000  1.0 0.1106530547
H  H72  1  0.22811000  0.90778000  0.78658000  1.0 0.1106530547
H  H73  1  0.06242000  0.28631000  0.65647000  1.0 0.1194661603
H  H74  1  0.77611000  0.06242000  0.48980000  1.0 0.1194661603
H  H75  1  0.71369000  0.77611000  0.32314000  1.0 0.1194661603
H  H76  1  0.93758000  0.71369000  0.15647000  1.0 0.1194661603
H  H77  1  0.22389000  0.93758000  0.98980000  1.0 0.1194661603
H  H78  1  0.28631000  0.22389000  0.82314000  1.0 0.1194661603
H  H79  1  0.08790000  0.78285000  0.45516000  1.0 0.1106530547
H  H80  1  0.30505000  0.08790000  0.28849000  1.0 0.1106530547
H  H81  1  0.21715000  0.30505000  0.12183000  1.0 0.1106530547
H  H82  1  0.91210000  0.21715000  0.95516000  1.0 0.1106530547
H  H83  1  0.69495000  0.91210000  0.78849000  1.0 0.1106530547
H  H84  1  0.78285000  0.69495000  0.62183000  1.0 0.1106530547
H  H85  1  0.02397000  0.87851000  0.55202000  1.0 0.1297577456
H  H86  1  0.14546000  0.02397000  0.38535000  1.0 0.1297577456
H  H87  1  0.12149000  0.14546000  0.21869000  1.0 0.1297577456
H  H88  1  0.97603000  0.12149000  0.05202000  1.0 0.1297577456
H  H89  1  0.85454000  0.97603000  0.88535000  1.0 0.1297577456
H  H90  1  0.87851000  0.85454000  0.71869000  1.0 0.1297577456
H  H91  1  0.25041000  0.27062000  0.51182000  1.0 0.1106530547
H  H92  1  0.97979000  0.25041000  0.34515000  1.0 0.1106530547
H  H93  1  0.72938000  0.97979000  0.17849000  1.0 0.1106530547
H  H94  1  0.74959000  0.72938000  0.01182000  1.0 0.1106530547
H  H95  1  0.02021000  0.74959000  0.84515000  1.0 0.1106530547
H  H96  1  0.27062000  0.02021000  0.67849000  1.0 0.1106530547
H  H97  1  0.44362000  0.39318000  0.48540000  1.0 0.1106530547
H  H98  1  0.05044000  0.44362000  0.31873000  1.0 0.1106530547
H  H99  1  0.60682000  0.05044000  0.15207000  1.0 0.1106530547
H  H100  1  0.55638000  0.60682000  0.98540000  1.0 0.1106530547
H  H101  1  0.94956000  0.55638000  0.81873000  1.0 0.1106530547
H  H102  1  0.39318000  0.94956000  0.65207000  1.0 0.1106530547
H  H103  1  0.03067000  0.08405000  0.67138000  1.0 0.1381845345
H  H104  1  0.94662000  0.03067000  0.50471000  1.0 0.1381845345
H  H105  1  0.91595000  0.94662000  0.33805000  1.0 0.1381845345
H  H106  1  0.96933000  0.91595000  0.17138000  1.0 0.1381845345
H  H107  1  0.05338000  0.96933000  0.00471000  1.0 0.1381845345
H  H108  1  0.08405000  0.05338000  0.83805000  1.0 0.1381845345
H  H109  1  0.93358000  0.22266000  0.70054000  1.0 0.1194661603
H  H110  1  0.71092000  0.93358000  0.53387000  1.0 0.1194661603
H  H111  1  0.77734000  0.71092000  0.36721000  1.0 0.1194661603
H  H112  1  0.06642000  0.77734000  0.20054000  1.0 0.1194661603
H  H113  1  0.28908000  0.06642000  0.03387000  1.0 0.1194661603
H  H114  1  0.22266000  0.28908000  0.86721000  1.0 0.1194661603
H  H115  1  0.18330000  0.20475000  0.53972000  1.0 0.1194661603
H  H116  1  0.97855000  0.18330000  0.37305000  1.0 0.1194661603
H  H117  1  0.79525000  0.97855000  0.20639000  1.0 0.1194661603
H  H118  1  0.81670000  0.79525000  0.03972000  1.0 0.1194661603
H  H119  1  0.02145000  0.81670000  0.87305000  1.0 0.1194661603
H  H120  1  0.20475000  0.02145000  0.70639000  1.0 0.1194661603
H  H121  1  0.03992000  0.59776000  0.52176000  1.0 0.1194661603
H  H122  1  0.44216000  0.03992000  0.35509000  1.0 0.1194661603
H  H123  1  0.40224000  0.44216000  0.18843000  1.0 0.1194661603
H  H124  1  0.96008000  0.40224000  0.02176000  1.0 0.1194661603
H  H125  1  0.55784000  0.96008000  0.85509000  1.0 0.1194661603
H  H126  1  0.59776000  0.55784000  0.68843000  1.0 0.1194661603
H  H127  1  0.11179000  0.73297000  0.50463000  1.0 0.1106530547
H  H128  1  0.37882000  0.11179000  0.33796000  1.0 0.1106530547
H  H129  1  0.26703000  0.37882000  0.17130000  1.0 0.1106530547
H  H130  1  0.88821000  0.26703000  0.00463000  1.0 0.1106530547
H  H131  1  0.62118000  0.88821000  0.83796000  1.0 0.1106530547
H  H132  1  0.73297000  0.62118000  0.67130000  1.0 0.1106530547
H  H133  1  0.11702000  0.93055000  0.42623000  1.0 0.1194661603
H  H134  1  0.18647000  0.11702000  0.25956000  1.0 0.1194661603
H  H135  1  0.06945000  0.18647000  0.09290000  1.0 0.1194661603
H  H136  1  0.88298000  0.06945000  0.92623000  1.0 0.1194661603
H  H137  1  0.81353000  0.88298000  0.75956000  1.0 0.1194661603
H  H138  1  0.93055000  0.81353000  0.59290000  1.0 0.1194661603
H  H139  1  0.37803000  0.26860000  0.55667000  1.0 0.1106530547
H  H140  1  0.10943000  0.37803000  0.39000000  1.0 0.1106530547
H  H141  1  0.73140000  0.10943000  0.22334000  1.0 0.1106530547
H  H142  1  0.62197000  0.73140000  0.05667000  1.0 0.1106530547
H  H143  1  0.89057000  0.62197000  0.89000000  1.0 0.1106530547
H  H144  1  0.26860000  0.89057000  0.72334000  1.0 0.1106530547
H  H145  1  0.99415000  0.35510000  0.66379000  1.0 0.1106530547
H  H146  1  0.63905000  0.99415000  0.49712000  1.0 0.1106530547
H  H147  1  0.64490000  0.63905000  0.33046000  1.0 0.1106530547
H  H148  1  0.00585000  0.64490000  0.16379000  1.0 0.1106530547
H  H149  1  0.36095000  0.00585000  0.99712000  1.0 0.1106530547
H  H150  1  0.35510000  0.36095000  0.83046000  1.0 0.1106530547
H  H151  1  0.23569000  0.62201000  0.52666000  1.0 0.1297577456
H  H152  1  0.61368000  0.23569000  0.35999000  1.0 0.1297577456
H  H153  1  0.37799000  0.61368000  0.19333000  1.0 0.1297577456
H  H154  1  0.76431000  0.37799000  0.02666000  1.0 0.1297577456
H  H155  1  0.38632000  0.76431000  0.85999000  1.0 0.1297577456
H  H156  1  0.62201000  0.38632000  0.69333000  1.0 0.1297577456
H  H157  1  0.47815000  0.36397000  0.44389000  1.0 0.1194661603
H  H158  1  0.11418000  0.47815000  0.27722000  1.0 0.1194661603
H  H159  1  0.63603000  0.11418000  0.11056000  1.0 0.1194661603
H  H160  1  0.52185000  0.63603000  0.94389000  1.0 0.1194661603
H  H161  1  0.88582000  0.52185000  0.77722000  1.0 0.1194661603
H  H162  1  0.36397000  0.88582000  0.61056000  1.0 0.1194661603
H  H163  1  0.21052000  0.09226000  0.69396000  1.0 0.1194661603
H  H164  1  0.11826000  0.21052000  0.52729000  1.0 0.1194661603
H  H165  1  0.90774000  0.11826000  0.36063000  1.0 0.1194661603
H  H166  1  0.78948000  0.90774000  0.19396000  1.0 0.1194661603
H  H167  1  0.88174000  0.78948000  0.02729000  1.0 0.1194661603
H  H168  1  0.09226000  0.88174000  0.86063000  1.0 0.1194661603
H  H169  1  0.03982000  0.15220000  0.60295000  1.0 0.1194661603
H  H170  1  0.88762000  0.03982000  0.43628000  1.0 0.1194661603
H  H171  1  0.84780000  0.88762000  0.26962000  1.0 0.1194661603
H  H172  1  0.96018000  0.84780000  0.10295000  1.0 0.1194661603
H  H173  1  0.11238000  0.96018000  0.93628000  1.0 0.1194661603
H  H174  1  0.15220000  0.11238000  0.76962000  1.0 0.1194661603
H  H175  1  0.11029000  0.86088000  0.40939000  1.0 0.1194661603
H  H176  1  0.24941000  0.11029000  0.24272000  1.0 0.1194661603
H  H177  1  0.13912000  0.24941000  0.07606000  1.0 0.1194661603
H  H178  1  0.88971000  0.13912000  0.90939000  1.0 0.1194661603
H  H179  1  0.75059000  0.88971000  0.74272000  1.0 0.1194661603
H  H180  1  0.86088000  0.75059000  0.57606000  1.0 0.1194661603
H  H181  1  0.87964000  0.23960000  0.74872000  1.0 0.1106530547
H  H182  1  0.64004000  0.87964000  0.58205000  1.0 0.1106530547
H  H183  1  0.76040000  0.64004000  0.41539000  1.0 0.1106530547
H  H184  1  0.12036000  0.76040000  0.24872000  1.0 0.1106530547
H  H185  1  0.35996000  0.12036000  0.08205000  1.0 0.1106530547
H  H186  1  0.23960000  0.35996000  0.91539000  1.0 0.1106530547
H  H187  1  0.98852000  0.72869000  0.58542000  1.0 0.1194661603
H  H188  1  0.25983000  0.98852000  0.41875000  1.0 0.1194661603
H  H189  1  0.27131000  0.25983000  0.25209000  1.0 0.1194661603
H  H190  1  0.01148000  0.27131000  0.08542000  1.0 0.1194661603
H  H191  1  0.74017000  0.01148000  0.91875000  1.0 0.1194661603
H  H192  1  0.72869000  0.74017000  0.75209000  1.0 0.1194661603
H  H193  1  0.42738000  0.43571000  0.42005000  1.0 0.1106530547
H  H194  1  0.99167000  0.42738000  0.25338000  1.0 0.1106530547
H  H195  1  0.56429000  0.99167000  0.08672000  1.0 0.1106530547
H  H196  1  0.57262000  0.56429000  0.92005000  1.0 0.1106530547
H  H197  1  0.00833000  0.57262000  0.75338000  1.0 0.1106530547
H  H198  1  0.43571000  0.00833000  0.58672000  1.0 0.1106530547
H  H199  1  0.85329000  0.40122000  0.60525000  1.0 0.1106530547
H  H200  1  0.45207000  0.85329000  0.43858000  1.0 0.1106530547
H  H201  1  0.59878000  0.45207000  0.27192000  1.0 0.1106530547
H  H202  1  0.14671000  0.59878000  0.10525000  1.0 0.1106530547
H  H203  1  0.54793000  0.14671000  0.93858000  1.0 0.1106530547
H  H204  1  0.40122000  0.54793000  0.77192000  1.0 0.1106530547
H  H205  1  0.97165000  0.54719000  0.57783000  1.0 0.1194661603
H  H206  1  0.42446000  0.97165000  0.41116000  1.0 0.1194661603
H  H207  1  0.45281000  0.42446000  0.24450000  1.0 0.1194661603
H  H208  1  0.02835000  0.45281000  0.07783000  1.0 0.1194661603
H  H209  1  0.57554000  0.02835000  0.91116000  1.0 0.1194661603
H  H210  1  0.54719000  0.57554000  0.74450000  1.0 0.1194661603
H  H211  1  0.57938000  0.30037000  0.53480000  1.0 0.1381845345
H  H212  1  0.27901000  0.57938000  0.36813000  1.0 0.1381845345
H  H213  1  0.69963000  0.27901000  0.20147000  1.0 0.1381845345
H  H214  1  0.42062000  0.69963000  0.03480000  1.0 0.1381845345
H  H215  1  0.72099000  0.42062000  0.86813000  1.0 0.1381845345
H  H216  1  0.30037000  0.72099000  0.70147000  1.0 0.1381845345
H  H217  1  0.20208000  0.52246000  0.61286000  1.0 0.1297577456
H  H218  1  0.67962000  0.20208000  0.44619000  1.0 0.1297577456
H  H219  1  0.47754000  0.67962000  0.27953000  1.0 0.1297577456
H  H220  1  0.79792000  0.47754000  0.11286000  1.0 0.1297577456
H  H221  1  0.32038000  0.79792000  0.94619000  1.0 0.1297577456
H  H222  1  0.52246000  0.32038000  0.77953000  1.0 0.1297577456
H  H223  1  0.29165000  0.71666000  0.39372000  1.0 0.1381845345
H  H224  1  0.57499000  0.29165000  0.22705000  1.0 0.1381845345
H  H225  1  0.28334000  0.57499000  0.06039000  1.0 0.1381845345
H  H226  1  0.70835000  0.28334000  0.89372000  1.0 0.1381845345
H  H227  1  0.42501000  0.70835000  0.72705000  1.0 0.1381845345
H  H228  1  0.71666000  0.42501000  0.56039000  1.0 0.1381845345
H  H229  1  0.27675000  0.15405000  0.68377000  1.0 0.1194661603
H  H230  1  0.12270000  0.27675000  0.51710000  1.0 0.1194661603
H  H231  1  0.84595000  0.12270000  0.35044000  1.0 0.1194661603
H  H232  1  0.72325000  0.84595000  0.18377000  1.0 0.1194661603
H  H233  1  0.87730000  0.72325000  0.01710000  1.0 0.1194661603
H  H234  1  0.15405000  0.87730000  0.85044000  1.0 0.1194661603
H  H235  1  0.97442000  0.66941000  0.53300000  1.0 0.1106530547
H  H236  1  0.30501000  0.97442000  0.36633000  1.0 0.1106530547
H  H237  1  0.33059000  0.30501000  0.19967000  1.0 0.1106530547
H  H238  1  0.02558000  0.33059000  0.03300000  1.0 0.1106530547
H  H239  1  0.69499000  0.02558000  0.86633000  1.0 0.1106530547
H  H240  1  0.66941000  0.69499000  0.69967000  1.0 0.1106530547
H  H241  1  0.99276000  0.79588000  0.59044000  1.0 0.1194661603
H  H242  1  0.19688000  0.99276000  0.42377000  1.0 0.1194661603
H  H243  1  0.20412000  0.19688000  0.25711000  1.0 0.1194661603
H  H244  1  0.00724000  0.20412000  0.09044000  1.0 0.1194661603
H  H245  1  0.80312000  0.00724000  0.92377000  1.0 0.1194661603
H  H246  1  0.79588000  0.80312000  0.75711000  1.0 0.1194661603
H  H247  1  0.32012000  0.39790000  0.52741000  1.0 0.1106530547
H  H248  1  0.92222000  0.32012000  0.36074000  1.0 0.1106530547
H  H249  1  0.60210000  0.92222000  0.19408000  1.0 0.1106530547
H  H250  1  0.67988000  0.60210000  0.02741000  1.0 0.1106530547
H  H251  1  0.07778000  0.67988000  0.86074000  1.0 0.1106530547
H  H252  1  0.39790000  0.07778000  0.69408000  1.0 0.1106530547
H  H253  1  0.31280000  0.45803000  0.49531000  1.0 0.1194661603
H  H254  1  0.85477000  0.31280000  0.32864000  1.0 0.1194661603
H  H255  1  0.54197000  0.85477000  0.16198000  1.0 0.1194661603
H  H256  1  0.68720000  0.54197000  0.99531000  1.0 0.1194661603
H  H257  1  0.14523000  0.68720000  0.82864000  1.0 0.1194661603
H  H258  1  0.45803000  0.14523000  0.66198000  1.0 0.1194661603
H  H259  1  0.06001000  0.41106000  0.68751000  1.0 0.1106530547
H  H260  1  0.64895000  0.06001000  0.52084000  1.0 0.1106530547
H  H261  1  0.58894000  0.64895000  0.35418000  1.0 0.1106530547
H  H262  1  0.93999000  0.58894000  0.18751000  1.0 0.1106530547
H  H263  1  0.35105000  0.93999000  0.02084000  1.0 0.1106530547
H  H264  1  0.41106000  0.35105000  0.85418000  1.0 0.1106530547
H  H265  1  0.10313000  0.34463000  0.58322000  1.0 0.1194661603
H  H266  1  0.75850000  0.10313000  0.41655000  1.0 0.1194661603
H  H267  1  0.65537000  0.75850000  0.24989000  1.0 0.1194661603
H  H268  1  0.89687000  0.65537000  0.08322000  1.0 0.1194661603
H  H269  1  0.24150000  0.89687000  0.91655000  1.0 0.1194661603
H  H270  1  0.34463000  0.24150000  0.74989000  1.0 0.1194661603
H  H271  1  0.34358000  0.53301000  0.44679000  1.0 0.1194661603
H  H272  1  0.81057000  0.34358000  0.28012000  1.0 0.1194661603
H  H273  1  0.46699000  0.81057000  0.11346000  1.0 0.1194661603
H  H274  1  0.65642000  0.46699000  0.94679000  1.0 0.1194661603
H  H275  1  0.18943000  0.65642000  0.78012000  1.0 0.1194661603
H  H276  1  0.53301000  0.18943000  0.61346000  1.0 0.1194661603
H  H277  1  0.95281000  0.04915000  0.82352000  1.0 0.1194661603
H  H278  1  0.90366000  0.95281000  0.65685000  1.0 0.1194661603
H  H279  1  0.95085000  0.90366000  0.49019000  1.0 0.1194661603
H  H280  1  0.04719000  0.95085000  0.32352000  1.0 0.1194661603
H  H281  1  0.09634000  0.04719000  0.15685000  1.0 0.1194661603
H  H282  1  0.04915000  0.09634000  0.99019000  1.0 0.1194661603
H  H283  1  0.03534000  0.21715000  0.61044000  1.0 0.1106530547
H  H284  1  0.81819000  0.03534000  0.44377000  1.0 0.1106530547
H  H285  1  0.78285000  0.81819000  0.27711000  1.0 0.1106530547
H  H286  1  0.96466000  0.78285000  0.11044000  1.0 0.1106530547
H  H287  1  0.18181000  0.96466000  0.94377000  1.0 0.1106530547
H  H288  1  0.21715000  0.18181000  0.77711000  1.0 0.1106530547
H  H289  1  0.78681000  0.31468000  0.64668000  1.0 0.1381845345
H  H290  1  0.47213000  0.78681000  0.48001000  1.0 0.1381845345
H  H291  1  0.68532000  0.47213000  0.31335000  1.0 0.1381845345
H  H292  1  0.21319000  0.68532000  0.14668000  1.0 0.1381845345
H  H293  1  0.52787000  0.21319000  0.98001000  1.0 0.1381845345
H  H294  1  0.31468000  0.52787000  0.81335000  1.0 0.1381845345
H  H295  1  0.96041000  0.17843000  0.76531000  1.0 0.1194661603
H  H296  1  0.78198000  0.96041000  0.59864000  1.0 0.1194661603
H  H297  1  0.82157000  0.78198000  0.43198000  1.0 0.1194661603
H  H298  1  0.03959000  0.82157000  0.26531000  1.0 0.1194661603
H  H299  1  0.21802000  0.03959000  0.09864000  1.0 0.1194661603
H  H300  1  0.17843000  0.21802000  0.93198000  1.0 0.1194661603
H  H301  1  0.51326000  0.28664000  0.58614000  1.0 0.1194661603
H  H302  1  0.22662000  0.51326000  0.41947000  1.0 0.1194661603
H  H303  1  0.71336000  0.22662000  0.25281000  1.0 0.1194661603
H  H304  1  0.48674000  0.71336000  0.08614000  1.0 0.1194661603
H  H305  1  0.77338000  0.48674000  0.91947000  1.0 0.1194661603
H  H306  1  0.28664000  0.77338000  0.75281000  1.0 0.1194661603
H  H307  1  0.80944000  0.45533000  0.47634000  1.0 0.1194661603
H  H308  1  0.35411000  0.80944000  0.30967000  1.0 0.1194661603
H  H309  1  0.54467000  0.35411000  0.14301000  1.0 0.1194661603
H  H310  1  0.19056000  0.54467000  0.97634000  1.0 0.1194661603
H  H311  1  0.64589000  0.19056000  0.80967000  1.0 0.1194661603
H  H312  1  0.45533000  0.64589000  0.64301000  1.0 0.1194661603
H  H313  1  0.17564000  0.38562000  0.52774000  1.0 0.1194661603
H  H314  1  0.79002000  0.17564000  0.36107000  1.0 0.1194661603
H  H315  1  0.61438000  0.79002000  0.19441000  1.0 0.1194661603
H  H316  1  0.82436000  0.61438000  0.02774000  1.0 0.1194661603
H  H317  1  0.20998000  0.82436000  0.86107000  1.0 0.1194661603
H  H318  1  0.38562000  0.20998000  0.69441000  1.0 0.1194661603
H  H319  1  0.15150000  0.70744000  0.44867000  1.0 0.1106530547
H  H320  1  0.44406000  0.15150000  0.28200000  1.0 0.1106530547
H  H321  1  0.29256000  0.44406000  0.11534000  1.0 0.1106530547
H  H322  1  0.84850000  0.29256000  0.94867000  1.0 0.1106530547
H  H323  1  0.55594000  0.84850000  0.78200000  1.0 0.1106530547
H  H324  1  0.70744000  0.55594000  0.61534000  1.0 0.1106530547
H  H325  1  0.12425000  0.47760000  0.66552000  1.0 0.1297577456
H  H326  1  0.64665000  0.12425000  0.49885000  1.0 0.1297577456
H  H327  1  0.52240000  0.64665000  0.33219000  1.0 0.1297577456
H  H328  1  0.87575000  0.52240000  0.16552000  1.0 0.1297577456
H  H329  1  0.35335000  0.87575000  0.99885000  1.0 0.1297577456
H  H330  1  0.47760000  0.35335000  0.83219000  1.0 0.1297577456
H  H331  1  0.30853000  0.33087000  0.51720000  1.0 0.1106530547
H  H332  1  0.97766000  0.30853000  0.35053000  1.0 0.1106530547
H  H333  1  0.66913000  0.97766000  0.18387000  1.0 0.1106530547
H  H334  1  0.69147000  0.66913000  0.01720000  1.0 0.1106530547
H  H335  1  0.02234000  0.69147000  0.85053000  1.0 0.1106530547
H  H336  1  0.33087000  0.02234000  0.68387000  1.0 0.1106530547
H  H337  1  0.45575000  0.50601000  0.36483000  1.0 0.1194661603
H  H338  1  0.94974000  0.45575000  0.19816000  1.0 0.1194661603
H  H339  1  0.49399000  0.94974000  0.03150000  1.0 0.1194661603
H  H340  1  0.54425000  0.49399000  0.86483000  1.0 0.1194661603
H  H341  1  0.05026000  0.54425000  0.69816000  1.0 0.1194661603
H  H342  1  0.50601000  0.05026000  0.53150000  1.0 0.1194661603
H  H343  1  0.86392000  0.53566000  0.45038000  1.0 0.1297577456
H  H344  1  0.32826000  0.86392000  0.28371000  1.0 0.1297577456
H  H345  1  0.46434000  0.32826000  0.11705000  1.0 0.1297577456
H  H346  1  0.13608000  0.46434000  0.95038000  1.0 0.1297577456
H  H347  1  0.67174000  0.13608000  0.78371000  1.0 0.1297577456
H  H348  1  0.53566000  0.67174000  0.61705000  1.0 0.1297577456
H  H349  1  0.73770000  0.21754000  0.77388000  1.0 0.1194661603
H  H350  1  0.52016000  0.73770000  0.60721000  1.0 0.1194661603
H  H351  1  0.78246000  0.52016000  0.44055000  1.0 0.1194661603
H  H352  1  0.26230000  0.78246000  0.27388000  1.0 0.1194661603
H  H353  1  0.47984000  0.26230000  0.10721000  1.0 0.1194661603
H  H354  1  0.21754000  0.47984000  0.94055000  1.0 0.1194661603
H  H355  1  0.91946000  0.47074000  0.61657000  1.0 0.1194661603
H  H356  1  0.44872000  0.91946000  0.44990000  1.0 0.1194661603
H  H357  1  0.52926000  0.44872000  0.28324000  1.0 0.1194661603
H  H358  1  0.08054000  0.52926000  0.11657000  1.0 0.1194661603
H  H359  1  0.55128000  0.08054000  0.94990000  1.0 0.1194661603
H  H360  1  0.47074000  0.55128000  0.78324000  1.0 0.1194661603
H  H361  1  0.44770000  0.29170000  0.59833000  1.0 0.1011427092
H  H362  1  0.15600000  0.44770000  0.43166000  1.0 0.1011427092
H  H363  1  0.70830000  0.15600000  0.26500000  1.0 0.1011427092
H  H364  1  0.55230000  0.70830000  0.09833000  1.0 0.1011427092
H  H365  1  0.84400000  0.55230000  0.93166000  1.0 0.1011427092
H  H366  1  0.29170000  0.84400000  0.76500000  1.0 0.1011427092
H  H367  1  0.94628000  0.11360000  0.81296000  1.0 0.1106530547
H  H368  1  0.83268000  0.94628000  0.64629000  1.0 0.1106530547
H  H369  1  0.88640000  0.83268000  0.47963000  1.0 0.1106530547
H  H370  1  0.05372000  0.88640000  0.31296000  1.0 0.1106530547
H  H371  1  0.16732000  0.05372000  0.14629000  1.0 0.1106530547
H  H372  1  0.11360000  0.16732000  0.97963000  1.0 0.1106530547
H  H373  1  0.55854000  0.38415000  0.38664000  1.0 0.1194661603
H  H374  1  0.17439000  0.55854000  0.21997000  1.0 0.1194661603
H  H375  1  0.61585000  0.17439000  0.05331000  1.0 0.1194661603
H  H376  1  0.44146000  0.61585000  0.88664000  1.0 0.1194661603
H  H377  1  0.82561000  0.44146000  0.71997000  1.0 0.1194661603
H  H378  1  0.38415000  0.82561000  0.55331000  1.0 0.1194661603
H  H379  1  0.92539000  0.60005000  0.45896000  1.0 0.1194661603
H  H380  1  0.32534000  0.92539000  0.29229000  1.0 0.1194661603
H  H381  1  0.39995000  0.32534000  0.12563000  1.0 0.1194661603
H  H382  1  0.07461000  0.39995000  0.95896000  1.0 0.1194661603
H  H383  1  0.67466000  0.07461000  0.79229000  1.0 0.1194661603
H  H384  1  0.60005000  0.67466000  0.62563000  1.0 0.1194661603
H  H385  1  0.10602000  0.61360000  0.58600000  1.0 0.1194661603
H  H386  1  0.49242000  0.10602000  0.41933000  1.0 0.1194661603
H  H387  1  0.38640000  0.49242000  0.25267000  1.0 0.1194661603
H  H388  1  0.89398000  0.38640000  0.08600000  1.0 0.1194661603
H  H389  1  0.50758000  0.89398000  0.91933000  1.0 0.1194661603
H  H390  1  0.61360000  0.50758000  0.75267000  1.0 0.1194661603
H  H391  1  0.45664000  0.57832000  0.34168000  1.0 0.1106530547
H  H392  1  0.87832000  0.45664000  0.17501000  1.0 0.1106530547
H  H393  1  0.42168000  0.87832000  0.00835000  1.0 0.1106530547
H  H394  1  0.54336000  0.42168000  0.84168000  1.0 0.1106530547
H  H395  1  0.12168000  0.54336000  0.67501000  1.0 0.1106530547
H  H396  1  0.57832000  0.12168000  0.50835000  1.0 0.1106530547
H  H397  1  0.23177000  0.73086000  0.40165000  1.0 0.1194661603
H  H398  1  0.50091000  0.23177000  0.23498000  1.0 0.1194661603
H  H399  1  0.26914000  0.50091000  0.06832000  1.0 0.1194661603
H  H400  1  0.76823000  0.26914000  0.90165000  1.0 0.1194661603
H  H401  1  0.49909000  0.76823000  0.73498000  1.0 0.1194661603
H  H402  1  0.73086000  0.49909000  0.56832000  1.0 0.1194661603
H  H403  1  0.80368000  0.21916000  0.78524000  1.0 0.1194661603
H  H404  1  0.58452000  0.80368000  0.61857000  1.0 0.1194661603
H  H405  1  0.78084000  0.58452000  0.45191000  1.0 0.1194661603
H  H406  1  0.19632000  0.78084000  0.28524000  1.0 0.1194661603
H  H407  1  0.41548000  0.19632000  0.11857000  1.0 0.1194661603
H  H408  1  0.21916000  0.41548000  0.95191000  1.0 0.1194661603
H  H409  1  0.61870000  0.37053000  0.37657000  1.0 0.1381845345
H  H410  1  0.24817000  0.61870000  0.20990000  1.0 0.1381845345
H  H411  1  0.62947000  0.24817000  0.04324000  1.0 0.1381845345
H  H412  1  0.38130000  0.62947000  0.87657000  1.0 0.1381845345
H  H413  1  0.75183000  0.38130000  0.70990000  1.0 0.1381845345
H  H414  1  0.37053000  0.75183000  0.54324000  1.0 0.1381845345
H  H415  1  0.24450000  0.45301000  0.51153000  1.0 0.1194661603
H  H416  1  0.79149000  0.24450000  0.34486000  1.0 0.1194661603
H  H417  1  0.54699000  0.79149000  0.17820000  1.0 0.1194661603
H  H418  1  0.75550000  0.54699000  0.01153000  1.0 0.1194661603
H  H419  1  0.20851000  0.75550000  0.84486000  1.0 0.1194661603
H  H420  1  0.45301000  0.20851000  0.67820000  1.0 0.1194661603
H  H421  1  0.43757000  0.61131000  0.51649000  1.0 0.1011427092
H  H422  1  0.82626000  0.43757000  0.34982000  1.0 0.1011427092
H  H423  1  0.38869000  0.82626000  0.18316000  1.0 0.1011427092
H  H424  1  0.56243000  0.38869000  0.01649000  1.0 0.1011427092
H  H425  1  0.17374000  0.56243000  0.84982000  1.0 0.1011427092
H  H426  1  0.61131000  0.17374000  0.68316000  1.0 0.1011427092
H  H427  1  0.52668000  0.60723000  0.48688000  1.0 0.1011427092
H  H428  1  0.91945000  0.52668000  0.32021000  1.0 0.1106530547
H  H429  1  0.39277000  0.91945000  0.15355000  1.0 0.1011427092
H  H430  1  0.47332000  0.39277000  0.98688000  1.0 0.1011427092
H  H431  1  0.08055000  0.47332000  0.82021000  1.0 0.1011427092
H  H432  1  0.60723000  0.08055000  0.65355000  1.0 0.1011427092
H  H433  1  0.51159000  0.64055000  0.51579000  1.0 0.1297577456
H  H434  1  0.87104000  0.51159000  0.34912000  1.0 0.1297577456
H  H435  1  0.35945000  0.87104000  0.18246000  1.0 0.1297577456
H  H436  1  0.48841000  0.35945000  0.01579000  1.0 0.1297577456
H  H437  1  0.12896000  0.48841000  0.84912000  1.0 0.1297577456
H  H438  1  0.64055000  0.12896000  0.68246000  1.0 0.1297577456
H  H439  1  0.48844000  0.61361000  0.45423000  1.0 0.1297577456
H  H440  1  0.87483000  0.48844000  0.28756000  1.0 0.1297577456
H  H441  1  0.38639000  0.87483000  0.12090000  1.0 0.1297577456
H  H442  1  0.51156000  0.38639000  0.95423000  1.0 0.1297577456
H  H443  1  0.12517000  0.51156000  0.78756000  1.0 0.1297577456
H  H444  1  0.61361000  0.12517000  0.62090000  1.0 0.1297577456
H  H445  1  0.52232000  0.57086000  0.51236000  1.0 0.1011427092
H  H446  1  0.95146000  0.52232000  0.34569000  1.0 0.1011427092
H  H447  1  0.42914000  0.95146000  0.17903000  1.0 0.1011427092
H  H448  1  0.47768000  0.42914000  0.01236000  1.0 0.1011427092
H  H449  1  0.04854000  0.47768000  0.84569000  1.0 0.1011427092
H  H450  1  0.57086000  0.04854000  0.67903000  1.0 0.1011427092
H  H451  1  0.47720000  0.52285000  0.51636000  1.0 0.1297577456
H  H452  1  0.95435000  0.47720000  0.34969000  1.0 0.1297577456
H  H453  1  0.47715000  0.95435000  0.18303000  1.0 0.1297577456
H  H454  1  0.52280000  0.47715000  0.01636000  1.0 0.1297577456
H  H455  1  0.04565000  0.52280000  0.84969000  1.0 0.1297577456
H  H456  1  0.52285000  0.04565000  0.68303000  1.0 0.1297577456
H  H457  1  0.50009000  0.55061000  0.57749000  1.0 0.1297577456
H  H458  1  0.94948000  0.50009000  0.41082000  1.0 0.1297577456
H  H459  1  0.44939000  0.94948000  0.24416000  1.0 0.1297577456
H  H460  1  0.49991000  0.44939000  0.07749000  1.0 0.1297577456
H  H461  1  0.05052000  0.49991000  0.91082000  1.0 0.1297577456
H  H462  1  0.55061000  0.05052000  0.74416000  1.0 0.1297577456
C  C1  1  0.07040000  0.90930000  0.49230000  1.0 -0.0009637891
C  C2  1  0.16110000  0.07040000  0.32563000  1.0 -0.0009637891
C  C3  1  0.09070000  0.16110000  0.15897000  1.0 -0.0009637891
C  C4  1  0.92960000  0.09070000  0.99230000  1.0 -0.0009637891
C  C5  1  0.83890000  0.92960000  0.82563000  1.0 -0.0009637891
C  C6  1  0.90930000  0.83890000  0.65897000  1.0 -0.0009637891
C  C7  1  0.82510000  0.42170000  0.53970000  1.0 -0.0091360277
C  C8  1  0.40340000  0.82510000  0.37303000  1.0 -0.0091360277
C  C9  1  0.57830000  0.40340000  0.20637000  1.0 -0.0091360277
C  C10  1  0.17490000  0.57830000  0.03970000  1.0 -0.0091360277
C  C11  1  0.59660000  0.17490000  0.87303000  1.0 -0.0091360277
C  C12  1  0.42170000  0.59660000  0.70637000  1.0 -0.0091360277
C  C13  1  0.86760000  0.31980000  0.64180000  1.0 -0.1295908556
C  C14  1  0.54780000  0.86760000  0.47513000  1.0 -0.1295908556
C  C15  1  0.68020000  0.54780000  0.30847000  1.0 -0.1295908556
C  C16  1  0.13240000  0.68020000  0.14180000  1.0 -0.1408366819
C  C17  1  0.45220000  0.13240000  0.97513000  1.0 -0.1295908556
C  C18  1  0.31980000  0.45220000  0.80847000  1.0 -0.1295908556
C  C19  1  0.75460000  0.26190000  0.70680000  1.0 -0.0189989677
C  C20  1  0.49270000  0.75460000  0.54013000  1.0 -0.0189989677
C  C21  1  0.73810000  0.49270000  0.37347000  1.0 -0.0189989677
C  C22  1  0.24540000  0.73810000  0.20680000  1.0 -0.0189989677
C  C23  1  0.50730000  0.24540000  0.04013000  1.0 -0.0189989677
C  C24  1  0.26190000  0.50730000  0.87347000  1.0 -0.0189989677
C  C25  1  0.17070000  0.10420000  0.64320000  1.0 -0.0906393235
C  C26  1  0.06650000  0.17070000  0.47653000  1.0 -0.0906393235
C  C27  1  0.89580000  0.06650000  0.30987000  1.0 -0.0906393235
C  C28  1  0.82930000  0.89580000  0.14320000  1.0 -0.0906393235
C  C29  1  0.93350000  0.82930000  0.97653000  1.0 -0.0906393235
C  C30  1  0.10420000  0.93350000  0.80987000  1.0 -0.0906393235
C  C31  1  0.90700000  0.31910000  0.64650000  1.0 -0.1507922607
C  C32  1  0.58790000  0.90700000  0.47983000  1.0 -0.1507922607
C  C33  1  0.68090000  0.58790000  0.31317000  1.0 -0.1507922607
C  C34  1  0.09300000  0.68090000  0.14650000  1.0 -0.1507922607
C  C35  1  0.41210000  0.09300000  0.97983000  1.0 -0.1507922607
C  C36  1  0.31910000  0.41210000  0.81317000  1.0 -0.1507922607
C  C37  1  0.13310000  0.06240000  0.65090000  1.0 0.5341802967
C  C38  1  0.07070000  0.13310000  0.48423000  1.0 0.5341802967
C  C39  1  0.93760000  0.07070000  0.31757000  1.0 0.5341802967
C  C40  1  0.86690000  0.93760000  0.15090000  1.0 0.5341802967
C  C41  1  0.92930000  0.86690000  0.98423000  1.0 0.5341802967
C  C42  1  0.06240000  0.92930000  0.81757000  1.0 0.5341802967
C  C43  1  0.16380000  0.62680000  0.54900000  1.0 -0.1198371666
C  C44  1  0.53700000  0.16380000  0.38233000  1.0 -0.1198371666
C  C45  1  0.37320000  0.53700000  0.21567000  1.0 -0.1198371666
C  C46  1  0.83620000  0.37320000  0.04900000  1.0 -0.1198371666
C  C47  1  0.46300000  0.83620000  0.88233000  1.0 -0.1198371666
C  C48  1  0.62680000  0.46300000  0.71567000  1.0 -0.1198371666
C  C49  1  0.99590000  0.01780000  0.75190000  1.0 0.5729748701
C  C50  1  0.97810000  0.99590000  0.58523000  1.0 0.5729748701
C  C51  1  0.98220000  0.97810000  0.41857000  1.0 0.5729748701
C  C52  1  0.00410000  0.98220000  0.25190000  1.0 0.5729748701
C  C53  1  0.02190000  0.00410000  0.08523000  1.0 0.5729748701
C  C54  1  0.01780000  0.02190000  0.91857000  1.0 0.5729748701
C  C55  1  0.41860000  0.55560000  0.56080000  1.0 0.2333955896
C  C56  1  0.86300000  0.41860000  0.39413000  1.0 0.2333955896
C  C57  1  0.44440000  0.86300000  0.22747000  1.0 0.2333955896
C  C58  1  0.58140000  0.44440000  0.06080000  1.0 0.2333955896
C  C59  1  0.13700000  0.58140000  0.89413000  1.0 0.2333955896
C  C60  1  0.55560000  0.13700000  0.72747000  1.0 0.2333955896
C  C61  1  0.37200000  0.49460000  0.62760000  1.0 -0.318914455
C  C62  1  0.87740000  0.37200000  0.46093000  1.0 -0.318914455
C  C63  1  0.50540000  0.87740000  0.29427000  1.0 -0.318914455
C  C64  1  0.62800000  0.50540000  0.12760000  1.0 -0.318914455
C  C65  1  0.12260000  0.62800000  0.96093000  1.0 -0.318914455
C  C66  1  0.49460000  0.12260000  0.79427000  1.0 -0.318914455
C  C67  1  0.42800000  0.48530000  0.61470000  1.0 -0.318914455
C  C68  1  0.94270000  0.42800000  0.44803000  1.0 -0.318914455
C  C69  1  0.51470000  0.94270000  0.28137000  1.0 -0.318914455
C  C70  1  0.57200000  0.51470000  0.11470000  1.0 -0.318914455
C  C71  1  0.05730000  0.57200000  0.94803000  1.0 -0.318914455
C  C72  1  0.48530000  0.05730000  0.78137000  1.0 -0.318914455
C  C73  1  0.45960000  0.33140000  0.51780000  1.0 0.0800774639
C  C74  1  0.12820000  0.45960000  0.35113000  1.0 0.0800774639
C  C75  1  0.66860000  0.12820000  0.18447000  1.0 0.0800774639
C  C76  1  0.54040000  0.66860000  0.01780000  1.0 0.0800774639
C  C77  1  0.87180000  0.54040000  0.85113000  1.0 0.0800774639
C  C78  1  0.33140000  0.87180000  0.68447000  1.0 0.0800774639
C  C79  1  0.17270000  0.13830000  0.61270000  1.0 -0.1507922607
C  C80  1  0.03440000  0.17270000  0.44603000  1.0 -0.1507922607
C  C81  1  0.86170000  0.03440000  0.27937000  1.0 -0.1507922607
C  C82  1  0.82730000  0.86170000  0.11270000  1.0 -0.1615127804
C  C83  1  0.96560000  0.82730000  0.94603000  1.0 -0.1615127804
C  C84  1  0.13830000  0.96560000  0.77937000  1.0 -0.1507922607
C  C85  1  0.29260000  0.22310000  0.60320000  1.0 -0.1991013847
C  C86  1  0.06950000  0.29260000  0.43653000  1.0 -0.1991013847
C  C87  1  0.77690000  0.06950000  0.26987000  1.0 -0.1991013847
C  C88  1  0.70740000  0.77690000  0.10320000  1.0 -0.1991013847
C  C89  1  0.93050000  0.70740000  0.93653000  1.0 -0.1991013847
C  C90  1  0.22310000  0.93050000  0.76987000  1.0 -0.1991013847
C  C91  1  0.03540000  0.28700000  0.66350000  1.0 -0.1991013847
C  C92  1  0.74840000  0.03540000  0.49683000  1.0 -0.1991013847
C  C93  1  0.71300000  0.74840000  0.33017000  1.0 -0.1991013847
C  C94  1  0.96460000  0.71300000  0.16350000  1.0 -0.1991013847
C  C95  1  0.25160000  0.96460000  0.99683000  1.0 -0.1991013847
C  C96  1  0.28700000  0.25160000  0.83017000  1.0 -0.1991013847
C  C97  1  0.06880000  0.78740000  0.48200000  1.0 -0.2092965978
C  C98  1  0.28140000  0.06880000  0.31533000  1.0 -0.2092965978
C  C99  1  0.21260000  0.28140000  0.14867000  1.0 -0.2092965978
C  C100  1  0.93120000  0.21260000  0.98200000  1.0 -0.2092965978
C  C101  1  0.71860000  0.93120000  0.81533000  1.0 -0.2092965978
C  C102  1  0.78740000  0.71860000  0.64867000  1.0 -0.2092965978
C  C103  1  0.04350000  0.87460000  0.52510000  1.0 -0.1615127804
C  C104  1  0.16890000  0.04350000  0.35843000  1.0 -0.1615127804
C  C105  1  0.12540000  0.16890000  0.19177000  1.0 -0.1615127804
C  C106  1  0.95650000  0.12540000  0.02510000  1.0 -0.1615127804
C  C107  1  0.83110000  0.95650000  0.85843000  1.0 -0.1615127804
C  C108  1  0.87460000  0.83110000  0.69177000  1.0 -0.1615127804
C  C109  1  0.06890000  0.82760000  0.48020000  1.0 0.089840172
C  C110  1  0.24130000  0.06890000  0.31353000  1.0 0.089840172
C  C111  1  0.17240000  0.24130000  0.14687000  1.0 0.089840172
C  C112  1  0.93110000  0.17240000  0.98020000  1.0 0.089840172
C  C113  1  0.75870000  0.93110000  0.81353000  1.0 0.089840172
C  C114  1  0.82760000  0.75870000  0.64687000  1.0 0.089840172
C  C115  1  0.25470000  0.18480000  0.62110000  1.0 0.089840172
C  C116  1  0.06990000  0.25470000  0.45443000  1.0 0.089840172
C  C117  1  0.81520000  0.06990000  0.28777000  1.0 0.089840172
C  C118  1  0.74530000  0.81520000  0.12110000  1.0 0.089840172
C  C119  1  0.93010000  0.74530000  0.95443000  1.0 0.089840172
C  C120  1  0.18480000  0.93010000  0.78777000  1.0 0.089840172
C  C121  1  0.25200000  0.24960000  0.53850000  1.0 -0.1696478057
C  C122  1  0.00240000  0.25200000  0.37183000  1.0 -0.1696478057
C  C123  1  0.75040000  0.00240000  0.20517000  1.0 -0.1696478057
C  C124  1  0.74800000  0.75040000  0.03850000  1.0 -0.1696478057
C  C125  1  0.99760000  0.74800000  0.87183000  1.0 -0.1696478057
C  C126  1  0.24960000  0.99760000  0.70517000  1.0 -0.1696478057
C  C127  1  0.00030000  0.20540000  0.68360000  1.0 0.089840172
C  C128  1  0.79490000  0.00030000  0.51693000  1.0 0.089840172
C  C129  1  0.79460000  0.79490000  0.35027000  1.0 0.089840172
C  C130  1  0.99970000  0.79460000  0.18360000  1.0 0.089840172
C  C131  1  0.20510000  0.99970000  0.01693000  1.0 0.089840172
C  C132  1  0.20540000  0.20510000  0.85027000  1.0 0.089840172
C  C133  1  0.41630000  0.36790000  0.49890000  1.0 -0.1991013847
C  C134  1  0.04840000  0.41630000  0.33223000  1.0 -0.1991013847
C  C135  1  0.63210000  0.04840000  0.16557000  1.0 -0.1991013847
C  C136  1  0.58370000  0.63210000  0.99890000  1.0 -0.1991013847
C  C137  1  0.95160000  0.58370000  0.83223000  1.0 -0.1991013847
C  C138  1  0.36790000  0.95160000  0.66557000  1.0 -0.1991013847
C  C139  1  0.01350000  0.09000000  0.70010000  1.0 -0.1507922607
C  C140  1  0.92350000  0.01350000  0.53343000  1.0 -0.1507922607
C  C141  1  0.91000000  0.92350000  0.36677000  1.0 -0.1507922607
C  C142  1  0.98650000  0.91000000  0.20010000  1.0 -0.1507922607
C  C143  1  0.07650000  0.98650000  0.03343000  1.0 -0.1507922607
C  C144  1  0.09000000  0.07650000  0.86677000  1.0 -0.1507922607
C  C145  1  0.41720000  0.33280000  0.51940000  1.0 0.0800774639
C  C146  1  0.08440000  0.41720000  0.35273000  1.0 0.0800774639
C  C147  1  0.66720000  0.08440000  0.18607000  1.0 0.0800774639
C  C148  1  0.58280000  0.66720000  0.01940000  1.0 0.0800774639
C  C149  1  0.91560000  0.58280000  0.85273000  1.0 0.0800774639
C  C150  1  0.33280000  0.91560000  0.68607000  1.0 0.0800774639
C  C151  1  0.95950000  0.25020000  0.68930000  1.0 -0.1991013847
C  C152  1  0.70930000  0.95950000  0.52263000  1.0 -0.1991013847
C  C153  1  0.74980000  0.70930000  0.35597000  1.0 -0.1991013847
C  C154  1  0.04050000  0.74980000  0.18930000  1.0 -0.1991013847
C  C155  1  0.29070000  0.04050000  0.02263000  1.0 -0.1991013847
C  C156  1  0.25020000  0.29070000  0.85597000  1.0 -0.1991013847
C  C157  1  0.21120000  0.21000000  0.55620000  1.0 -0.1615127804
C  C158  1  0.00120000  0.21120000  0.38953000  1.0 -0.1615127804
C  C159  1  0.79000000  0.00120000  0.22287000  1.0 -0.1615127804
C  C160  1  0.78880000  0.79000000  0.05620000  1.0 -0.1615127804
C  C161  1  0.99880000  0.78880000  0.88953000  1.0 -0.1615127804
C  C162  1  0.21000000  0.99880000  0.72287000  1.0 -0.1615127804
C  C163  1  0.04030000  0.62570000  0.52080000  1.0 -0.2092965978
C  C164  1  0.41460000  0.04030000  0.35413000  1.0 -0.2092965978
C  C165  1  0.37430000  0.41460000  0.18747000  1.0 -0.2092965978
C  C166  1  0.95970000  0.37430000  0.02080000  1.0 -0.2092965978
C  C167  1  0.58540000  0.95970000  0.85413000  1.0 -0.2092965978
C  C168  1  0.62570000  0.58540000  0.68747000  1.0 -0.2092965978
C  C169  1  0.08390000  0.70600000  0.51050000  1.0 -0.2092965978
C  C170  1  0.37790000  0.08390000  0.34383000  1.0 -0.2092965978
C  C171  1  0.29400000  0.37790000  0.17717000  1.0 -0.2092965978
C  C172  1  0.91610000  0.29400000  0.01050000  1.0 -0.2092965978
C  C173  1  0.62210000  0.91610000  0.84383000  1.0 -0.2092965978
C  C174  1  0.70600000  0.62210000  0.67717000  1.0 -0.2092965978
C  C175  1  0.99820000  0.25080000  0.67920000  1.0 0.089840172
C  C176  1  0.74740000  0.99820000  0.51253000  1.0 0.089840172
C  C177  1  0.74920000  0.74740000  0.34587000  1.0 0.089840172
C  C178  1  0.00180000  0.74920000  0.17920000  1.0 0.089840172
C  C179  1  0.25260000  0.00180000  0.01253000  1.0 0.089840172
C  C180  1  0.25080000  0.25260000  0.84587000  1.0 0.089840172
C  C181  1  0.19930000  0.65250000  0.50600000  1.0 0.0613759564
C  C182  1  0.54680000  0.19930000  0.33933000  1.0 0.0613759564
C  C183  1  0.34750000  0.54680000  0.17267000  1.0 0.0613759564
C  C184  1  0.80070000  0.34750000  0.00600000  1.0 0.0613759564
C  C185  1  0.45320000  0.80070000  0.83933000  1.0 0.0613759564
C  C186  1  0.65250000  0.45320000  0.67267000  1.0 0.0613759564
C  C187  1  0.09680000  0.90530000  0.45020000  1.0 -0.1295908556
C  C188  1  0.19150000  0.09680000  0.28353000  1.0 -0.1295908556
C  C189  1  0.09470000  0.19150000  0.11687000  1.0 -0.1295908556
C  C190  1  0.90320000  0.09470000  0.95020000  1.0 -0.1295908556
C  C191  1  0.80850000  0.90320000  0.78353000  1.0 -0.1295908556
C  C192  1  0.90530000  0.80850000  0.61687000  1.0 -0.1295908556
C  C193  1  0.19820000  0.68490000  0.46890000  1.0 0.0800774639
C  C194  1  0.51330000  0.19820000  0.30223000  1.0 0.0800774639
C  C195  1  0.31510000  0.51330000  0.13557000  1.0 0.0800774639
C  C196  1  0.80180000  0.31510000  0.96890000  1.0 0.0800774639
C  C197  1  0.48670000  0.80180000  0.80223000  1.0 0.0800774639
C  C198  1  0.68490000  0.48670000  0.63557000  1.0 0.0800774639
C  C199  1  0.37690000  0.29400000  0.54140000  1.0 -0.2092965978
C  C200  1  0.08290000  0.37690000  0.37473000  1.0 -0.2092965978
C  C201  1  0.70600000  0.08290000  0.20807000  1.0 -0.2092965978
C  C202  1  0.62310000  0.70600000  0.04140000  1.0 -0.2092965978
C  C203  1  0.91710000  0.62310000  0.87473000  1.0 -0.2092965978
C  C204  1  0.29400000  0.91710000  0.70807000  1.0 -0.2092965978
C  C205  1  0.03950000  0.75130000  0.52470000  1.0 0.0613759564
C  C206  1  0.28820000  0.03950000  0.35803000  1.0 0.0613759564
C  C207  1  0.24870000  0.28820000  0.19137000  1.0 0.0613759564
C  C208  1  0.96050000  0.24870000  0.02470000  1.0 0.0613759564
C  C209  1  0.71180000  0.96050000  0.85803000  1.0 0.0613759564
C  C210  1  0.75130000  0.71180000  0.69137000  1.0 0.0613759564
C  C211  1  0.33540000  0.29410000  0.53990000  1.0 0.0613759564
C  C212  1  0.04130000  0.33540000  0.37323000  1.0 0.0613759564
C  C213  1  0.70590000  0.04130000  0.20657000  1.0 0.0613759564
C  C214  1  0.66460000  0.70590000  0.03990000  1.0 0.0613759564
C  C215  1  0.95870000  0.66460000  0.87323000  1.0 0.0613759564
C  C216  1  0.29410000  0.95870000  0.70657000  1.0 0.0613759564
C  C217  1  0.83830000  0.26380000  0.71820000  1.0 0.089840172
C  C218  1  0.57450000  0.83830000  0.55153000  1.0 0.089840172
C  C219  1  0.73620000  0.57450000  0.38487000  1.0 0.089840172
C  C220  1  0.16170000  0.73620000  0.21820000  1.0 0.089840172
C  C221  1  0.42550000  0.16170000  0.05153000  1.0 0.089840172
C  C222  1  0.26380000  0.42550000  0.88487000  1.0 0.089840172
C  C223  1  0.07450000  0.95530000  0.50280000  1.0 0.5729748701
C  C224  1  0.11920000  0.07450000  0.33613000  1.0 0.5729748701
C  C225  1  0.04470000  0.11920000  0.16947000  1.0 0.5729748701
C  C226  1  0.92550000  0.04470000  0.00280000  1.0 0.5729748701
C  C227  1  0.88080000  0.92550000  0.83613000  1.0 0.5814212245
C  C228  1  0.95530000  0.88080000  0.66947000  1.0 0.5814212245
C  C229  1  0.99450000  0.32770000  0.66780000  1.0 -0.1991013847
C  C230  1  0.66680000  0.99450000  0.50113000  1.0 -0.2092965978
C  C231  1  0.67230000  0.66680000  0.33447000  1.0 -0.2092965978
C  C232  1  0.00550000  0.67230000  0.16780000  1.0 -0.2092965978
C  C233  1  0.33320000  0.00550000  0.00113000  1.0 -0.1991013847
C  C234  1  0.32770000  0.33320000  0.83447000  1.0 -0.2092965978
C  C235  1  0.12500000  0.66620000  0.51620000  1.0 0.0800774639
C  C236  1  0.45880000  0.12500000  0.34953000  1.0 0.0800774639
C  C237  1  0.33380000  0.45880000  0.18287000  1.0 0.0800774639
C  C238  1  0.87500000  0.33380000  0.01620000  1.0 0.0800774639
C  C239  1  0.54120000  0.87500000  0.84953000  1.0 0.0800774639
C  C240  1  0.66620000  0.54120000  0.68287000  1.0 0.0800774639
C  C241  1  0.29520000  0.25840000  0.55980000  1.0 0.0709377062
C  C242  1  0.03680000  0.29520000  0.39313000  1.0 0.0709377062
C  C243  1  0.74160000  0.03680000  0.22647000  1.0 0.0709377062
C  C244  1  0.70480000  0.74160000  0.05980000  1.0 0.0709377062
C  C245  1  0.96320000  0.70480000  0.89313000  1.0 0.0709377062
C  C246  1  0.25840000  0.96320000  0.72647000  1.0 0.0709377062
C  C247  1  0.23490000  0.64410000  0.50130000  1.0 -0.1615127804
C  C248  1  0.59080000  0.23490000  0.33463000  1.0 -0.1615127804
C  C249  1  0.35590000  0.59080000  0.16797000  1.0 -0.1615127804
C  C250  1  0.76510000  0.35590000  0.00130000  1.0 -0.1615127804
C  C251  1  0.40920000  0.76510000  0.83463000  1.0 -0.1615127804
C  C252  1  0.64410000  0.40920000  0.66797000  1.0 -0.1615127804
C  C253  1  0.48610000  0.34920000  0.47390000  1.0 -0.1696478057
C  C254  1  0.13690000  0.48610000  0.30723000  1.0 -0.1696478057
C  C255  1  0.65080000  0.13690000  0.14057000  1.0 -0.1696478057
C  C256  1  0.51390000  0.65080000  0.97390000  1.0 -0.1696478057
C  C257  1  0.86310000  0.51390000  0.80723000  1.0 -0.1696478057
C  C258  1  0.34920000  0.86310000  0.64057000  1.0 -0.1696478057
C  C259  1  0.00970000  0.12830000  0.69380000  1.0 0.0709377062
C  C260  1  0.88140000  0.00970000  0.52713000  1.0 0.0709377062
C  C261  1  0.87170000  0.88140000  0.36047000  1.0 0.0709377062
C  C262  1  0.99030000  0.87170000  0.19380000  1.0 0.0709377062
C  C263  1  0.11860000  0.99030000  0.02713000  1.0 0.0709377062
C  C264  1  0.12830000  0.11860000  0.86047000  1.0 0.0709377062
C  C265  1  0.14520000  0.41320000  0.57970000  1.0 0.089840172
C  C266  1  0.73200000  0.14520000  0.41303000  1.0 0.089840172
C  C267  1  0.58680000  0.73200000  0.24637000  1.0 0.089840172
C  C268  1  0.85480000  0.58680000  0.07970000  1.0 0.089840172
C  C269  1  0.26800000  0.85480000  0.91303000  1.0 0.089840172
C  C270  1  0.41320000  0.26800000  0.74637000  1.0 0.089840172
C  C271  1  0.04040000  0.70710000  0.51910000  1.0 0.089840172
C  C272  1  0.33333333  0.04040000  0.35243000  1.0 0.089840172
C  C273  1  0.29290000  0.33333333  0.18577000  1.0 0.089840172
C  C274  1  0.95960000  0.29290000  0.01910000  1.0 0.089840172
C  C275  1  0.66666667  0.95960000  0.85243000  1.0 0.1011427092
C  C276  1  0.70710000  0.66666667  0.68577000  1.0 0.1011427092
C  C277  1  0.21120000  0.11480000  0.66790000  1.0 -0.1102950696
C  C278  1  0.09640000  0.21120000  0.50123000  1.0 -0.1102950696
C  C279  1  0.88520000  0.09640000  0.33457000  1.0 -0.1102950696
C  C280  1  0.78880000  0.88520000  0.16790000  1.0 -0.1102950696
C  C281  1  0.90360000  0.78880000  0.00123000  1.0 -0.1102950696
C  C282  1  0.11480000  0.90360000  0.83457000  1.0 -0.1102950696
C  C283  1  0.02690000  0.15840000  0.63740000  1.0 -0.1198371666
C  C284  1  0.86850000  0.02690000  0.47073000  1.0 -0.1198371666
C  C285  1  0.84160000  0.86850000  0.30407000  1.0 -0.1198371666
C  C286  1  0.97310000  0.84160000  0.13740000  1.0 -0.1198371666
C  C287  1  0.13150000  0.97310000  0.97073000  1.0 -0.1198371666
C  C288  1  0.15840000  0.13150000  0.80407000  1.0 -0.1198371666
C  C289  1  0.08180000  0.66540000  0.51150000  1.0 0.0800774639
C  C290  1  0.41640000  0.08180000  0.34483000  1.0 0.0800774639
C  C291  1  0.33460000  0.41640000  0.17817000  1.0 0.0800774639
C  C292  1  0.91820000  0.33460000  0.01150000  1.0 0.0800774639
C  C293  1  0.58360000  0.91820000  0.84483000  1.0 0.0800774639
C  C294  1  0.66540000  0.58360000  0.67817000  1.0 0.0800774639
C  C295  1  0.09410000  0.86430000  0.44230000  1.0 -0.1507922607
C  C296  1  0.22980000  0.09410000  0.27563000  1.0 -0.1507922607
C  C297  1  0.13570000  0.22980000  0.10897000  1.0 -0.1507922607
C  C298  1  0.90590000  0.13570000  0.94230000  1.0 -0.1507922607
C  C299  1  0.77020000  0.90590000  0.77563000  1.0 -0.1507922607
C  C300  1  0.86430000  0.77020000  0.60897000  1.0 -0.1507922607
C  C301  1  0.87810000  0.26070000  0.72220000  1.0 -0.1991013847
C  C302  1  0.61740000  0.87810000  0.55553000  1.0 -0.1991013847
C  C303  1  0.73930000  0.61740000  0.38887000  1.0 -0.1991013847
C  C304  1  0.12190000  0.73930000  0.22220000  1.0 -0.1991013847
C  C305  1  0.38260000  0.12190000  0.05553000  1.0 -0.1991013847
C  C306  1  0.26070000  0.38260000  0.88887000  1.0 -0.1991013847
C  C307  1  0.40160000  0.48100000  0.42110000  1.0 0.0709377062
C  C308  1  0.92060000  0.40160000  0.25443000  1.0 0.0709377062
C  C309  1  0.51900000  0.92060000  0.08777000  1.0 0.0709377062
C  C310  1  0.59840000  0.51900000  0.92110000  1.0 0.0709377062
C  C311  1  0.07940000  0.59840000  0.75443000  1.0 0.0709377062
C  C312  1  0.48100000  0.07940000  0.58777000  1.0 0.0709377062
C  C313  1  0.95620000  0.28910000  0.68390000  1.0 0.0800774639
C  C314  1  0.66710000  0.95620000  0.51723000  1.0 0.0800774639
C  C315  1  0.71090000  0.66710000  0.35057000  1.0 0.0800774639
C  C316  1  0.04380000  0.71090000  0.18390000  1.0 0.0800774639
C  C317  1  0.33290000  0.04380000  0.01723000  1.0 0.0709377062
C  C318  1  0.28910000  0.33290000  0.85057000  1.0 0.0800774639
C  C319  1  0.00960000  0.75350000  0.56160000  1.0 -0.1295908556
C  C320  1  0.25610000  0.00960000  0.39493000  1.0 -0.1295908556
C  C321  1  0.24650000  0.25610000  0.22827000  1.0 -0.1295908556
C  C322  1  0.99040000  0.24650000  0.06160000  1.0 -0.1295908556
C  C323  1  0.74390000  0.99040000  0.89493000  1.0 -0.1295908556
C  C324  1  0.75350000  0.74390000  0.72827000  1.0 -0.1295908556
C  C325  1  0.07740000  0.37180000  0.63520000  1.0 0.0800774639
C  C326  1  0.70560000  0.07740000  0.46853000  1.0 0.0800774639
C  C327  1  0.62820000  0.70560000  0.30187000  1.0 0.0800774639
C  C328  1  0.92260000  0.62820000  0.13520000  1.0 0.0800774639
C  C329  1  0.29440000  0.92260000  0.96853000  1.0 0.0800774639
C  C330  1  0.37180000  0.29440000  0.80187000  1.0 0.0800774639
C  C331  1  0.40450000  0.44060000  0.43620000  1.0 -0.1991013847
C  C332  1  0.96390000  0.40450000  0.26953000  1.0 -0.1991013847
C  C333  1  0.55940000  0.96390000  0.10287000  1.0 -0.1991013847
C  C334  1  0.59550000  0.55940000  0.93620000  1.0 -0.1991013847
C  C335  1  0.03610000  0.59550000  0.76953000  1.0 -0.1991013847
C  C336  1  0.44060000  0.03610000  0.60287000  1.0 -0.1991013847
C  C337  1  0.85780000  0.42630000  0.58140000  1.0 -0.1102950696
C  C338  1  0.43150000  0.85780000  0.41473000  1.0 -0.1102950696
C  C339  1  0.57370000  0.43150000  0.24807000  1.0 -0.1102950696
C  C340  1  0.14220000  0.57370000  0.08140000  1.0 -0.1102950696
C  C341  1  0.56850000  0.14220000  0.91473000  1.0 -0.1102950696
C  C342  1  0.42630000  0.56850000  0.74807000  1.0 -0.1102950696
C  C343  1  0.90380000  0.50430000  0.55320000  1.0 0.0709377062
C  C344  1  0.39950000  0.90380000  0.38653000  1.0 0.0709377062
C  C345  1  0.49570000  0.39950000  0.21987000  1.0 0.0709377062
C  C346  1  0.09620000  0.49570000  0.05320000  1.0 0.0709377062
C  C347  1  0.60050000  0.09620000  0.88653000  1.0 0.0709377062
C  C348  1  0.50430000  0.60050000  0.71987000  1.0 0.0709377062
C  C349  1  0.94770000  0.54590000  0.55430000  1.0 -0.2092965978
C  C350  1  0.40180000  0.94770000  0.38763000  1.0 -0.2092965978
C  C351  1  0.45410000  0.40180000  0.22097000  1.0 -0.2092965978
C  C352  1  0.05230000  0.45410000  0.05430000  1.0 -0.2092965978
C  C353  1  0.59820000  0.05230000  0.88763000  1.0 -0.2092965978
C  C354  1  0.54590000  0.59820000  0.72097000  1.0 -0.2092965978
C  C355  1  0.26930000  0.66800000  0.45950000  1.0 -0.0189989677
C  C356  1  0.60130000  0.26930000  0.29283000  1.0 -0.0189989677
C  C357  1  0.33200000  0.60130000  0.12617000  1.0 -0.0189989677
C  C358  1  0.73070000  0.33200000  0.95950000  1.0 -0.0189989677
C  C359  1  0.39870000  0.73070000  0.79283000  1.0 -0.0189989677
C  C360  1  0.66800000  0.39870000  0.62617000  1.0 -0.0189989677
C  C361  1  0.57420000  0.31700000  0.50440000  1.0 -0.1408366819
C  C362  1  0.25720000  0.57420000  0.33773000  1.0 -0.1408366819
C  C363  1  0.68300000  0.25720000  0.17107000  1.0 -0.1408366819
C  C364  1  0.42580000  0.68300000  0.00440000  1.0 -0.1408366819
C  C365  1  0.74280000  0.42580000  0.83773000  1.0 -0.1408366819
C  C366  1  0.31700000  0.74280000  0.67107000  1.0 -0.1408366819
C  C367  1  0.19620000  0.49490000  0.59450000  1.0 -0.1408366819
C  C368  1  0.70130000  0.19620000  0.42783000  1.0 -0.1408366819
C  C369  1  0.50510000  0.70130000  0.26117000  1.0 -0.1408366819
C  C370  1  0.80380000  0.50510000  0.09450000  1.0 -0.1408366819
C  C371  1  0.29870000  0.80380000  0.92783000  1.0 -0.1408366819
C  C372  1  0.49490000  0.29870000  0.76117000  1.0 -0.1408366819
C  C373  1  0.03410000  0.32700000  0.65730000  1.0 0.089840172
C  C374  1  0.70710000  0.03410000  0.49063000  1.0 0.089840172
C  C375  1  0.67300000  0.70710000  0.32397000  1.0 0.089840172
C  C376  1  0.96590000  0.67300000  0.15730000  1.0 0.089840172
C  C377  1  0.29290000  0.96590000  0.99063000  1.0 0.089840172
C  C378  1  0.32700000  0.29290000  0.82397000  1.0 0.089840172
C  C379  1  0.26810000  0.70030000  0.42230000  1.0 -0.0906393235
C  C380  1  0.56780000  0.26810000  0.25563000  1.0 -0.0906393235
C  C381  1  0.29970000  0.56780000  0.08897000  1.0 -0.0906393235
C  C382  1  0.73190000  0.29970000  0.92230000  1.0 -0.0906393235
C  C383  1  0.43220000  0.73190000  0.75563000  1.0 -0.0906393235
C  C384  1  0.70030000  0.43220000  0.58897000  1.0 -0.0906393235
C  C385  1  0.98460000  0.13710000  0.73590000  1.0 0.0800774639
C  C386  1  0.84750000  0.98460000  0.56923000  1.0 0.0800774639
C  C387  1  0.86290000  0.84750000  0.40257000  1.0 0.0800774639
C  C388  1  0.01540000  0.86290000  0.23590000  1.0 0.0800774639
C  C389  1  0.15250000  0.01540000  0.06923000  1.0 0.0800774639
C  C390  1  0.13710000  0.15250000  0.90257000  1.0 0.0800774639
C  C391  1  0.25130000  0.15080000  0.66190000  1.0 -0.1615127804
C  C392  1  0.10050000  0.25130000  0.49523000  1.0 -0.1615127804
C  C393  1  0.84920000  0.10050000  0.32857000  1.0 -0.1615127804
C  C394  1  0.74870000  0.84920000  0.16190000  1.0 -0.1615127804
C  C395  1  0.89950000  0.74870000  0.99523000  1.0 -0.1615127804
C  C396  1  0.15080000  0.89950000  0.82857000  1.0 -0.1615127804
C  C397  1  0.00150000  0.66870000  0.52760000  1.0 -0.2092965978
C  C398  1  0.33280000  0.00150000  0.36093000  1.0 -0.2092965978
C  C399  1  0.33130000  0.33280000  0.19427000  1.0 -0.2092965978
C  C400  1  0.99850000  0.33130000  0.02760000  1.0 -0.2092965978
C  C401  1  0.66720000  0.99850000  0.86093000  1.0 -0.2092965978
C  C402  1  0.66870000  0.66720000  0.69427000  1.0 -0.2092965978
C  C403  1  0.01190000  0.79250000  0.56220000  1.0 -0.1696478057
C  C404  1  0.21940000  0.01190000  0.39553000  1.0 -0.1696478057
C  C405  1  0.20750000  0.21940000  0.22887000  1.0 -0.1696478057
C  C406  1  0.98810000  0.20750000  0.06220000  1.0 -0.1696478057
C  C407  1  0.78060000  0.98810000  0.89553000  1.0 -0.1696478057
C  C408  1  0.79250000  0.78060000  0.72887000  1.0 -0.1696478057
C  C409  1  0.34060000  0.41860000  0.49830000  1.0 -0.1507922607
C  C410  1  0.92200000  0.34060000  0.33163000  1.0 -0.1507922607
C  C411  1  0.58140000  0.92200000  0.16497000  1.0 -0.1507922607
C  C412  1  0.65940000  0.58140000  0.99830000  1.0 -0.1507922607
C  C413  1  0.07800000  0.65940000  0.83163000  1.0 -0.1507922607
C  C414  1  0.41860000  0.07800000  0.66497000  1.0 -0.1507922607
C  C415  1  0.53620000  0.32160000  0.50910000  1.0 0.0709377062
C  C416  1  0.21460000  0.53620000  0.34243000  1.0 0.0709377062
C  C417  1  0.67840000  0.21460000  0.17577000  1.0 0.0709377062
C  C418  1  0.46380000  0.67840000  0.00910000  1.0 0.0709377062
C  C419  1  0.78540000  0.46380000  0.84243000  1.0 0.0709377062
C  C420  1  0.32160000  0.78540000  0.67577000  1.0 0.0709377062
C  C421  1  0.99240000  0.06050000  0.74840000  1.0 -0.0091360277
C  C422  1  0.93190000  0.99240000  0.58173000  1.0 -0.0091360277
C  C423  1  0.93950000  0.93190000  0.41507000  1.0 -0.0091360277
C  C424  1  0.00760000  0.93950000  0.24840000  1.0 -0.0091360277
C  C425  1  0.06810000  0.00760000  0.08173000  1.0 -0.0091360277
C  C426  1  0.06050000  0.06810000  0.91507000  1.0 -0.0091360277
C  C427  1  0.37330000  0.36960000  0.49590000  1.0 0.089840172
C  C428  1  0.00370000  0.37330000  0.32923000  1.0 0.089840172
C  C429  1  0.63040000  0.00370000  0.16257000  1.0 0.089840172
C  C430  1  0.62670000  0.63040000  0.99590000  1.0 0.089840172
C  C431  1  0.99630000  0.62670000  0.82923000  1.0 0.089840172
C  C432  1  0.36960000  0.99630000  0.66257000  1.0 0.089840172
C  C433  1  0.33740000  0.45510000  0.48130000  1.0 -0.1295908556
C  C434  1  0.88230000  0.33740000  0.31463000  1.0 -0.1295908556
C  C435  1  0.54490000  0.88230000  0.14797000  1.0 -0.1295908556
C  C436  1  0.66260000  0.54490000  0.98130000  1.0 -0.1295908556
C  C437  1  0.11770000  0.66260000  0.81463000  1.0 -0.1295908556
C  C438  1  0.45510000  0.11770000  0.64797000  1.0 -0.1295908556
C  C439  1  0.08240000  0.41160000  0.66120000  1.0 -0.1615127804
C  C440  1  0.67080000  0.08240000  0.49453000  1.0 -0.1615127804
C  C441  1  0.58840000  0.67080000  0.32787000  1.0 -0.1615127804
C  C442  1  0.91760000  0.58840000  0.16120000  1.0 -0.1615127804
C  C443  1  0.32920000  0.91760000  0.99453000  1.0 -0.1615127804
C  C444  1  0.41160000  0.32920000  0.82787000  1.0 -0.1615127804
C  C445  1  0.10700000  0.37240000  0.59830000  1.0 -0.1795689347
C  C446  1  0.73460000  0.10700000  0.43163000  1.0 -0.1795689347
C  C447  1  0.62760000  0.73460000  0.26497000  1.0 -0.1795689347
C  C448  1  0.89300000  0.62760000  0.09830000  1.0 -0.1795689347
C  C449  1  0.26540000  0.89300000  0.93163000  1.0 -0.1795689347
C  C450  1  0.37240000  0.26540000  0.76497000  1.0 -0.1795689347
C  C451  1  0.00050000  0.62540000  0.52860000  1.0 0.1011427092
C  C452  1  0.37510000  0.00050000  0.36193000  1.0 0.1011427092
C  C453  1  0.37460000  0.37510000  0.19527000  1.0 0.1011427092
C  C454  1  0.99950000  0.37460000  0.02860000  1.0 0.1011427092
C  C455  1  0.62490000  0.99950000  0.86193000  1.0 0.1011427092
C  C456  1  0.62540000  0.62490000  0.69527000  1.0 0.1011427092
C  C457  1  0.36680000  0.52870000  0.43010000  1.0 -0.1696478057
C  C458  1  0.83810000  0.36680000  0.26343000  1.0 -0.1696478057
C  C459  1  0.47130000  0.83810000  0.09677000  1.0 -0.1696478057
C  C460  1  0.63320000  0.47130000  0.93010000  1.0 -0.1696478057
C  C461  1  0.16190000  0.63320000  0.76343000  1.0 -0.1696478057
C  C462  1  0.52870000  0.16190000  0.59677000  1.0 -0.1696478057
C  C463  1  0.96730000  0.06930000  0.79050000  1.0 -0.1102950696
C  C464  1  0.89800000  0.96730000  0.62383000  1.0 -0.1102950696
C  C465  1  0.93070000  0.89800000  0.45717000  1.0 -0.1102950696
C  C466  1  0.03270000  0.93070000  0.29050000  1.0 -0.1102950696
C  C467  1  0.10200000  0.03270000  0.12383000  1.0 -0.1102950696
C  C468  1  0.06930000  0.10200000  0.95717000  1.0 -0.1102950696
C  C469  1  0.21150000  0.17810000  0.59820000  1.0 0.089840172
C  C470  1  0.03340000  0.21150000  0.43153000  1.0 0.089840172
C  C471  1  0.82190000  0.03340000  0.26487000  1.0 0.089840172
C  C472  1  0.78850000  0.82190000  0.09820000  1.0 0.089840172
C  C473  1  0.96660000  0.78850000  0.93153000  1.0 0.089840172
C  C474  1  0.17810000  0.96660000  0.76487000  1.0 0.089840172
C  C475  1  0.22680000  0.49560000  0.55860000  1.0 -0.0189989677
C  C476  1  0.73120000  0.22680000  0.39193000  1.0 -0.0189989677
C  C477  1  0.50440000  0.73120000  0.22527000  1.0 -0.0189989677
C  C478  1  0.77320000  0.50440000  0.05860000  1.0 -0.0189989677
C  C479  1  0.26880000  0.77320000  0.89193000  1.0 -0.0189989677
C  C480  1  0.49560000  0.26880000  0.72527000  1.0 -0.0189989677
C  C481  1  0.02160000  0.19550000  0.64210000  1.0 -0.1408366819
C  C482  1  0.82610000  0.02160000  0.47543000  1.0 -0.1408366819
C  C483  1  0.80450000  0.82610000  0.30877000  1.0 -0.1408366819
C  C484  1  0.97840000  0.80450000  0.14210000  1.0 -0.1408366819
C  C485  1  0.17390000  0.97840000  0.97543000  1.0 -0.1408366819
C  C486  1  0.19550000  0.17390000  0.80877000  1.0 -0.1408366819
C  C487  1  0.39900000  0.56150000  0.39180000  1.0 -0.0714147779
C  C488  1  0.83750000  0.39900000  0.22513000  1.0 -0.0714147779
C  C489  1  0.43850000  0.83750000  0.05847000  1.0 -0.0714147779
C  C490  1  0.60100000  0.43850000  0.89180000  1.0 -0.0714147779
C  C491  1  0.16250000  0.60100000  0.72513000  1.0 -0.0714147779
C  C492  1  0.56150000  0.16250000  0.55847000  1.0 -0.0714147779
C  C493  1  0.79030000  0.29410000  0.67180000  1.0 -0.1795689347
C  C494  1  0.49620000  0.79030000  0.50513000  1.0 -0.1795689347
C  C495  1  0.70590000  0.49620000  0.33847000  1.0 -0.1795689347
C  C496  1  0.20970000  0.70590000  0.17180000  1.0 -0.1795689347
C  C497  1  0.50380000  0.20970000  0.00513000  1.0 -0.1795689347
C  C498  1  0.29410000  0.50380000  0.83847000  1.0 -0.1795689347
C  C499  1  0.97780000  0.17390000  0.73530000  1.0 -0.2362418739
C  C500  1  0.80390000  0.97780000  0.56863000  1.0 -0.2362418739
C  C501  1  0.82610000  0.80390000  0.40197000  1.0 -0.2362418739
C  C502  1  0.02220000  0.82610000  0.23530000  1.0 -0.2362418739
C  C503  1  0.19610000  0.02220000  0.06863000  1.0 -0.2362418739
C  C504  1  0.17390000  0.19610000  0.90197000  1.0 -0.2362418739
C  C505  1  0.50680000  0.30280000  0.55650000  1.0 -0.1408366819
C  C506  1  0.20400000  0.50680000  0.38983000  1.0 -0.1408366819
C  C507  1  0.69720000  0.20400000  0.22317000  1.0 -0.1408366819
C  C508  1  0.49320000  0.69720000  0.05650000  1.0 -0.1408366819
C  C509  1  0.79600000  0.49320000  0.88983000  1.0 -0.1408366819
C  C510  1  0.30280000  0.79600000  0.72317000  1.0 -0.1408366819
C  C511  1  0.27360000  0.53790000  0.55450000  1.0 0.585337652
C  C512  1  0.73570000  0.27360000  0.38783000  1.0 0.585337652
C  C513  1  0.46210000  0.73570000  0.22117000  1.0 0.585337652
C  C514  1  0.72640000  0.46210000  0.05450000  1.0 0.585337652
C  C515  1  0.26430000  0.72640000  0.88783000  1.0 0.585337652
C  C516  1  0.53790000  0.26430000  0.72117000  1.0 0.585337652
C  C517  1  0.60330000  0.33520000  0.45880000  1.0 -0.0189989677
C  C518  1  0.26810000  0.60330000  0.29213000  1.0 -0.0189989677
C  C519  1  0.66480000  0.26810000  0.12547000  1.0 -0.0189989677
C  C520  1  0.39670000  0.66480000  0.95880000  1.0 -0.0189989677
C  C521  1  0.73190000  0.39670000  0.79213000  1.0 -0.0189989677
C  C522  1  0.33520000  0.73190000  0.62547000  1.0 -0.0189989677
C  C523  1  0.87110000  0.49980000  0.51150000  1.0 0.0709377062
C  C524  1  0.37130000  0.87110000  0.34483000  1.0 0.0709377062
C  C525  1  0.50020000  0.37130000  0.17817000  1.0 0.0709377062
C  C526  1  0.12890000  0.50020000  0.01150000  1.0 0.0709377062
C  C527  1  0.62870000  0.12890000  0.84483000  1.0 0.0709377062
C  C528  1  0.49980000  0.62870000  0.67817000  1.0 0.0709377062
C  C529  1  0.37300000  0.41170000  0.47370000  1.0 0.0709377062
C  C530  1  0.96130000  0.37300000  0.30703000  1.0 0.0709377062
C  C531  1  0.58830000  0.96130000  0.14037000  1.0 0.0709377062
C  C532  1  0.62700000  0.58830000  0.97370000  1.0 0.0709377062
C  C533  1  0.03870000  0.62700000  0.80703000  1.0 0.0709377062
C  C534  1  0.41170000  0.03870000  0.64037000  1.0 0.0709377062
C  C535  1  0.83180000  0.45850000  0.50480000  1.0 -0.1795689347
C  C536  1  0.37330000  0.83180000  0.33813000  1.0 -0.1795689347
C  C537  1  0.54150000  0.37330000  0.17147000  1.0 -0.1795689347
C  C538  1  0.16820000  0.54150000  0.00480000  1.0 -0.1795689347
C  C539  1  0.62670000  0.16820000  0.83813000  1.0 -0.1795689347
C  C540  1  0.45850000  0.62670000  0.67147000  1.0 -0.1795689347
C  C541  1  0.36830000  0.48650000  0.44540000  1.0 0.0709377062
C  C542  1  0.88180000  0.36830000  0.27873000  1.0 0.0709377062
C  C543  1  0.51350000  0.88180000  0.11207000  1.0 0.0709377062
C  C544  1  0.63170000  0.51350000  0.94540000  1.0 0.0709377062
C  C545  1  0.11820000  0.63170000  0.77873000  1.0 0.0709377062
C  C546  1  0.48650000  0.11820000  0.61207000  1.0 0.0709377062
C  C547  1  0.18000000  0.41310000  0.54450000  1.0 -0.1795689347
C  C548  1  0.76690000  0.18000000  0.37783000  1.0 -0.1795689347
C  C549  1  0.58690000  0.76690000  0.21117000  1.0 -0.1795689347
C  C550  1  0.82000000  0.58690000  0.04450000  1.0 -0.1795689347
C  C551  1  0.23310000  0.82000000  0.87783000  1.0 -0.1795689347
C  C552  1  0.41310000  0.23310000  0.71117000  1.0 -0.1795689347
C  C553  1  0.83230000  0.29490000  0.67510000  1.0 0.0800774639
C  C554  1  0.53740000  0.83230000  0.50843000  1.0 0.0800774639
C  C555  1  0.70510000  0.53740000  0.34177000  1.0 0.0800774639
C  C556  1  0.16770000  0.70510000  0.17510000  1.0 0.0800774639
C  C557  1  0.46260000  0.16770000  0.00843000  1.0 0.0800774639
C  C558  1  0.29490000  0.46260000  0.84177000  1.0 0.0800774639
C  C559  1  0.53050000  0.34900000  0.46450000  1.0 0.089840172
C  C560  1  0.18150000  0.53050000  0.29783000  1.0 0.089840172
C  C561  1  0.65100000  0.18150000  0.13117000  1.0 0.089840172
C  C562  1  0.46950000  0.65100000  0.96450000  1.0 0.089840172
C  C563  1  0.81850000  0.46950000  0.79783000  1.0 0.089840172
C  C564  1  0.34900000  0.81850000  0.63117000  1.0 0.089840172
C  C565  1  0.95420000  0.58140000  0.52320000  1.0 0.0709377062
C  C566  1  0.37280000  0.95420000  0.35653000  1.0 0.0709377062
C  C567  1  0.41860000  0.37280000  0.18987000  1.0 0.0709377062
C  C568  1  0.04580000  0.41860000  0.02320000  1.0 0.0709377062
C  C569  1  0.62720000  0.04580000  0.85653000  1.0 0.0709377062
C  C570  1  0.58140000  0.62720000  0.68987000  1.0 0.0709377062
C  C571  1  0.15570000  0.68810000  0.47570000  1.0 -0.1873979226
C  C572  1  0.46760000  0.15570000  0.30903000  1.0 -0.1873979226
C  C573  1  0.31190000  0.46760000  0.14237000  1.0 -0.1873979226
C  C574  1  0.84430000  0.31190000  0.97570000  1.0 -0.1873979226
C  C575  1  0.53240000  0.84430000  0.80903000  1.0 -0.1873979226
C  C576  1  0.68810000  0.53240000  0.64237000  1.0 -0.1873979226
C  C577  1  0.11990000  0.45050000  0.64740000  1.0 -0.1408366819
C  C578  1  0.66940000  0.11990000  0.48073000  1.0 -0.1408366819
C  C579  1  0.54950000  0.66940000  0.31407000  1.0 -0.1408366819
C  C580  1  0.88010000  0.54950000  0.14740000  1.0 -0.1408366819
C  C581  1  0.33060000  0.88010000  0.98073000  1.0 -0.1408366819
C  C582  1  0.45050000  0.33060000  0.81407000  1.0 -0.1408366819
C  C583  1  0.33640000  0.33120000  0.51780000  1.0 -0.1873979226
C  C584  1  0.00520000  0.33640000  0.35113000  1.0 -0.1873979226
C  C585  1  0.66880000  0.00520000  0.18447000  1.0 -0.1873979226
C  C586  1  0.66360000  0.66880000  0.01780000  1.0 -0.1873979226
C  C587  1  0.99480000  0.66360000  0.85113000  1.0 -0.1873979226
C  C588  1  0.33120000  0.99480000  0.68447000  1.0 -0.1873979226
C  C589  1  0.91340000  0.28880000  0.68740000  1.0 0.0709377062
C  C590  1  0.62460000  0.91340000  0.52073000  1.0 0.0709377062
C  C591  1  0.71120000  0.62460000  0.35407000  1.0 0.0709377062
C  C592  1  0.08660000  0.71120000  0.18740000  1.0 0.0709377062
C  C593  1  0.37540000  0.08660000  0.02073000  1.0 0.0709377062
C  C594  1  0.28880000  0.37540000  0.85407000  1.0 0.0709377062
C  C595  1  0.03960000  0.83060000  0.52540000  1.0 0.089840172
C  C596  1  0.20900000  0.03960000  0.35873000  1.0 0.089840172
C  C597  1  0.16940000  0.20900000  0.19207000  1.0 0.089840172
C  C598  1  0.96040000  0.16940000  0.02540000  1.0 0.089840172
C  C599  1  0.79100000  0.96040000  0.85873000  1.0 0.089840172
C  C600  1  0.83060000  0.79100000  0.69207000  1.0 0.089840172
C  C601  1  0.43380000  0.51180000  0.38220000  1.0 -0.1795689347
C  C602  1  0.92200000  0.43380000  0.21553000  1.0 -0.1795689347
C  C603  1  0.48820000  0.92200000  0.04887000  1.0 -0.1795689347
C  C604  1  0.56620000  0.48820000  0.88220000  1.0 -0.1795689347
C  C605  1  0.07800000  0.56620000  0.71553000  1.0 -0.1795689347
C  C606  1  0.51180000  0.07800000  0.54887000  1.0 -0.1795689347
C  C607  1  0.88460000  0.53710000  0.48050000  1.0 -0.1615127804
C  C608  1  0.34750000  0.88460000  0.31383000  1.0 -0.1615127804
C  C609  1  0.46290000  0.34750000  0.14717000  1.0 -0.1615127804
C  C610  1  0.11540000  0.46290000  0.98050000  1.0 -0.1615127804
C  C611  1  0.65250000  0.11540000  0.81383000  1.0 -0.1615127804
C  C612  1  0.53710000  0.65250000  0.64717000  1.0 -0.1615127804
C  C613  1  0.76190000  0.23690000  0.74790000  1.0 -0.1295908556
C  C614  1  0.52500000  0.76190000  0.58123000  1.0 -0.1295908556
C  C615  1  0.76310000  0.52500000  0.41457000  1.0 -0.1295908556
C  C616  1  0.23810000  0.76310000  0.24790000  1.0 -0.1295908556
C  C617  1  0.47500000  0.23810000  0.08123000  1.0 -0.1295908556
C  C618  1  0.23690000  0.47500000  0.91457000  1.0 -0.1295908556
C  C619  1  0.89710000  0.46760000  0.58810000  1.0 -0.1615127804
C  C620  1  0.42950000  0.89710000  0.42143000  1.0 -0.1615127804
C  C621  1  0.53240000  0.42950000  0.25477000  1.0 -0.1615127804
C  C622  1  0.10290000  0.53240000  0.08810000  1.0 -0.1615127804
C  C623  1  0.57050000  0.10290000  0.92143000  1.0 -0.1615127804
C  C624  1  0.46760000  0.57050000  0.75477000  1.0 -0.1615127804
C  C625  1  0.46760000  0.30550000  0.56480000  1.0 -0.1615127804
C  C626  1  0.16210000  0.46760000  0.39813000  1.0 -0.1615127804
C  C627  1  0.69450000  0.16210000  0.23147000  1.0 -0.1615127804
C  C628  1  0.53240000  0.69450000  0.06480000  1.0 -0.1615127804
C  C629  1  0.83790000  0.53240000  0.89813000  1.0 -0.1615127804
C  C630  1  0.30550000  0.83790000  0.73147000  1.0 -0.1615127804
C  C631  1  0.96340000  0.10760000  0.78420000  1.0 -0.1615127804
C  C632  1  0.85580000  0.96340000  0.61753000  1.0 -0.1615127804
C  C633  1  0.89240000  0.85580000  0.45087000  1.0 -0.1615127804
C  C634  1  0.03660000  0.89240000  0.28420000  1.0 -0.1615127804
C  C635  1  0.14420000  0.03660000  0.11753000  1.0 -0.1615127804
C  C636  1  0.10760000  0.14420000  0.95087000  1.0 -0.1615127804
C  C637  1  0.56230000  0.36640000  0.41690000  1.0 -0.1696478057
C  C638  1  0.19590000  0.56230000  0.25023000  1.0 -0.1696478057
C  C639  1  0.63360000  0.19590000  0.08357000  1.0 -0.1696478057
C  C640  1  0.43770000  0.63360000  0.91690000  1.0 -0.1696478057
C  C641  1  0.80410000  0.43770000  0.75023000  1.0 -0.1696478057
C  C642  1  0.36640000  0.80410000  0.58357000  1.0 -0.1696478057
C  C643  1  0.78190000  0.37760000  0.53260000  1.0 0.5565357637
C  C644  1  0.40430000  0.78190000  0.36593000  1.0 0.5565357637
C  C645  1  0.62240000  0.40430000  0.19927000  1.0 0.5565357637
C  C646  1  0.21810000  0.62240000  0.03260000  1.0 0.5565357637
C  C647  1  0.59570000  0.21810000  0.86593000  1.0 0.5565357637
C  C648  1  0.37760000  0.59570000  0.69927000  1.0 0.5565357637
C  C649  1  0.92150000  0.57570000  0.48400000  1.0 -0.1507922607
C  C650  1  0.34580000  0.92150000  0.31733000  1.0 -0.1507922607
C  C651  1  0.42430000  0.34580000  0.15067000  1.0 -0.1507922607
C  C652  1  0.07850000  0.42430000  0.98400000  1.0 -0.1507922607
C  C653  1  0.65420000  0.07850000  0.81733000  1.0 -0.1507922607
C  C654  1  0.57570000  0.65420000  0.65067000  1.0 -0.1507922607
C  C655  1  0.12860000  0.63120000  0.55670000  1.0 -0.1198371666
C  C656  1  0.49740000  0.12860000  0.39003000  1.0 -0.1198371666
C  C657  1  0.36880000  0.49740000  0.22337000  1.0 -0.1198371666
C  C658  1  0.87140000  0.36880000  0.05670000  1.0 -0.1198371666
C  C659  1  0.50260000  0.87140000  0.89003000  1.0 -0.1198371666
C  C660  1  0.63120000  0.50260000  0.72337000  1.0 -0.1198371666
C  C661  1  0.43390000  0.55590000  0.36690000  1.0 -0.1198371666
C  C662  1  0.87800000  0.43390000  0.20023000  1.0 -0.1198371666
C  C663  1  0.44410000  0.87800000  0.03357000  1.0 -0.1198371666
C  C664  1  0.56610000  0.44410000  0.86690000  1.0 -0.1198371666
C  C665  1  0.12200000  0.56610000  0.70023000  1.0 -0.1198371666
C  C666  1  0.55590000  0.12200000  0.53357000  1.0 -0.1198371666
C  C667  1  0.23260000  0.70880000  0.42700000  1.0 -0.1615127804
C  C668  1  0.52380000  0.23260000  0.26033000  1.0 -0.1615127804
C  C669  1  0.29120000  0.52380000  0.09367000  1.0 -0.1615127804
C  C670  1  0.76740000  0.29120000  0.92700000  1.0 -0.1615127804
C  C671  1  0.47620000  0.76740000  0.76033000  1.0 -0.1615127804
C  C672  1  0.70880000  0.47620000  0.59367000  1.0 -0.1615127804
C  C673  1  0.15140000  0.45250000  0.60900000  1.0 0.0800774639
C  C674  1  0.69890000  0.15140000  0.44233000  1.0 0.0800774639
C  C675  1  0.54750000  0.69890000  0.27567000  1.0 0.0800774639
C  C676  1  0.84860000  0.54750000  0.10900000  1.0 0.0800774639
C  C677  1  0.30110000  0.84860000  0.94233000  1.0 0.0800774639
C  C678  1  0.45250000  0.30110000  0.77567000  1.0 0.0800774639
C  C679  1  0.80130000  0.23750000  0.75450000  1.0 -0.1507922607
C  C680  1  0.56380000  0.80130000  0.58783000  1.0 -0.1507922607
C  C681  1  0.76250000  0.56380000  0.42117000  1.0 -0.1507922607
C  C682  1  0.19870000  0.76250000  0.25450000  1.0 -0.1507922607
C  C683  1  0.43620000  0.19870000  0.08783000  1.0 -0.1507922607
C  C684  1  0.23750000  0.43620000  0.92117000  1.0 -0.1507922607
C  C685  1  0.59870000  0.35970000  0.41050000  1.0 -0.0906393235
C  C686  1  0.23900000  0.59870000  0.24383000  1.0 -0.0906393235
C  C687  1  0.64030000  0.23900000  0.07717000  1.0 -0.0906393235
C  C688  1  0.40130000  0.64030000  0.91050000  1.0 -0.0906393235
C  C689  1  0.76100000  0.40130000  0.74383000  1.0 -0.0906393235
C  C690  1  0.35970000  0.76100000  0.57717000  1.0 -0.0906393235
C  C691  1  0.22100000  0.45330000  0.53410000  1.0 -0.1102950696
C  C692  1  0.76770000  0.22100000  0.36743000  1.0 -0.1102950696
C  C693  1  0.54670000  0.76770000  0.20077000  1.0 -0.1102950696
C  C694  1  0.77900000  0.54670000  0.03410000  1.0 -0.1102950696
C  C695  1  0.23230000  0.77900000  0.86743000  1.0 -0.1102950696
C  C696  1  0.45330000  0.23230000  0.70077000  1.0 -0.1102950696
C  C697  1  0.71070000  0.25910000  0.69740000  1.0 0.5535964203
C  C698  1  0.45160000  0.71070000  0.53073000  1.0 0.5535964203
C  C699  1  0.74090000  0.45160000  0.36407000  1.0 0.5535964203
C  C700  1  0.28930000  0.74090000  0.19740000  1.0 0.5535964203
C  C701  1  0.54840000  0.28930000  0.03073000  1.0 0.5535964203
C  C702  1  0.25910000  0.54840000  0.86407000  1.0 0.5535964203
C  C703  1  0.40230000  0.60560000  0.38770000  1.0 0.5565357637
C  C704  1  0.79670000  0.40230000  0.22103000  1.0 0.5565357637
C  C705  1  0.39440000  0.79670000  0.05437000  1.0 0.5565357637
C  C706  1  0.59770000  0.39440000  0.88770000  1.0 0.5565357637
C  C707  1  0.20330000  0.59770000  0.72103000  1.0 0.5565357637
C  C708  1  0.60560000  0.20330000  0.55437000  1.0 0.5565357637
C  C709  1  0.64400000  0.32750000  0.45420000  1.0 0.5814212245
C  C710  1  0.31650000  0.64400000  0.28753000  1.0 0.5814212245
C  C711  1  0.67250000  0.31650000  0.12087000  1.0 0.5814212245
C  C712  1  0.35600000  0.67250000  0.95420000  1.0 0.5814212245
C  C713  1  0.68350000  0.35600000  0.78753000  1.0 0.5814212245
C  C714  1  0.32750000  0.68350000  0.62087000  1.0 0.5814212245
C  C715  1  0.30970000  0.66150000  0.45750000  1.0 0.5729748701
C  C716  1  0.64820000  0.30970000  0.29083000  1.0 0.5729748701
C  C717  1  0.33850000  0.64820000  0.12417000  1.0 0.5729748701
C  C718  1  0.69030000  0.33850000  0.95750000  1.0 0.5729748701
C  C719  1  0.35180000  0.69030000  0.79083000  1.0 0.5729748701
C  C720  1  0.66150000  0.35180000  0.62417000  1.0 0.5729748701
C  C721  1  0.42960000  0.58390000  0.53690000  1.0 0.0499102753
C  C722  1  0.84570000  0.42960000  0.37023000  1.0 0.0499102753
C  C723  1  0.41610000  0.84570000  0.20357000  1.0 0.0499102753
C  C724  1  0.57040000  0.41610000  0.03690000  1.0 0.0499102753
C  C725  1  0.15430000  0.57040000  0.87023000  1.0 0.0499102753
C  C726  1  0.58390000  0.15430000  0.70357000  1.0 0.0499102753
C  C727  1  0.50120000  0.61220000  0.49370000  1.0 -0.3825874297
C  C728  1  0.88900000  0.50120000  0.32703000  1.0 -0.3825874297
C  C729  1  0.38780000  0.88900000  0.16037000  1.0 -0.3825874297
C  C730  1  0.49880000  0.38780000  0.99370000  1.0 -0.3825874297
C  C731  1  0.11100000  0.49880000  0.82703000  1.0 -0.3825874297
C  C732  1  0.61220000  0.11100000  0.66037000  1.0 -0.3825874297
C  C733  1  0.49380000  0.55300000  0.53430000  1.0 -0.3509740996
C  C734  1  0.94080000  0.49380000  0.36763000  1.0 -0.3509740996
C  C735  1  0.44700000  0.94080000  0.20097000  1.0 -0.3509740996
C  C736  1  0.50620000  0.44700000  0.03430000  1.0 -0.3509740996
C  C737  1  0.05920000  0.50620000  0.86763000  1.0 -0.3509740996
C  C738  1  0.55300000  0.05920000  0.70097000  1.0 -0.3509740996
N  N1  1  0.41440000  0.51710000  0.59380000  1.0 -0.1198371666
N  N2  1  0.89730000  0.41440000  0.42713000  1.0 -0.1198371666
N  N3  1  0.48290000  0.89730000  0.26047000  1.0 -0.1198371666
N  N4  1  0.58560000  0.48290000  0.09380000  1.0 -0.1198371666
N  N5  1  0.10270000  0.58560000  0.92713000  1.0 -0.1198371666
N  N6  1  0.51710000  0.10270000  0.76047000  1.0 -0.1198371666
N  N7  1  0.46690000  0.57510000  0.52960000  1.0 0.0289757048
N  N8  1  0.89180000  0.46690000  0.36293000  1.0 0.0289757048
N  N9  1  0.42490000  0.89180000  0.19627000  1.0 0.0289757048
N  N10  1  0.53310000  0.42490000  0.02960000  1.0 0.0289757048
N  N11  1  0.10820000  0.53310000  0.86293000  1.0 0.0289757048
N  N12  1  0.57510000  0.10820000  0.69627000  1.0 0.0289757048
O  O1  1  0.13010000  0.03850000  0.69280000  1.0 -0.5100836325
O  O2  1  0.09160000  0.13010000  0.52613000  1.0 -0.5100836325
O  O3  1  0.96150000  0.09160000  0.35947000  1.0 -0.5100836325
O  O4  1  0.86990000  0.96150000  0.19280000  1.0 -0.5100836325
O  O5  1  0.90840000  0.86990000  0.02613000  1.0 -0.5100836325
O  O6  1  0.03850000  0.90840000  0.85947000  1.0 -0.5100836325
O  O7  1  0.10080000  0.98520000  0.47360000  1.0 -0.4694751648
O  O8  1  0.11560000  0.10080000  0.30693000  1.0 -0.4694751648
O  O9  1  0.01480000  0.11560000  0.14027000  1.0 -0.4694751648
O  O10  1  0.89920000  0.01480000  0.97360000  1.0 -0.4694751648
O  O11  1  0.88440000  0.89920000  0.80693000  1.0 -0.4694751648
O  O12  1  0.98520000  0.88440000  0.64027000  1.0 -0.4694751648
O  O13  1  0.97500000  0.99330000  0.78620000  1.0 -0.4472436575
O  O14  1  0.98170000  0.97500000  0.61953000  1.0 -0.4472436575
O  O15  1  0.00670000  0.98170000  0.45287000  1.0 -0.4472436575
O  O16  1  0.02500000  0.00670000  0.28620000  1.0 -0.4472436575
O  O17  1  0.01830000  0.02500000  0.11953000  1.0 -0.4472436575
O  O18  1  0.99330000  0.01830000  0.95287000  1.0 -0.4472436575
O  O19  1  0.05740000  0.96350000  0.55180000  1.0 -0.6902191209
O  O20  1  0.09390000  0.05740000  0.38513000  1.0 -0.6902191209
O  O21  1  0.03650000  0.09390000  0.21847000  1.0 -0.6902191209
O  O22  1  0.94260000  0.03650000  0.05180000  1.0 -0.6902191209
O  O23  1  0.90610000  0.94260000  0.88513000  1.0 -0.6902191209
O  O24  1  0.96350000  0.90610000  0.71847000  1.0 -0.6902191209
O  O25  1  0.10370000  0.04950000  0.60600000  1.0 -0.6804008353
O  O26  1  0.05420000  0.10370000  0.43933000  1.0 -0.6804008353
O  O27  1  0.95050000  0.05420000  0.27267000  1.0 -0.6804008353
O  O28  1  0.89630000  0.95050000  0.10600000  1.0 -0.6804008353
O  O29  1  0.94580000  0.89630000  0.93933000  1.0 -0.6804008353
O  O30  1  0.04950000  0.94580000  0.77267000  1.0 -0.6804008353
O  O31  1  0.03570000  0.02440000  0.72630000  1.0 -0.6902191209
O  O32  1  0.01130000  0.03570000  0.55963000  1.0 -0.6902191209
O  O33  1  0.97560000  0.01130000  0.39297000  1.0 -0.6902191209
O  O34  1  0.96430000  0.97560000  0.22630000  1.0 -0.6902191209
O  O35  1  0.98870000  0.96430000  0.05963000  1.0 -0.6902191209
O  O36  1  0.02440000  0.98870000  0.89297000  1.0 -0.6902191209
O  O37  1  0.28480000  0.56990000  0.59480000  1.0 -0.7015617359
O  O38  1  0.71490000  0.28480000  0.42813000  1.0 -0.7015617359
O  O39  1  0.43010000  0.71490000  0.26147000  1.0 -0.7015617359
O  O40  1  0.71520000  0.43010000  0.09480000  1.0 -0.7015617359
O  O41  1  0.28510000  0.71520000  0.92813000  1.0 -0.7015617359
O  O42  1  0.56990000  0.28510000  0.76147000  1.0 -0.7015617359
O  O43  1  0.64740000  0.30250000  0.48440000  1.0 -0.4694751648
O  O44  1  0.34490000  0.64740000  0.31773000  1.0 -0.4694751648
O  O45  1  0.69750000  0.34490000  0.15107000  1.0 -0.4694751648
O  O46  1  0.35260000  0.69750000  0.98440000  1.0 -0.4694751648
O  O47  1  0.65510000  0.35260000  0.81773000  1.0 -0.4694751648
O  O48  1  0.30250000  0.65510000  0.65107000  1.0 -0.4694751648
O  O49  1  0.34310000  0.69130000  0.42580000  1.0 -0.5530754644
O  O50  1  0.65180000  0.34310000  0.25913000  1.0 -0.5530754644
O  O51  1  0.30870000  0.65180000  0.09247000  1.0 -0.5530754644
O  O52  1  0.65690000  0.30870000  0.92580000  1.0 -0.5530754644
O  O53  1  0.34820000  0.65690000  0.75913000  1.0 -0.5530754644
O  O54  1  0.69130000  0.34820000  0.59247000  1.0 -0.5530754644
O  O55  1  0.77990000  0.34560000  0.56660000  1.0 -0.6147627103
O  O56  1  0.43430000  0.77990000  0.39993000  1.0 -0.6147627103
O  O57  1  0.65440000  0.43430000  0.23327000  1.0 -0.6147627103
O  O58  1  0.22010000  0.65440000  0.06660000  1.0 -0.6147627103
O  O59  1  0.56570000  0.22010000  0.89993000  1.0 -0.6147627103
O  O60  1  0.34560000  0.56570000  0.73327000  1.0 -0.6147627103
O  O61  1  0.71230000  0.29800000  0.66050000  1.0 -0.7375897038
O  O62  1  0.41430000  0.71230000  0.49383000  1.0 -0.7375897038
O  O63  1  0.70200000  0.41430000  0.32717000  1.0 -0.7375897038
O  O64  1  0.28770000  0.70200000  0.16050000  1.0 -0.7375897038
O  O65  1  0.58570000  0.28770000  0.99383000  1.0 -0.7375897038
O  O66  1  0.29800000  0.58570000  0.82717000  1.0 -0.7375897038
O  O67  1  0.31190000  0.63470000  0.48430000  1.0 -0.4694751648
O  O68  1  0.67720000  0.31190000  0.31763000  1.0 -0.4648904967
O  O69  1  0.36530000  0.67720000  0.15097000  1.0 -0.4694751648
O  O70  1  0.68810000  0.36530000  0.98430000  1.0 -0.4648904967
O  O71  1  0.32280000  0.68810000  0.81763000  1.0 -0.4694751648
O  O72  1  0.63470000  0.32280000  0.65097000  1.0 -0.4648904967
O  O73  1  0.67650000  0.35820000  0.42490000  1.0 -0.5100836325
O  O74  1  0.31830000  0.67650000  0.25823000  1.0 -0.5100836325
O  O75  1  0.64180000  0.31830000  0.09157000  1.0 -0.5100836325
O  O76  1  0.32350000  0.64180000  0.92490000  1.0 -0.5100836325
O  O77  1  0.68170000  0.32350000  0.75823000  1.0 -0.5100836325
O  O78  1  0.35820000  0.68170000  0.59157000  1.0 -0.5100836325
O  O79  1  0.39200000  0.56960000  0.55910000  1.0 -0.2679276037
O  O80  1  0.82240000  0.39200000  0.39243000  1.0 -0.2679276037
O  O81  1  0.43040000  0.82240000  0.22577000  1.0 -0.2679276037
O  O82  1  0.60800000  0.43040000  0.05910000  1.0 -0.2679276037
O  O83  1  0.17760000  0.60800000  0.89243000  1.0 -0.2679276037
O  O84  1  0.56960000  0.17760000  0.72577000  1.0 -0.2679276037
O  O85  1  0.38160000  0.61720000  0.42670000  1.0 -0.6591069964
O  O86  1  0.76440000  0.38160000  0.26003000  1.0 -0.6591069964
O  O87  1  0.38280000  0.76440000  0.09337000  1.0 -0.6591069964
O  O88  1  0.61840000  0.38280000  0.92670000  1.0 -0.6591069964
O  O89  1  0.23560000  0.61840000  0.76003000  1.0 -0.6591069964
O  O90  1  0.61720000  0.23560000  0.59337000  1.0 -0.6591069964
O  O91  1  0.30170000  0.54080000  0.51540000  1.0 -0.5715700257
O  O92  1  0.76090000  0.30170000  0.34873000  1.0 -0.5715700257
O  O93  1  0.45920000  0.76090000  0.18207000  1.0 -0.5715700257
O  O94  1  0.69830000  0.45920000  0.01540000  1.0 -0.5715700257
O  O95  1  0.23910000  0.69830000  0.84873000  1.0 -0.5715700257
O  O96  1  0.54080000  0.23910000  0.68207000  1.0 -0.5715700257
O  O97  1  0.67630000  0.23130000  0.73020000  1.0 -0.6201987732
O  O98  1  0.44500000  0.67630000  0.56353000  1.0 -0.6201987732
O  O99  1  0.76870000  0.44500000  0.39687000  1.0 -0.6201987732
O  O100  1  0.32370000  0.76870000  0.23020000  1.0 -0.6201987732
O  O101  1  0.55500000  0.32370000  0.06353000  1.0 -0.6201987732
O  O102  1  0.23130000  0.55500000  0.89687000  1.0 -0.6201987732
O  O103  1  0.42800000  0.63550000  0.35270000  1.0 -0.5530754644
O  O104  1  0.79250000  0.42800000  0.18603000  1.0 -0.5530754644
O  O105  1  0.36450000  0.79250000  0.01937000  1.0 -0.5530754644
O  O106  1  0.57200000  0.36450000  0.85270000  1.0 -0.5530754644
O  O107  1  0.20750000  0.57200000  0.68603000  1.0 -0.5530754644
O  O108  1  0.63550000  0.20750000  0.51937000  1.0 -0.5530754644
O  O109  1  0.74760000  0.37710000  0.49270000  1.0 -0.7281648386
O  O110  1  0.37050000  0.74760000  0.32603000  1.0 -0.7281648386
O  O111  1  0.62290000  0.37050000  0.15937000  1.0 -0.7281648386
O  O112  1  0.25240000  0.62290000  0.99270000  1.0 -0.7281648386
O  O113  1  0.62950000  0.25240000  0.82603000  1.0 -0.7281648386
O  O114  1  0.37710000  0.62950000  0.65937000  1.0 -0.7281648386
