# DDEC6 charges by PACMAN v1.1 (https://github.com/mtap-research/PACMAN-charge/)
data_CIRGUJ_ion_pacman
_symmetry_space_group_name_H-M   'P 1'
_cell_length_a   12.42790000
_cell_length_b   33.14600000
_cell_length_c   12.98160000
_cell_angle_alpha   90.00000000
_cell_angle_beta   95.07100000
_cell_angle_gamma   90.00000000
_symmetry_Int_Tables_number   1
_chemical_formula_structural   Mn4H83C91Br2N15O14
_chemical_formula_sum   'Mn8 H166 C182 Br4 N30 O28'
_cell_volume   5326.64686057
_cell_formula_units_Z   2
loop_
 _symmetry_equiv_pos_site_id
 _symmetry_equiv_pos_as_xyz
  1  'x, y, z'
loop_
 _atom_site_type_symbol
 _atom_site_label
 _atom_site_symmetry_multiplicity
 _atom_site_fract_x
 _atom_site_fract_y
 _atom_site_fract_z
 _atom_site_occupancy
 _atom_site_charge
Mn  Mn1  1  0.19915000  0.42937000  0.09951000  1.0 0.8764154603
Mn  Mn2  1  0.80085000  0.92937000  0.90049000  1.0 0.8764154603
Mn  Mn3  1  0.80085000  0.57063000  0.90049000  1.0 0.8764154603
Mn  Mn4  1  0.19915000  0.07063000  0.09951000  1.0 0.8764154603
Mn  Mn5  1  0.00000000  0.50000000  0.00000000  1.0 1.0695075681
Mn  Mn6  1  0.00000000  0.00000000  0.00000000  1.0 1.0695075681
Mn  Mn7  1  0.74748000  0.75000000  0.21360000  1.0 0.640445142
Mn  Mn8  1  0.25252000  0.25000000  0.78640000  1.0 0.640445142
H  H1  1  0.22846000  0.34202000  0.17276000  1.0 0.1402343304
H  H2  1  0.77154000  0.84202000  0.82724000  1.0 0.1402343304
H  H3  1  0.77154000  0.65798000  0.82724000  1.0 0.1402343304
H  H4  1  0.22846000  0.15798000  0.17276000  1.0 0.1402343304
H  H5  1  0.30654000  0.32223000  0.26008000  1.0 0.11720306
H  H6  1  0.69346000  0.82223000  0.73992000  1.0 0.11720306
H  H7  1  0.69346000  0.67777000  0.73992000  1.0 0.11720306
H  H8  1  0.30654000  0.17777000  0.26008000  1.0 0.11720306
H  H9  1  0.84276000  0.45733000  0.14986000  1.0 0.1095143455
H  H10  1  0.15724000  0.95733000  0.85014000  1.0 0.1095143455
H  H11  1  0.15724000  0.54267000  0.85014000  1.0 0.1095143455
H  H12  1  0.84276000  0.04267000  0.14986000  1.0 0.1095143455
H  H13  1  0.66191000  0.44835000  0.17045000  1.0 0.11720306
H  H14  1  0.33809000  0.94835000  0.82955000  1.0 0.11720306
H  H15  1  0.33809000  0.55165000  0.82955000  1.0 0.11720306
H  H16  1  0.66191000  0.05165000  0.17045000  1.0 0.11720306
H  H17  1  0.87119000  0.34109000  0.07459000  1.0 0.1095143455
H  H18  1  0.12881000  0.84109000  0.92541000  1.0 0.1095143455
H  H19  1  0.12881000  0.65891000  0.92541000  1.0 0.1095143455
H  H20  1  0.87119000  0.15891000  0.07459000  1.0 0.1095143455
H  H21  1  0.06252000  0.46774000  0.27912000  1.0 0.1681529795
H  H22  1  0.93748000  0.96774000  0.72088000  1.0 0.1681529795
H  H23  1  0.93748000  0.53226000  0.72088000  1.0 0.1681529795
H  H24  1  0.06252000  0.03226000  0.27912000  1.0 0.1681529795
H  H25  1  0.06361000  0.46992000  0.39984000  1.0 0.1402343304
H  H26  1  0.93639000  0.96992000  0.60016000  1.0 0.1402343304
H  H27  1  0.93639000  0.53008000  0.60016000  1.0 0.1402343304
H  H28  1  0.06361000  0.03008000  0.39984000  1.0 0.1402343304
H  H29  1  0.15855000  0.48894000  0.34440000  1.0 0.1576454105
H  H30  1  0.84145000  0.98894000  0.65560000  1.0 0.1576454105
H  H31  1  0.84145000  0.51106000  0.65560000  1.0 0.1576454105
H  H32  1  0.15855000  0.01106000  0.34440000  1.0 0.1576454105
H  H33  1  0.45904000  0.46999000  0.06744000  1.0 0.1508057814
H  H34  1  0.54096000  0.96999000  0.93256000  1.0 0.1576454105
H  H35  1  0.54096000  0.53001000  0.93256000  1.0 0.1508057814
H  H36  1  0.45904000  0.03001000  0.06744000  1.0 0.1508057814
H  H37  1  0.53378000  0.44522000  0.99960000  1.0 0.1402343304
H  H38  1  0.46622000  0.94522000  0.00040000  1.0 0.1402343304
H  H39  1  0.46622000  0.55478000  0.00040000  1.0 0.1402343304
H  H40  1  0.53378000  0.05478000  0.99960000  1.0 0.1402343304
H  H41  1  0.40832000  0.44510000  0.97256000  1.0 0.1508057814
H  H42  1  0.59168000  0.94510000  0.02744000  1.0 0.1508057814
H  H43  1  0.59168000  0.55490000  0.02744000  1.0 0.1508057814
H  H44  1  0.40832000  0.05490000  0.97256000  1.0 0.1508057814
H  H45  1  0.65475000  0.75000000  0.42385000  1.0 0.0814764618
H  H46  1  0.34525000  0.25000000  0.57615000  1.0 0.0814764618
H  H47  1  0.53588000  0.75000000  0.45615000  1.0 0.1095143455
H  H48  1  0.46412000  0.25000000  0.54385000  1.0 0.1095143455
H  H49  1  0.50452000  0.29565000  0.22255000  1.0 0.1402343304
H  H50  1  0.49548000  0.79565000  0.77745000  1.0 0.1402343304
H  H51  1  0.49548000  0.70435000  0.77745000  1.0 0.1402343304
H  H52  1  0.50452000  0.20435000  0.22255000  1.0 0.1402343304
H  H53  1  0.60294000  0.32100000  0.27071000  1.0 0.1576454105
H  H54  1  0.39706000  0.82100000  0.72929000  1.0 0.1576454105
H  H55  1  0.39706000  0.67900000  0.72929000  1.0 0.1576454105
H  H56  1  0.60294000  0.17900000  0.27071000  1.0 0.1576454105
H  H57  1  0.49564000  0.31956000  0.32565000  1.0 0.1402343304
H  H58  1  0.50436000  0.81956000  0.67435000  1.0 0.1402343304
H  H59  1  0.50436000  0.68044000  0.67435000  1.0 0.1402343304
H  H60  1  0.49564000  0.18044000  0.32565000  1.0 0.1402343304
H  H61  1  0.68781000  0.33085000  0.09424000  1.0 0.11720306
H  H62  1  0.31219000  0.83085000  0.90576000  1.0 0.11720306
H  H63  1  0.31219000  0.66915000  0.90576000  1.0 0.11720306
H  H64  1  0.68781000  0.16915000  0.09424000  1.0 0.11720306
H  H65  1  0.41410000  0.52602000  0.23703000  1.0 0.1278297295
H  H66  1  0.58590000  0.02602000  0.76297000  1.0 0.1278297295
H  H67  1  0.58590000  0.47398000  0.76297000  1.0 0.1278297295
H  H68  1  0.41410000  0.97398000  0.23703000  1.0 0.1278297295
H  H69  1  0.52382000  0.58210000  0.28251000  1.0 0.11720306
H  H70  1  0.47618000  0.08210000  0.71749000  1.0 0.11720306
H  H71  1  0.47618000  0.41790000  0.71749000  1.0 0.11720306
H  H72  1  0.52382000  0.91790000  0.28251000  1.0 0.11720306
H  H73  1  0.29495000  0.65353000  0.15843000  1.0 0.11720306
H  H74  1  0.70505000  0.15353000  0.84157000  1.0 0.11720306
H  H75  1  0.70505000  0.34647000  0.84157000  1.0 0.11720306
H  H76  1  0.29495000  0.84647000  0.15843000  1.0 0.11720306
H  H77  1  0.17999000  0.59677000  0.12501000  1.0 0.11720306
H  H78  1  0.82001000  0.09677000  0.87499000  1.0 0.11720306
H  H79  1  0.82001000  0.40323000  0.87499000  1.0 0.11720306
H  H80  1  0.17999000  0.90323000  0.12501000  1.0 0.11720306
H  H81  1  0.33357000  0.70578000  0.38092000  1.0 0.1508057814
H  H82  1  0.66643000  0.20578000  0.61908000  1.0 0.1508057814
H  H83  1  0.66643000  0.29422000  0.61908000  1.0 0.1508057814
H  H84  1  0.33357000  0.79422000  0.38092000  1.0 0.1508057814
H  H85  1  0.36574000  0.66270000  0.42296000  1.0 0.1508057814
H  H86  1  0.63426000  0.16270000  0.57704000  1.0 0.1508057814
H  H87  1  0.63426000  0.33730000  0.57704000  1.0 0.1508057814
H  H88  1  0.36574000  0.83730000  0.42296000  1.0 0.1508057814
H  H89  1  0.42276000  0.70098000  0.47332000  1.0 0.1402343304
H  H90  1  0.57724000  0.20098000  0.52668000  1.0 0.1402343304
H  H91  1  0.57724000  0.29902000  0.52668000  1.0 0.1402343304
H  H92  1  0.42276000  0.79902000  0.47332000  1.0 0.1402343304
H  H93  1  0.68817000  0.66631000  0.10148000  1.0 0.1508057814
H  H94  1  0.31183000  0.16631000  0.89852000  1.0 0.1508057814
H  H95  1  0.31183000  0.33369000  0.89852000  1.0 0.1508057814
H  H96  1  0.68817000  0.83369000  0.10148000  1.0 0.1508057814
H  H97  1  0.63048000  0.62568000  0.12480000  1.0 0.1278297295
H  H98  1  0.36952000  0.12568000  0.87520000  1.0 0.1278297295
H  H99  1  0.36952000  0.37432000  0.87520000  1.0 0.1278297295
H  H100  1  0.63048000  0.87432000  0.12480000  1.0 0.1278297295
H  H101  1  0.56921000  0.65848000  0.05515000  1.0 0.1402343304
H  H102  1  0.43079000  0.15848000  0.94485000  1.0 0.1402343304
H  H103  1  0.43079000  0.34152000  0.94485000  1.0 0.1402343304
H  H104  1  0.56921000  0.84152000  0.05515000  1.0 0.1402343304
H  H105  1  0.37728000  0.33384000  0.43982000  1.0 0.11720306
H  H106  1  0.62272000  0.83384000  0.56018000  1.0 0.11720306
H  H107  1  0.62272000  0.66616000  0.56018000  1.0 0.11720306
H  H108  1  0.37728000  0.16616000  0.43982000  1.0 0.11720306
H  H109  1  0.31939000  0.34510000  0.53841000  1.0 0.11720306
H  H110  1  0.68061000  0.84510000  0.46159000  1.0 0.11720306
H  H111  1  0.68061000  0.65490000  0.46159000  1.0 0.11720306
H  H112  1  0.31939000  0.15490000  0.53841000  1.0 0.11720306
H  H113  1  0.26599000  0.31409000  0.45826000  1.0 0.11720306
H  H114  1  0.73401000  0.81409000  0.54174000  1.0 0.11720306
H  H115  1  0.73401000  0.68591000  0.54174000  1.0 0.11720306
H  H116  1  0.26599000  0.18591000  0.45826000  1.0 0.11720306
H  H117  1  0.00873000  0.44982000  0.69888000  1.0 0.11720306
H  H118  1  0.99127000  0.94982000  0.30112000  1.0 0.11720306
H  H119  1  0.99127000  0.55018000  0.30112000  1.0 0.11720306
H  H120  1  0.00873000  0.05018000  0.69888000  1.0 0.11720306
H  H121  1  0.02572000  0.43486000  0.52776000  1.0 0.1008967599
H  H122  1  0.97428000  0.93486000  0.47224000  1.0 0.1008967599
H  H123  1  0.97428000  0.56514000  0.47224000  1.0 0.1008967599
H  H124  1  0.02572000  0.06514000  0.52776000  1.0 0.1008967599
H  H125  1  0.31525000  0.41599000  0.77364000  1.0 0.1008967599
H  H126  1  0.68475000  0.91599000  0.22636000  1.0 0.1008967599
H  H127  1  0.68475000  0.58401000  0.22636000  1.0 0.1008967599
H  H128  1  0.31525000  0.08401000  0.77364000  1.0 0.1008967599
H  H129  1  0.31930000  0.39198000  0.60904000  1.0 0.1095143455
H  H130  1  0.68070000  0.89198000  0.39096000  1.0 0.1095143455
H  H131  1  0.68070000  0.60802000  0.39096000  1.0 0.1095143455
H  H132  1  0.31930000  0.10802000  0.60904000  1.0 0.1095143455
H  H133  1  0.63529000  0.75000000  0.81304000  1.0 0.1402343304
H  H134  1  0.36471000  0.25000000  0.18696000  1.0 0.1402343304
H  H135  1  0.74106000  0.72635000  0.84967000  1.0 0.1402343304
H  H136  1  0.25894000  0.22635000  0.15033000  1.0 0.1402343304
H  H137  1  0.25894000  0.27365000  0.15033000  1.0 0.1402343304
H  H138  1  0.74106000  0.77365000  0.84967000  1.0 0.1402343304
H  H139  1  0.03144000  0.63759000  0.22003000  1.0 0.1508057814
H  H140  1  0.96856000  0.13759000  0.77997000  1.0 0.1508057814
H  H141  1  0.96856000  0.36241000  0.77997000  1.0 0.1508057814
H  H142  1  0.03144000  0.86241000  0.22003000  1.0 0.1508057814
H  H143  1  0.03153000  0.65067000  0.10398000  1.0 0.1681529795
H  H144  1  0.96847000  0.15067000  0.89602000  1.0 0.1681529795
H  H145  1  0.96847000  0.34933000  0.89602000  1.0 0.1681529795
H  H146  1  0.03153000  0.84933000  0.10398000  1.0 0.1681529795
H  H147  1  0.09125000  0.67712000  0.19135000  1.0 0.1576454105
H  H148  1  0.90875000  0.17712000  0.80865000  1.0 0.1576454105
H  H149  1  0.90875000  0.32288000  0.80865000  1.0 0.1576454105
H  H150  1  0.09125000  0.82288000  0.19135000  1.0 0.1576454105
H  H151  1  0.22041000  0.47748000  0.54153000  1.0 0.1008967599
H  H152  1  0.77959000  0.97748000  0.45847000  1.0 0.1008967599
H  H153  1  0.77959000  0.52252000  0.45847000  1.0 0.1008967599
H  H154  1  0.22041000  0.02252000  0.54153000  1.0 0.1008967599
H  H155  1  0.19040000  0.49605000  0.71426000  1.0 0.1095143455
H  H156  1  0.80960000  0.99605000  0.28574000  1.0 0.1095143455
H  H157  1  0.80960000  0.50395000  0.28574000  1.0 0.1095143455
H  H158  1  0.19040000  0.00395000  0.71426000  1.0 0.1095143455
H  H159  1  0.17322000  0.37941000  0.78076000  1.0 0.11720306
H  H160  1  0.82678000  0.87941000  0.21924000  1.0 0.11720306
H  H161  1  0.82678000  0.62059000  0.21924000  1.0 0.11720306
H  H162  1  0.17322000  0.12059000  0.78076000  1.0 0.11720306
H  H163  1  0.17160000  0.36163000  0.60950000  1.0 0.1095143455
H  H164  1  0.82840000  0.86163000  0.39050000  1.0 0.1095143455
H  H165  1  0.82840000  0.63837000  0.39050000  1.0 0.1095143455
H  H166  1  0.17160000  0.13837000  0.60950000  1.0 0.1095143455
C  C1  1  0.53670000  0.38425000  0.14290000  1.0 -0.1843268732
C  C2  1  0.46330000  0.88425000  0.85710000  1.0 -0.1843268732
C  C3  1  0.46330000  0.61575000  0.85710000  1.0 -0.1843268732
C  C4  1  0.53670000  0.11575000  0.14290000  1.0 -0.1843268732
C  C5  1  0.45530000  0.41002000  0.09600000  1.0 0.2268486236
C  C6  1  0.54470000  0.91002000  0.90400000  1.0 0.2268486236
C  C7  1  0.54470000  0.58998000  0.90400000  1.0 0.2268486236
C  C8  1  0.45530000  0.08998000  0.09600000  1.0 0.2268486236
C  C9  1  0.29190000  0.55649000  0.16760000  1.0 -0.023982985
C  C10  1  0.70810000  0.05649000  0.83240000  1.0 -0.023982985
C  C11  1  0.70810000  0.44351000  0.83240000  1.0 -0.023982985
C  C12  1  0.29190000  0.94351000  0.16760000  1.0 -0.023982985
C  C13  1  0.15260000  0.44707000  0.86920000  1.0 0.5683161457
C  C14  1  0.84740000  0.94707000  0.13080000  1.0 0.5683161457
C  C15  1  0.84740000  0.55293000  0.13080000  1.0 0.5683161457
C  C16  1  0.15260000  0.05293000  0.86920000  1.0 0.5683161457
C  C17  1  0.87580000  0.40001000  0.10980000  1.0 -0.0568270619
C  C18  1  0.12420000  0.90001000  0.89020000  1.0 -0.0568270619
C  C19  1  0.12420000  0.59999000  0.89020000  1.0 -0.0568270619
C  C20  1  0.87580000  0.09999000  0.10980000  1.0 -0.0568270619
C  C21  1  0.28550000  0.34758000  0.22680000  1.0 -0.0824963864
C  C22  1  0.71450000  0.84758000  0.77320000  1.0 -0.0824963864
C  C23  1  0.71450000  0.65242000  0.77320000  1.0 -0.0824963864
C  C24  1  0.28550000  0.15242000  0.22680000  1.0 -0.0824963864
C  C25  1  0.48410000  0.35622000  0.19850000  1.0 0.1576454105
C  C26  1  0.51590000  0.85622000  0.80150000  1.0 0.1576454105
C  C27  1  0.51590000  0.64378000  0.80150000  1.0 0.1576454105
C  C28  1  0.48410000  0.14378000  0.19850000  1.0 0.1576454105
C  C29  1  0.99010000  0.40727000  0.09530000  1.0 0.5683161457
C  C30  1  0.00990000  0.90727000  0.90470000  1.0 0.5683161457
C  C31  1  0.00990000  0.59273000  0.90470000  1.0 0.5683161457
C  C32  1  0.99010000  0.09273000  0.09530000  1.0 0.5683161457
C  C33  1  0.22500000  0.51947000  0.12870000  1.0 0.5829801401
C  C34  1  0.77500000  0.01947000  0.87130000  1.0 0.5829801401
C  C35  1  0.77500000  0.48053000  0.87130000  1.0 0.5829801401
C  C36  1  0.22500000  0.98053000  0.12870000  1.0 0.5829801401
C  C37  1  0.81180000  0.43197000  0.13870000  1.0 -0.0918084349
C  C38  1  0.18820000  0.93197000  0.86130000  1.0 -0.0918084349
C  C39  1  0.18820000  0.56803000  0.86130000  1.0 -0.0918084349
C  C40  1  0.81180000  0.06803000  0.13870000  1.0 -0.0918084349
C  C41  1  0.18740000  0.41668000  0.55140000  1.0 0.0814764618
C  C42  1  0.81260000  0.91668000  0.44860000  1.0 0.0814764618
C  C43  1  0.81260000  0.58332000  0.44860000  1.0 0.0814764618
C  C44  1  0.18740000  0.08332000  0.55140000  1.0 0.0814764618
C  C45  1  0.16580000  0.42868000  0.35210000  1.0 0.2182044228
C  C46  1  0.83420000  0.92868000  0.64790000  1.0 0.2182044228
C  C47  1  0.83420000  0.57132000  0.64790000  1.0 0.2182044228
C  C48  1  0.16580000  0.07132000  0.35210000  1.0 0.2182044228
C  C49  1  0.16350000  0.43639000  0.75880000  1.0 -0.0005222327
C  C50  1  0.83650000  0.93639000  0.24120000  1.0 -0.0005222327
C  C51  1  0.83650000  0.56361000  0.24120000  1.0 -0.0005222327
C  C52  1  0.16350000  0.06361000  0.75880000  1.0 -0.0005222327
C  C53  1  0.65510000  0.38875000  0.13490000  1.0 0.11720306
C  C54  1  0.34490000  0.88875000  0.86510000  1.0 0.11720306
C  C55  1  0.34490000  0.61125000  0.86510000  1.0 0.11720306
C  C56  1  0.65510000  0.11125000  0.13490000  1.0 0.11720306
C  C57  1  0.25010000  0.37247000  0.40740000  1.0 0.1576454105
C  C58  1  0.74990000  0.87247000  0.59260000  1.0 0.1576454105
C  C59  1  0.74990000  0.62753000  0.59260000  1.0 0.1576454105
C  C60  1  0.25010000  0.12753000  0.40740000  1.0 0.1576454105
C  C61  1  0.70310000  0.42664000  0.15120000  1.0 -0.1506125713
C  C62  1  0.29690000  0.92664000  0.84880000  1.0 -0.1506125713
C  C63  1  0.29690000  0.57336000  0.84880000  1.0 -0.1506125713
C  C64  1  0.70310000  0.07336000  0.15120000  1.0 -0.1506125713
C  C65  1  0.19970000  0.40571000  0.44200000  1.0 -0.1506125713
C  C66  1  0.80030000  0.90571000  0.55800000  1.0 -0.1506125713
C  C67  1  0.80030000  0.59429000  0.55800000  1.0 -0.1506125713
C  C68  1  0.19970000  0.09429000  0.44200000  1.0 -0.1506125713
C  C69  1  0.82910000  0.36257000  0.09370000  1.0 -0.1004086977
C  C70  1  0.17090000  0.86257000  0.90630000  1.0 -0.1004086977
C  C71  1  0.17090000  0.63743000  0.90630000  1.0 -0.1004086977
C  C72  1  0.82910000  0.13743000  0.09370000  1.0 -0.1004086977
C  C73  1  0.10760000  0.46713000  0.34310000  1.0 -0.4979266721
C  C74  1  0.89240000  0.96713000  0.65690000  1.0 -0.4979266721
C  C75  1  0.89240000  0.53287000  0.65690000  1.0 -0.4979266721
C  C76  1  0.10760000  0.03287000  0.34310000  1.0 -0.4979266721
C  C77  1  0.46500000  0.44576000  0.02780000  1.0 -0.4979266721
C  C78  1  0.53500000  0.94576000  0.97220000  1.0 -0.4979266721
C  C79  1  0.53500000  0.55424000  0.97220000  1.0 -0.4979266721
C  C80  1  0.46500000  0.05424000  0.02780000  1.0 -0.4979266721
C  C81  1  0.57920000  0.75000000  0.39760000  1.0 -0.1004086977
C  C82  1  0.42080000  0.25000000  0.60240000  1.0 -0.1004086977
C  C83  1  0.41810000  0.62377000  0.22980000  1.0 0.1095143455
C  C84  1  0.58190000  0.12377000  0.77020000  1.0 0.1095143455
C  C85  1  0.58190000  0.37623000  0.77020000  1.0 0.1095143455
C  C86  1  0.41810000  0.87623000  0.22980000  1.0 0.1095143455
C  C87  1  0.47920000  0.68653000  0.33290000  1.0 0.1821737131
C  C88  1  0.52080000  0.18653000  0.66710000  1.0 0.1821737131
C  C89  1  0.52080000  0.31347000  0.66710000  1.0 0.1821737131
C  C90  1  0.47920000  0.81347000  0.33290000  1.0 0.1821737131
C  C91  1  0.52560000  0.31978000  0.26000000  1.0 -0.4979266721
C  C92  1  0.47440000  0.81978000  0.74000000  1.0 -0.4979266721
C  C93  1  0.47440000  0.68022000  0.74000000  1.0 -0.4979266721
C  C94  1  0.52560000  0.18022000  0.26000000  1.0 -0.4979266721
C  C95  1  0.48750000  0.66002000  0.25950000  1.0 -0.1726980462
C  C96  1  0.51250000  0.16002000  0.74050000  1.0 -0.1726980462
C  C97  1  0.51250000  0.33998000  0.74050000  1.0 -0.1726980462
C  C98  1  0.48750000  0.83998000  0.25950000  1.0 -0.1726980462
C  C99  1  0.71840000  0.35624000  0.10560000  1.0 -0.1726980462
C  C100  1  0.28160000  0.85624000  0.89440000  1.0 -0.1726980462
C  C101  1  0.28160000  0.64376000  0.89440000  1.0 -0.1726980462
C  C102  1  0.71840000  0.14376000  0.10560000  1.0 -0.1726980462
C  C103  1  0.57920000  0.67261000  0.20730000  1.0 0.2268486236
C  C104  1  0.42080000  0.17261000  0.79270000  1.0 0.2268486236
C  C105  1  0.42080000  0.32739000  0.79270000  1.0 0.2268486236
C  C106  1  0.57920000  0.82739000  0.20730000  1.0 0.2268486236
C  C107  1  0.38920000  0.55183000  0.21990000  1.0 -0.1004086977
C  C108  1  0.61080000  0.05183000  0.78010000  1.0 -0.1004086977
C  C109  1  0.61080000  0.44817000  0.78010000  1.0 -0.1004086977
C  C110  1  0.38920000  0.94817000  0.21990000  1.0 -0.1004086977
C  C111  1  0.45510000  0.58594000  0.24950000  1.0 -0.1506125713
C  C112  1  0.54490000  0.08594000  0.75050000  1.0 -0.1506125713
C  C113  1  0.54490000  0.41406000  0.75050000  1.0 -0.1506125713
C  C114  1  0.45510000  0.91406000  0.24950000  1.0 -0.1506125713
C  C115  1  0.31950000  0.62790000  0.17790000  1.0 -0.1506125713
C  C116  1  0.68050000  0.12790000  0.82210000  1.0 -0.1506125713
C  C117  1  0.68050000  0.37210000  0.82210000  1.0 -0.1506125713
C  C118  1  0.31950000  0.87210000  0.17790000  1.0 -0.1506125713
C  C119  1  0.25120000  0.59329000  0.15210000  1.0 -0.1004086977
C  C120  1  0.74880000  0.09329000  0.84790000  1.0 -0.1004086977
C  C121  1  0.74880000  0.40671000  0.84790000  1.0 -0.1004086977
C  C122  1  0.25120000  0.90671000  0.15210000  1.0 -0.1004086977
C  C123  1  0.39210000  0.68926000  0.40970000  1.0 -0.4768482904
C  C124  1  0.60790000  0.18926000  0.59030000  1.0 -0.4768482904
C  C125  1  0.60790000  0.31074000  0.59030000  1.0 -0.4768482904
C  C126  1  0.39210000  0.81074000  0.40970000  1.0 -0.4768482904
C  C127  1  0.62040000  0.65410000  0.11390000  1.0 -0.4924645036
C  C128  1  0.37960000  0.15410000  0.88610000  1.0 -0.4924645036
C  C129  1  0.37960000  0.34590000  0.88610000  1.0 -0.4924645036
C  C130  1  0.62040000  0.84590000  0.11390000  1.0 -0.4924645036
C  C131  1  0.30860000  0.33820000  0.46640000  1.0 -0.5328404318
C  C132  1  0.69140000  0.83820000  0.53360000  1.0 -0.5328404318
C  C133  1  0.69140000  0.66180000  0.53360000  1.0 -0.5328404318
C  C134  1  0.30860000  0.16180000  0.46640000  1.0 -0.5328404318
C  C135  1  0.07480000  0.44060000  0.67970000  1.0 -0.0824963864
C  C136  1  0.92520000  0.94060000  0.32030000  1.0 -0.0824963864
C  C137  1  0.92520000  0.55940000  0.32030000  1.0 -0.0824963864
C  C138  1  0.07480000  0.05940000  0.67970000  1.0 -0.0824963864
C  C139  1  0.08350000  0.43160000  0.57760000  1.0 -0.0918084349
C  C140  1  0.91650000  0.93160000  0.42240000  1.0 -0.0918084349
C  C141  1  0.91650000  0.56840000  0.42240000  1.0 -0.0918084349
C  C142  1  0.08350000  0.06840000  0.57760000  1.0 -0.0918084349
C  C143  1  0.25520000  0.41950000  0.72640000  1.0 -0.0428575986
C  C144  1  0.74480000  0.91950000  0.27360000  1.0 -0.0428575986
C  C145  1  0.74480000  0.58050000  0.27360000  1.0 -0.0428575986
C  C146  1  0.25520000  0.08050000  0.72640000  1.0 -0.0428575986
C  C147  1  0.26060000  0.40740000  0.62510000  1.0 -0.0428575986
C  C148  1  0.73940000  0.90740000  0.37490000  1.0 -0.0428575986
C  C149  1  0.73940000  0.59260000  0.37490000  1.0 -0.0428575986
C  C150  1  0.26060000  0.09260000  0.62510000  1.0 -0.0428575986
C  C151  1  0.69900000  0.75000000  0.86100000  1.0 -0.4924645036
C  C152  1  0.30100000  0.25000000  0.13900000  1.0 -0.4924645036
C  C153  1  0.93620000  0.68200000  0.18171000  1.0 0.3127776598
C  C154  1  0.06380000  0.18200000  0.81829000  1.0 0.3127776598
C  C155  1  0.06380000  0.31800000  0.81829000  1.0 0.3127776598
C  C156  1  0.93620000  0.81800000  0.18171000  1.0 0.3127776598
C  C157  1  0.02970000  0.66020000  0.17400000  1.0 -0.4979266721
C  C158  1  0.97030000  0.16020000  0.82600000  1.0 -0.4979266721
C  C159  1  0.97030000  0.33980000  0.82600000  1.0 -0.4979266721
C  C160  1  0.02970000  0.83980000  0.17400000  1.0 -0.4979266721
C  C161  1  0.83451000  0.75129000  0.35745000  1.0 0.0814764618
C  C162  1  0.16549000  0.25129000  0.64255000  1.0 0.0814764618
C  C163  1  0.16549000  0.24871000  0.64255000  1.0 0.0814764618
C  C164  1  0.83451000  0.74871000  0.35745000  1.0 0.0814764618
C  C165  1  0.66500000  0.75000000  0.97580000  1.0 0.4443882992
C  C166  1  0.33500000  0.25000000  0.02420000  1.0 0.4443882992
C  C167  1  0.20110000  0.45780000  0.58760000  1.0 -0.0824963864
C  C168  1  0.79890000  0.95780000  0.41240000  1.0 -0.0824963864
C  C169  1  0.79890000  0.54220000  0.41240000  1.0 -0.0824963864
C  C170  1  0.20110000  0.04220000  0.58760000  1.0 -0.0824963864
C  C171  1  0.18600000  0.46940000  0.69180000  1.0 -0.0918084349
C  C172  1  0.81400000  0.96940000  0.30820000  1.0 -0.0918084349
C  C173  1  0.81400000  0.53060000  0.30820000  1.0 -0.0918084349
C  C174  1  0.18600000  0.03060000  0.69180000  1.0 -0.0918084349
C  C175  1  0.17100000  0.39960000  0.73080000  1.0 -0.0499499097
C  C176  1  0.82900000  0.89960000  0.26920000  1.0 -0.0499499097
C  C177  1  0.82900000  0.60040000  0.26920000  1.0 -0.0499499097
C  C178  1  0.17100000  0.10040000  0.73080000  1.0 -0.0499499097
C  C179  1  0.17610000  0.38880000  0.62740000  1.0 -0.0499499097
C  C180  1  0.82390000  0.88880000  0.37260000  1.0 -0.0499499097
C  C181  1  0.82390000  0.61120000  0.37260000  1.0 -0.0499499097
C  C182  1  0.17610000  0.11120000  0.62740000  1.0 -0.0499499097
Br  Br1  1  0.85150000  0.75000000  0.40400000  1.0 0.0490698208
Br  Br2  1  0.14850000  0.25000000  0.59600000  1.0 0.0490698208
Br  Br3  1  0.30430000  0.25000000  0.33060000  1.0 -0.3362764279
Br  Br4  1  0.69570000  0.75000000  0.66940000  1.0 -0.3362764279
N  N1  1  0.37670000  0.36457000  0.18140000  1.0 0.0814764618
N  N2  1  0.62330000  0.86457000  0.81860000  1.0 0.0814764618
N  N3  1  0.62330000  0.63543000  0.81860000  1.0 0.0814764618
N  N4  1  0.37670000  0.13543000  0.18140000  1.0 0.0814764618
N  N5  1  0.35800000  0.39705000  0.11970000  1.0 -0.2885946641
N  N6  1  0.64200000  0.89705000  0.88030000  1.0 -0.2885946641
N  N7  1  0.64200000  0.60295000  0.88030000  1.0 -0.2885946641
N  N8  1  0.35800000  0.10295000  0.11970000  1.0 -0.2885946641
N  N9  1  0.19360000  0.40928000  0.26820000  1.0 -0.2953035245
N  N10  1  0.80640000  0.90928000  0.73180000  1.0 -0.2953035245
N  N11  1  0.80640000  0.59072000  0.73180000  1.0 -0.2953035245
N  N12  1  0.19360000  0.09072000  0.26820000  1.0 -0.2953035245
N  N13  1  0.24510000  0.37465000  0.30220000  1.0 0.0670175375
N  N14  1  0.75490000  0.87465000  0.69780000  1.0 0.0670175375
N  N15  1  0.75490000  0.62535000  0.69780000  1.0 0.0670175375
N  N16  1  0.24510000  0.12535000  0.30220000  1.0 0.0670175375
N  N17  1  0.55540000  0.71366000  0.33490000  1.0 0.0273787593
N  N18  1  0.44460000  0.21366000  0.66510000  1.0 0.0273787593
N  N19  1  0.44460000  0.28634000  0.66510000  1.0 0.0273787593
N  N20  1  0.55540000  0.78634000  0.33490000  1.0 0.0273787593
N  N21  1  0.62230000  0.70520000  0.25270000  1.0 -0.3248519609
N  N22  1  0.37770000  0.20520000  0.74730000  1.0 -0.3248519609
N  N23  1  0.37770000  0.29480000  0.74730000  1.0 -0.3248519609
N  N24  1  0.62230000  0.79480000  0.25270000  1.0 -0.3248519609
N  N25  1  0.85960000  0.70250000  0.17960000  1.0 -0.4304157356
N  N26  1  0.14040000  0.20250000  0.82040000  1.0 -0.4304157356
N  N27  1  0.14040000  0.29750000  0.82040000  1.0 -0.4304157356
N  N28  1  0.85960000  0.79750000  0.17960000  1.0 -0.4304157356
N  N29  1  0.70000000  0.75000000  0.05420000  1.0 -0.3984543989
N  N30  1  0.30000000  0.25000000  0.94580000  1.0 -0.3984543989
O  O1  1  0.02650000  0.44382000  0.09680000  1.0 -0.5995530794
O  O2  1  0.97350000  0.94382000  0.90320000  1.0 -0.5995530794
O  O3  1  0.97350000  0.55618000  0.90320000  1.0 -0.5995530794
O  O4  1  0.02650000  0.05618000  0.09680000  1.0 -0.5995530794
O  O5  1  0.26560000  0.48551000  0.14240000  1.0 -0.5328404318
O  O6  1  0.73440000  0.98551000  0.85760000  1.0 -0.5328404318
O  O7  1  0.73440000  0.51449000  0.85760000  1.0 -0.5328404318
O  O8  1  0.26560000  0.01449000  0.14240000  1.0 -0.5328404318
O  O9  1  0.20280000  0.42612000  0.93790000  1.0 -0.5101033161
O  O10  1  0.79720000  0.92612000  0.06210000  1.0 -0.5101033161
O  O11  1  0.79720000  0.57388000  0.06210000  1.0 -0.5101033161
O  O12  1  0.20280000  0.07388000  0.93790000  1.0 -0.5101033161
O  O13  1  0.05490000  0.37792000  0.08240000  1.0 -0.5639375607
O  O14  1  0.94510000  0.87792000  0.91760000  1.0 -0.5639375607
O  O15  1  0.94510000  0.62208000  0.91760000  1.0 -0.5639375607
O  O16  1  0.05490000  0.12208000  0.08240000  1.0 -0.5639375607
O  O17  1  0.09530000  0.47551000  0.88620000  1.0 -0.5101033161
O  O18  1  0.90470000  0.97551000  0.11380000  1.0 -0.5101033161
O  O19  1  0.90470000  0.52449000  0.11380000  1.0 -0.5101033161
O  O20  1  0.09530000  0.02449000  0.88620000  1.0 -0.5101033161
O  O21  1  0.13200000  0.52714000  0.08640000  1.0 -0.5639375607
O  O22  1  0.86800000  0.02714000  0.91360000  1.0 -0.5639375607
O  O23  1  0.86800000  0.47286000  0.91360000  1.0 -0.5639375607
O  O24  1  0.13200000  0.97286000  0.08640000  1.0 -0.5639375607
O  O25  1  0.87506000  0.75138000  0.44130000  1.0 -0.143285201
O  O26  1  0.12494000  0.25138000  0.55870000  1.0 -0.143285201
O  O27  1  0.12494000  0.24862000  0.55870000  1.0 -0.143285201
O  O28  1  0.87506000  0.74862000  0.44130000  1.0 -0.143285201
