# DDEC6 charges by PACMAN v1.1 (https://github.com/mtap-research/PACMAN-charge/)
data_CIRGOD_ion_pacman
_symmetry_space_group_name_H-M   'P 1'
_cell_length_a   12.41340000
_cell_length_b   33.36200000
_cell_length_c   12.99530000
_cell_angle_alpha   90.00000000
_cell_angle_beta   95.56500000
_cell_angle_gamma   90.00000000
_symmetry_Int_Tables_number   1
_chemical_formula_structural   Mn4H88C96BrN13O15
_chemical_formula_sum   'Mn8 H176 C192 Br2 N26 O30'
_cell_volume   5356.45416039
_cell_formula_units_Z   2
loop_
 _symmetry_equiv_pos_site_id
 _symmetry_equiv_pos_as_xyz
  1  'x, y, z'
loop_
 _atom_site_type_symbol
 _atom_site_label
 _atom_site_symmetry_multiplicity
 _atom_site_fract_x
 _atom_site_fract_y
 _atom_site_fract_z
 _atom_site_occupancy
 _atom_site_charge
Mn  Mn1  1  0.79803000  0.43093000  0.89918000  1.0 0.8719079413
Mn  Mn2  1  0.20197000  0.93093000  0.10082000  1.0 0.8719079413
Mn  Mn3  1  0.20197000  0.56907000  0.10082000  1.0 0.8719079413
Mn  Mn4  1  0.79803000  0.06907000  0.89918000  1.0 0.8719079413
Mn  Mn5  1  0.00000000  0.50000000  0.00000000  1.0 1.0648390271
Mn  Mn6  1  0.00000000  0.00000000  0.00000000  1.0 1.0652580478
Mn  Mn7  1  0.25913000  0.75000000  0.78780000  1.0 0.14926407
Mn  Mn8  1  0.74087000  0.25000000  0.21220000  1.0 0.14926407
H  H1  1  0.69085000  0.32419000  0.73542000  1.0 0.1195568361
H  H2  1  0.30915000  0.82419000  0.26458000  1.0 0.1195568361
H  H3  1  0.30915000  0.67581000  0.26458000  1.0 0.1195568361
H  H4  1  0.69085000  0.17581000  0.73542000  1.0 0.1195568361
H  H5  1  0.76988000  0.34436000  0.82554000  1.0 0.14926407
H  H6  1  0.23012000  0.84436000  0.17446000  1.0 0.14926407
H  H7  1  0.23012000  0.65564000  0.17446000  1.0 0.14926407
H  H8  1  0.76988000  0.15564000  0.82554000  1.0 0.14926407
H  H9  1  0.15103000  0.45935000  0.83990000  1.0 0.1110752189
H  H10  1  0.84897000  0.95935000  0.16010000  1.0 0.1110752189
H  H11  1  0.84897000  0.54065000  0.16010000  1.0 0.1110752189
H  H12  1  0.15103000  0.04065000  0.83990000  1.0 0.1110752189
H  H13  1  0.93743000  0.46891000  0.71948000  1.0 0.1724945095
H  H14  1  0.06257000  0.96891000  0.28052000  1.0 0.1724945095
H  H15  1  0.06257000  0.53109000  0.28052000  1.0 0.1724945095
H  H16  1  0.93743000  0.03109000  0.71948000  1.0 0.1724945095
H  H17  1  0.93580000  0.47105000  0.59632000  1.0 0.1398136695
H  H18  1  0.06420000  0.97105000  0.40368000  1.0 0.14926407
H  H19  1  0.06420000  0.52895000  0.40368000  1.0 0.14926407
H  H20  1  0.93580000  0.02895000  0.59632000  1.0 0.1398136695
H  H21  1  0.83970000  0.49086000  0.65248000  1.0 0.14926407
H  H22  1  0.16030000  0.99086000  0.34752000  1.0 0.14926407
H  H23  1  0.16030000  0.50914000  0.34752000  1.0 0.14926407
H  H24  1  0.83970000  0.00914000  0.65248000  1.0 0.14926407
H  H25  1  0.12202000  0.34180000  0.90716000  1.0 0.1195568361
H  H26  1  0.87798000  0.84180000  0.09284000  1.0 0.1195568361
H  H27  1  0.87798000  0.65820000  0.09284000  1.0 0.1195568361
H  H28  1  0.12202000  0.15820000  0.90716000  1.0 0.1195568361
H  H29  1  0.33437000  0.44963000  0.82075000  1.0 0.1195568361
H  H30  1  0.66563000  0.94963000  0.17925000  1.0 0.1195568361
H  H31  1  0.66563000  0.55037000  0.17925000  1.0 0.1195568361
H  H32  1  0.33437000  0.05037000  0.82075000  1.0 0.1195568361
H  H33  1  0.34259000  0.75000000  0.57999000  1.0 0.1398136695
H  H34  1  0.65741000  0.25000000  0.42001000  1.0 0.1398136695
H  H35  1  0.46381000  0.75000000  0.54723000  1.0 0.1309162467
H  H36  1  0.53619000  0.25000000  0.45277000  1.0 0.1309162467
H  H37  1  0.47922000  0.32838000  0.65946000  1.0 0.14926407
H  H38  1  0.52078000  0.82838000  0.34054000  1.0 0.14926407
H  H39  1  0.52078000  0.67162000  0.34054000  1.0 0.14926407
H  H40  1  0.47922000  0.17162000  0.65946000  1.0 0.14926407
H  H41  1  0.51032000  0.29862000  0.75428000  1.0 0.1398136695
H  H42  1  0.48968000  0.79862000  0.24572000  1.0 0.1398136695
H  H43  1  0.48968000  0.70138000  0.24572000  1.0 0.1398136695
H  H44  1  0.51032000  0.20138000  0.75428000  1.0 0.1398136695
H  H45  1  0.39354000  0.31935000  0.74092000  1.0 0.14926407
H  H46  1  0.60646000  0.81935000  0.25908000  1.0 0.14926407
H  H47  1  0.60646000  0.68065000  0.25908000  1.0 0.14926407
H  H48  1  0.39354000  0.18065000  0.74092000  1.0 0.14926407
H  H49  1  0.51480000  0.47049000  0.92331000  1.0 0.14926407
H  H50  1  0.48520000  0.97049000  0.07669000  1.0 0.14926407
H  H51  1  0.48520000  0.52951000  0.07669000  1.0 0.14926407
H  H52  1  0.51480000  0.02951000  0.92331000  1.0 0.14926407
H  H53  1  0.47067000  0.44151000  0.00792000  1.0 0.1398136695
H  H54  1  0.52933000  0.94151000  0.99208000  1.0 0.1398136695
H  H55  1  0.52933000  0.55849000  0.99208000  1.0 0.1398136695
H  H56  1  0.47067000  0.05849000  0.00792000  1.0 0.1398136695
H  H57  1  0.59761000  0.45032000  0.01026000  1.0 0.1590090685
H  H58  1  0.40239000  0.95032000  0.98974000  1.0 0.1590090685
H  H59  1  0.40239000  0.54968000  0.98974000  1.0 0.1590090685
H  H60  1  0.59761000  0.04968000  0.01026000  1.0 0.1590090685
H  H61  1  0.30914000  0.33220000  0.89388000  1.0 0.1110752189
H  H62  1  0.69086000  0.83220000  0.10612000  1.0 0.1110752189
H  H63  1  0.69086000  0.66780000  0.10612000  1.0 0.1110752189
H  H64  1  0.30914000  0.16780000  0.89388000  1.0 0.1110752189
H  H65  1  0.67114000  0.70173000  0.62273000  1.0 0.14926407
H  H66  1  0.32886000  0.20173000  0.37727000  1.0 0.14926407
H  H67  1  0.32886000  0.29827000  0.37727000  1.0 0.14926407
H  H68  1  0.67114000  0.79827000  0.62273000  1.0 0.14926407
H  H69  1  0.62301000  0.66126000  0.57058000  1.0 0.14926407
H  H70  1  0.37699000  0.16126000  0.42942000  1.0 0.14926407
H  H71  1  0.37699000  0.33874000  0.42942000  1.0 0.14926407
H  H72  1  0.62301000  0.83874000  0.57058000  1.0 0.14926407
H  H73  1  0.57684000  0.70375000  0.52973000  1.0 0.1398136695
H  H74  1  0.42316000  0.20375000  0.47027000  1.0 0.1398136695
H  H75  1  0.42316000  0.29625000  0.47027000  1.0 0.1398136695
H  H76  1  0.57684000  0.79625000  0.52973000  1.0 0.1398136695
H  H77  1  0.61469000  0.34281000  0.53165000  1.0 0.1398136695
H  H78  1  0.38531000  0.84281000  0.46835000  1.0 0.1398136695
H  H79  1  0.38531000  0.65719000  0.46835000  1.0 0.1398136695
H  H80  1  0.61469000  0.15719000  0.53165000  1.0 0.1398136695
H  H81  1  0.71282000  0.34040000  0.46059000  1.0 0.1309162467
H  H82  1  0.28718000  0.84040000  0.53941000  1.0 0.1309162467
H  H83  1  0.28718000  0.65960000  0.53941000  1.0 0.1309162467
H  H84  1  0.71282000  0.15960000  0.46059000  1.0 0.1309162467
H  H85  1  0.71653000  0.31464000  0.56476000  1.0 0.1309162467
H  H86  1  0.28347000  0.81464000  0.43524000  1.0 0.1309162467
H  H87  1  0.28347000  0.68536000  0.43524000  1.0 0.1309162467
H  H88  1  0.71653000  0.18536000  0.56476000  1.0 0.1309162467
H  H89  1  0.30158000  0.66518000  0.89123000  1.0 0.1590090685
H  H90  1  0.69842000  0.16518000  0.10877000  1.0 0.1590090685
H  H91  1  0.69842000  0.33482000  0.10877000  1.0 0.1590090685
H  H92  1  0.30158000  0.83482000  0.89123000  1.0 0.1590090685
H  H93  1  0.37469000  0.62617000  0.88054000  1.0 0.1398136695
H  H94  1  0.62531000  0.12617000  0.11946000  1.0 0.1398136695
H  H95  1  0.62531000  0.37383000  0.11946000  1.0 0.1398136695
H  H96  1  0.37469000  0.87383000  0.88054000  1.0 0.1398136695
H  H97  1  0.42082000  0.66309000  0.95008000  1.0 0.14926407
H  H98  1  0.57918000  0.16309000  0.04992000  1.0 0.14926407
H  H99  1  0.57918000  0.33691000  0.04992000  1.0 0.14926407
H  H100  1  0.42082000  0.83691000  0.95008000  1.0 0.14926407
H  H101  1  0.97329000  0.43472000  0.46965000  1.0 0.101353286
H  H102  1  0.02671000  0.93472000  0.53035000  1.0 0.101353286
H  H103  1  0.02671000  0.56528000  0.53035000  1.0 0.101353286
H  H104  1  0.97329000  0.06528000  0.46965000  1.0 0.101353286
H  H105  1  0.98796000  0.45385000  0.29950000  1.0 0.1110752189
H  H106  1  0.01204000  0.95385000  0.70050000  1.0 0.1110752189
H  H107  1  0.01204000  0.54615000  0.70050000  1.0 0.1110752189
H  H108  1  0.98796000  0.04615000  0.29950000  1.0 0.1110752189
H  H109  1  0.68116000  0.41675000  0.22170000  1.0 0.101353286
H  H110  1  0.31884000  0.91675000  0.77830000  1.0 0.101353286
H  H111  1  0.31884000  0.58325000  0.77830000  1.0 0.101353286
H  H112  1  0.68116000  0.08325000  0.22170000  1.0 0.101353286
H  H113  1  0.65761000  0.40539000  0.38696000  1.0 0.101353286
H  H114  1  0.34239000  0.90539000  0.61304000  1.0 0.101353286
H  H115  1  0.34239000  0.59461000  0.61304000  1.0 0.101353286
H  H116  1  0.65761000  0.09461000  0.38696000  1.0 0.101353286
H  H117  1  0.52766000  0.59250000  0.65395000  1.0 0.0911788412
H  H118  1  0.47234000  0.09250000  0.34605000  1.0 0.0911788412
H  H119  1  0.47234000  0.40750000  0.34605000  1.0 0.0911788412
H  H120  1  0.52766000  0.90750000  0.65395000  1.0 0.0911788412
H  H121  1  0.65617000  0.53928000  0.68521000  1.0 0.101353286
H  H122  1  0.34383000  0.03928000  0.31479000  1.0 0.101353286
H  H123  1  0.34383000  0.46072000  0.31479000  1.0 0.101353286
H  H124  1  0.65617000  0.96072000  0.68521000  1.0 0.101353286
H  H125  1  0.76170000  0.59303000  0.95312000  1.0 0.101353286
H  H126  1  0.23830000  0.09303000  0.04688000  1.0 0.101353286
H  H127  1  0.23830000  0.40697000  0.04688000  1.0 0.101353286
H  H128  1  0.76170000  0.90697000  0.95312000  1.0 0.101353286
H  H129  1  0.63075000  0.64447000  0.92286000  1.0 0.1110752189
H  H130  1  0.36925000  0.14447000  0.07714000  1.0 0.1110752189
H  H131  1  0.36925000  0.35553000  0.07714000  1.0 0.1110752189
H  H132  1  0.63075000  0.85553000  0.92286000  1.0 0.1110752189
H  H133  1  0.46551000  0.58070000  0.73361000  1.0 0.0911788412
H  H134  1  0.53449000  0.08070000  0.26639000  1.0 0.0911788412
H  H135  1  0.53449000  0.41930000  0.26639000  1.0 0.0911788412
H  H136  1  0.46551000  0.91930000  0.73361000  1.0 0.0911788412
H  H137  1  0.57351000  0.52498000  0.77489000  1.0 0.1110752189
H  H138  1  0.42649000  0.02498000  0.22511000  1.0 0.1110752189
H  H139  1  0.42649000  0.47502000  0.22511000  1.0 0.1110752189
H  H140  1  0.57351000  0.97502000  0.77489000  1.0 0.1110752189
H  H141  1  0.82716000  0.59789000  0.85852000  1.0 0.1195568361
H  H142  1  0.17284000  0.09789000  0.14148000  1.0 0.1195568361
H  H143  1  0.17284000  0.40211000  0.14148000  1.0 0.1195568361
H  H144  1  0.82716000  0.90211000  0.85852000  1.0 0.1195568361
H  H145  1  0.71912000  0.65349000  0.82193000  1.0 0.1110752189
H  H146  1  0.28088000  0.15349000  0.17807000  1.0 0.1110752189
H  H147  1  0.28088000  0.34651000  0.17807000  1.0 0.1110752189
H  H148  1  0.71912000  0.84651000  0.82193000  1.0 0.1110752189
H  H149  1  0.84887000  0.37998000  0.22773000  1.0 0.1195568361
H  H150  1  0.15113000  0.87998000  0.77227000  1.0 0.1195568361
H  H151  1  0.15113000  0.62002000  0.77227000  1.0 0.1195568361
H  H152  1  0.84887000  0.12002000  0.22773000  1.0 0.1195568361
H  H153  1  0.77794000  0.48127000  0.45436000  1.0 0.101353286
H  H154  1  0.22206000  0.98127000  0.54564000  1.0 0.101353286
H  H155  1  0.22206000  0.51873000  0.54564000  1.0 0.101353286
H  H156  1  0.77794000  0.01873000  0.45436000  1.0 0.101353286
H  H157  1  0.80327000  0.49540000  0.28061000  1.0 0.101353286
H  H158  1  0.19673000  0.99540000  0.71939000  1.0 0.1110752189
H  H159  1  0.19673000  0.50460000  0.71939000  1.0 0.1110752189
H  H160  1  0.80327000  0.00460000  0.28061000  1.0 0.101353286
H  H161  1  0.78973000  0.36698000  0.38480000  1.0 0.1110752189
H  H162  1  0.21027000  0.86698000  0.61520000  1.0 0.1110752189
H  H163  1  0.21027000  0.63302000  0.61520000  1.0 0.1110752189
H  H164  1  0.78973000  0.13302000  0.38480000  1.0 0.1110752189
H  H165  1  0.26325000  0.72790000  0.18428000  1.0 0.101353286
H  H166  1  0.73675000  0.22790000  0.81572000  1.0 0.1110752189
H  H167  1  0.73675000  0.27210000  0.81572000  1.0 0.1110752189
H  H168  1  0.26325000  0.77210000  0.18428000  1.0 0.101353286
H  H169  1  0.16963000  0.74659000  0.10531000  1.0 0.1309162467
H  H170  1  0.83037000  0.24659000  0.89469000  1.0 0.1309162467
H  H171  1  0.83037000  0.25341000  0.89469000  1.0 0.1309162467
H  H172  1  0.16963000  0.75341000  0.10531000  1.0 0.1309162467
H  H173  1  0.25074000  0.77551000  0.17372000  1.0 0.101353286
H  H174  1  0.74926000  0.27551000  0.82628000  1.0 0.101353286
H  H175  1  0.74926000  0.22449000  0.82628000  1.0 0.101353286
H  H176  1  0.25074000  0.72449000  0.17372000  1.0 0.101353286
C  C1  1  0.70730000  0.55631000  0.83380000  1.0 -0.0303734251
C  C2  1  0.29270000  0.05631000  0.16620000  1.0 -0.0303734251
C  C3  1  0.29270000  0.44369000  0.16620000  1.0 -0.0303734251
C  C4  1  0.70730000  0.94369000  0.83380000  1.0 -0.0303734251
C  C5  1  0.54210000  0.41209000  0.89780000  1.0 0.2209493958
C  C6  1  0.45790000  0.91209000  0.10220000  1.0 0.2209493958
C  C7  1  0.45790000  0.58791000  0.10220000  1.0 0.2209493958
C  C8  1  0.54210000  0.08791000  0.89780000  1.0 0.2209493958
C  C9  1  0.81240000  0.41748000  0.44750000  1.0 0.0911788412
C  C10  1  0.18760000  0.91748000  0.55250000  1.0 0.0911788412
C  C11  1  0.18760000  0.58252000  0.55250000  1.0 0.0911788412
C  C12  1  0.81240000  0.08252000  0.44750000  1.0 0.0911788412
C  C13  1  0.51430000  0.35798000  0.79760000  1.0 0.1724945095
C  C14  1  0.48570000  0.85798000  0.20240000  1.0 0.1724945095
C  C15  1  0.48570000  0.64202000  0.20240000  1.0 0.1724945095
C  C16  1  0.51430000  0.14202000  0.79760000  1.0 0.1724945095
C  C17  1  0.84680000  0.44795000  0.12940000  1.0 0.5678339221
C  C18  1  0.15320000  0.94795000  0.87060000  1.0 0.5678339221
C  C19  1  0.15320000  0.55205000  0.87060000  1.0 0.5678339221
C  C20  1  0.84680000  0.05205000  0.12940000  1.0 0.5678339221
C  C21  1  0.45830000  0.38671000  0.84970000  1.0 -0.1794913195
C  C22  1  0.54170000  0.88671000  0.15030000  1.0 -0.1794913195
C  C23  1  0.54170000  0.61329000  0.15030000  1.0 -0.1794913195
C  C24  1  0.45830000  0.11329000  0.84970000  1.0 -0.1794913195
C  C25  1  0.77060000  0.52060000  0.87270000  1.0 0.550695739
C  C26  1  0.22940000  0.02060000  0.12730000  1.0 0.550695739
C  C27  1  0.22940000  0.47940000  0.12730000  1.0 0.550695739
C  C28  1  0.77060000  0.97940000  0.87270000  1.0 0.550695739
C  C29  1  0.83090000  0.43032000  0.64480000  1.0 0.2209493958
C  C30  1  0.16910000  0.93032000  0.35520000  1.0 0.2209493958
C  C31  1  0.16910000  0.56968000  0.35520000  1.0 0.2209493958
C  C32  1  0.83090000  0.06968000  0.64480000  1.0 0.2209493958
C  C33  1  0.00460000  0.40892000  0.90100000  1.0 0.5589260675
C  C34  1  0.99540000  0.90892000  0.09900000  1.0 0.5589260675
C  C35  1  0.99540000  0.59108000  0.09900000  1.0 0.5589260675
C  C36  1  0.00460000  0.09108000  0.90100000  1.0 0.5589260675
C  C37  1  0.71180000  0.34993000  0.76960000  1.0 -0.0916091825
C  C38  1  0.28820000  0.84993000  0.23040000  1.0 -0.0916091825
C  C39  1  0.28820000  0.65007000  0.23040000  1.0 -0.0916091825
C  C40  1  0.71180000  0.15007000  0.76960000  1.0 -0.0916091825
C  C41  1  0.12040000  0.40157000  0.88250000  1.0 -0.0303734251
C  C42  1  0.87960000  0.90157000  0.11750000  1.0 -0.0303734251
C  C43  1  0.87960000  0.59843000  0.11750000  1.0 -0.0303734251
C  C44  1  0.12040000  0.09843000  0.88250000  1.0 -0.0303734251
C  C45  1  0.74710000  0.37346000  0.58980000  1.0 0.1590090685
C  C46  1  0.25290000  0.87346000  0.41020000  1.0 0.1590090685
C  C47  1  0.25290000  0.62654000  0.41020000  1.0 0.1590090685
C  C48  1  0.74710000  0.12654000  0.58980000  1.0 0.1590090685
C  C49  1  0.83240000  0.43784000  0.23990000  1.0 -0.0084548101
C  C50  1  0.16760000  0.93784000  0.76010000  1.0 -0.0084548101
C  C51  1  0.16760000  0.56216000  0.76010000  1.0 -0.0084548101
C  C52  1  0.83240000  0.06216000  0.23990000  1.0 -0.0084548101
C  C53  1  0.18280000  0.43369000  0.85220000  1.0 -0.1188130237
C  C54  1  0.81720000  0.93369000  0.14780000  1.0 -0.1188130237
C  C55  1  0.81720000  0.56631000  0.14780000  1.0 -0.1188130237
C  C56  1  0.18280000  0.06631000  0.85220000  1.0 -0.1188130237
C  C57  1  0.89100000  0.46848000  0.65400000  1.0 -0.503552296
C  C58  1  0.10900000  0.96848000  0.34600000  1.0 -0.503552296
C  C59  1  0.10900000  0.53152000  0.34600000  1.0 -0.503552296
C  C60  1  0.89100000  0.03152000  0.65400000  1.0 -0.503552296
C  C61  1  0.79770000  0.40724000  0.55440000  1.0 -0.166254387
C  C62  1  0.20230000  0.90724000  0.44560000  1.0 -0.166254387
C  C63  1  0.20230000  0.59276000  0.44560000  1.0 -0.166254387
C  C64  1  0.79770000  0.09276000  0.55440000  1.0 -0.166254387
C  C65  1  0.16600000  0.36405000  0.89290000  1.0 -0.1120061554
C  C66  1  0.83400000  0.86405000  0.10710000  1.0 -0.1120061554
C  C67  1  0.83400000  0.63595000  0.10710000  1.0 -0.1120061554
C  C68  1  0.16600000  0.13595000  0.89290000  1.0 -0.1120061554
C  C69  1  0.34150000  0.39034000  0.85640000  1.0 0.1110752189
C  C70  1  0.65850000  0.89034000  0.14360000  1.0 0.1110752189
C  C71  1  0.65850000  0.60966000  0.14360000  1.0 0.1110752189
C  C72  1  0.34150000  0.10966000  0.85640000  1.0 0.1110752189
C  C73  1  0.29220000  0.42764000  0.84040000  1.0 -0.1570488817
C  C74  1  0.70780000  0.92764000  0.15960000  1.0 -0.1570488817
C  C75  1  0.70780000  0.57236000  0.15960000  1.0 -0.1570488817
C  C76  1  0.29220000  0.07236000  0.84040000  1.0 -0.1570488817
C  C77  1  0.42000000  0.75000000  0.60690000  1.0 -0.081003583
C  C78  1  0.58000000  0.25000000  0.39310000  1.0 -0.081003583
C  C79  1  0.47050000  0.32301000  0.73230000  1.0 -0.5177958689
C  C80  1  0.52950000  0.82301000  0.26770000  1.0 -0.5177958689
C  C81  1  0.52950000  0.67699000  0.26770000  1.0 -0.5177958689
C  C82  1  0.47050000  0.17699000  0.73230000  1.0 -0.5177958689
C  C83  1  0.57870000  0.62439000  0.77570000  1.0 0.0579369243
C  C84  1  0.42130000  0.12439000  0.22430000  1.0 0.0579369243
C  C85  1  0.42130000  0.37561000  0.22430000  1.0 0.0579369243
C  C86  1  0.57870000  0.87561000  0.77570000  1.0 0.0579369243
C  C87  1  0.53030000  0.44642000  0.96540000  1.0 -0.5177958689
C  C88  1  0.46970000  0.94642000  0.03460000  1.0 -0.5177958689
C  C89  1  0.46970000  0.55358000  0.03460000  1.0 -0.5177958689
C  C90  1  0.53030000  0.05358000  0.96540000  1.0 -0.5177958689
C  C91  1  0.52030000  0.68713000  0.66900000  1.0 0.1590090685
C  C92  1  0.47970000  0.18713000  0.33100000  1.0 0.1590090685
C  C93  1  0.47970000  0.31287000  0.33100000  1.0 0.1590090685
C  C94  1  0.52030000  0.81287000  0.66900000  1.0 0.1590090685
C  C95  1  0.51130000  0.66069000  0.74600000  1.0 -0.2246267281
C  C96  1  0.48870000  0.16069000  0.25400000  1.0 -0.2254064612
C  C97  1  0.48870000  0.33931000  0.25400000  1.0 -0.2246267281
C  C98  1  0.51130000  0.83931000  0.74600000  1.0 -0.2246267281
C  C99  1  0.27780000  0.35801000  0.88280000  1.0 -0.1901310913
C  C100  1  0.72220000  0.85801000  0.11720000  1.0 -0.1901310913
C  C101  1  0.72220000  0.64199000  0.11720000  1.0 -0.1901310913
C  C102  1  0.27780000  0.14199000  0.88280000  1.0 -0.1901310913
C  C103  1  0.42110000  0.67377000  0.79390000  1.0 0.2007481523
C  C104  1  0.57890000  0.17377000  0.20610000  1.0 0.2007481523
C  C105  1  0.57890000  0.32623000  0.20610000  1.0 0.2007481523
C  C106  1  0.42110000  0.82623000  0.79390000  1.0 0.2007481523
C  C107  1  0.60550000  0.68860000  0.59090000  1.0 -0.4943313978
C  C108  1  0.39450000  0.18860000  0.40910000  1.0 -0.4943313978
C  C109  1  0.39450000  0.31140000  0.40910000  1.0 -0.4943313978
C  C110  1  0.60550000  0.81140000  0.59090000  1.0 -0.4943313978
C  C111  1  0.69330000  0.34010000  0.53190000  1.0 -0.542622187
C  C112  1  0.30670000  0.84010000  0.46810000  1.0 -0.542622187
C  C113  1  0.30670000  0.65990000  0.46810000  1.0 -0.542622187
C  C114  1  0.69330000  0.15990000  0.53190000  1.0 -0.542622187
C  C115  1  0.37550000  0.65540000  0.88720000  1.0 -0.503552296
C  C116  1  0.62450000  0.15540000  0.11280000  1.0 -0.503552296
C  C117  1  0.62450000  0.34460000  0.11280000  1.0 -0.503552296
C  C118  1  0.37550000  0.84460000  0.88720000  1.0 -0.503552296
C  C119  1  0.91290000  0.43230000  0.41920000  1.0 -0.1120061554
C  C120  1  0.08710000  0.93230000  0.58080000  1.0 -0.1120061554
C  C121  1  0.08710000  0.56770000  0.58080000  1.0 -0.1120061554
C  C122  1  0.91290000  0.06770000  0.41920000  1.0 -0.1120061554
C  C123  1  0.92180000  0.44290000  0.31800000  1.0 -0.0491173207
C  C124  1  0.07820000  0.94290000  0.68200000  1.0 -0.0491173207
C  C125  1  0.07820000  0.55710000  0.68200000  1.0 -0.0491173207
C  C126  1  0.92180000  0.05710000  0.31800000  1.0 -0.0491173207
C  C127  1  0.73970000  0.42210000  0.27240000  1.0 -0.0423829884
C  C128  1  0.26030000  0.92210000  0.72760000  1.0 -0.0423829884
C  C129  1  0.26030000  0.57790000  0.72760000  1.0 -0.0423829884
C  C130  1  0.73970000  0.07790000  0.27240000  1.0 -0.0491173207
C  C131  1  0.72650000  0.41390000  0.36940000  1.0 -0.081003583
C  C132  1  0.27350000  0.91390000  0.63060000  1.0 -0.081003583
C  C133  1  0.27350000  0.58610000  0.63060000  1.0 -0.081003583
C  C134  1  0.72650000  0.08610000  0.36940000  1.0 -0.081003583
C  C135  1  0.14870000  0.71280000  0.80600000  1.0 0.0579369243
C  C136  1  0.85130000  0.21280000  0.19400000  1.0 0.0579369243
C  C137  1  0.85130000  0.28720000  0.19400000  1.0 0.0579369243
C  C138  1  0.14870000  0.78720000  0.80600000  1.0 0.0579369243
C  C139  1  0.15820000  0.75000000  0.61400000  1.0 0.070095218
C  C140  1  0.84180000  0.25000000  0.38600000  1.0 0.070095218
C  C141  1  0.32300000  0.75000000  0.04800000  1.0 0.070095218
C  C142  1  0.67700000  0.25000000  0.95200000  1.0 0.0579369243
C  C143  1  0.24400000  0.75000000  0.13600000  1.0 -0.434497454
C  C144  1  0.75600000  0.25000000  0.86400000  1.0 -0.434497454
C  C145  1  0.57720000  0.59300000  0.71440000  1.0 -0.081003583
C  C146  1  0.42280000  0.09300000  0.28560000  1.0 -0.081003583
C  C147  1  0.42280000  0.40700000  0.28560000  1.0 -0.081003583
C  C148  1  0.57720000  0.90700000  0.71440000  1.0 -0.081003583
C  C149  1  0.64890000  0.55920000  0.73630000  1.0 -0.0607115736
C  C150  1  0.35110000  0.05920000  0.26370000  1.0 -0.0607115736
C  C151  1  0.35110000  0.44080000  0.26370000  1.0 -0.0607115736
C  C152  1  0.64890000  0.94080000  0.73630000  1.0 -0.0607115736
C  C153  1  0.70960000  0.59130000  0.89480000  1.0 -0.0303734251
C  C154  1  0.29040000  0.09130000  0.10520000  1.0 -0.0303734251
C  C155  1  0.29040000  0.40870000  0.10520000  1.0 -0.0303734251
C  C156  1  0.70960000  0.90870000  0.89480000  1.0 -0.0303734251
C  C157  1  0.63820000  0.62390000  0.87350000  1.0 -0.081003583
C  C158  1  0.36180000  0.12390000  0.12650000  1.0 -0.081003583
C  C159  1  0.36180000  0.37610000  0.12650000  1.0 -0.081003583
C  C160  1  0.63820000  0.87610000  0.87350000  1.0 -0.081003583
C  C161  1  0.53830000  0.58450000  0.76180000  1.0 -0.0738347254
C  C162  1  0.46170000  0.08450000  0.23820000  1.0 -0.0738347254
C  C163  1  0.46170000  0.41550000  0.23820000  1.0 -0.0738347254
C  C164  1  0.53830000  0.91550000  0.76180000  1.0 -0.0738347254
C  C165  1  0.60170000  0.55120000  0.78800000  1.0 -0.0607115736
C  C166  1  0.39830000  0.05120000  0.21200000  1.0 -0.0607115736
C  C167  1  0.39830000  0.44880000  0.21200000  1.0 -0.0607115736
C  C168  1  0.60170000  0.94880000  0.78800000  1.0 -0.0607115736
C  C169  1  0.75210000  0.59450000  0.83820000  1.0 -0.081003583
C  C170  1  0.24790000  0.09450000  0.16180000  1.0 -0.081003583
C  C171  1  0.24790000  0.40550000  0.16180000  1.0 -0.081003583
C  C172  1  0.75210000  0.90550000  0.83820000  1.0 -0.081003583
C  C173  1  0.68790000  0.62760000  0.81330000  1.0 -0.0423829884
C  C174  1  0.31210000  0.12760000  0.18670000  1.0 -0.0423829884
C  C175  1  0.31210000  0.37240000  0.18670000  1.0 -0.0423829884
C  C176  1  0.68790000  0.87240000  0.81330000  1.0 -0.0423829884
C  C177  1  0.83290000  0.40140000  0.27210000  1.0 -0.0423829884
C  C178  1  0.16710000  0.90140000  0.72790000  1.0 -0.0423829884
C  C179  1  0.16710000  0.59860000  0.72790000  1.0 -0.0423829884
C  C180  1  0.83290000  0.09860000  0.27210000  1.0 -0.0423829884
C  C181  1  0.79640000  0.46060000  0.40910000  1.0 -0.0916091825
C  C182  1  0.20360000  0.96060000  0.59090000  1.0 -0.0916091825
C  C183  1  0.20360000  0.53940000  0.59090000  1.0 -0.0916091825
C  C184  1  0.79640000  0.03940000  0.40910000  1.0 -0.0916091825
C  C185  1  0.80980000  0.46870000  0.30580000  1.0 -0.081003583
C  C186  1  0.19020000  0.96870000  0.69420000  1.0 -0.081003583
C  C187  1  0.19020000  0.53130000  0.69420000  1.0 -0.081003583
C  C188  1  0.80980000  0.03130000  0.30580000  1.0 -0.081003583
C  C189  1  0.81010000  0.39380000  0.37130000  1.0 -0.0303734251
C  C190  1  0.18990000  0.89380000  0.62870000  1.0 -0.0303734251
C  C191  1  0.18990000  0.60620000  0.62870000  1.0 -0.0303734251
C  C192  1  0.81010000  0.10620000  0.37130000  1.0 -0.0303734251
Br  Br1  1  0.69370000  0.25000000  0.67390000  1.0 -0.3875373683
Br  Br2  1  0.30630000  0.75000000  0.32610000  1.0 -0.3875373683
N  N1  1  0.61970000  0.36663000  0.81380000  1.0 0.070095218
N  N2  1  0.38030000  0.86663000  0.18620000  1.0 0.070095218
N  N3  1  0.38030000  0.63337000  0.18620000  1.0 0.070095218
N  N4  1  0.61970000  0.13337000  0.81380000  1.0 0.070095218
N  N5  1  0.80350000  0.41096000  0.73000000  1.0 -0.2939126474
N  N6  1  0.19650000  0.91096000  0.27000000  1.0 -0.295230069
N  N7  1  0.19650000  0.58904000  0.27000000  1.0 -0.295230069
N  N8  1  0.80350000  0.08904000  0.73000000  1.0 -0.2939126474
N  N9  1  0.63900000  0.39913000  0.87710000  1.0 -0.2939126474
N  N10  1  0.36100000  0.89913000  0.12290000  1.0 -0.2939126474
N  N11  1  0.36100000  0.60087000  0.12290000  1.0 -0.2939126474
N  N12  1  0.63900000  0.10087000  0.87710000  1.0 -0.2939126474
N  N13  1  0.75240000  0.37654000  0.69570000  1.0 0.070095218
N  N14  1  0.24760000  0.87654000  0.30430000  1.0 0.070095218
N  N15  1  0.24760000  0.62346000  0.30430000  1.0 0.070095218
N  N16  1  0.75240000  0.12346000  0.69570000  1.0 0.070095218
N  N17  1  0.44400000  0.71417000  0.66890000  1.0 0.0518745829
N  N18  1  0.55600000  0.21417000  0.33110000  1.0 0.0518745829
N  N19  1  0.55600000  0.28583000  0.33110000  1.0 0.0518745829
N  N20  1  0.44400000  0.78583000  0.66890000  1.0 0.0518745829
N  N21  1  0.37870000  0.70689000  0.74900000  1.0 -0.2020054839
N  N22  1  0.62130000  0.20689000  0.25100000  1.0 -0.2020054839
N  N23  1  0.62130000  0.29311000  0.25100000  1.0 -0.2020054839
N  N24  1  0.37870000  0.79311000  0.74900000  1.0 -0.2020054839
N  N25  1  0.34270000  0.75000000  0.95850000  1.0 -0.4406070194
N  N26  1  0.65730000  0.25000000  0.04150000  1.0 -0.4406070194
O  O1  1  0.94260000  0.37983000  0.91440000  1.0 -0.5538007997
O  O2  1  0.05740000  0.87983000  0.08560000  1.0 -0.5538007997
O  O3  1  0.05740000  0.62017000  0.08560000  1.0 -0.5538007997
O  O4  1  0.94260000  0.12017000  0.91440000  1.0 -0.5538007997
O  O5  1  0.97020000  0.44530000  0.90180000  1.0 -0.6029367528
O  O6  1  0.02980000  0.94530000  0.09820000  1.0 -0.6029367528
O  O7  1  0.02980000  0.55470000  0.09820000  1.0 -0.6029367528
O  O8  1  0.97020000  0.05470000  0.90180000  1.0 -0.6029367528
O  O9  1  0.79150000  0.42879000  0.06020000  1.0 -0.512382061
O  O10  1  0.20850000  0.92879000  0.93980000  1.0 -0.512382061
O  O11  1  0.20850000  0.57121000  0.93980000  1.0 -0.512382061
O  O12  1  0.79150000  0.07121000  0.06020000  1.0 -0.512382061
O  O13  1  0.73170000  0.48671000  0.85250000  1.0 -0.503552296
O  O14  1  0.26830000  0.98671000  0.14750000  1.0 -0.503552296
O  O15  1  0.26830000  0.51329000  0.14750000  1.0 -0.503552296
O  O16  1  0.73170000  0.01329000  0.85250000  1.0 -0.503552296
O  O17  1  0.91430000  0.47313000  0.11530000  1.0 -0.512382061
O  O18  1  0.08570000  0.97313000  0.88470000  1.0 -0.512382061
O  O19  1  0.08570000  0.52687000  0.88470000  1.0 -0.512382061
O  O20  1  0.91430000  0.02687000  0.11530000  1.0 -0.512382061
O  O21  1  0.86230000  0.52643000  0.92080000  1.0 -0.531109967
O  O22  1  0.13770000  0.02643000  0.07920000  1.0 -0.531109967
O  O23  1  0.13770000  0.47357000  0.07920000  1.0 -0.531109967
O  O24  1  0.86230000  0.97357000  0.92080000  1.0 -0.531109967
O  O25  1  0.09090000  0.68600000  0.82820000  1.0 -0.2367498211
O  O26  1  0.90910000  0.18600000  0.17180000  1.0 -0.2367498211
O  O27  1  0.90910000  0.31400000  0.17180000  1.0 -0.2367498211
O  O28  1  0.09090000  0.81400000  0.82820000  1.0 -0.2367498211
O  O29  1  0.13900000  0.75000000  0.58100000  1.0 -0.1120061554
O  O30  1  0.86100000  0.25000000  0.41900000  1.0 -0.1120061554
