# DDEC6 charges by PACMAN v1.1 (https://github.com/mtap-research/PACMAN-charge/)
data_CIRSII_ASR_pacman
_symmetry_space_group_name_H-M   'P 1'
_cell_length_a   12.26410000
_cell_length_b   26.88200000
_cell_length_c   26.88500000
_cell_angle_alpha   76.26000000
_cell_angle_beta   77.29200000
_cell_angle_gamma   78.98500000
_symmetry_Int_Tables_number   1
_chemical_formula_structural   Cu2SiP4H22(C13O6)2
_chemical_formula_sum   'Cu16 Si8 P32 H176 C208 O96'
_cell_volume   8308.37648073
_cell_formula_units_Z   8
loop_
 _symmetry_equiv_pos_site_id
 _symmetry_equiv_pos_as_xyz
  1  'x, y, z'
loop_
 _atom_site_type_symbol
 _atom_site_label
 _atom_site_symmetry_multiplicity
 _atom_site_fract_x
 _atom_site_fract_y
 _atom_site_fract_z
 _atom_site_occupancy
 _atom_site_charge
Cu  Cu1  1  0.27180000  0.79305000  0.42223000  1.0 1.0545238672
Cu  Cu2  1  0.25013000  0.68001000  0.40658000  1.0 1.0883751927
Cu  Cu3  1  0.59539000  0.67139000  0.31460000  1.0 1.1393040834
Cu  Cu4  1  0.56361000  0.79684000  0.31095000  1.0 0.9826838492
Cu  Cu5  1  0.79123000  0.69684000  0.92186000  1.0 1.0732213674
Cu  Cu6  1  0.74718000  0.81498000  0.93023000  1.0 1.1232680498
Cu  Cu7  1  0.08919000  0.82480000  0.83513000  1.0 1.0554557262
Cu  Cu8  1  0.07901000  0.71573000  0.81073000  1.0 0.896195036
Cu  Cu9  1  0.72820000  0.20695000  0.57777000  1.0 1.0554557262
Cu  Cu10  1  0.74987000  0.31999000  0.59342000  1.0 1.0883751927
Cu  Cu11  1  0.40461000  0.32861000  0.68540000  1.0 1.1393040834
Cu  Cu12  1  0.43639000  0.20316000  0.68905000  1.0 0.9826838492
Cu  Cu13  1  0.20877000  0.30316000  0.07814000  1.0 1.0732213674
Cu  Cu14  1  0.25282000  0.18502000  0.06977000  1.0 1.1232680498
Cu  Cu15  1  0.91081000  0.17520000  0.16487000  1.0 1.0554557262
Cu  Cu16  1  0.92099000  0.28427000  0.18927000  1.0 0.891859871
Si  Si1  1  0.70430000  0.86709000  0.59415000  1.0 0.6067136346
Si  Si2  1  0.19550000  0.61768000  0.14214000  1.0 0.6388963877
Si  Si3  1  0.14550000  0.86333000  0.09288000  1.0 0.5129859267
Si  Si4  1  0.64450000  0.64003000  0.64127000  1.0 0.5508106171
Si  Si5  1  0.29570000  0.13291000  0.40585000  1.0 0.6043932258
Si  Si6  1  0.80450000  0.38232000  0.85786000  1.0 0.6388963877
Si  Si7  1  0.85450000  0.13667000  0.90712000  1.0 0.5174571691
Si  Si8  1  0.35550000  0.35997000  0.35873000  1.0 0.5508106171
P  P1  1  0.84300000  0.78254000  0.82313000  1.0 1.2873645841
P  P2  1  0.17640000  0.84026000  0.62710000  1.0 1.2071133473
P  P3  1  0.01400000  0.74655000  0.41763000  1.0 1.2603639184
P  P4  1  0.85160000  0.09681000  0.55203000  1.0 1.2393060147
P  P5  1  0.29120000  0.37646000  0.12839000  1.0 1.2718603431
P  P6  1  0.63060000  0.68913000  0.19119000  1.0 1.2603639184
P  P7  1  0.81980000  0.71403000  0.31932000  1.0 1.2466541944
P  P8  1  0.02140000  0.73176000  0.92431000  1.0 1.2873645841
P  P9  1  0.70190000  0.78920000  0.05391000  1.0 1.2393060147
P  P10  1  0.53410000  0.76921000  0.91848000  1.0 1.2718603431
P  P11  1  0.32600000  0.76686000  0.31135000  1.0 1.2950526892
P  P12  1  0.06730000  0.10938000  0.08865000  1.0 1.1854454099
P  P13  1  0.60500000  0.39717000  0.66293000  1.0 1.2603639184
P  P14  1  0.17090000  0.66730000  0.61239000  1.0 1.2071133473
P  P15  1  0.49790000  0.72061000  0.41407000  1.0 1.2814438163
P  P16  1  0.32370000  0.75592000  0.81939000  1.0 1.2286199747
P  P17  1  0.15700000  0.21746000  0.17687000  1.0 1.2873645841
P  P18  1  0.82360000  0.15974000  0.37290000  1.0 1.2040893255
P  P19  1  0.98600000  0.25345000  0.58237000  1.0 1.2603639184
P  P20  1  0.14840000  0.90319000  0.44797000  1.0 1.2393060147
P  P21  1  0.70880000  0.62354000  0.87161000  1.0 1.2718603431
P  P22  1  0.36940000  0.31087000  0.80881000  1.0 1.2603639184
P  P23  1  0.18020000  0.28597000  0.68068000  1.0 1.2466541944
P  P24  1  0.97860000  0.26824000  0.07569000  1.0 1.2873645841
P  P25  1  0.29810000  0.21080000  0.94609000  1.0 1.2393060147
P  P26  1  0.46590000  0.23079000  0.08152000  1.0 1.2718603431
P  P27  1  0.67400000  0.23314000  0.68865000  1.0 1.2950526892
P  P28  1  0.93270000  0.89062000  0.91135000  1.0 1.1854454099
P  P29  1  0.39500000  0.60283000  0.33707000  1.0 1.2603639184
P  P30  1  0.82910000  0.33270000  0.38761000  1.0 1.2071133473
P  P31  1  0.50210000  0.27939000  0.58593000  1.0 1.2814438163
P  P32  1  0.67630000  0.24408000  0.18061000  1.0 1.2286199747
H  H1  1  0.05100000  0.89920000  0.61620000  1.0 0.3880277096
H  H2  1  0.17150000  0.76800000  0.62390000  1.0 0.3700180246
H  H3  1  0.02410000  0.80730000  0.35970000  1.0 0.37897287
H  H4  1  0.82960000  0.13400000  0.48410000  1.0 0.3515914126
H  H5  1  0.24140000  0.35850000  0.20670000  1.0 0.3515914126
H  H6  1  0.73740000  0.64200000  0.14880000  1.0 0.3624843551
H  H7  1  0.88150000  0.68680000  0.38360000  1.0 0.3624843551
H  H8  1  0.90590000  0.76470000  0.32840000  1.0 0.3515914126
H  H9  1  0.58740000  0.78350000  0.11910000  1.0 0.3700180246
H  H10  1  0.73160000  0.71810000  0.08900000  1.0 0.3289892692
H  H11  1  0.50490000  0.69790000  0.94580000  1.0 0.37897287
H  H12  1  0.96210000  0.16670000  0.05210000  1.0 0.3624843551
H  H13  1  0.24860000  0.60930000  0.66070000  1.0 0.37897287
H  H14  1  0.15460000  0.70830000  0.54520000  1.0 0.3289892692
H  H15  1  0.38850000  0.71470000  0.87910000  1.0 0.3515914126
H  H16  1  0.42560000  0.79660000  0.83390000  1.0 0.3624843551
H  H17  1  0.45240000  0.48980000  0.68960000  1.0 0.109737363
H  H18  1  0.77750000  0.45360000  0.65540000  1.0 0.109737363
H  H19  1  0.88090000  0.87140000  0.64750000  1.0 0.109737363
H  H20  1  0.92850000  0.84330000  0.72690000  1.0 0.1437065123
H  H21  1  0.66680000  0.76590000  0.77520000  1.0 0.1290601881
H  H22  1  0.62050000  0.79410000  0.69280000  1.0 0.109737363
H  H23  1  0.48320000  0.90970000  0.64950000  1.0 0.109737363
H  H24  1  0.30600000  0.89440000  0.66610000  1.0 0.1198354398
H  H25  1  0.37850000  0.80630000  0.55930000  1.0 0.1198354398
H  H26  1  0.56810000  0.81650000  0.54680000  1.0 0.109737363
H  H27  1  0.71050000  0.86840000  0.48520000  1.0 0.1198354398
H  H28  1  0.82080000  0.82620000  0.42220000  1.0 0.109737363
H  H29  1  0.01200000  0.74410000  0.52580000  1.0 0.1021478005
H  H30  1  0.89690000  0.78410000  0.58780000  1.0 0.1198354398
H  H31  1  0.84090000  0.93330000  0.51070000  1.0 0.1198354398
H  H32  1  0.89110000  0.01490000  0.49600000  1.0 0.1198354398
H  H33  1  0.70690000  0.03840000  0.63220000  1.0 0.1198354398
H  H34  1  0.63400000  0.95980000  0.63970000  1.0 0.1021478005
H  H35  1  0.29900000  0.55150000  0.07440000  1.0 0.1198354398
H  H36  1  0.30670000  0.46920000  0.06520000  1.0 0.1290601881
H  H37  1  0.17230000  0.43520000  0.21170000  1.0 0.109737363
H  H38  1  0.13910000  0.52170000  0.21660000  1.0 0.1198354398
H  H39  1  0.43670000  0.56750000  0.15160000  1.0 0.1021478005
H  H40  1  0.58140000  0.59380000  0.17680000  1.0 0.109737363
H  H41  1  0.41150000  0.73660000  0.17130000  1.0 0.109737363
H  H42  1  0.26160000  0.71030000  0.15520000  1.0 0.109737363
H  H43  1  0.97650000  0.68090000  0.14990000  1.0 0.109737363
H  H44  1  0.84320000  0.71700000  0.21100000  1.0 0.1290601881
H  H45  1  0.02900000  0.63850000  0.31840000  1.0 0.1198354398
H  H46  1  0.16360000  0.61040000  0.25410000  1.0 0.1198354398
H  H47  1  0.27660000  0.69600000  0.04640000  1.0 0.1021478005
H  H48  1  0.20820000  0.73850000  0.97080000  1.0 0.1198354398
H  H49  1  0.95830000  0.65080000  0.01160000  1.0 0.1198354398
H  H50  1  0.02860000  0.60890000  0.08580000  1.0 0.109737363
H  H51  1  0.07760000  0.76750000  0.09040000  1.0 0.109737363
H  H52  1  0.92260000  0.74200000  0.07150000  1.0 0.1021478005
H  H53  1  0.75500000  0.88320000  0.06720000  1.0 0.1290601881
H  H54  1  0.90310000  0.91240000  0.08030000  1.0 0.0907457738
H  H55  1  0.19590000  0.87990000  0.97850000  1.0 0.109737363
H  H56  1  0.33870000  0.84810000  0.91570000  1.0 0.1198354398
H  H57  1  0.49450000  0.75900000  0.02870000  1.0 0.1198354398
H  H58  1  0.35250000  0.78970000  0.09050000  1.0 0.109737363
H  H59  1  0.32540000  0.87300000  0.14120000  1.0 0.109737363
H  H60  1  0.39220000  0.84020000  0.21760000  1.0 0.1290601881
H  H61  1  0.13510000  0.75690000  0.27040000  1.0 0.1198354398
H  H62  1  0.07360000  0.78930000  0.19080000  1.0 0.109737363
H  H63  1  0.22830000  0.95820000  0.01920000  1.0 0.1021478005
H  H64  1  0.20530000  0.04610000  0.01870000  1.0 0.109737363
H  H65  1  0.96510000  0.01950000  0.14900000  1.0 0.1198354398
H  H66  1  0.00510000  0.93500000  0.14990000  1.0 0.0701782374
H  H67  1  0.77680000  0.68910000  0.69280000  1.0 0.1021478005
H  H68  1  0.96300000  0.69910000  0.68210000  1.0 0.1198354398
H  H69  1  0.04600000  0.61320000  0.57280000  1.0 0.1198354398
H  H70  1  0.85760000  0.60480000  0.58250000  1.0 0.109737363
H  H71  1  0.44880000  0.72370000  0.64570000  1.0 0.109737363
H  H72  1  0.34890000  0.76850000  0.70860000  1.0 0.1198354398
H  H73  1  0.49800000  0.67080000  0.81710000  1.0 0.1290601881
H  H74  1  0.61250000  0.62960000  0.75400000  1.0 0.0907457738
H  H75  1  0.74520000  0.70250000  0.53880000  1.0 0.109737363
H  H76  1  0.68110000  0.73620000  0.46030000  1.0 0.1290601881
H  H77  1  0.39910000  0.67370000  0.51480000  1.0 0.1290601881
H  H78  1  0.45680000  0.64400000  0.59360000  1.0 0.1021478005
H  H79  1  0.79110000  0.53570000  0.65870000  1.0 0.0907457738
H  H80  1  0.46030000  0.57580000  0.66110000  1.0 0.0907457738
H  H81  1  0.63440000  0.48460000  0.58090000  1.0 0.1198354398
H  H82  1  0.62930000  0.45640000  0.73120000  1.0 0.109737363
H  H83  1  0.06060000  0.95270000  0.02790000  1.0 0.0835932313
H  H84  1  0.07200000  0.04260000  0.01260000  1.0 0.0907457738
H  H85  1  0.08760000  0.02710000  0.15060000  1.0 0.109737363
H  H86  1  0.09660000  0.93070000  0.16820000  1.0 0.0835932313
H  H87  1  0.59460000  0.57510000  0.58700000  1.0 0.0907457738
H  H88  1  0.60920000  0.54980000  0.73090000  1.0 0.0907457738
H  H89  1  0.94900000  0.10080000  0.38380000  1.0 0.3880277096
H  H90  1  0.82850000  0.23200000  0.37610000  1.0 0.3700180246
H  H91  1  0.97590000  0.19270000  0.64030000  1.0 0.37897287
H  H92  1  0.17040000  0.86600000  0.51590000  1.0 0.3515914126
H  H93  1  0.75860000  0.64150000  0.79330000  1.0 0.3515914126
H  H94  1  0.26260000  0.35800000  0.85120000  1.0 0.3624843551
H  H95  1  0.11850000  0.31320000  0.61640000  1.0 0.3624843551
H  H96  1  0.09410000  0.23530000  0.67160000  1.0 0.3515914126
H  H97  1  0.41260000  0.21650000  0.88090000  1.0 0.3700180246
H  H98  1  0.26840000  0.28190000  0.91100000  1.0 0.3241991518
H  H99  1  0.49510000  0.30210000  0.05420000  1.0 0.37897287
H  H100  1  0.03790000  0.83330000  0.94790000  1.0 0.3624843551
H  H101  1  0.75140000  0.39070000  0.33930000  1.0 0.37897287
H  H102  1  0.84540000  0.29170000  0.45480000  1.0 0.3289892692
H  H103  1  0.61150000  0.28530000  0.12090000  1.0 0.3515914126
H  H104  1  0.57440000  0.20340000  0.16610000  1.0 0.3624843551
H  H105  1  0.54760000  0.51020000  0.31040000  1.0 0.109737363
H  H106  1  0.22250000  0.54640000  0.34460000  1.0 0.109737363
H  H107  1  0.11910000  0.12860000  0.35250000  1.0 0.109737363
H  H108  1  0.07150000  0.15670000  0.27310000  1.0 0.1437065123
H  H109  1  0.33320000  0.23410000  0.22480000  1.0 0.1290601881
H  H110  1  0.37950000  0.20590000  0.30720000  1.0 0.109737363
H  H111  1  0.51680000  0.09030000  0.35050000  1.0 0.109737363
H  H112  1  0.69400000  0.10560000  0.33390000  1.0 0.1198354398
H  H113  1  0.62150000  0.19370000  0.44070000  1.0 0.1198354398
H  H114  1  0.43190000  0.18350000  0.45320000  1.0 0.109737363
H  H115  1  0.28950000  0.13160000  0.51480000  1.0 0.1198354398
H  H116  1  0.17920000  0.17380000  0.57780000  1.0 0.109737363
H  H117  1  0.98800000  0.25590000  0.47420000  1.0 0.1021478005
H  H118  1  0.10310000  0.21590000  0.41220000  1.0 0.1198354398
H  H119  1  0.15910000  0.06670000  0.48930000  1.0 0.1290601881
H  H120  1  0.10890000  0.98510000  0.50400000  1.0 0.1198354398
H  H121  1  0.29310000  0.96160000  0.36780000  1.0 0.1198354398
H  H122  1  0.36600000  0.04020000  0.36030000  1.0 0.1021478005
H  H123  1  0.70100000  0.44850000  0.92560000  1.0 0.1198354398
H  H124  1  0.69330000  0.53080000  0.93480000  1.0 0.1290601881
H  H125  1  0.82770000  0.56480000  0.78830000  1.0 0.109737363
H  H126  1  0.86090000  0.47830000  0.78340000  1.0 0.1198354398
H  H127  1  0.56330000  0.43250000  0.84840000  1.0 0.1021478005
H  H128  1  0.41860000  0.40620000  0.82320000  1.0 0.109737363
H  H129  1  0.58850000  0.26340000  0.82870000  1.0 0.109737363
H  H130  1  0.73840000  0.28970000  0.84480000  1.0 0.109737363
H  H131  1  0.02350000  0.31910000  0.85010000  1.0 0.109737363
H  H132  1  0.15680000  0.28300000  0.78900000  1.0 0.1290601881
H  H133  1  0.97100000  0.36150000  0.68160000  1.0 0.1198354398
H  H134  1  0.83640000  0.38960000  0.74590000  1.0 0.1198354398
H  H135  1  0.72340000  0.30400000  0.95360000  1.0 0.1021478005
H  H136  1  0.79180000  0.26150000  0.02920000  1.0 0.1198354398
H  H137  1  0.04170000  0.34920000  0.98840000  1.0 0.1198354398
H  H138  1  0.97140000  0.39110000  0.91420000  1.0 0.109737363
H  H139  1  0.92240000  0.23250000  0.90960000  1.0 0.109737363
H  H140  1  0.07740000  0.25800000  0.92850000  1.0 0.1021478005
H  H141  1  0.24500000  0.11680000  0.93280000  1.0 0.1290601881
H  H142  1  0.09690000  0.08760000  0.91970000  1.0 0.0907457738
H  H143  1  0.80410000  0.12010000  0.02150000  1.0 0.109737363
H  H144  1  0.66130000  0.15190000  0.08430000  1.0 0.1198354398
H  H145  1  0.50550000  0.24100000  0.97130000  1.0 0.1198354398
H  H146  1  0.64750000  0.21030000  0.90950000  1.0 0.109737363
H  H147  1  0.67460000  0.12700000  0.85880000  1.0 0.109737363
H  H148  1  0.60780000  0.15980000  0.78240000  1.0 0.1290601881
H  H149  1  0.86490000  0.24310000  0.72960000  1.0 0.1198354398
H  H150  1  0.92640000  0.21070000  0.80920000  1.0 0.109737363
H  H151  1  0.77170000  0.04180000  0.98080000  1.0 0.1021478005
H  H152  1  0.79470000  0.95390000  0.98130000  1.0 0.109737363
H  H153  1  0.03490000  0.98050000  0.85100000  1.0 0.1198354398
H  H154  1  0.99490000  0.06500000  0.85010000  1.0 0.0701782374
H  H155  1  0.22320000  0.31090000  0.30720000  1.0 0.1021478005
H  H156  1  0.03700000  0.30090000  0.31790000  1.0 0.1198354398
H  H157  1  0.95400000  0.38680000  0.42720000  1.0 0.1198354398
H  H158  1  0.14240000  0.39520000  0.41750000  1.0 0.109737363
H  H159  1  0.55120000  0.27630000  0.35430000  1.0 0.109737363
H  H160  1  0.65110000  0.23150000  0.29140000  1.0 0.1198354398
H  H161  1  0.50200000  0.32920000  0.18290000  1.0 0.1290601881
H  H162  1  0.38750000  0.37040000  0.24600000  1.0 0.0907457738
H  H163  1  0.25480000  0.29750000  0.46120000  1.0 0.109737363
H  H164  1  0.31890000  0.26380000  0.53970000  1.0 0.1290601881
H  H165  1  0.60090000  0.32630000  0.48520000  1.0 0.1290601881
H  H166  1  0.54320000  0.35600000  0.40640000  1.0 0.1021478005
H  H167  1  0.20890000  0.46430000  0.34130000  1.0 0.0907457738
H  H168  1  0.53970000  0.42420000  0.33890000  1.0 0.0907457738
H  H169  1  0.36560000  0.51540000  0.41910000  1.0 0.1198354398
H  H170  1  0.37070000  0.54360000  0.26880000  1.0 0.109737363
H  H171  1  0.93940000  0.04730000  0.97210000  1.0 0.0835932313
H  H172  1  0.92800000  0.95740000  0.98740000  1.0 0.0907457738
H  H173  1  0.91240000  0.97290000  0.84940000  1.0 0.109737363
H  H174  1  0.90340000  0.06930000  0.83180000  1.0 0.0907457738
H  H175  1  0.40540000  0.42490000  0.41300000  1.0 0.0907457738
H  H176  1  0.39080000  0.45020000  0.26910000  1.0 0.0907457738
C  C1  1  0.61430000  0.46430000  0.66220000  1.0 -0.1090091461
C  C2  1  0.52100000  0.50110000  0.67370000  1.0 -0.0700084509
C  C3  1  0.71300000  0.47800000  0.65800000  1.0 -0.0700084509
C  C4  1  0.74000000  0.83850000  0.66060000  1.0 -0.1910638476
C  C5  1  0.83530000  0.85070000  0.67310000  1.0 -0.0894635041
C  C6  1  0.86450000  0.83370000  0.72070000  1.0 -0.0700084509
C  C7  1  0.80200000  0.80310000  0.75920000  1.0 -0.1488178453
C  C8  1  0.70980000  0.78760000  0.74940000  1.0 -0.0700084509
C  C9  1  0.68180000  0.80540000  0.69960000  1.0 -0.0894635041
C  C10  1  0.55050000  0.86220000  0.59880000  1.0 -0.1996919116
C  C11  1  0.46450000  0.88710000  0.63240000  1.0 -0.0894635041
C  C12  1  0.35750000  0.87950000  0.64080000  1.0 -0.0803297505
C  C13  1  0.31830000  0.85000000  0.61340000  1.0 -0.210274026
C  C14  1  0.39970000  0.82650000  0.57830000  1.0 -0.0803297505
C  C15  1  0.51510000  0.83260000  0.57080000  1.0 -0.0803297505
C  C16  1  0.79280000  0.83120000  0.54370000  1.0 -0.1818702084
C  C17  1  0.77060000  0.84320000  0.49350000  1.0 -0.0894635041
C  C18  1  0.83760000  0.81760000  0.45550000  1.0 -0.0700084509
C  C19  1  0.92910000  0.77960000  0.46580000  1.0 -0.210274026
C  C20  1  0.95080000  0.76850000  0.51710000  1.0 -0.0700084509
C  C21  1  0.88220000  0.79330000  0.55400000  1.0 -0.0803297505
C  C22  1  0.73700000  0.93690000  0.57850000  1.0 -0.1910638476
C  C23  1  0.81090000  0.95420000  0.53490000  1.0 -0.0700084509
C  C24  1  0.84180000  0.00360000  0.52650000  1.0 -0.0605557425
C  C25  1  0.80270000  0.03610000  0.56150000  1.0 -0.210274026
C  C26  1  0.73050000  0.01910000  0.60630000  1.0 -0.0700084509
C  C27  1  0.69160000  0.96950000  0.61210000  1.0 -0.0894635041
C  C28  1  0.21070000  0.54710000  0.14440000  1.0 -0.1818702084
C  C29  1  0.26570000  0.52840000  0.10260000  1.0 -0.0988413882
C  C30  1  0.27700000  0.47780000  0.09750000  1.0 -0.0700084509
C  C31  1  0.24750000  0.44170000  0.13760000  1.0 -0.210274026
C  C32  1  0.19580000  0.45940000  0.18200000  1.0 -0.1090091461
C  C33  1  0.17620000  0.51180000  0.18560000  1.0 -0.0894635041
C  C34  1  0.32600000  0.63570000  0.15070000  1.0 -0.210274026
C  C35  1  0.42880000  0.60110000  0.15680000  1.0 -0.0700084509
C  C36  1  0.51790000  0.61780000  0.17070000  1.0 -0.0803297505
C  C37  1  0.51590000  0.66810000  0.17570000  1.0 -0.210274026
C  C38  1  0.41640000  0.70240000  0.16860000  1.0 -0.0605557425
C  C39  1  0.32690000  0.68640000  0.15790000  1.0 -0.0803297505
C  C40  1  0.08030000  0.63980000  0.19560000  1.0 -0.1818702084
C  C41  1  0.98740000  0.67260000  0.18430000  1.0 -0.0988413882
C  C42  1  0.90620000  0.69480000  0.22110000  1.0 -0.0497908726
C  C43  1  0.91940000  0.68390000  0.27320000  1.0 -0.2310853513
C  C44  1  0.01780000  0.64900000  0.28410000  1.0 -0.0700084509
C  C45  1  0.09680000  0.63020000  0.24570000  1.0 -0.0803297505
C  C46  1  0.15390000  0.65000000  0.07850000  1.0 -0.2310853513
C  C47  1  0.21110000  0.68760000  0.04040000  1.0 -0.0894635041
C  C48  1  0.17150000  0.71260000  0.99380000  1.0 -0.0803297505
C  C49  1  0.07810000  0.69860000  0.98240000  1.0 -0.1488178453
C  C50  1  0.02220000  0.66010000  0.01820000  1.0 -0.0894635041
C  C51  1  0.06350000  0.63600000  0.06380000  1.0 -0.0894635041
C  C52  1  0.01240000  0.84210000  0.08700000  1.0 -0.1996919116
C  C53  1  0.01400000  0.79170000  0.08490000  1.0 -0.0894635041
C  C54  1  0.91830000  0.77620000  0.07420000  1.0 -0.0700084509
C  C55  1  0.82140000  0.80870000  0.06780000  1.0 -0.1910638476
C  C56  1  0.82080000  0.85990000  0.07100000  1.0 -0.0497908726
C  C57  1  0.90820000  0.87770000  0.07940000  1.0 -0.0988413882
C  C58  1  0.26240000  0.84020000  0.04050000  1.0 -0.1818702084
C  C59  1  0.25630000  0.85580000  0.98880000  1.0 -0.0988413882
C  C60  1  0.34120000  0.83570000  0.95080000  1.0 -0.0605557425
C  C61  1  0.42870000  0.79730000  0.96560000  1.0 -0.2190636875
C  C62  1  0.43370000  0.78250000  0.01820000  1.0 -0.0700084509
C  C63  1  0.35010000  0.80210000  0.05530000  1.0 -0.0894635041
C  C64  1  0.18850000  0.83460000  0.15870000  1.0 -0.210274026
C  C65  1  0.28740000  0.84950000  0.16710000  1.0 -0.0988413882
C  C66  1  0.32790000  0.82980000  0.21280000  1.0 -0.0700084509
C  C67  1  0.27250000  0.79430000  0.25160000  1.0 -0.1625579627
C  C68  1  0.17470000  0.77970000  0.24420000  1.0 -0.0803297505
C  C69  1  0.13680000  0.80020000  0.19630000  1.0 -0.0988413882
C  C70  1  0.12360000  0.93510000  0.08500000  1.0 -0.0894635041
C  C71  1  0.17820000  0.97060000  0.04640000  1.0 -0.0314513262
C  C72  1  0.16410000  0.02410000  0.04500000  1.0 -0.0894635041
C  C73  1  0.08520000  0.04260000  0.08530000  1.0 -0.1090091461
C  C74  1  0.02190000  0.00740000  0.12370000  1.0 -0.0700084509
C  C75  1  0.04460000  0.95720000  0.12300000  1.0 -0.0700084509
C  C76  1  0.79380000  0.64590000  0.63820000  1.0 -0.1996919116
C  C77  1  0.82990000  0.67400000  0.66820000  1.0 -0.0894635041
C  C78  1  0.94270000  0.67970000  0.66200000  1.0 -0.0605557425
C  C79  1  0.02570000  0.65710000  0.62650000  1.0 -0.2310853513
C  C80  1  0.99230000  0.62890000  0.59680000  1.0 -0.0803297505
C  C81  1  0.87770000  0.62380000  0.60300000  1.0 -0.0894635041
C  C82  1  0.54570000  0.67330000  0.69160000  1.0 -0.1910638476
C  C83  1  0.46280000  0.71360000  0.67950000  1.0 -0.0803297505
C  C84  1  0.40000000  0.73900000  0.71780000  1.0 -0.0605557425
C  C85  1  0.41080000  0.72200000  0.77000000  1.0 -0.1910638476
C  C86  1  0.48900000  0.68220000  0.78260000  1.0 -0.0700084509
C  C87  1  0.55770000  0.65730000  0.74460000  1.0 -0.0988413882
C  C88  1  0.60350000  0.66970000  0.57590000  1.0 -0.210274026
C  C89  1  0.67550000  0.69690000  0.53470000  1.0 -0.0894635041
C  C90  1  0.63760000  0.71550000  0.48690000  1.0 -0.0700084509
C  C91  1  0.54020000  0.70460000  0.47740000  1.0 -0.1488178453
C  C92  1  0.46910000  0.67920000  0.51870000  1.0 -0.0700084509
C  C93  1  0.50440000  0.66200000  0.56630000  1.0 -0.0894635041
C  C94  1  0.62910000  0.57040000  0.65460000  1.0 -0.1090091461
C  C95  1  0.72100000  0.52830000  0.65730000  1.0 -0.0605557425
C  C96  1  0.52600000  0.55230000  0.66300000  1.0 -0.0497908726
C  C97  1  0.62400000  0.49620000  0.61180000  1.0 -0.0894635041
C  C98  1  0.62200000  0.48030000  0.70050000  1.0 -0.0193714102
C  C99  1  0.08700000  0.96510000  0.05170000  1.0 -0.0605557425
C  C100  1  0.08000000  0.02140000  0.04470000  1.0 -0.0497908726
C  C101  1  0.09100000  0.01290000  0.12180000  1.0 -0.0193714102
C  C102  1  0.10200000  0.95190000  0.13520000  1.0 -0.0605557425
C  C103  1  0.61400000  0.55080000  0.61580000  1.0 -0.0803297505
C  C104  1  0.61800000  0.53820000  0.70010000  1.0 -0.0605557425
C  C105  1  0.38570000  0.53570000  0.33780000  1.0 -0.1090091461
C  C106  1  0.47900000  0.49890000  0.32630000  1.0 -0.0700084509
C  C107  1  0.28700000  0.52200000  0.34200000  1.0 -0.0700084509
C  C108  1  0.26000000  0.16150000  0.33940000  1.0 -0.1910638476
C  C109  1  0.16470000  0.14930000  0.32690000  1.0 -0.0894635041
C  C110  1  0.13550000  0.16630000  0.27930000  1.0 -0.0700084509
C  C111  1  0.19800000  0.19690000  0.24080000  1.0 -0.1488178453
C  C112  1  0.29020000  0.21240000  0.25060000  1.0 -0.0700084509
C  C113  1  0.31820000  0.19460000  0.30040000  1.0 -0.0894635041
C  C114  1  0.44950000  0.13780000  0.40120000  1.0 -0.1996919116
C  C115  1  0.53550000  0.11290000  0.36760000  1.0 -0.0894635041
C  C116  1  0.64250000  0.12050000  0.35920000  1.0 -0.0803297505
C  C117  1  0.68170000  0.15000000  0.38660000  1.0 -0.210274026
C  C118  1  0.60030000  0.17350000  0.42170000  1.0 -0.0803297505
C  C119  1  0.48490000  0.16740000  0.42920000  1.0 -0.0803297505
C  C120  1  0.20720000  0.16880000  0.45630000  1.0 -0.1818702084
C  C121  1  0.22940000  0.15680000  0.50650000  1.0 -0.0894635041
C  C122  1  0.16240000  0.18240000  0.54450000  1.0 -0.0700084509
C  C123  1  0.07090000  0.22040000  0.53420000  1.0 -0.210274026
C  C124  1  0.04920000  0.23150000  0.48290000  1.0 -0.0700084509
C  C125  1  0.11780000  0.20670000  0.44600000  1.0 -0.0803297505
C  C126  1  0.26300000  0.06310000  0.42150000  1.0 -0.1910638476
C  C127  1  0.18910000  0.04580000  0.46510000  1.0 -0.0700084509
C  C128  1  0.15820000  0.99640000  0.47350000  1.0 -0.0605557425
C  C129  1  0.19730000  0.96390000  0.43850000  1.0 -0.1996919116
C  C130  1  0.26950000  0.98090000  0.39370000  1.0 -0.0700084509
C  C131  1  0.30840000  0.03050000  0.38790000  1.0 -0.0894635041
C  C132  1  0.78930000  0.45290000  0.85560000  1.0 -0.1818702084
C  C133  1  0.73430000  0.47160000  0.89740000  1.0 -0.0988413882
C  C134  1  0.72300000  0.52220000  0.90250000  1.0 -0.0700084509
C  C135  1  0.75250000  0.55830000  0.86240000  1.0 -0.210274026
C  C136  1  0.80420000  0.54060000  0.81800000  1.0 -0.1090091461
C  C137  1  0.82380000  0.48820000  0.81440000  1.0 -0.0894635041
C  C138  1  0.67400000  0.36430000  0.84930000  1.0 -0.210274026
C  C139  1  0.57120000  0.39890000  0.84320000  1.0 -0.0700084509
C  C140  1  0.48210000  0.38220000  0.82930000  1.0 -0.0803297505
C  C141  1  0.48410000  0.33190000  0.82430000  1.0 -0.210274026
C  C142  1  0.58360000  0.29760000  0.83140000  1.0 -0.0605557425
C  C143  1  0.67310000  0.31360000  0.84210000  1.0 -0.0803297505
C  C144  1  0.91970000  0.36020000  0.80440000  1.0 -0.1818702084
C  C145  1  0.01260000  0.32740000  0.81570000  1.0 -0.0988413882
C  C146  1  0.09380000  0.30520000  0.77890000  1.0 -0.0497908726
C  C147  1  0.08060000  0.31610000  0.72680000  1.0 -0.2354385735
C  C148  1  0.98220000  0.35100000  0.71590000  1.0 -0.0700084509
C  C149  1  0.90320000  0.36980000  0.75430000  1.0 -0.0803297505
C  C150  1  0.84610000  0.35000000  0.92150000  1.0 -0.2310853513
C  C151  1  0.78890000  0.31240000  0.95960000  1.0 -0.0894635041
C  C152  1  0.82850000  0.28740000  0.00620000  1.0 -0.0700084509
C  C153  1  0.92190000  0.30140000  0.01760000  1.0 -0.1488178453
C  C154  1  0.97780000  0.33990000  0.98180000  1.0 -0.0894635041
C  C155  1  0.93650000  0.36400000  0.93620000  1.0 -0.0894635041
C  C156  1  0.98760000  0.15790000  0.91300000  1.0 -0.1996919116
C  C157  1  0.98600000  0.20830000  0.91510000  1.0 -0.0894635041
C  C158  1  0.08170000  0.22380000  0.92580000  1.0 -0.0700084509
C  C159  1  0.17860000  0.19130000  0.93220000  1.0 -0.1996919116
C  C160  1  0.17920000  0.14010000  0.92900000  1.0 -0.0497908726
C  C161  1  0.09180000  0.12230000  0.92060000  1.0 -0.0988413882
C  C162  1  0.73760000  0.15980000  0.95950000  1.0 -0.1818702084
C  C163  1  0.74370000  0.14420000  0.01120000  1.0 -0.0988413882
C  C164  1  0.65880000  0.16430000  0.04920000  1.0 -0.0605557425
C  C165  1  0.57130000  0.20270000  0.03440000  1.0 -0.2190636875
C  C166  1  0.56630000  0.21750000  0.98180000  1.0 -0.0700084509
C  C167  1  0.64990000  0.19790000  0.94470000  1.0 -0.0894635041
C  C168  1  0.81150000  0.16540000  0.84130000  1.0 -0.210274026
C  C169  1  0.71260000  0.15050000  0.83290000  1.0 -0.0988413882
C  C170  1  0.67210000  0.17020000  0.78720000  1.0 -0.0700084509
C  C171  1  0.72750000  0.20570000  0.74840000  1.0 -0.1625579627
C  C172  1  0.82530000  0.22030000  0.75580000  1.0 -0.0803297505
C  C173  1  0.86320000  0.19980000  0.80370000  1.0 -0.0988413882
C  C174  1  0.87640000  0.06490000  0.91500000  1.0 -0.0988413882
C  C175  1  0.82180000  0.02940000  0.95360000  1.0 -0.0314513262
C  C176  1  0.83590000  0.97590000  0.95500000  1.0 -0.0894635041
C  C177  1  0.91480000  0.95740000  0.91470000  1.0 -0.1090091461
C  C178  1  0.97810000  0.99260000  0.87630000  1.0 -0.0700084509
C  C179  1  0.95540000  0.04280000  0.87700000  1.0 -0.0700084509
C  C180  1  0.20620000  0.35410000  0.36180000  1.0 -0.1996919116
C  C181  1  0.17010000  0.32600000  0.33180000  1.0 -0.0894635041
C  C182  1  0.05730000  0.32030000  0.33800000  1.0 -0.0605557425
C  C183  1  0.97430000  0.34290000  0.37350000  1.0 -0.2310853513
C  C184  1  0.00770000  0.37110000  0.40320000  1.0 -0.0803297505
C  C185  1  0.12230000  0.37620000  0.39700000  1.0 -0.0894635041
C  C186  1  0.45430000  0.32670000  0.30840000  1.0 -0.1910638476
C  C187  1  0.53720000  0.28640000  0.32050000  1.0 -0.0803297505
C  C188  1  0.60000000  0.26100000  0.28220000  1.0 -0.0605557425
C  C189  1  0.58920000  0.27800000  0.23000000  1.0 -0.1910638476
C  C190  1  0.51100000  0.31780000  0.21740000  1.0 -0.0700084509
C  C191  1  0.44230000  0.34270000  0.25540000  1.0 -0.0988413882
C  C192  1  0.39650000  0.33030000  0.42410000  1.0 -0.210274026
C  C193  1  0.32450000  0.30310000  0.46530000  1.0 -0.0894635041
C  C194  1  0.36240000  0.28450000  0.51310000  1.0 -0.0700084509
C  C195  1  0.45980000  0.29540000  0.52260000  1.0 -0.1488178453
C  C196  1  0.53090000  0.32080000  0.48130000  1.0 -0.0803297505
C  C197  1  0.49560000  0.33800000  0.43370000  1.0 -0.0894635041
C  C198  1  0.37090000  0.42960000  0.34540000  1.0 -0.1090091461
C  C199  1  0.27900000  0.47170000  0.34270000  1.0 -0.0605557425
C  C200  1  0.47400000  0.44770000  0.33700000  1.0 -0.0497908726
C  C201  1  0.37600000  0.50380000  0.38820000  1.0 -0.0894635041
C  C202  1  0.37800000  0.51970000  0.29950000  1.0 -0.0193714102
C  C203  1  0.91300000  0.03490000  0.94830000  1.0 -0.0605557425
C  C204  1  0.92000000  0.97860000  0.95530000  1.0 -0.0497908726
C  C205  1  0.90900000  0.98710000  0.87820000  1.0 -0.0193714102
C  C206  1  0.89800000  0.04810000  0.86480000  1.0 -0.0605557425
C  C207  1  0.38600000  0.44920000  0.38420000  1.0 -0.0894635041
C  C208  1  0.38200000  0.46180000  0.29990000  1.0 -0.0605557425
O  O1  1  0.78370000  0.82340000  0.85480000  1.0 -0.7133983455
O  O2  1  0.80880000  0.72990000  0.84680000  1.0 -0.7498110713
O  O3  1  0.97030000  0.78010000  0.81460000  1.0 -0.8012306275
O  O4  1  0.13410000  0.83210000  0.68450000  1.0 -0.7293606879
O  O5  1  0.10810000  0.88920000  0.59660000  1.0 -0.5799720414
O  O6  1  0.16590000  0.79530000  0.60250000  1.0 -0.6457181157
O  O7  1  0.97330000  0.69260000  0.42390000  1.0 -0.7419133092
O  O8  1  0.99850000  0.78020000  0.36390000  1.0 -0.5799720414
O  O9  1  0.13480000  0.73840000  0.42690000  1.0 -0.8231803479
O  O10  1  0.88540000  0.11810000  0.49610000  1.0 -0.5799720414
O  O11  1  0.95660000  0.08240000  0.57890000  1.0 -0.6996399543
O  O12  1  0.76390000  0.13190000  0.58100000  1.0 -0.7498110713
O  O13  1  0.25410000  0.34110000  0.18430000  1.0 -0.5495719295
O  O14  1  0.42310000  0.36430000  0.10940000  1.0 -0.7419133092
O  O15  1  0.21310000  0.36800000  0.09220000  1.0 -0.7498110713
O  O16  1  0.61060000  0.74730000  0.18340000  1.0 -0.7203962834
O  O17  1  0.65050000  0.65990000  0.24510000  1.0 -0.7419133092
O  O18  1  0.73760000  0.67190000  0.15110000  1.0 -0.5975464524
O  O19  1  0.82970000  0.67980000  0.37300000  1.0 -0.5799720414
O  O20  1  0.84980000  0.76770000  0.31540000  1.0 -0.5799720414
O  O21  1  0.70520000  0.72010000  0.30520000  1.0 -0.783159423
O  O22  1  0.07230000  0.78250000  0.90530000  1.0 -0.7648015799
O  O23  1  0.06190000  0.69410000  0.88660000  1.0 -0.7419133092
O  O24  1  0.89370000  0.74080000  0.93800000  1.0 -0.8231803479
O  O25  1  0.59780000  0.80720000  0.09380000  1.0 -0.5700828017
O  O26  1  0.72100000  0.73190000  0.05950000  1.0 -0.5877210082
O  O27  1  0.67920000  0.81970000  0.00080000  1.0 -0.7203962834
O  O28  1  0.50370000  0.71730000  0.91730000  1.0 -0.5495719295
O  O29  1  0.52860000  0.80440000  0.86510000  1.0 -0.6996399543
O  O30  1  0.65030000  0.76210000  0.93350000  1.0 -0.8231803479
O  O31  1  0.28600000  0.80710000  0.34670000  1.0 -0.7498110713
O  O32  1  0.27380000  0.71590000  0.33470000  1.0 -0.7419133092
O  O33  1  0.45480000  0.75610000  0.29930000  1.0 -0.8135522486
O  O34  1  0.00370000  0.11630000  0.14230000  1.0 -0.6996399543
O  O35  1  0.99510000  0.13910000  0.04500000  1.0 -0.6056001367
O  O36  1  0.18260000  0.12430000  0.07480000  1.0 -0.6796852828
O  O37  1  0.66580000  0.36590000  0.70850000  1.0 -0.6570583166
O  O38  1  0.67190000  0.38530000  0.61260000  1.0 -0.7133983455
O  O39  1  0.48300000  0.38850000  0.67310000  1.0 -0.7203962834
O  O40  1  0.18680000  0.70380000  0.64520000  1.0 -0.7133983455
O  O41  1  0.24300000  0.61300000  0.63010000  1.0 -0.5975464524
O  O42  1  0.20300000  0.68500000  0.55570000  1.0 -0.5700828017
O  O43  1  0.36720000  0.72520000  0.42410000  1.0 -0.8279226007
O  O44  1  0.55020000  0.67530000  0.38770000  1.0 -0.7133983455
O  O45  1  0.53790000  0.77270000  0.38590000  1.0 -0.783159423
O  O46  1  0.20480000  0.77100000  0.80700000  1.0 -0.7686280391
O  O47  1  0.32600000  0.71830000  0.87130000  1.0 -0.5620371085
O  O48  1  0.37250000  0.80450000  0.81820000  1.0 -0.5799720414
O  O49  1  0.21630000  0.17660000  0.14520000  1.0 -0.7203962834
O  O50  1  0.19120000  0.27010000  0.15320000  1.0 -0.7419133092
O  O51  1  0.02970000  0.21990000  0.18540000  1.0 -0.8012306275
O  O52  1  0.86590000  0.16790000  0.31550000  1.0 -0.7293606879
O  O53  1  0.89190000  0.11080000  0.40340000  1.0 -0.5799720414
O  O54  1  0.83410000  0.20470000  0.39750000  1.0 -0.6457181157
O  O55  1  0.02670000  0.30740000  0.57610000  1.0 -0.7419133092
O  O56  1  0.00150000  0.21980000  0.63610000  1.0 -0.5799720414
O  O57  1  0.86520000  0.26160000  0.57310000  1.0 -0.8279226007
O  O58  1  0.11460000  0.88190000  0.50390000  1.0 -0.5799720414
O  O59  1  0.04340000  0.91760000  0.42110000  1.0 -0.6996399543
O  O60  1  0.23610000  0.86810000  0.41900000  1.0 -0.7498110713
O  O61  1  0.74590000  0.65890000  0.81570000  1.0 -0.544294733
O  O62  1  0.57690000  0.63570000  0.89060000  1.0 -0.7419133092
O  O63  1  0.78690000  0.63200000  0.90780000  1.0 -0.7419133092
O  O64  1  0.38940000  0.25270000  0.81660000  1.0 -0.7203962834
O  O65  1  0.34950000  0.34010000  0.75490000  1.0 -0.7419133092
O  O66  1  0.26240000  0.32810000  0.84890000  1.0 -0.5975464524
O  O67  1  0.17030000  0.32020000  0.62700000  1.0 -0.5799720414
O  O68  1  0.15020000  0.23230000  0.68460000  1.0 -0.5877210082
O  O69  1  0.29480000  0.27990000  0.69480000  1.0 -0.783159423
O  O70  1  0.92770000  0.21750000  0.09470000  1.0 -0.7686280391
O  O71  1  0.93810000  0.30590000  0.11340000  1.0 -0.7419133092
O  O72  1  0.10630000  0.25920000  0.06200000  1.0 -0.8231803479
O  O73  1  0.40220000  0.19280000  0.90620000  1.0 -0.5700828017
O  O74  1  0.27900000  0.26810000  0.94050000  1.0 -0.5877210082
O  O75  1  0.32080000  0.18030000  0.99920000  1.0 -0.7203962834
O  O76  1  0.49630000  0.28270000  0.08270000  1.0 -0.5495719295
O  O77  1  0.47140000  0.19560000  0.13490000  1.0 -0.6996399543
O  O78  1  0.34970000  0.23790000  0.06650000  1.0 -0.8231803479
O  O79  1  0.71400000  0.19290000  0.65330000  1.0 -0.7419133092
O  O80  1  0.72620000  0.28410000  0.66530000  1.0 -0.7419133092
O  O81  1  0.54520000  0.24390000  0.70070000  1.0 -0.8135522486
O  O82  1  0.99630000  0.88370000  0.85770000  1.0 -0.6996399543
O  O83  1  0.00490000  0.86090000  0.95500000  1.0 -0.5975464524
O  O84  1  0.81740000  0.87570000  0.92520000  1.0 -0.6796852828
O  O85  1  0.33420000  0.63410000  0.29150000  1.0 -0.6570583166
O  O86  1  0.32810000  0.61470000  0.38740000  1.0 -0.7203962834
O  O87  1  0.51700000  0.61150000  0.32690000  1.0 -0.7203962834
O  O88  1  0.81320000  0.29620000  0.35480000  1.0 -0.7133983455
O  O89  1  0.75700000  0.38700000  0.36990000  1.0 -0.5975464524
O  O90  1  0.79700000  0.31500000  0.44430000  1.0 -0.5620371085
O  O91  1  0.63280000  0.27480000  0.57590000  1.0 -0.8279226007
O  O92  1  0.44980000  0.32470000  0.61230000  1.0 -0.7133983455
O  O93  1  0.46210000  0.22730000  0.61410000  1.0 -0.783159423
O  O94  1  0.79520000  0.22900000  0.19300000  1.0 -0.7686280391
O  O95  1  0.67400000  0.28170000  0.12870000  1.0 -0.5620371085
O  O96  1  0.62750000  0.19550000  0.18180000  1.0 -0.5799720414
