# DDEC6 charges by PACMAN v1.1 (https://github.com/mtap-research/PACMAN-charge/)
data_CISCOA_ASR_pacman
_symmetry_space_group_name_H-M   'P 1'
_cell_length_a   16.39530000
_cell_length_b   20.22330000
_cell_length_c   51.59700000
_cell_angle_alpha   90.00000000
_cell_angle_beta   90.00000000
_cell_angle_gamma   90.00000000
_symmetry_Int_Tables_number   1
_chemical_formula_structural   ZnH16C27O4
_chemical_formula_sum   'Zn8 H128 C216 O32'
_cell_volume   17107.86613607
_cell_formula_units_Z   8
loop_
 _symmetry_equiv_pos_site_id
 _symmetry_equiv_pos_as_xyz
  1  'x, y, z'
loop_
 _atom_site_type_symbol
 _atom_site_label
 _atom_site_symmetry_multiplicity
 _atom_site_fract_x
 _atom_site_fract_y
 _atom_site_fract_z
 _atom_site_occupancy
 _atom_site_charge
Zn  Zn1  1  0.58296000  0.10335000  0.44066000  1.0 0.947685285
Zn  Zn2  1  0.58323000  0.10241000  0.38391000  1.0 0.9238803671
Zn  Zn3  1  0.58296000  0.89665000  0.55934000  1.0 0.947685285
Zn  Zn4  1  0.58323000  0.89759000  0.61609000  1.0 0.9238803671
Zn  Zn5  1  0.41704000  0.60335000  0.05934000  1.0 0.947685285
Zn  Zn6  1  0.41677000  0.60241000  0.11609000  1.0 0.9238803671
Zn  Zn7  1  0.41704000  0.39665000  0.94066000  1.0 0.947685285
Zn  Zn8  1  0.41677000  0.39759000  0.88391000  1.0 0.9238803671
H  H1  1  0.74913000  0.94275000  0.37479000  1.0 0.129224258
H  H2  1  0.83373000  0.84956000  0.37489000  1.0 0.111698544
H  H3  1  0.86092000  0.86633000  0.45269000  1.0 0.111698544
H  H4  1  0.77632000  0.95952000  0.45259000  1.0 0.129224258
H  H5  1  0.42029000  0.94158000  0.37254000  1.0 0.129224258
H  H6  1  0.34210000  0.84478000  0.37234000  1.0 0.111698544
H  H7  1  0.32740000  0.85154000  0.45071000  1.0 0.111698544
H  H8  1  0.40559000  0.94833000  0.45091000  1.0 0.129224258
H  H9  1  0.05801000  0.70913000  0.43851000  1.0 0.111698544
H  H10  1  0.97232000  0.80023000  0.44488000  1.0 0.111698544
H  H11  1  0.83880000  0.74617000  0.38226000  1.0 0.111698544
H  H12  1  0.92448000  0.65507000  0.37589000  1.0 0.1192487905
H  H13  1  0.41098000  0.26222000  0.45123000  1.0 0.129224258
H  H14  1  0.32974000  0.35736000  0.45156000  1.0 0.1192487905
H  H15  1  0.30693000  0.34633000  0.37346000  1.0 0.111698544
H  H16  1  0.38817000  0.25120000  0.37313000  1.0 0.129224258
H  H17  1  0.18372000  0.39525000  0.43772000  1.0 0.111698544
H  H18  1  0.11546000  0.49641000  0.44147000  1.0 0.1192487905
H  H19  1  0.24604000  0.56887000  0.38112000  1.0 0.1192487905
H  H20  1  0.31430000  0.46770000  0.37737000  1.0 0.111698544
H  H21  1  0.21140000  0.80020000  0.37873000  1.0 0.111698544
H  H22  1  0.13916000  0.70055000  0.37666000  1.0 0.1192487905
H  H23  1  0.22995000  0.64783000  0.44674000  1.0 0.1192487905
H  H24  1  0.30219000  0.74749000  0.44881000  1.0 0.111698544
H  H25  1  0.91959000  0.56594000  0.43957000  1.0 0.1192487905
H  H26  1  0.04042000  0.50700000  0.37505000  1.0 0.1192487905
H  H27  1  0.96080000  0.41106000  0.37346000  1.0 0.1192487905
H  H28  1  0.83996000  0.47000000  0.43798000  1.0 0.111698544
H  H29  1  0.75230000  0.27050000  0.37327000  1.0 0.129224258
H  H30  1  0.75379000  0.26350000  0.45177000  1.0 0.129224258
H  H31  1  0.83887000  0.35636000  0.45288000  1.0 0.1192487905
H  H32  1  0.83738000  0.36336000  0.37438000  1.0 0.111698544
H  H33  1  0.74913000  0.05725000  0.62521000  1.0 0.129224258
H  H34  1  0.83373000  0.15044000  0.62511000  1.0 0.111698544
H  H35  1  0.86092000  0.13367000  0.54731000  1.0 0.111698544
H  H36  1  0.77632000  0.04048000  0.54741000  1.0 0.129224258
H  H37  1  0.42029000  0.05842000  0.62746000  1.0 0.129224258
H  H38  1  0.34210000  0.15522000  0.62766000  1.0 0.111698544
H  H39  1  0.32740000  0.14846000  0.54929000  1.0 0.111698544
H  H40  1  0.40559000  0.05167000  0.54909000  1.0 0.129224258
H  H41  1  0.05801000  0.29087000  0.56149000  1.0 0.111698544
H  H42  1  0.97232000  0.19977000  0.55512000  1.0 0.111698544
H  H43  1  0.83880000  0.25383000  0.61774000  1.0 0.111698544
H  H44  1  0.92448000  0.34493000  0.62411000  1.0 0.1192487905
H  H45  1  0.41098000  0.73778000  0.54877000  1.0 0.129224258
H  H46  1  0.32974000  0.64264000  0.54844000  1.0 0.1192487905
H  H47  1  0.30693000  0.65367000  0.62654000  1.0 0.111698544
H  H48  1  0.38817000  0.74880000  0.62687000  1.0 0.129224258
H  H49  1  0.18372000  0.60475000  0.56228000  1.0 0.111698544
H  H50  1  0.11546000  0.50359000  0.55853000  1.0 0.1192487905
H  H51  1  0.24604000  0.43113000  0.61888000  1.0 0.1192487905
H  H52  1  0.31430000  0.53230000  0.62263000  1.0 0.111698544
H  H53  1  0.21140000  0.19980000  0.62127000  1.0 0.111698544
H  H54  1  0.13916000  0.29945000  0.62334000  1.0 0.1192487905
H  H55  1  0.22995000  0.35217000  0.55326000  1.0 0.1192487905
H  H56  1  0.30219000  0.25251000  0.55119000  1.0 0.111698544
H  H57  1  0.91959000  0.43406000  0.56043000  1.0 0.1192487905
H  H58  1  0.04042000  0.49300000  0.62495000  1.0 0.1192487905
H  H59  1  0.96080000  0.58894000  0.62654000  1.0 0.1192487905
H  H60  1  0.83996000  0.53000000  0.56202000  1.0 0.111698544
H  H61  1  0.75230000  0.72950000  0.62673000  1.0 0.129224258
H  H62  1  0.75379000  0.73650000  0.54823000  1.0 0.129224258
H  H63  1  0.83887000  0.64364000  0.54712000  1.0 0.1192487905
H  H64  1  0.83738000  0.63664000  0.62562000  1.0 0.111698544
H  H65  1  0.25087000  0.44275000  0.12521000  1.0 0.129224258
H  H66  1  0.16627000  0.34956000  0.12511000  1.0 0.111698544
H  H67  1  0.13908000  0.36633000  0.04731000  1.0 0.111698544
H  H68  1  0.22368000  0.45952000  0.04741000  1.0 0.129224258
H  H69  1  0.57971000  0.44158000  0.12746000  1.0 0.129224258
H  H70  1  0.65790000  0.34478000  0.12766000  1.0 0.111698544
H  H71  1  0.67260000  0.35154000  0.04929000  1.0 0.111698544
H  H72  1  0.59441000  0.44833000  0.04909000  1.0 0.129224258
H  H73  1  0.94199000  0.20913000  0.06149000  1.0 0.111698544
H  H74  1  0.02768000  0.30023000  0.05512000  1.0 0.111698544
H  H75  1  0.16120000  0.24617000  0.11774000  1.0 0.111698544
H  H76  1  0.07552000  0.15507000  0.12411000  1.0 0.1192487905
H  H77  1  0.58902000  0.76222000  0.04877000  1.0 0.129224258
H  H78  1  0.67026000  0.85736000  0.04844000  1.0 0.1192487905
H  H79  1  0.69307000  0.84633000  0.12654000  1.0 0.111698544
H  H80  1  0.61183000  0.75120000  0.12687000  1.0 0.129224258
H  H81  1  0.81628000  0.89525000  0.06228000  1.0 0.111698544
H  H82  1  0.88454000  0.99641000  0.05853000  1.0 0.1192487905
H  H83  1  0.75396000  0.06887000  0.11888000  1.0 0.1192487905
H  H84  1  0.68570000  0.96770000  0.12263000  1.0 0.111698544
H  H85  1  0.78860000  0.30020000  0.12127000  1.0 0.111698544
H  H86  1  0.86084000  0.20055000  0.12334000  1.0 0.1192487905
H  H87  1  0.77005000  0.14783000  0.05326000  1.0 0.1192487905
H  H88  1  0.69781000  0.24749000  0.05119000  1.0 0.111698544
H  H89  1  0.08041000  0.06594000  0.06043000  1.0 0.1192487905
H  H90  1  0.95958000  0.00700000  0.12495000  1.0 0.1192487905
H  H91  1  0.03920000  0.91106000  0.12654000  1.0 0.1192487905
H  H92  1  0.16004000  0.97000000  0.06202000  1.0 0.111698544
H  H93  1  0.24770000  0.77050000  0.12673000  1.0 0.129224258
H  H94  1  0.24621000  0.76350000  0.04823000  1.0 0.129224258
H  H95  1  0.16113000  0.85636000  0.04712000  1.0 0.1192487905
H  H96  1  0.16262000  0.86336000  0.12562000  1.0 0.111698544
H  H97  1  0.25087000  0.55725000  0.87479000  1.0 0.129224258
H  H98  1  0.16627000  0.65044000  0.87489000  1.0 0.111698544
H  H99  1  0.13908000  0.63367000  0.95269000  1.0 0.111698544
H  H100  1  0.22368000  0.54048000  0.95259000  1.0 0.129224258
H  H101  1  0.57971000  0.55842000  0.87254000  1.0 0.129224258
H  H102  1  0.65790000  0.65522000  0.87234000  1.0 0.111698544
H  H103  1  0.67260000  0.64846000  0.95071000  1.0 0.111698544
H  H104  1  0.59441000  0.55167000  0.95091000  1.0 0.129224258
H  H105  1  0.94199000  0.79087000  0.93851000  1.0 0.111698544
H  H106  1  0.02768000  0.69977000  0.94488000  1.0 0.111698544
H  H107  1  0.16120000  0.75383000  0.88226000  1.0 0.111698544
H  H108  1  0.07552000  0.84493000  0.87589000  1.0 0.1192487905
H  H109  1  0.58902000  0.23778000  0.95123000  1.0 0.129224258
H  H110  1  0.67026000  0.14264000  0.95156000  1.0 0.1192487905
H  H111  1  0.69307000  0.15367000  0.87346000  1.0 0.111698544
H  H112  1  0.61183000  0.24880000  0.87313000  1.0 0.129224258
H  H113  1  0.81628000  0.10475000  0.93772000  1.0 0.111698544
H  H114  1  0.88454000  0.00359000  0.94147000  1.0 0.1192487905
H  H115  1  0.75396000  0.93113000  0.88112000  1.0 0.1192487905
H  H116  1  0.68570000  0.03230000  0.87737000  1.0 0.111698544
H  H117  1  0.78860000  0.69980000  0.87873000  1.0 0.111698544
H  H118  1  0.86084000  0.79945000  0.87666000  1.0 0.1192487905
H  H119  1  0.77005000  0.85217000  0.94674000  1.0 0.1192487905
H  H120  1  0.69781000  0.75251000  0.94881000  1.0 0.111698544
H  H121  1  0.08041000  0.93406000  0.93957000  1.0 0.1192487905
H  H122  1  0.95958000  0.99300000  0.87505000  1.0 0.1192487905
H  H123  1  0.03920000  0.08894000  0.87346000  1.0 0.1192487905
H  H124  1  0.16004000  0.03000000  0.93798000  1.0 0.111698544
H  H125  1  0.24770000  0.22950000  0.87327000  1.0 0.129224258
H  H126  1  0.24621000  0.23650000  0.95177000  1.0 0.129224258
H  H127  1  0.16113000  0.14364000  0.95288000  1.0 0.1192487905
H  H128  1  0.16262000  0.13664000  0.87438000  1.0 0.111698544
C  C1  1  0.75480000  0.95990000  0.41370000  1.0 -0.020832443
C  C2  1  0.77180000  0.92720000  0.39060000  1.0 -0.091980039
C  C3  1  0.82210000  0.87190000  0.39066000  1.0 -0.1593815617
C  C4  1  0.85530000  0.84920000  0.41380000  1.0 0.0764731005
C  C5  1  0.83820000  0.88180000  0.43687000  1.0 -0.1506146111
C  C6  1  0.78800000  0.93720000  0.43681000  1.0 -0.101953031
C  C7  1  0.40140000  0.92330000  0.38840000  1.0 -0.1134895827
C  C8  1  0.35500000  0.86580000  0.38830000  1.0 -0.1593815617
C  C9  1  0.32740000  0.83910000  0.41150000  1.0 0.0764731005
C  C10  1  0.34630000  0.86980000  0.43480000  1.0 -0.1593815617
C  C11  1  0.39270000  0.92730000  0.43500000  1.0 -0.091980039
C  C12  1  0.42030000  0.95410000  0.41170000  1.0 -0.020832443
C  C13  1  0.69760000  0.02170000  0.41280000  1.0 0.588479125
C  C14  1  0.46910000  0.19460000  0.41160000  1.0 0.588479125
C  C15  1  0.12510000  0.60450000  0.41440000  1.0 -0.020832443
C  C16  1  0.03770000  0.60690000  0.40930000  1.0 -0.0097220131
C  C17  1  0.99930000  0.67350000  0.40660000  1.0 0.070268989
C  C18  1  0.01350000  0.71660000  0.42710000  1.0 -0.1593815617
C  C19  1  0.96260000  0.77080000  0.43088000  1.0 -0.1506146111
C  C20  1  0.89750000  0.78180000  0.41420000  1.0 0.070268989
C  C21  1  0.88330000  0.73870000  0.39368000  1.0 -0.1506146111
C  C22  1  0.93420000  0.68450000  0.38990000  1.0 -0.1593815617
C  C23  1  0.38990000  0.27930000  0.43540000  1.0 -0.0800831705
C  C24  1  0.34160000  0.33580000  0.43560000  1.0 -0.1676766514
C  C25  1  0.31070000  0.36080000  0.41250000  1.0 0.0764731005
C  C26  1  0.32810000  0.32930000  0.38920000  1.0 -0.1593815617
C  C27  1  0.37630000  0.27270000  0.38910000  1.0 -0.0800831705
C  C28  1  0.40720000  0.24780000  0.41210000  1.0 -0.0567329391
C  C29  1  0.25540000  0.42200000  0.40720000  1.0 0.070268989
C  C30  1  0.19640000  0.43050000  0.42623000  1.0 -0.1506146111
C  C31  1  0.15580000  0.49060000  0.42846000  1.0 -0.1593815617
C  C32  1  0.17430000  0.54220000  0.41160000  1.0 0.070268989
C  C33  1  0.23340000  0.53360000  0.39261000  1.0 -0.1676766514
C  C34  1  0.27390000  0.47350000  0.39038000  1.0 -0.1593815617
C  C35  1  0.26360000  0.78320000  0.41400000  1.0 0.070268989
C  C36  1  0.21520000  0.76930000  0.39254000  1.0 -0.1506146111
C  C37  1  0.17230000  0.71010000  0.39131000  1.0 -0.1593815617
C  C38  1  0.17780000  0.66480000  0.41151000  1.0 0.070268989
C  C39  1  0.22620000  0.67880000  0.43294000  1.0 -0.1593815617
C  C40  1  0.26910000  0.73800000  0.43416000  1.0 -0.1506146111
C  C41  1  0.92800000  0.53450000  0.42615000  1.0 -0.1593815617
C  C42  1  0.98750000  0.54550000  0.40746000  1.0 0.070268989
C  C43  1  0.99970000  0.49950000  0.38782000  1.0 -0.1676766514
C  C44  1  0.95240000  0.44250000  0.38688000  1.0 -0.1593815617
C  C45  1  0.89290000  0.43150000  0.40560000  1.0 0.070268989
C  C46  1  0.88070000  0.47750000  0.42520000  1.0 -0.1437386289
C  C47  1  0.76990000  0.28790000  0.38940000  1.0 -0.091980039
C  C48  1  0.74500000  0.25830000  0.41240000  1.0 -0.0440445966
C  C49  1  0.77080000  0.28380000  0.43610000  1.0 -0.0800831705
C  C50  1  0.82130000  0.33890000  0.43670000  1.0 -0.1676766514
C  C51  1  0.84610000  0.36860000  0.41370000  1.0 0.0856839311
C  C52  1  0.82040000  0.34310000  0.39010000  1.0 -0.1593815617
C  C53  1  0.47840000  0.01350000  0.41160000  1.0 0.5810968265
C  C54  1  0.68780000  0.20090000  0.40800000  1.0 0.588479125
C  C55  1  0.75480000  0.04010000  0.58630000  1.0 -0.020832443
C  C56  1  0.77180000  0.07280000  0.60940000  1.0 -0.091980039
C  C57  1  0.82210000  0.12810000  0.60934000  1.0 -0.1593815617
C  C58  1  0.85530000  0.15080000  0.58620000  1.0 0.0764731005
C  C59  1  0.83820000  0.11820000  0.56313000  1.0 -0.1506146111
C  C60  1  0.78800000  0.06280000  0.56319000  1.0 -0.101953031
C  C61  1  0.40140000  0.07670000  0.61160000  1.0 -0.1134895827
C  C62  1  0.35500000  0.13420000  0.61170000  1.0 -0.1593815617
C  C63  1  0.32740000  0.16090000  0.58850000  1.0 0.0764731005
C  C64  1  0.34630000  0.13020000  0.56520000  1.0 -0.1593815617
C  C65  1  0.39270000  0.07270000  0.56500000  1.0 -0.091980039
C  C66  1  0.42030000  0.04590000  0.58830000  1.0 -0.020832443
C  C67  1  0.69760000  0.97830000  0.58720000  1.0 0.588479125
C  C68  1  0.46910000  0.80540000  0.58840000  1.0 0.588479125
C  C69  1  0.12510000  0.39550000  0.58560000  1.0 -0.020832443
C  C70  1  0.03770000  0.39310000  0.59070000  1.0 -0.0097220131
C  C71  1  0.99930000  0.32650000  0.59340000  1.0 0.070268989
C  C72  1  0.01350000  0.28340000  0.57290000  1.0 -0.1593815617
C  C73  1  0.96260000  0.22920000  0.56912000  1.0 -0.1506146111
C  C74  1  0.89750000  0.21820000  0.58580000  1.0 0.070268989
C  C75  1  0.88330000  0.26130000  0.60632000  1.0 -0.1506146111
C  C76  1  0.93420000  0.31550000  0.61010000  1.0 -0.1593815617
C  C77  1  0.38990000  0.72070000  0.56460000  1.0 -0.0800831705
C  C78  1  0.34160000  0.66420000  0.56440000  1.0 -0.1676766514
C  C79  1  0.31070000  0.63920000  0.58750000  1.0 0.0764731005
C  C80  1  0.32810000  0.67070000  0.61080000  1.0 -0.1593815617
C  C81  1  0.37630000  0.72730000  0.61090000  1.0 -0.0800831705
C  C82  1  0.40720000  0.75220000  0.58790000  1.0 -0.0567329391
C  C83  1  0.25540000  0.57800000  0.59280000  1.0 0.070268989
C  C84  1  0.19640000  0.56950000  0.57377000  1.0 -0.1506146111
C  C85  1  0.15580000  0.50940000  0.57154000  1.0 -0.1593815617
C  C86  1  0.17430000  0.45780000  0.58840000  1.0 0.070268989
C  C87  1  0.23340000  0.46640000  0.60739000  1.0 -0.1676766514
C  C88  1  0.27390000  0.52650000  0.60962000  1.0 -0.1593815617
C  C89  1  0.26360000  0.21680000  0.58600000  1.0 0.070268989
C  C90  1  0.21520000  0.23070000  0.60746000  1.0 -0.1506146111
C  C91  1  0.17230000  0.28990000  0.60869000  1.0 -0.1593815617
C  C92  1  0.17780000  0.33520000  0.58849000  1.0 0.070268989
C  C93  1  0.22620000  0.32120000  0.56706000  1.0 -0.1593815617
C  C94  1  0.26910000  0.26200000  0.56584000  1.0 -0.1506146111
C  C95  1  0.92800000  0.46550000  0.57385000  1.0 -0.1593815617
C  C96  1  0.98750000  0.45450000  0.59254000  1.0 0.070268989
C  C97  1  0.99970000  0.50050000  0.61218000  1.0 -0.1676766514
C  C98  1  0.95240000  0.55750000  0.61312000  1.0 -0.1593815617
C  C99  1  0.89290000  0.56850000  0.59440000  1.0 0.070268989
C  C100  1  0.88070000  0.52250000  0.57480000  1.0 -0.1506146111
C  C101  1  0.76990000  0.71210000  0.61060000  1.0 -0.091980039
C  C102  1  0.74500000  0.74170000  0.58760000  1.0 -0.0440445966
C  C103  1  0.77080000  0.71620000  0.56390000  1.0 -0.0800831705
C  C104  1  0.82130000  0.66110000  0.56330000  1.0 -0.1676766514
C  C105  1  0.84610000  0.63140000  0.58630000  1.0 0.0856839311
C  C106  1  0.82040000  0.65690000  0.60990000  1.0 -0.1593815617
C  C107  1  0.47840000  0.98650000  0.58840000  1.0 0.5810968265
C  C108  1  0.68780000  0.79910000  0.59200000  1.0 0.588479125
C  C109  1  0.24520000  0.45990000  0.08630000  1.0 -0.020832443
C  C110  1  0.22820000  0.42720000  0.10940000  1.0 -0.091980039
C  C111  1  0.17790000  0.37190000  0.10934000  1.0 -0.1593815617
C  C112  1  0.14470000  0.34920000  0.08620000  1.0 0.0764731005
C  C113  1  0.16180000  0.38180000  0.06313000  1.0 -0.1506146111
C  C114  1  0.21200000  0.43720000  0.06319000  1.0 -0.101953031
C  C115  1  0.59860000  0.42330000  0.11160000  1.0 -0.1134895827
C  C116  1  0.64500000  0.36580000  0.11170000  1.0 -0.1593815617
C  C117  1  0.67260000  0.33910000  0.08850000  1.0 0.0764731005
C  C118  1  0.65370000  0.36980000  0.06520000  1.0 -0.1593815617
C  C119  1  0.60730000  0.42730000  0.06500000  1.0 -0.091980039
C  C120  1  0.57970000  0.45410000  0.08830000  1.0 -0.020832443
C  C121  1  0.30240000  0.52170000  0.08720000  1.0 0.588479125
C  C122  1  0.53090000  0.69460000  0.08840000  1.0 0.588479125
C  C123  1  0.87490000  0.10450000  0.08560000  1.0 -0.020832443
C  C124  1  0.96230000  0.10690000  0.09070000  1.0 -0.0097220131
C  C125  1  0.00070000  0.17350000  0.09340000  1.0 0.070268989
C  C126  1  0.98650000  0.21660000  0.07290000  1.0 -0.1593815617
C  C127  1  0.03740000  0.27080000  0.06912000  1.0 -0.1506146111
C  C128  1  0.10250000  0.28180000  0.08580000  1.0 0.070268989
C  C129  1  0.11670000  0.23870000  0.10632000  1.0 -0.1506146111
C  C130  1  0.06580000  0.18450000  0.11010000  1.0 -0.1593815617
C  C131  1  0.61010000  0.77930000  0.06460000  1.0 -0.0800831705
C  C132  1  0.65840000  0.83580000  0.06440000  1.0 -0.1676766514
C  C133  1  0.68930000  0.86080000  0.08750000  1.0 0.0764731005
C  C134  1  0.67190000  0.82930000  0.11080000  1.0 -0.1593815617
C  C135  1  0.62370000  0.77270000  0.11090000  1.0 -0.0800831705
C  C136  1  0.59280000  0.74780000  0.08790000  1.0 -0.0567329391
C  C137  1  0.74460000  0.92200000  0.09280000  1.0 0.070268989
C  C138  1  0.80360000  0.93050000  0.07377000  1.0 -0.1506146111
C  C139  1  0.84420000  0.99060000  0.07154000  1.0 -0.1593815617
C  C140  1  0.82570000  0.04220000  0.08840000  1.0 0.070268989
C  C141  1  0.76660000  0.03360000  0.10739000  1.0 -0.1676766514
C  C142  1  0.72610000  0.97350000  0.10962000  1.0 -0.1593815617
C  C143  1  0.73640000  0.28320000  0.08600000  1.0 0.070268989
C  C144  1  0.78480000  0.26930000  0.10746000  1.0 -0.1506146111
C  C145  1  0.82770000  0.21010000  0.10869000  1.0 -0.1593815617
C  C146  1  0.82220000  0.16480000  0.08849000  1.0 0.070268989
C  C147  1  0.77380000  0.17880000  0.06706000  1.0 -0.1593815617
C  C148  1  0.73090000  0.23800000  0.06584000  1.0 -0.1506146111
C  C149  1  0.07200000  0.03450000  0.07385000  1.0 -0.1593815617
C  C150  1  0.01250000  0.04550000  0.09254000  1.0 0.070268989
C  C151  1  0.00030000  0.99950000  0.11218000  1.0 -0.1676766514
C  C152  1  0.04760000  0.94250000  0.11312000  1.0 -0.1593815617
C  C153  1  0.10710000  0.93150000  0.09440000  1.0 0.070268989
C  C154  1  0.11930000  0.97750000  0.07480000  1.0 -0.1506146111
C  C155  1  0.23010000  0.78790000  0.11060000  1.0 -0.091980039
C  C156  1  0.25500000  0.75830000  0.08760000  1.0 -0.0454480998
C  C157  1  0.22920000  0.78380000  0.06390000  1.0 -0.0800831705
C  C158  1  0.17870000  0.83890000  0.06330000  1.0 -0.1676766514
C  C159  1  0.15390000  0.86860000  0.08630000  1.0 0.0856839311
C  C160  1  0.17960000  0.84310000  0.10990000  1.0 -0.1593815617
C  C161  1  0.52160000  0.51350000  0.08840000  1.0 0.5810968265
C  C162  1  0.31220000  0.70090000  0.09200000  1.0 0.588479125
C  C163  1  0.24520000  0.54010000  0.91370000  1.0 -0.020832443
C  C164  1  0.22820000  0.57280000  0.89060000  1.0 -0.091980039
C  C165  1  0.17790000  0.62810000  0.89066000  1.0 -0.1593815617
C  C166  1  0.14470000  0.65080000  0.91380000  1.0 0.0764731005
C  C167  1  0.16180000  0.61820000  0.93687000  1.0 -0.1506146111
C  C168  1  0.21200000  0.56280000  0.93681000  1.0 -0.101953031
C  C169  1  0.59860000  0.57670000  0.88840000  1.0 -0.1134895827
C  C170  1  0.64500000  0.63420000  0.88830000  1.0 -0.1593815617
C  C171  1  0.67260000  0.66090000  0.91150000  1.0 0.0764731005
C  C172  1  0.65370000  0.63020000  0.93480000  1.0 -0.1593815617
C  C173  1  0.60730000  0.57270000  0.93500000  1.0 -0.091980039
C  C174  1  0.57970000  0.54590000  0.91170000  1.0 -0.020832443
C  C175  1  0.30240000  0.47830000  0.91280000  1.0 0.588479125
C  C176  1  0.53090000  0.30540000  0.91160000  1.0 0.588479125
C  C177  1  0.87490000  0.89550000  0.91440000  1.0 -0.020832443
C  C178  1  0.96230000  0.89310000  0.90930000  1.0 -0.0097220131
C  C179  1  0.00070000  0.82650000  0.90660000  1.0 0.070268989
C  C180  1  0.98650000  0.78340000  0.92710000  1.0 -0.1593815617
C  C181  1  0.03740000  0.72920000  0.93088000  1.0 -0.1506146111
C  C182  1  0.10250000  0.71820000  0.91420000  1.0 0.070268989
C  C183  1  0.11670000  0.76130000  0.89368000  1.0 -0.1506146111
C  C184  1  0.06580000  0.81550000  0.88990000  1.0 -0.1593815617
C  C185  1  0.61010000  0.22070000  0.93540000  1.0 -0.0800831705
C  C186  1  0.65840000  0.16420000  0.93560000  1.0 -0.1676766514
C  C187  1  0.68930000  0.13920000  0.91250000  1.0 0.0764731005
C  C188  1  0.67190000  0.17070000  0.88920000  1.0 -0.1506146111
C  C189  1  0.62370000  0.22730000  0.88910000  1.0 -0.0800831705
C  C190  1  0.59280000  0.25220000  0.91210000  1.0 -0.0567329391
C  C191  1  0.74460000  0.07800000  0.90720000  1.0 0.070268989
C  C192  1  0.80360000  0.06950000  0.92623000  1.0 -0.1506146111
C  C193  1  0.84420000  0.00940000  0.92846000  1.0 -0.1593815617
C  C194  1  0.82570000  0.95780000  0.91160000  1.0 0.070268989
C  C195  1  0.76660000  0.96640000  0.89261000  1.0 -0.1676766514
C  C196  1  0.72610000  0.02650000  0.89038000  1.0 -0.1593815617
C  C197  1  0.73640000  0.71680000  0.91400000  1.0 0.070268989
C  C198  1  0.78480000  0.73070000  0.89254000  1.0 -0.1506146111
C  C199  1  0.82770000  0.78990000  0.89131000  1.0 -0.1593815617
C  C200  1  0.82220000  0.83520000  0.91151000  1.0 0.070268989
C  C201  1  0.77380000  0.82120000  0.93294000  1.0 -0.1593815617
C  C202  1  0.73090000  0.76200000  0.93416000  1.0 -0.1506146111
C  C203  1  0.07200000  0.96550000  0.92615000  1.0 -0.1593815617
C  C204  1  0.01250000  0.95450000  0.90746000  1.0 0.070268989
C  C205  1  0.00030000  0.00050000  0.88782000  1.0 -0.1676766514
C  C206  1  0.04760000  0.05750000  0.88688000  1.0 -0.1593815617
C  C207  1  0.10710000  0.06850000  0.90560000  1.0 0.070268989
C  C208  1  0.11930000  0.02250000  0.92520000  1.0 -0.1506146111
C  C209  1  0.23010000  0.21210000  0.88940000  1.0 -0.091980039
C  C210  1  0.25500000  0.24170000  0.91240000  1.0 -0.0440445966
C  C211  1  0.22920000  0.21620000  0.93610000  1.0 -0.0800831705
C  C212  1  0.17870000  0.16110000  0.93670000  1.0 -0.1676766514
C  C213  1  0.15390000  0.13140000  0.91370000  1.0 0.0856839311
C  C214  1  0.17960000  0.15690000  0.89010000  1.0 -0.1593815617
C  C215  1  0.52160000  0.48650000  0.91160000  1.0 0.5810968265
C  C216  1  0.31220000  0.29910000  0.90800000  1.0 0.588479125
O  O1  1  0.49480000  0.17190000  0.39084000  1.0 -0.5147362863
O  O2  1  0.49030000  0.17390000  0.43333000  1.0 -0.529247489
O  O3  1  0.67700000  0.05150000  0.43300000  1.0 -0.5464262679
O  O4  1  0.67420000  0.03710000  0.39062000  1.0 -0.5198602459
O  O5  1  0.51290000  0.04130000  0.39237000  1.0 -0.497471632
O  O6  1  0.66970000  0.17530000  0.38673000  1.0 -0.529247489
O  O7  1  0.65920000  0.18290000  0.42912000  1.0 -0.5198602459
O  O8  1  0.49990000  0.03150000  0.43414000  1.0 -0.529247489
O  O9  1  0.49480000  0.82810000  0.60916000  1.0 -0.5147362863
O  O10  1  0.49030000  0.82610000  0.56667000  1.0 -0.529247489
O  O11  1  0.67700000  0.94850000  0.56700000  1.0 -0.5464262679
O  O12  1  0.67420000  0.96290000  0.60938000  1.0 -0.5198602459
O  O13  1  0.51290000  0.95870000  0.60763000  1.0 -0.497471632
O  O14  1  0.66970000  0.82470000  0.61327000  1.0 -0.529247489
O  O15  1  0.65920000  0.81710000  0.57088000  1.0 -0.5198602459
O  O16  1  0.49990000  0.96850000  0.56586000  1.0 -0.529247489
O  O17  1  0.50520000  0.67190000  0.10916000  1.0 -0.5147362863
O  O18  1  0.50970000  0.67390000  0.06667000  1.0 -0.529247489
O  O19  1  0.32300000  0.55150000  0.06700000  1.0 -0.5464262679
O  O20  1  0.32580000  0.53710000  0.10938000  1.0 -0.5198602459
O  O21  1  0.48710000  0.54130000  0.10763000  1.0 -0.497471632
O  O22  1  0.33030000  0.67530000  0.11327000  1.0 -0.529247489
O  O23  1  0.34080000  0.68290000  0.07088000  1.0 -0.5198602459
O  O24  1  0.50010000  0.53150000  0.06586000  1.0 -0.529247489
O  O25  1  0.50520000  0.32810000  0.89084000  1.0 -0.5198602459
O  O26  1  0.50970000  0.32610000  0.93333000  1.0 -0.529247489
O  O27  1  0.32300000  0.44850000  0.93300000  1.0 -0.5464262679
O  O28  1  0.32580000  0.46290000  0.89062000  1.0 -0.5198602459
O  O29  1  0.48710000  0.45870000  0.89237000  1.0 -0.497471632
O  O30  1  0.33030000  0.32470000  0.88673000  1.0 -0.529247489
O  O31  1  0.34080000  0.31710000  0.92912000  1.0 -0.5198602459
O  O32  1  0.50010000  0.46850000  0.93414000  1.0 -0.529247489
