# DDEC6 charges by PACMAN v1.1 (https://github.com/mtap-research/PACMAN-charge/)
data_CISCIU_ASR_pacman
_symmetry_space_group_name_H-M   'P 1'
_cell_length_a   16.95710000
_cell_length_b   19.81510000
_cell_length_c   26.71900000
_cell_angle_alpha   96.53800000
_cell_angle_beta   108.45500000
_cell_angle_gamma   89.88400000
_symmetry_Int_Tables_number   1
_chemical_formula_structural   Zn2H100C127(NO8)2
_chemical_formula_sum   'Zn4 H200 C254 N4 O32'
_cell_volume   8455.15992510
_cell_formula_units_Z   2
loop_
 _symmetry_equiv_pos_site_id
 _symmetry_equiv_pos_as_xyz
  1  'x, y, z'
loop_
 _atom_site_type_symbol
 _atom_site_label
 _atom_site_symmetry_multiplicity
 _atom_site_fract_x
 _atom_site_fract_y
 _atom_site_fract_z
 _atom_site_occupancy
 _atom_site_charge
Zn  Zn1  1  0.02698000  0.34890000  0.94273000  1.0 0.8360935566
Zn  Zn2  1  0.97569000  0.33145000  0.82588000  1.0 0.798499715
Zn  Zn3  1  0.97302000  0.65110000  0.05727000  1.0 0.8360935566
Zn  Zn4  1  0.02431000  0.66855000  0.17412000  1.0 0.798499715
H  H1  1  0.87506000  0.39793000  0.72761000  1.0 0.0801100975
H  H2  1  0.88688000  0.40956000  0.64408000  1.0 0.0912166139
H  H3  1  0.08239000  0.28532000  0.67333000  1.0 0.1018043493
H  H4  1  0.07057000  0.27370000  0.75686000  1.0 0.1018043493
H  H5  1  0.69756000  0.95534000  0.80985000  1.0 0.11104874
H  H6  1  0.75772000  0.70528000  0.94159000  1.0 0.11104874
H  H7  1  0.23440000  0.50409000  0.97491000  1.0 0.127790869
H  H8  1  0.76581000  0.59061000  0.95572000  1.0 0.1191383978
H  H9  1  0.85111000  0.49936000  0.95600000  1.0 0.1191383978
H  H10  1  0.66228000  0.04973000  0.94252000  1.0 0.11104874
H  H11  1  0.98837000  0.44523000  0.02626000  1.0 0.11104874
H  H12  1  0.68730000  0.80616000  0.93848000  1.0 0.11104874
H  H13  1  0.42576000  0.64802000  0.95458000  1.0 0.11104874
H  H14  1  0.99546000  0.45321000  0.11330000  1.0 0.1350480583
H  H15  1  0.77702000  0.47867000  0.79568000  1.0 0.1191383978
H  H16  1  0.50431000  0.73960000  0.95014000  1.0 0.1191383978
H  H17  1  0.57979000  0.95731000  0.94543000  1.0 0.11104874
H  H18  1  0.61737000  0.86183000  0.81299000  1.0 0.11104874
H  H19  1  0.87049000  0.18887000  0.95065000  1.0 0.1191383978
H  H20  1  0.14030000  0.17372000  0.81220000  1.0 0.1191383978
H  H21  1  0.42652000  0.93700000  0.81911000  1.0 0.1191383978
H  H22  1  0.22449000  0.19873000  0.97248000  1.0 0.11104874
H  H23  1  0.22633000  0.08268000  0.81179000  1.0 0.11104874
H  H24  1  0.35302000  0.03569000  0.82246000  1.0 0.1191383978
H  H25  1  0.68753000  0.56663000  0.79483000  1.0 0.11104874
H  H26  1  0.49834000  0.72182000  0.81329000  1.0 0.11104874
H  H27  1  0.23351000  0.70316000  0.83279000  1.0 0.11104874
H  H28  1  0.30721000  0.10571000  0.97174000  1.0 0.11104874
H  H29  1  0.79603000  0.15331000  0.79078000  1.0 0.1191383978
H  H30  1  0.11803000  0.50164000  0.81866000  1.0 0.1191383978
H  H31  1  0.57168000  0.62235000  0.81194000  1.0 0.11104874
H  H32  1  0.31898000  0.99132000  0.95785000  1.0 0.11104874
H  H33  1  0.39047000  0.89219000  0.95428000  1.0 0.1191383978
H  H34  1  0.32312000  0.59213000  0.97443000  1.0 0.11104874
H  H35  1  0.78682000  0.09750000  0.95238000  1.0 0.11104874
H  H36  1  0.71560000  0.06090000  0.79356000  1.0 0.11104874
H  H37  1  0.08124000  0.26304000  0.11789000  1.0 0.127790869
H  H38  1  0.07818000  0.26164000  0.03013000  1.0 0.1191383978
H  H39  1  0.20093000  0.59133000  0.81605000  1.0 0.11104874
H  H40  1  0.31293000  0.79787000  0.83121000  1.0 0.11104874
H  H41  1  0.08366000  0.28692000  0.51352000  1.0 0.1018043493
H  H42  1  0.06894000  0.27672000  0.59653000  1.0 0.0912166139
H  H43  1  0.91929000  0.43800000  0.58102000  1.0 0.069214708
H  H44  1  0.93401000  0.44820000  0.49801000  1.0 0.069214708
H  H45  1  0.22559000  0.41377000  0.42026000  1.0 0.1191383978
H  H46  1  0.19070000  0.42237000  0.35841000  1.0 0.11104874
H  H47  1  0.18603000  0.93991000  0.33176000  1.0 0.127790869
H  H48  1  0.21420000  0.11733000  0.23637000  1.0 0.1191383978
H  H49  1  0.99021000  0.26476000  0.17351000  1.0 0.11104874
H  H50  1  0.08178000  0.46249000  0.29149000  1.0 0.0912166139
H  H51  1  0.07995000  0.45736000  0.20503000  1.0 0.11104874
H  H52  1  0.98792000  0.26790000  0.26156000  1.0 0.127790869
H  H53  1  0.22053000  0.33936000  0.29541000  1.0 0.1191383978
H  H54  1  0.91316000  0.34011000  0.31706000  1.0 0.1191383978
H  H55  1  0.07115000  0.88716000  0.24879000  1.0 0.127790869
H  H56  1  0.04068000  0.92975000  0.19914000  1.0 0.127790869
H  H57  1  0.89992000  0.21530000  0.44085000  1.0 0.1191383978
H  H58  1  0.73867000  0.16931000  0.26193000  1.0 0.127790869
H  H59  1  0.13404000  0.39599000  0.46810000  1.0 0.1191383978
H  H60  1  0.36266000  0.14007000  0.30499000  1.0 0.1191383978
H  H61  1  0.37251000  0.12048000  0.36300000  1.0 0.1191383978
H  H62  1  0.81545000  0.36064000  0.37494000  1.0 0.127790869
H  H63  1  0.85401000  0.33857000  0.43347000  1.0 0.11104874
H  H64  1  0.29638000  0.31493000  0.23455000  1.0 0.1191383978
H  H65  1  0.26585000  0.25355000  0.18768000  1.0 0.1191383978
H  H66  1  0.20189000  0.28674000  0.21557000  1.0 0.11104874
H  H67  1  0.89402000  0.95568000  0.34670000  1.0 0.127790869
H  H68  1  0.94681000  0.01678000  0.19589000  1.0 0.1191383978
H  H69  1  0.09270000  0.13322000  0.18048000  1.0 0.11104874
H  H70  1  0.14430000  0.08914000  0.14846000  1.0 0.1191383978
H  H71  1  0.04510000  0.09027000  0.12451000  1.0 0.127790869
H  H72  1  0.89479000  0.13203000  0.18222000  1.0 0.1191383978
H  H73  1  0.84420000  0.06717000  0.14465000  1.0 0.11104874
H  H74  1  0.79705000  0.13562000  0.15255000  1.0 0.1191383978
H  H75  1  0.30948000  0.18768000  0.42228000  1.0 0.1350480583
H  H76  1  0.30574000  0.29173000  0.53441000  1.0 0.11104874
H  H77  1  0.25738000  0.22321000  0.50167000  1.0 0.11104874
H  H78  1  0.34433000  0.24527000  0.49560000  1.0 0.1018043493
H  H79  1  0.77496000  0.02667000  0.33139000  1.0 0.1191383978
H  H80  1  0.73563000  0.04936000  0.27366000  1.0 0.1191383978
H  H81  1  0.32053000  0.97756000  0.45160000  1.0 0.1018043493
H  H82  1  0.23856000  0.95536000  0.40255000  1.0 0.1018043493
H  H83  1  0.32614000  0.92473000  0.40297000  1.0 0.11104874
H  H84  1  0.89655000  0.12140000  0.48774000  1.0 0.1191383978
H  H85  1  0.93425000  0.04846000  0.47936000  1.0 0.127790869
H  H86  1  0.98047000  0.11544000  0.47247000  1.0 0.1191383978
H  H87  1  0.66501000  0.33529000  0.31115000  1.0 0.1191383978
H  H88  1  0.65825000  0.34625000  0.25153000  1.0 0.1191383978
H  H89  1  0.63998000  0.27248000  0.26520000  1.0 0.11104874
H  H90  1  0.02494000  0.93497000  0.40355000  1.0 0.11104874
H  H91  1  0.96560000  0.86848000  0.37987000  1.0 0.1018043493
H  H92  1  0.06413000  0.86144000  0.40353000  1.0 0.11104874
H  H93  1  0.00322000  0.26479000  0.49245000  1.0 0.0912166139
H  H94  1  0.94162000  0.26202000  0.56094000  1.0 0.0912166139
H  H95  1  0.98818000  0.23356000  0.73104000  1.0 0.1018043493
H  H96  1  0.99616000  0.24490000  0.64528000  1.0 0.0912166139
H  H97  1  0.97176000  0.44995000  0.67092000  1.0 0.0912166139
H  H98  1  0.94806000  0.43626000  0.75220000  1.0 0.0801100975
H  H99  1  0.96850000  0.45770000  0.59620000  1.0 0.0801100975
H  H100  1  0.01564000  0.46935000  0.52330000  1.0 0.069214708
H  H101  1  0.12494000  0.60207000  0.27239000  1.0 0.0801100975
H  H102  1  0.11312000  0.59044000  0.35592000  1.0 0.0912166139
H  H103  1  0.91761000  0.71468000  0.32667000  1.0 0.1018043493
H  H104  1  0.92943000  0.72630000  0.24314000  1.0 0.1018043493
H  H105  1  0.30244000  0.04466000  0.19015000  1.0 0.11104874
H  H106  1  0.24228000  0.29472000  0.05841000  1.0 0.11104874
H  H107  1  0.76560000  0.49591000  0.02509000  1.0 0.127790869
H  H108  1  0.23419000  0.40939000  0.04428000  1.0 0.1191383978
H  H109  1  0.14889000  0.50064000  0.04400000  1.0 0.1191383978
H  H110  1  0.33772000  0.95027000  0.05748000  1.0 0.11104874
H  H111  1  0.01163000  0.55477000  0.97374000  1.0 0.11104874
H  H112  1  0.31270000  0.19384000  0.06152000  1.0 0.11104874
H  H113  1  0.57424000  0.35198000  0.04542000  1.0 0.11104874
H  H114  1  0.00454000  0.54679000  0.88670000  1.0 0.1350480583
H  H115  1  0.22298000  0.52133000  0.20432000  1.0 0.1191383978
H  H116  1  0.49569000  0.26040000  0.04986000  1.0 0.1191383978
H  H117  1  0.42021000  0.04269000  0.05457000  1.0 0.11104874
H  H118  1  0.38263000  0.13817000  0.18701000  1.0 0.11104874
H  H119  1  0.12951000  0.81113000  0.04935000  1.0 0.1191383978
H  H120  1  0.85970000  0.82628000  0.18780000  1.0 0.1191383978
H  H121  1  0.57348000  0.06300000  0.18089000  1.0 0.1191383978
H  H122  1  0.77551000  0.80127000  0.02752000  1.0 0.11104874
H  H123  1  0.77367000  0.91732000  0.18821000  1.0 0.11104874
H  H124  1  0.64698000  0.96431000  0.17754000  1.0 0.1191383978
H  H125  1  0.31247000  0.43337000  0.20517000  1.0 0.11104874
H  H126  1  0.50166000  0.27818000  0.18671000  1.0 0.11104874
H  H127  1  0.76649000  0.29684000  0.16721000  1.0 0.11104874
H  H128  1  0.69279000  0.89429000  0.02826000  1.0 0.11104874
H  H129  1  0.20397000  0.84669000  0.20922000  1.0 0.1191383978
H  H130  1  0.88197000  0.49836000  0.18134000  1.0 0.1191383978
H  H131  1  0.42832000  0.37765000  0.18806000  1.0 0.11104874
H  H132  1  0.68102000  0.00868000  0.04215000  1.0 0.11104874
H  H133  1  0.60953000  0.10781000  0.04572000  1.0 0.1191383978
H  H134  1  0.67688000  0.40787000  0.02557000  1.0 0.11104874
H  H135  1  0.21318000  0.90250000  0.04762000  1.0 0.11104874
H  H136  1  0.28440000  0.93910000  0.20644000  1.0 0.11104874
H  H137  1  0.91876000  0.73696000  0.88211000  1.0 0.127790869
H  H138  1  0.92182000  0.73836000  0.96987000  1.0 0.1191383978
H  H139  1  0.79907000  0.40867000  0.18395000  1.0 0.11104874
H  H140  1  0.68707000  0.20213000  0.16879000  1.0 0.11104874
H  H141  1  0.91634000  0.71308000  0.48648000  1.0 0.1018043493
H  H142  1  0.93106000  0.72328000  0.40347000  1.0 0.0912166139
H  H143  1  0.08071000  0.56200000  0.41898000  1.0 0.069214708
H  H144  1  0.06599000  0.55180000  0.50199000  1.0 0.069214708
H  H145  1  0.77441000  0.58623000  0.57974000  1.0 0.1191383978
H  H146  1  0.80930000  0.57763000  0.64159000  1.0 0.11104874
H  H147  1  0.81397000  0.06009000  0.66824000  1.0 0.127790869
H  H148  1  0.78580000  0.88267000  0.76363000  1.0 0.1191383978
H  H149  1  0.00979000  0.73524000  0.82649000  1.0 0.11104874
H  H150  1  0.91822000  0.53751000  0.70851000  1.0 0.0912166139
H  H151  1  0.92005000  0.54264000  0.79497000  1.0 0.11104874
H  H152  1  0.01208000  0.73210000  0.73844000  1.0 0.127790869
H  H153  1  0.77947000  0.66064000  0.70459000  1.0 0.1191383978
H  H154  1  0.08684000  0.65989000  0.68294000  1.0 0.1191383978
H  H155  1  0.92885000  0.11284000  0.75121000  1.0 0.127790869
H  H156  1  0.95932000  0.07025000  0.80086000  1.0 0.127790869
H  H157  1  0.10008000  0.78470000  0.55915000  1.0 0.1191383978
H  H158  1  0.26133000  0.83069000  0.73807000  1.0 0.127790869
H  H159  1  0.86596000  0.60401000  0.53190000  1.0 0.1191383978
H  H160  1  0.63734000  0.85993000  0.69501000  1.0 0.1191383978
H  H161  1  0.62749000  0.87952000  0.63700000  1.0 0.1191383978
H  H162  1  0.18455000  0.63936000  0.62506000  1.0 0.127790869
H  H163  1  0.14599000  0.66143000  0.56653000  1.0 0.11104874
H  H164  1  0.70362000  0.68507000  0.76545000  1.0 0.1191383978
H  H165  1  0.73415000  0.74645000  0.81232000  1.0 0.1191383978
H  H166  1  0.79811000  0.71326000  0.78443000  1.0 0.11104874
H  H167  1  0.10598000  0.04432000  0.65330000  1.0 0.127790869
H  H168  1  0.05319000  0.98322000  0.80411000  1.0 0.1191383978
H  H169  1  0.90730000  0.86678000  0.81952000  1.0 0.11104874
H  H170  1  0.85570000  0.91086000  0.85154000  1.0 0.1191383978
H  H171  1  0.95490000  0.90973000  0.87549000  1.0 0.127790869
H  H172  1  0.10521000  0.86797000  0.81778000  1.0 0.1191383978
H  H173  1  0.15580000  0.93283000  0.85535000  1.0 0.11104874
H  H174  1  0.20295000  0.86438000  0.84745000  1.0 0.1191383978
H  H175  1  0.69052000  0.81232000  0.57772000  1.0 0.1350480583
H  H176  1  0.69426000  0.70827000  0.46559000  1.0 0.11104874
H  H177  1  0.74262000  0.77679000  0.49833000  1.0 0.11104874
H  H178  1  0.65567000  0.75473000  0.50440000  1.0 0.1018043493
H  H179  1  0.22504000  0.97333000  0.66861000  1.0 0.1191383978
H  H180  1  0.26437000  0.95064000  0.72634000  1.0 0.1191383978
H  H181  1  0.67947000  0.02244000  0.54840000  1.0 0.1018043493
H  H182  1  0.76144000  0.04464000  0.59745000  1.0 0.1018043493
H  H183  1  0.67386000  0.07527000  0.59703000  1.0 0.11104874
H  H184  1  0.10345000  0.87860000  0.51226000  1.0 0.1191383978
H  H185  1  0.06575000  0.95154000  0.52064000  1.0 0.127790869
H  H186  1  0.01953000  0.88456000  0.52753000  1.0 0.1191383978
H  H187  1  0.33499000  0.66471000  0.68885000  1.0 0.1191383978
H  H188  1  0.34175000  0.65375000  0.74847000  1.0 0.1191383978
H  H189  1  0.36002000  0.72752000  0.73480000  1.0 0.11104874
H  H190  1  0.97506000  0.06503000  0.59645000  1.0 0.11104874
H  H191  1  0.03440000  0.13152000  0.62013000  1.0 0.1018043493
H  H192  1  0.93587000  0.13856000  0.59647000  1.0 0.11104874
H  H193  1  0.99678000  0.73521000  0.50755000  1.0 0.0912166139
H  H194  1  0.05838000  0.73798000  0.43906000  1.0 0.0912166139
H  H195  1  0.01182000  0.76644000  0.26896000  1.0 0.1018043493
H  H196  1  0.00384000  0.75510000  0.35472000  1.0 0.0912166139
H  H197  1  0.02824000  0.55005000  0.32908000  1.0 0.0912166139
H  H198  1  0.05194000  0.56374000  0.24780000  1.0 0.0801100975
H  H199  1  0.03150000  0.54230000  0.40380000  1.0 0.0801100975
H  H200  1  0.98436000  0.53065000  0.47670000  1.0 0.069214708
C  C1  1  0.91720000  0.37510000  0.71660000  1.0 0.0295204309
C  C2  1  0.92420000  0.38200000  0.66700000  1.0 -0.0783318575
C  C3  1  0.98570000  0.34850000  0.65085000  1.0 0.0295204309
C  C4  1  0.04030000  0.30820000  0.68430000  1.0 -0.0739774476
C  C5  1  0.03330000  0.30130000  0.73400000  1.0 0.0295204309
C  C6  1  0.67400000  0.95610000  0.83780000  1.0 -0.1396761181
C  C7  1  0.88610000  0.42530000  0.87680000  1.0 0.5718180355
C  C8  1  0.68860000  0.01170000  0.87460000  1.0 0.069214708
C  C9  1  0.70570000  0.70830000  0.91490000  1.0 -0.1507537656
C  C10  1  0.46380000  0.84060000  0.88590000  1.0 -0.0192864477
C  C11  1  0.22830000  0.52200000  0.94250000  1.0 -0.0992479059
C  C12  1  0.27600000  0.08390000  0.89120000  1.0 0.0801100975
C  C13  1  0.54140000  0.83810000  0.88180000  1.0 -0.0192864477
C  C14  1  0.76830000  0.56820000  0.92290000  1.0 -0.1396761181
C  C15  1  0.84350000  0.18010000  0.87000000  1.0 -0.0416975099
C  C16  1  0.10930000  0.43770000  0.89850000  1.0 0.5718180355
C  C17  1  0.81880000  0.51370000  0.92320000  1.0 -0.0992479059
C  C18  1  0.67300000  0.65300000  0.87660000  1.0 0.0586411082
C  C19  1  0.11390000  0.25160000  0.89290000  1.0 0.5846842643
C  C20  1  0.72120000  0.59110000  0.87600000  1.0 0.069214708
C  C21  1  0.65280000  0.01180000  0.91590000  1.0 -0.1507537656
C  C22  1  0.41690000  0.77970000  0.88970000  1.0 0.069214708
C  C23  1  0.17260000  0.19570000  0.89230000  1.0 -0.0289551463
C  C24  1  0.00840000  0.40760000  0.04520000  1.0 0.1018043493
C  C25  1  0.66230000  0.76770000  0.91390000  1.0 -0.1507537656
C  C26  1  0.40270000  0.67770000  0.92850000  1.0 -0.1396761181
C  C27  1  0.01150000  0.41260000  0.09710000  1.0 -0.1793840859
C  C28  1  0.32740000  0.02400000  0.89030000  1.0 0.069214708
C  C29  1  0.89710000  0.23770000  0.86870000  1.0 0.5860316869
C  C30  1  0.77420000  0.50120000  0.82840000  1.0 -0.1093581426
C  C31  1  0.41860000  0.90550000  0.88640000  1.0 0.069214708
C  C32  1  0.32170000  0.66350000  0.89330000  1.0 0.0518924381
C  C33  1  0.44910000  0.73270000  0.92640000  1.0 -0.1396761181
C  C34  1  0.60370000  0.95630000  0.91770000  1.0 -0.1507537656
C  C35  1  0.58890000  0.89920000  0.87970000  1.0 0.069214708
C  C36  1  0.62560000  0.89990000  0.83940000  1.0 -0.1507537656
C  C37  1  0.16710000  0.49430000  0.89740000  1.0 -0.0289551463
C  C38  1  0.83900000  0.16310000  0.91830000  1.0 -0.0992479059
C  C39  1  0.82280000  0.47940000  0.87580000  1.0 -0.0289551463
C  C40  1  0.17450000  0.16040000  0.84500000  1.0 -0.0907099373
C  C41  1  0.40510000  0.94800000  0.84780000  1.0 -0.1396761181
C  C42  1  0.58290000  0.77250000  0.87790000  1.0 0.069214708
C  C43  1  0.22380000  0.17470000  0.93950000  1.0 -0.1093581426
C  C44  1  0.74000000  0.06940000  0.87260000  1.0 0.069214708
C  C45  1  0.22580000  0.10570000  0.84490000  1.0 -0.1396761181
C  C46  1  0.36070000  0.00680000  0.84960000  1.0 -0.1396761181
C  C47  1  0.72260000  0.55440000  0.82770000  1.0 -0.1569919669
C  C48  1  0.55090000  0.71860000  0.83950000  1.0 -0.1507537656
C  C49  1  0.28850000  0.71020000  0.85680000  1.0 -0.1396761181
C  C50  1  0.27380000  0.11960000  0.93900000  1.0 -0.1507537656
C  C51  1  0.79540000  0.14190000  0.82420000  1.0 -0.0907099373
C  C52  1  0.03770000  0.35900000  0.12590000  1.0 0.1191383978
C  C53  1  0.15910000  0.52070000  0.85040000  1.0 -0.0992479059
C  C54  1  0.59490000  0.65920000  0.83860000  1.0 -0.1507537656
C  C55  1  0.34060000  0.98030000  0.92930000  1.0 -0.1507537656
C  C56  1  0.38390000  0.92170000  0.92770000  1.0 -0.1507537656
C  C57  1  0.28110000  0.57490000  0.94250000  1.0 -0.1507537656
C  C58  1  0.03980000  0.36220000  0.18170000  1.0 0.0518924381
C  C59  1  0.78850000  0.10860000  0.91910000  1.0 -0.1507537656
C  C60  1  0.74620000  0.08710000  0.82590000  1.0 -0.1507537656
C  C61  1  0.06250000  0.30140000  0.09960000  1.0 -0.2011757824
C  C62  1  0.05990000  0.30050000  0.04710000  1.0 0.069214708
C  C63  1  0.27290000  0.60380000  0.89470000  1.0 0.069214708
C  C64  1  0.20910000  0.57380000  0.84890000  1.0 -0.1507537656
C  C65  1  0.33650000  0.76680000  0.85600000  1.0 -0.1507537656
C  C66  1  0.01020000  0.36850000  0.49800000  1.0 0.0434203208
C  C67  1  0.05030000  0.31760000  0.52720000  1.0 -0.0783318575
C  C68  1  0.04160000  0.31150000  0.57650000  1.0 -0.0416975099
C  C69  1  0.99270000  0.35640000  0.59660000  1.0 -0.0128955753
C  C70  1  0.95270000  0.40730000  0.56730000  1.0 -0.0289551463
C  C71  1  0.96140000  0.41340000  0.51800000  1.0 -0.0416975099
C  C72  1  0.19030000  0.39180000  0.38520000  1.0 -0.2806294407
C  C73  1  0.22870000  0.32410000  0.37200000  1.0 0.0586411082
C  C74  1  0.01190000  0.37050000  0.44220000  1.0 -0.0468679168
C  C75  1  0.19180000  0.97590000  0.31240000  1.0 -0.2697951578
C  C76  1  0.25680000  0.02400000  0.33410000  1.0 0.1710922908
C  C77  1  0.26510000  0.07670000  0.30580000  1.0 0.0518924381
C  C78  1  0.20850000  0.08130000  0.25570000  1.0 -0.3008714798
C  C79  1  0.14350000  0.03330000  0.23400000  1.0 0.1710922908
C  C80  1  0.13510000  0.98060000  0.26240000  1.0 0.0518924381
C  C81  1  0.00950000  0.30450000  0.19800000  1.0 -0.1507537656
C  C82  1  0.06330000  0.42170000  0.26820000  1.0 -0.1793840859
C  C83  1  0.06280000  0.41800000  0.21660000  1.0 -0.1305938694
C  C84  1  0.03660000  0.36550000  0.28660000  1.0 0.1018043493
C  C85  1  0.00800000  0.30640000  0.25050000  1.0 -0.1396761181
C  C86  1  0.10000000  0.38380000  0.38640000  1.0 0.0912166139
C  C87  1  0.23660000  0.30770000  0.32070000  1.0 -0.3172687772
C  C88  1  0.03490000  0.36830000  0.34280000  1.0 0.0140333394
C  C89  1  0.26820000  0.24470000  0.30690000  1.0 0.1809350368
C  C90  1  0.95890000  0.35220000  0.34840000  1.0 -0.2085709977
C  C91  1  0.05720000  0.93320000  0.23840000  1.0 -0.2806294407
C  C92  1  0.86720000  0.20600000  0.40450000  1.0 -0.3172687772
C  C93  1  0.83790000  0.25920000  0.37470000  1.0 0.0586411082
C  C94  1  0.79000000  0.24550000  0.32160000  1.0 0.1643234011
C  C95  1  0.77140000  0.17860000  0.29820000  1.0 -0.252803925
C  C96  1  0.80070000  0.12540000  0.32810000  1.0 0.0140333394
C  C97  1  0.84860000  0.13910000  0.38120000  1.0 0.2205472705
C  C98  1  0.29870000  0.20080000  0.34390000  1.0 0.0295204309
C  C99  1  0.25620000  0.27730000  0.40750000  1.0 0.154936355
C  C100  1  0.94580000  0.35290000  0.39740000  1.0 0.0912166139
C  C101  1  0.08780000  0.38490000  0.43690000  1.0 -0.2633409043
C  C102  1  0.33210000  0.13430000  0.33030000  1.0 -0.2697951578
C  C103  1  0.85700000  0.33180000  0.39680000  1.0 -0.2861568513
C  C104  1  0.25980000  0.27420000  0.22130000  1.0 -0.2387781921
C  C105  1  0.98500000  0.95710000  0.25580000  1.0 0.0518924381
C  C106  1  0.96930000  0.93890000  0.30060000  1.0 0.1710922908
C  C107  1  0.90470000  0.96810000  0.31610000  1.0 -0.2806294407
C  C108  1  0.85580000  0.01540000  0.28670000  1.0 0.0518924381
C  C109  1  0.87150000  0.03350000  0.24200000  1.0 0.1710922908
C  C110  1  0.93610000  0.00440000  0.22650000  1.0 -0.2633409043
C  C111  1  0.09240000  0.09120000  0.15720000  1.0 -0.252803925
C  C112  1  0.84150000  0.10630000  0.17000000  1.0 -0.252803925
C  C113  1  0.29070000  0.21780000  0.39610000  1.0 -0.2697951578
C  C114  1  0.29270000  0.26190000  0.50080000  1.0 -0.2387781921
C  C115  1  0.78670000  0.05260000  0.30480000  1.0 -0.2697951578
C  C116  1  0.29860000  0.96510000  0.41300000  1.0 -0.2806294407
C  C117  1  0.92620000  0.09360000  0.46730000  1.0 -0.3149667564
C  C118  1  0.67400000  0.31460000  0.27840000  1.0 -0.2633409043
C  C119  1  0.01990000  0.88940000  0.38390000  1.0 -0.2697951578
C  C120  1  0.99600000  0.30500000  0.51300000  1.0 -0.0416975099
C  C121  1  0.97100000  0.30100000  0.55700000  1.0 -0.0907099373
C  C122  1  0.98390000  0.27680000  0.71850000  1.0 0.0226764925
C  C123  1  0.98970000  0.28380000  0.66780000  1.0 -0.0783318575
C  C124  1  0.97300000  0.40620000  0.68250000  1.0 -0.0907099373
C  C125  1  0.96200000  0.39850000  0.73170000  1.0 0.0295204309
C  C126  1  0.98600000  0.42000000  0.57800000  1.0 -0.0416975099
C  C127  1  0.00500000  0.42600000  0.53200000  1.0 -0.0468679168
C  C128  1  0.08280000  0.62490000  0.28340000  1.0 0.0226764925
C  C129  1  0.07580000  0.61800000  0.33300000  1.0 -0.0783318575
C  C130  1  0.01430000  0.65150000  0.34915000  1.0 0.0295204309
C  C131  1  0.95970000  0.69180000  0.31570000  1.0 -0.0739774476
C  C132  1  0.96670000  0.69870000  0.26600000  1.0 0.0295204309
C  C133  1  0.32600000  0.04390000  0.16220000  1.0 -0.1396761181
C  C134  1  0.11390000  0.57470000  0.12320000  1.0 0.5718180355
C  C135  1  0.31140000  0.98830000  0.12540000  1.0 0.069214708
C  C136  1  0.29430000  0.29170000  0.08510000  1.0 -0.1507537656
C  C137  1  0.53620000  0.15940000  0.11410000  1.0 -0.0192864477
C  C138  1  0.77170000  0.47800000  0.05750000  1.0 -0.0992479059
C  C139  1  0.72400000  0.91610000  0.10880000  1.0 0.069214708
C  C140  1  0.45860000  0.16190000  0.11820000  1.0 -0.0192864477
C  C141  1  0.23170000  0.43180000  0.07710000  1.0 -0.1396761181
C  C142  1  0.15650000  0.81990000  0.13000000  1.0 -0.0416975099
C  C143  1  0.89070000  0.56230000  0.10150000  1.0 0.5718180355
C  C144  1  0.18120000  0.48630000  0.07680000  1.0 -0.0992479059
C  C145  1  0.32700000  0.34700000  0.12340000  1.0 0.0586411082
C  C146  1  0.88610000  0.74840000  0.10710000  1.0 0.5846842643
C  C147  1  0.27880000  0.40890000  0.12400000  1.0 0.069214708
C  C148  1  0.34720000  0.98820000  0.08410000  1.0 -0.1507537656
C  C149  1  0.58310000  0.22030000  0.11030000  1.0 0.069214708
C  C150  1  0.82740000  0.80430000  0.10770000  1.0 -0.0289551463
C  C151  1  0.99160000  0.59240000  0.95480000  1.0 0.1018043493
C  C152  1  0.33770000  0.23230000  0.08610000  1.0 -0.1507537656
C  C153  1  0.59730000  0.32230000  0.07150000  1.0 -0.1396761181
C  C154  1  0.98850000  0.58740000  0.90290000  1.0 -0.1793840859
C  C155  1  0.67260000  0.97600000  0.10970000  1.0 0.069214708
C  C156  1  0.10290000  0.76230000  0.13130000  1.0 0.5860316869
C  C157  1  0.22580000  0.49880000  0.17160000  1.0 -0.1093581426
C  C158  1  0.58140000  0.09450000  0.11360000  1.0 0.069214708
C  C159  1  0.67830000  0.33650000  0.10670000  1.0 0.0518924381
C  C160  1  0.55090000  0.26730000  0.07360000  1.0 -0.1396761181
C  C161  1  0.39630000  0.04370000  0.08230000  1.0 -0.1507537656
C  C162  1  0.41110000  0.10080000  0.12030000  1.0 0.069214708
C  C163  1  0.37440000  0.10010000  0.16060000  1.0 -0.1507537656
C  C164  1  0.83290000  0.50570000  0.10260000  1.0 -0.0289551463
C  C165  1  0.16100000  0.83690000  0.08170000  1.0 -0.0992479059
C  C166  1  0.17720000  0.52060000  0.12420000  1.0 -0.0289551463
C  C167  1  0.82550000  0.83960000  0.15500000  1.0 -0.0907099373
C  C168  1  0.59490000  0.05200000  0.15220000  1.0 -0.1396761181
C  C169  1  0.41710000  0.22750000  0.12210000  1.0 0.069214708
C  C170  1  0.77620000  0.82530000  0.06050000  1.0 -0.1093581426
C  C171  1  0.26000000  0.93060000  0.12740000  1.0 0.069214708
C  C172  1  0.77420000  0.89430000  0.15510000  1.0 -0.1396761181
C  C173  1  0.63930000  0.99320000  0.15040000  1.0 -0.1396761181
C  C174  1  0.27740000  0.44560000  0.17230000  1.0 -0.1569919669
C  C175  1  0.44910000  0.28140000  0.16050000  1.0 -0.1507537656
C  C176  1  0.71150000  0.28980000  0.14320000  1.0 -0.1396761181
C  C177  1  0.72620000  0.88040000  0.06100000  1.0 -0.1507537656
C  C178  1  0.20460000  0.85810000  0.17580000  1.0 -0.0907099373
C  C179  1  0.96230000  0.64100000  0.87410000  1.0 0.1191383978
C  C180  1  0.84090000  0.47930000  0.14960000  1.0 -0.0992479059
C  C181  1  0.40510000  0.34080000  0.16140000  1.0 -0.1507537656
C  C182  1  0.65940000  0.01970000  0.07070000  1.0 -0.1507537656
C  C183  1  0.61610000  0.07830000  0.07230000  1.0 -0.1507537656
C  C184  1  0.71890000  0.42510000  0.05750000  1.0 -0.1507537656
C  C185  1  0.96020000  0.63780000  0.81830000  1.0 0.0518924381
C  C186  1  0.21150000  0.89140000  0.08090000  1.0 -0.1507537656
C  C187  1  0.25380000  0.91290000  0.17410000  1.0 -0.1507537656
C  C188  1  0.93750000  0.69860000  0.90040000  1.0 -0.2011757824
C  C189  1  0.94010000  0.69950000  0.95290000  1.0 0.069214708
C  C190  1  0.72710000  0.39620000  0.10530000  1.0 0.069214708
C  C191  1  0.79090000  0.42620000  0.15110000  1.0 -0.1396761181
C  C192  1  0.66350000  0.23320000  0.14400000  1.0 -0.1507537656
C  C193  1  0.98980000  0.63150000  0.50200000  1.0 0.0434203208
C  C194  1  0.94970000  0.68240000  0.47280000  1.0 -0.0783318575
C  C195  1  0.95840000  0.68850000  0.42350000  1.0 -0.0416975099
C  C196  1  0.00730000  0.64360000  0.40340000  1.0 -0.0128955753
C  C197  1  0.04730000  0.59270000  0.43270000  1.0 -0.0289551463
C  C198  1  0.03860000  0.58660000  0.48200000  1.0 -0.0416975099
C  C199  1  0.80970000  0.60820000  0.61480000  1.0 -0.2806294407
C  C200  1  0.77130000  0.67590000  0.62800000  1.0 0.0586411082
C  C201  1  0.98810000  0.62950000  0.55780000  1.0 -0.0468679168
C  C202  1  0.80820000  0.02410000  0.68760000  1.0 -0.2697951578
C  C203  1  0.74320000  0.97600000  0.66590000  1.0 0.1710922908
C  C204  1  0.73490000  0.92330000  0.69420000  1.0 0.0518924381
C  C205  1  0.79150000  0.91870000  0.74430000  1.0 -0.3008714798
C  C206  1  0.85650000  0.96670000  0.76600000  1.0 0.1710922908
C  C207  1  0.86490000  0.01940000  0.73760000  1.0 0.0518924381
C  C208  1  0.99050000  0.69550000  0.80200000  1.0 -0.1507537656
C  C209  1  0.93670000  0.57830000  0.73180000  1.0 -0.174667168
C  C210  1  0.93720000  0.58200000  0.78340000  1.0 -0.1305938694
C  C211  1  0.96340000  0.63450000  0.71340000  1.0 0.1018043493
C  C212  1  0.99200000  0.69360000  0.74950000  1.0 -0.1396761181
C  C213  1  0.90000000  0.61620000  0.61360000  1.0 0.0912166139
C  C214  1  0.76340000  0.69230000  0.67930000  1.0 -0.3172687772
C  C215  1  0.96510000  0.63170000  0.65720000  1.0 0.0140333394
C  C216  1  0.73180000  0.75530000  0.69310000  1.0 0.1809350368
C  C217  1  0.04110000  0.64780000  0.65160000  1.0 -0.2085709977
C  C218  1  0.94280000  0.06680000  0.76160000  1.0 -0.2806294407
C  C219  1  0.13280000  0.79400000  0.59550000  1.0 -0.3172687772
C  C220  1  0.16210000  0.74080000  0.62530000  1.0 0.0586411082
C  C221  1  0.21000000  0.75450000  0.67840000  1.0 0.1643234011
C  C222  1  0.22860000  0.82140000  0.70180000  1.0 -0.252803925
C  C223  1  0.19930000  0.87460000  0.67190000  1.0 0.0140333394
C  C224  1  0.15140000  0.86090000  0.61880000  1.0 0.2205472705
C  C225  1  0.70130000  0.79920000  0.65610000  1.0 0.0295204309
C  C226  1  0.74380000  0.72270000  0.59250000  1.0 0.154936355
C  C227  1  0.05420000  0.64710000  0.60260000  1.0 0.0912166139
C  C228  1  0.91220000  0.61510000  0.56310000  1.0 -0.2633409043
C  C229  1  0.66790000  0.86570000  0.66970000  1.0 -0.2697951578
C  C230  1  0.14300000  0.66820000  0.60320000  1.0 -0.2861568513
C  C231  1  0.74020000  0.72580000  0.77870000  1.0 -0.2387781921
C  C232  1  0.01500000  0.04290000  0.74420000  1.0 0.0518924381
C  C233  1  0.03070000  0.06110000  0.69940000  1.0 0.1710922908
C  C234  1  0.09530000  0.03190000  0.68390000  1.0 -0.2806294407
C  C235  1  0.14420000  0.98460000  0.71330000  1.0 0.0518924381
C  C236  1  0.12850000  0.96650000  0.75800000  1.0 0.1710922908
C  C237  1  0.06390000  0.99560000  0.77350000  1.0 -0.2633409043
C  C238  1  0.90760000  0.90880000  0.84280000  1.0 -0.252803925
C  C239  1  0.15850000  0.89370000  0.83000000  1.0 -0.252803925
C  C240  1  0.70930000  0.78220000  0.60390000  1.0 -0.2697951578
C  C241  1  0.70730000  0.73810000  0.49920000  1.0 -0.2387781921
C  C242  1  0.21330000  0.94740000  0.69520000  1.0 -0.2633409043
C  C243  1  0.70140000  0.03490000  0.58700000  1.0 -0.2806294407
C  C244  1  0.07380000  0.90640000  0.53270000  1.0 -0.3172687772
C  C245  1  0.32600000  0.68540000  0.72160000  1.0 -0.2633409043
C  C246  1  0.98010000  0.11060000  0.61610000  1.0 -0.2697951578
C  C247  1  0.00400000  0.69500000  0.48700000  1.0 -0.0468679168
C  C248  1  0.02900000  0.69900000  0.44300000  1.0 -0.0907099373
C  C249  1  0.01610000  0.72320000  0.28150000  1.0 0.0226764925
C  C250  1  0.01030000  0.71620000  0.33220000  1.0 -0.0783318575
C  C251  1  0.02700000  0.59380000  0.31750000  1.0 -0.0907099373
C  C252  1  0.03800000  0.60150000  0.26830000  1.0 0.0295204309
C  C253  1  0.01400000  0.58000000  0.42200000  1.0 -0.0416975099
C  C254  1  0.99500000  0.57400000  0.46800000  1.0 -0.0416975099
N  N1  1  0.97170000  0.33470000  0.75009000  1.0 -0.1569919669
N  N2  1  0.03150000  0.35400000  0.01914000  1.0 -0.2195355478
N  N3  1  0.02830000  0.66530000  0.24991000  1.0 -0.1569919669
N  N4  1  0.96850000  0.64600000  0.98086000  1.0 -0.2195355478
O  O1  1  0.93340000  0.41464000  0.92070000  1.0 -0.5300432179
O  O2  1  0.11090000  0.27859000  0.93760000  1.0 -0.5406657639
O  O3  1  0.11090000  0.42309000  0.94306000  1.0 -0.5300432179
O  O4  1  0.07240000  0.26860000  0.84915000  1.0 -0.5406657639
O  O5  1  0.88800000  0.39670000  0.83288000  1.0 -0.5300432179
O  O6  1  0.93890000  0.27010000  0.91303000  1.0 -0.5561309937
O  O7  1  0.89930000  0.25260000  0.82468000  1.0 -0.5300432179
O  O8  1  0.05960000  0.41270000  0.85426000  1.0 -0.5686105671
O  O9  1  0.28140000  0.22750000  0.25870000  1.0 -0.1396761181
O  O10  1  0.08500000  0.03280000  0.18450000  1.0 -0.1396761181
O  O11  1  0.25020000  0.29850000  0.45850000  1.0 -0.2011757824
O  O12  1  0.82440000  0.08250000  0.21530000  1.0 -0.1507537656
O  O13  1  0.76490000  0.29880000  0.28970000  1.0 -0.2011757824
O  O14  1  0.31530000  0.02470000  0.38460000  1.0 -0.1569919669
O  O15  1  0.87350000  0.08630000  0.40630000  1.0 -0.1093581426
O  O16  1  0.02760000  0.89460000  0.33080000  1.0 -0.2085709977
O  O17  1  0.06660000  0.58536000  0.07930000  1.0 -0.5300432179
O  O18  1  0.88910000  0.72141000  0.06240000  1.0 -0.5406657639
O  O19  1  0.88910000  0.57691000  0.05694000  1.0 -0.5300432179
O  O20  1  0.92760000  0.73140000  0.15085000  1.0 -0.5406657639
O  O21  1  0.11200000  0.60330000  0.16712000  1.0 -0.5300432179
O  O22  1  0.06110000  0.72990000  0.08697000  1.0 -0.5561309937
O  O23  1  0.10070000  0.74740000  0.17532000  1.0 -0.5300432179
O  O24  1  0.94040000  0.58730000  0.14574000  1.0 -0.5686105671
O  O25  1  0.71860000  0.77250000  0.74130000  1.0 -0.1396761181
O  O26  1  0.91500000  0.96720000  0.81550000  1.0 -0.1396761181
O  O27  1  0.74980000  0.70150000  0.54150000  1.0 -0.2011757824
O  O28  1  0.17560000  0.91750000  0.78470000  1.0 -0.1507537656
O  O29  1  0.23510000  0.70120000  0.71030000  1.0 -0.2011757824
O  O30  1  0.68470000  0.97530000  0.61540000  1.0 -0.1569919669
O  O31  1  0.12650000  0.91370000  0.59370000  1.0 -0.1093581426
O  O32  1  0.97240000  0.10540000  0.66920000  1.0 -0.2085709977
