# DDEC6 charges by PACMAN v1.1 (https://github.com/mtap-research/PACMAN-charge/)
data_CISMAT01_ASR_pacman
_symmetry_space_group_name_H-M   'P 1'
_cell_length_a   4.96925000
_cell_length_b   12.00130000
_cell_length_c   10.74400000
_cell_angle_alpha   90.00000000
_cell_angle_beta   94.05830000
_cell_angle_gamma   90.00000000
_symmetry_Int_Tables_number   1
_chemical_formula_structural   AlPH4C2O3F
_chemical_formula_sum   'Al4 P4 H16 C8 O12 F4'
_cell_volume   639.13823783
_cell_formula_units_Z   4
loop_
 _symmetry_equiv_pos_site_id
 _symmetry_equiv_pos_as_xyz
  1  'x, y, z'
loop_
 _atom_site_type_symbol
 _atom_site_label
 _atom_site_symmetry_multiplicity
 _atom_site_fract_x
 _atom_site_fract_y
 _atom_site_fract_z
 _atom_site_occupancy
 _atom_site_charge
Al  Al1  1  0.00000000  0.50000000  0.00000000  1.0 1.7728032994
Al  Al2  1  0.00000000  0.00000000  0.00000000  1.0 1.7728032994
Al  Al3  1  0.25904000  0.25000000  0.93769000  1.0 1.8322164345
Al  Al4  1  0.74096000  0.75000000  0.06231000  1.0 1.8322164345
P  P1  1  0.51291000  0.52760000  0.16717000  1.0 1.4143028187
P  P2  1  0.48709000  0.47240000  0.83283000  1.0 1.4143028187
P  P3  1  0.48709000  0.02760000  0.83283000  1.0 1.4143028187
P  P4  1  0.51291000  0.97240000  0.16717000  1.0 1.4143028187
H  H1  1  0.50583000  0.64827000  0.33327000  1.0 0.15772035
H  H2  1  0.49417000  0.35173000  0.66666667  1.0 0.15772035
H  H3  1  0.49417000  0.14827000  0.66666667  1.0 0.15772035
H  H4  1  0.50583000  0.85173000  0.33327000  1.0 0.15772035
H  H5  1  0.09416000  0.52114000  0.38733000  1.0 -0.0090200132
H  H6  1  0.90584000  0.47886000  0.61267000  1.0 -0.0090200132
H  H7  1  0.90584000  0.02114000  0.61267000  1.0 -0.0090200132
H  H8  1  0.09416000  0.97886000  0.38733000  1.0 -0.0090200132
H  H9  1  0.58482000  0.28128000  0.34301000  1.0 0.0278733152
H  H10  1  0.41518000  0.71872000  0.65699000  1.0 0.0278733152
H  H11  1  0.41518000  0.78128000  0.65699000  1.0 0.0278733152
H  H12  1  0.58482000  0.21872000  0.34301000  1.0 0.0278733152
H  H13  1  0.93395000  0.52908000  0.37989000  1.0 -0.0090200132
H  H14  1  0.06605000  0.47092000  0.62011000  1.0 -0.0090200132
H  H15  1  0.06605000  0.02908000  0.62011000  1.0 -0.0090200132
H  H16  1  0.93395000  0.97092000  0.37989000  1.0 -0.0090200132
C  C1  1  0.49364000  0.50859000  0.44035000  1.0 0.0928433838
C  C2  1  0.50636000  0.49141000  0.55965000  1.0 0.0928433838
C  C3  1  0.50636000  0.00859000  0.55965000  1.0 0.0928433838
C  C4  1  0.49364000  0.99141000  0.44035000  1.0 0.0928433838
C  C5  1  0.54449000  0.55726000  0.33390000  1.0 -0.4244654548
C  C6  1  0.45551000  0.44274000  0.66610000  1.0 -0.4251697731
C  C7  1  0.45551000  0.05726000  0.66610000  1.0 -0.4251697731
C  C8  1  0.54449000  0.94274000  0.33390000  1.0 -0.4244654548
O  O1  1  0.70265000  0.45194000  0.09884000  1.0 -0.8223780018
O  O2  1  0.29735000  0.54806000  0.90116000  1.0 -0.8223780018
O  O3  1  0.29735000  0.95194000  0.90116000  1.0 -0.8223780018
O  O4  1  0.70265000  0.04806000  0.09884000  1.0 -0.8223780018
O  O5  1  0.54955000  0.64933000  0.12577000  1.0 -0.8223780018
O  O6  1  0.45045000  0.35067000  0.87423000  1.0 -0.8223780018
O  O7  1  0.45045000  0.14933000  0.87423000  1.0 -0.8223780018
O  O8  1  0.54955000  0.85067000  0.12577000  1.0 -0.8223780018
O  O9  1  0.21819000  0.49686000  0.14716000  1.0 -0.812161572
O  O10  1  0.78181000  0.50314000  0.85284000  1.0 -0.812161572
O  O11  1  0.78181000  0.99686000  0.85284000  1.0 -0.812161572
O  O12  1  0.21819000  0.00314000  0.14716000  1.0 -0.812161572
F  F1  1  0.03585000  0.34814000  0.98870000  1.0 -0.5966392231
F  F2  1  0.96415000  0.65186000  0.01130000  1.0 -0.594309814
F  F3  1  0.96415000  0.84814000  0.01130000  1.0 -0.594309814
F  F4  1  0.03585000  0.15186000  0.98870000  1.0 -0.5966392231
