# DDEC6 charges by PACMAN v1.1 (https://github.com/mtap-research/PACMAN-charge/)
data_CITPOO_FSR_pacman
_symmetry_space_group_name_H-M   'P 1'
_cell_length_a   26.33740000
_cell_length_b   26.33740000
_cell_length_c   26.33740000
_cell_angle_alpha   109.47400000
_cell_angle_beta   109.47400000
_cell_angle_gamma   109.46500000
_symmetry_Int_Tables_number   1
_chemical_formula_structural   Cu3H30C36(N2O9)2
_chemical_formula_sum   'Cu24 H240 C288 N32 O144'
_cell_volume   14063.72459373
_cell_formula_units_Z   8
loop_
 _symmetry_equiv_pos_site_id
 _symmetry_equiv_pos_as_xyz
  1  'x, y, z'
loop_
 _atom_site_type_symbol
 _atom_site_label
 _atom_site_symmetry_multiplicity
 _atom_site_fract_x
 _atom_site_fract_y
 _atom_site_fract_z
 _atom_site_occupancy
 _atom_site_charge
Cu  Cu1  1  0.14226000  0.46292000  0.60518000  1.0 0.9098064696
Cu  Cu2  1  0.85774000  0.53708000  0.39482000  1.0 0.9098064696
Cu  Cu3  1  0.46292000  0.85774000  0.32066000  1.0 0.9098064696
Cu  Cu4  1  0.53708000  0.14226000  0.67934000  1.0 0.9098064696
Cu  Cu5  1  0.77189000  0.52250000  0.29439000  1.0 0.9257372712
Cu  Cu6  1  0.22811000  0.47750000  0.70561000  1.0 0.9257372712
Cu  Cu7  1  0.52250000  0.22811000  0.75061000  1.0 0.9257372712
Cu  Cu8  1  0.47750000  0.77189000  0.24939000  1.0 0.9257372712
Cu  Cu9  1  0.21618000  0.17617000  0.73271000  1.0 0.943214575
Cu  Cu10  1  0.44346000  0.48347000  0.26729000  1.0 0.943214575
Cu  Cu11  1  0.17617000  0.44346000  0.95999000  1.0 0.943214575
Cu  Cu12  1  0.48347000  0.21618000  0.04001000  1.0 0.943214575
Cu  Cu13  1  0.78382000  0.82383000  0.26729000  1.0 0.943214575
Cu  Cu14  1  0.55654000  0.51653000  0.73271000  1.0 0.943214575
Cu  Cu15  1  0.82383000  0.55654000  0.04001000  1.0 0.943214575
Cu  Cu16  1  0.51653000  0.78382000  0.95999000  1.0 0.943214575
Cu  Cu17  1  0.45865000  0.11293000  0.04712000  1.0 0.8279385587
Cu  Cu18  1  0.06581000  0.41153000  0.95288000  1.0 0.8279385587
Cu  Cu19  1  0.11293000  0.06581000  0.65428000  1.0 0.8279385587
Cu  Cu20  1  0.41153000  0.45865000  0.34572000  1.0 0.8279385587
Cu  Cu21  1  0.54135000  0.88707000  0.95288000  1.0 0.8279385587
Cu  Cu22  1  0.93419000  0.58847000  0.04712000  1.0 0.8279385587
Cu  Cu23  1  0.88707000  0.93419000  0.34572000  1.0 0.8279385587
Cu  Cu24  1  0.58847000  0.54135000  0.65428000  1.0 0.8279385587
H  H1  1  0.79443000  0.33533000  0.33524000  1.0 0.1591996763
H  H2  1  0.00009000  0.45919000  0.66476000  1.0 0.1591996763
H  H3  1  0.33533000  0.00009000  0.54090000  1.0 0.1591996763
H  H4  1  0.45919000  0.79443000  0.45910000  1.0 0.1591996763
H  H5  1  0.20557000  0.66467000  0.66476000  1.0 0.1591996763
H  H6  1  0.99991000  0.54081000  0.33524000  1.0 0.1591996763
H  H7  1  0.66467000  0.99991000  0.45910000  1.0 0.1591996763
H  H8  1  0.54081000  0.20557000  0.54090000  1.0 0.1591996763
H  H9  1  0.66017000  0.33237000  0.20042000  1.0 0.1591996763
H  H10  1  0.13195000  0.45975000  0.79958000  1.0 0.1591996763
H  H11  1  0.33237000  0.13195000  0.67220000  1.0 0.1591996763
H  H12  1  0.45975000  0.66017000  0.32780000  1.0 0.1591996763
H  H13  1  0.33983000  0.66763000  0.79958000  1.0 0.1591996763
H  H14  1  0.86805000  0.54025000  0.20042000  1.0 0.1591996763
H  H15  1  0.66763000  0.86805000  0.32780000  1.0 0.1591996763
H  H16  1  0.54025000  0.33983000  0.67220000  1.0 0.1591996763
H  H17  1  0.63767000  0.17252000  0.19819000  1.0 0.1291277267
H  H18  1  0.97433000  0.43948000  0.80181000  1.0 0.1291277267
H  H19  1  0.17252000  0.97433000  0.53485000  1.0 0.1291277267
H  H20  1  0.43948000  0.63767000  0.46515000  1.0 0.1291277267
H  H21  1  0.36233000  0.82748000  0.80181000  1.0 0.1291277267
H  H22  1  0.02567000  0.56052000  0.19819000  1.0 0.1291277267
H  H23  1  0.82748000  0.02567000  0.46515000  1.0 0.1291277267
H  H24  1  0.56052000  0.36233000  0.53485000  1.0 0.1291277267
H  H25  1  0.02925000  0.11362000  0.52109000  1.0 0.1510345169
H  H26  1  0.59253000  0.50816000  0.47891000  1.0 0.1510345169
H  H27  1  0.11362000  0.59253000  0.08437000  1.0 0.1510345169
H  H28  1  0.50816000  0.02925000  0.91563000  1.0 0.1510345169
H  H29  1  0.97075000  0.88638000  0.47891000  1.0 0.1510345169
H  H30  1  0.40747000  0.49184000  0.52109000  1.0 0.1510345169
H  H31  1  0.88638000  0.40747000  0.91563000  1.0 0.1510345169
H  H32  1  0.49184000  0.97075000  0.08437000  1.0 0.1510345169
H  H33  1  0.17489000  0.28540000  0.65401000  1.0 0.1510345169
H  H34  1  0.63139000  0.52088000  0.34599000  1.0 0.1510345169
H  H35  1  0.28540000  0.63139000  0.11051000  1.0 0.1510345169
H  H36  1  0.52088000  0.17489000  0.88949000  1.0 0.1510345169
H  H37  1  0.82511000  0.71460000  0.34599000  1.0 0.1510345169
H  H38  1  0.36861000  0.47912000  0.65401000  1.0 0.1510345169
H  H39  1  0.71460000  0.36861000  0.88949000  1.0 0.1510345169
H  H40  1  0.47912000  0.82511000  0.11051000  1.0 0.1510345169
H  H41  1  0.30946000  0.13422000  0.86886000  1.0 0.1510345169
H  H42  1  0.26536000  0.44060000  0.13114000  1.0 0.1591996763
H  H43  1  0.13422000  0.26536000  0.82476000  1.0 0.1510345169
H  H44  1  0.44060000  0.30946000  0.17524000  1.0 0.1591996763
H  H45  1  0.69054000  0.86578000  0.13114000  1.0 0.1591996763
H  H46  1  0.73464000  0.55940000  0.86886000  1.0 0.1510345169
H  H47  1  0.86578000  0.73464000  0.17524000  1.0 0.1591996763
H  H48  1  0.55940000  0.69054000  0.82476000  1.0 0.1591996763
H  H49  1  0.70920000  0.17447000  0.27711000  1.0 0.2831808944
H  H50  1  0.89736000  0.43209000  0.72289000  1.0 0.2831808944
H  H51  1  0.17447000  0.89736000  0.46527000  1.0 0.2831808944
H  H52  1  0.43209000  0.70920000  0.53473000  1.0 0.2831808944
H  H53  1  0.29080000  0.82553000  0.72289000  1.0 0.2831808944
H  H54  1  0.10264000  0.56791000  0.27711000  1.0 0.2831808944
H  H55  1  0.82553000  0.10264000  0.53473000  1.0 0.2831808944
H  H56  1  0.56791000  0.29080000  0.46527000  1.0 0.2831808944
H  H57  1  0.94735000  0.10402000  0.44127000  1.0 0.3005336282
H  H58  1  0.66275000  0.50608000  0.55873000  1.0 0.3005336282
H  H59  1  0.10402000  0.66275000  0.15667000  1.0 0.3005336282
H  H60  1  0.50608000  0.94735000  0.84333000  1.0 0.3005336282
H  H61  1  0.05265000  0.89598000  0.55873000  1.0 0.3005336282
H  H62  1  0.33725000  0.49392000  0.44127000  1.0 0.3005336282
H  H63  1  0.89598000  0.33725000  0.84333000  1.0 0.3005336282
H  H64  1  0.49392000  0.05265000  0.15667000  1.0 0.3005336282
H  H65  1  0.03768000  0.26500000  0.50752000  1.0 0.1591996763
H  H66  1  0.75748000  0.53016000  0.49248000  1.0 0.1591996763
H  H67  1  0.26500000  0.75748000  0.22732000  1.0 0.1591996763
H  H68  1  0.53016000  0.03768000  0.77268000  1.0 0.1591996763
H  H69  1  0.96232000  0.73500000  0.49248000  1.0 0.1591996763
H  H70  1  0.24252000  0.46984000  0.50752000  1.0 0.1591996763
H  H71  1  0.73500000  0.24252000  0.77268000  1.0 0.1591996763
H  H72  1  0.46984000  0.96232000  0.22732000  1.0 0.1591996763
H  H73  1  0.26193000  0.01181000  0.92914000  1.0 0.1398879347
H  H74  1  0.08267000  0.33279000  0.07086000  1.0 0.1398879347
H  H75  1  0.01181000  0.08267000  0.74988000  1.0 0.1398879347
H  H76  1  0.33279000  0.26193000  0.25012000  1.0 0.1398879347
H  H77  1  0.73807000  0.98819000  0.07086000  1.0 0.1398879347
H  H78  1  0.91733000  0.66721000  0.92914000  1.0 0.1398879347
H  H79  1  0.98819000  0.91733000  0.25012000  1.0 0.1398879347
H  H80  1  0.66721000  0.73807000  0.74988000  1.0 0.1398879347
H  H81  1  0.13122000  0.99789000  0.78101000  1.0 0.1398879347
H  H82  1  0.21688000  0.35021000  0.21899000  1.0 0.1398879347
H  H83  1  0.99789000  0.21688000  0.86667000  1.0 0.1398879347
H  H84  1  0.35021000  0.13122000  0.13333000  1.0 0.1398879347
H  H85  1  0.86878000  0.00211000  0.21899000  1.0 0.1398879347
H  H86  1  0.78312000  0.64979000  0.78101000  1.0 0.1398879347
H  H87  1  0.00211000  0.78312000  0.13333000  1.0 0.1398879347
H  H88  1  0.64979000  0.86878000  0.86667000  1.0 0.1398879347
H  H89  1  0.43603000  0.98619000  0.95840000  1.0 0.1510345169
H  H90  1  0.02779000  0.47763000  0.04160000  1.0 0.1510345169
H  H91  1  0.98619000  0.02779000  0.55016000  1.0 0.1510345169
H  H92  1  0.47763000  0.43603000  0.44984000  1.0 0.1510345169
H  H93  1  0.56397000  0.01381000  0.04160000  1.0 0.1510345169
H  H94  1  0.97221000  0.52237000  0.95840000  1.0 0.1510345169
H  H95  1  0.01381000  0.97221000  0.44984000  1.0 0.1510345169
H  H96  1  0.52237000  0.56397000  0.55016000  1.0 0.1510345169
H  H97  1  0.38482000  0.92022000  0.89708000  1.0 0.1291277267
H  H98  1  0.02314000  0.48774000  0.10292000  1.0 0.1291277267
H  H99  1  0.92022000  0.02314000  0.53540000  1.0 0.1291277267
H  H100  1  0.48774000  0.38482000  0.46460000  1.0 0.1291277267
H  H101  1  0.61518000  0.07978000  0.10292000  1.0 0.1291277267
H  H102  1  0.97686000  0.51226000  0.89708000  1.0 0.1291277267
H  H103  1  0.07978000  0.97686000  0.46460000  1.0 0.1291277267
H  H104  1  0.51226000  0.61518000  0.53540000  1.0 0.1291277267
H  H105  1  0.43231000  0.92373000  0.95680000  1.0 0.1510345169
H  H106  1  0.96693000  0.47551000  0.04320000  1.0 0.1591996763
H  H107  1  0.92373000  0.96693000  0.49142000  1.0 0.1591996763
H  H108  1  0.47551000  0.43231000  0.50858000  1.0 0.1591996763
H  H109  1  0.56769000  0.07627000  0.04320000  1.0 0.1510345169
H  H110  1  0.03307000  0.52449000  0.95680000  1.0 0.1510345169
H  H111  1  0.07627000  0.03307000  0.50858000  1.0 0.1510345169
H  H112  1  0.52449000  0.56769000  0.49142000  1.0 0.1510345169
H  H113  1  0.75899000  0.12918000  0.29569000  1.0 0.1002466884
H  H114  1  0.83349000  0.46330000  0.70431000  1.0 0.1002466884
H  H115  1  0.12918000  0.83349000  0.37019000  1.0 0.1002466884
H  H116  1  0.46330000  0.75899000  0.62981000  1.0 0.1002466884
H  H117  1  0.24101000  0.87082000  0.70431000  1.0 0.1002466884
H  H118  1  0.16651000  0.53670000  0.29569000  1.0 0.1002466884
H  H119  1  0.87082000  0.16651000  0.62981000  1.0 0.1002466884
H  H120  1  0.53670000  0.24101000  0.37019000  1.0 0.1002466884
H  H121  1  0.78894000  0.17926000  0.40330000  1.0 0.107741722
H  H122  1  0.77596000  0.38564000  0.59670000  1.0 0.107741722
H  H123  1  0.17926000  0.77596000  0.39032000  1.0 0.107741722
H  H124  1  0.38564000  0.78894000  0.60968000  1.0 0.107741722
H  H125  1  0.21106000  0.82074000  0.59670000  1.0 0.107741722
H  H126  1  0.22404000  0.61436000  0.40330000  1.0 0.107741722
H  H127  1  0.82074000  0.22404000  0.60968000  1.0 0.107741722
H  H128  1  0.61436000  0.21106000  0.39032000  1.0 0.107741722
H  H129  1  0.86094000  0.21500000  0.42240000  1.0 0.1212787002
H  H130  1  0.79260000  0.43854000  0.57760000  1.0 0.1212787002
H  H131  1  0.21500000  0.79260000  0.35406000  1.0 0.1212787002
H  H132  1  0.43854000  0.86094000  0.64594000  1.0 0.1212787002
H  H133  1  0.13906000  0.78500000  0.57760000  1.0 0.1212787002
H  H134  1  0.20740000  0.56146000  0.42240000  1.0 0.1212787002
H  H135  1  0.78500000  0.20740000  0.64594000  1.0 0.1212787002
H  H136  1  0.56146000  0.13906000  0.35406000  1.0 0.1212787002
H  H137  1  0.78292000  0.08001000  0.35901000  1.0 0.1212787002
H  H138  1  0.72100000  0.42391000  0.64099000  1.0 0.1212787002
H  H139  1  0.08001000  0.72100000  0.29709000  1.0 0.1212787002
H  H140  1  0.42391000  0.78292000  0.70291000  1.0 0.1212787002
H  H141  1  0.21708000  0.91999000  0.64099000  1.0 0.1212787002
H  H142  1  0.27900000  0.57609000  0.35901000  1.0 0.1212787002
H  H143  1  0.91999000  0.27900000  0.70291000  1.0 0.1212787002
H  H144  1  0.57609000  0.21708000  0.29709000  1.0 0.1212787002
H  H145  1  0.83946000  0.12114000  0.42906000  1.0 0.1002466884
H  H146  1  0.69208000  0.41040000  0.57094000  1.0 0.1002466884
H  H147  1  0.12114000  0.69208000  0.28168000  1.0 0.1002466884
H  H148  1  0.41040000  0.83946000  0.71832000  1.0 0.1002466884
H  H149  1  0.16054000  0.87886000  0.57094000  1.0 0.1002466884
H  H150  1  0.30792000  0.58960000  0.42906000  1.0 0.1002466884
H  H151  1  0.87886000  0.30792000  0.71832000  1.0 0.1002466884
H  H152  1  0.58960000  0.16054000  0.28168000  1.0 0.1002466884
H  H153  1  0.86389000  0.06577000  0.35768000  1.0 0.1212787002
H  H154  1  0.70809000  0.50621000  0.64232000  1.0 0.1212787002
H  H155  1  0.06577000  0.70809000  0.20188000  1.0 0.1212787002
H  H156  1  0.50621000  0.86389000  0.79812000  1.0 0.1212787002
H  H157  1  0.13611000  0.93423000  0.64232000  1.0 0.1212787002
H  H158  1  0.29191000  0.49379000  0.35768000  1.0 0.1212787002
H  H159  1  0.93423000  0.29191000  0.79812000  1.0 0.1212787002
H  H160  1  0.49379000  0.13611000  0.20188000  1.0 0.1212787002
H  H161  1  0.81014000  0.06797000  0.27329000  1.0 0.1212787002
H  H162  1  0.79468000  0.53685000  0.72671000  1.0 0.1212787002
H  H163  1  0.06797000  0.79468000  0.25783000  1.0 0.1212787002
H  H164  1  0.53685000  0.81014000  0.74217000  1.0 0.1212787002
H  H165  1  0.18986000  0.93203000  0.72671000  1.0 0.1212787002
H  H166  1  0.20532000  0.46315000  0.27329000  1.0 0.1212787002
H  H167  1  0.93203000  0.20532000  0.74217000  1.0 0.1212787002
H  H168  1  0.46315000  0.18986000  0.25783000  1.0 0.1212787002
H  H169  1  0.88182000  0.10384000  0.29316000  1.0 0.1212787002
H  H170  1  0.81068000  0.58866000  0.70684000  1.0 0.1212787002
H  H171  1  0.10384000  0.81068000  0.22202000  1.0 0.1212787002
H  H172  1  0.58866000  0.88182000  0.77798000  1.0 0.1212787002
H  H173  1  0.11818000  0.89616000  0.70684000  1.0 0.1212787002
H  H174  1  0.18932000  0.41134000  0.29316000  1.0 0.1212787002
H  H175  1  0.89616000  0.18932000  0.77798000  1.0 0.1212787002
H  H176  1  0.41134000  0.11818000  0.22202000  1.0 0.1212787002
H  H177  1  0.88648000  0.20018000  0.33580000  1.0 0.1212787002
H  H178  1  0.86438000  0.55069000  0.66421000  1.0 0.1212787002
H  H179  1  0.20018000  0.86438000  0.31370000  1.0 0.1212787002
H  H180  1  0.55069000  0.88648000  0.68631000  1.0 0.1212787002
H  H181  1  0.11352000  0.79982000  0.66421000  1.0 0.1212787002
H  H182  1  0.13562000  0.44931000  0.33580000  1.0 0.1212787002
H  H183  1  0.79982000  0.13562000  0.68631000  1.0 0.1212787002
H  H184  1  0.44931000  0.11352000  0.31370000  1.0 0.1212787002
H  H185  1  0.83166000  0.15735000  0.26461000  1.0 0.1291277267
H  H186  1  0.89274000  0.56705000  0.73539000  1.0 0.1291277267
H  H187  1  0.15735000  0.89274000  0.32569000  1.0 0.1291277267
H  H188  1  0.56705000  0.83166000  0.67431000  1.0 0.1291277267
H  H189  1  0.16834000  0.84265000  0.73539000  1.0 0.1291277267
H  H190  1  0.10726000  0.43295000  0.26461000  1.0 0.1291277267
H  H191  1  0.84265000  0.10726000  0.67431000  1.0 0.1291277267
H  H192  1  0.43295000  0.16834000  0.32569000  1.0 0.1291277267
H  H193  1  0.33407000  0.95471000  0.06160000  1.0 0.1591996763
H  H194  1  0.89311000  0.27247000  0.93840000  1.0 0.1591996763
H  H195  1  0.95471000  0.89311000  0.62064000  1.0 0.1591996763
H  H196  1  0.27247000  0.33407000  0.37936000  1.0 0.1591996763
H  H197  1  0.66593000  0.04529000  0.93840000  1.0 0.1591996763
H  H198  1  0.10689000  0.72753000  0.06160000  1.0 0.1591996763
H  H199  1  0.04529000  0.10689000  0.37936000  1.0 0.1591996763
H  H200  1  0.72753000  0.66593000  0.62064000  1.0 0.1591996763
H  H201  1  0.29784000  0.96992000  0.01182000  1.0 0.1591996763
H  H202  1  0.95810000  0.28602000  0.98818000  1.0 0.1591996763
H  H203  1  0.96992000  0.95810000  0.67208000  1.0 0.1591996763
H  H204  1  0.28602000  0.29784000  0.32792000  1.0 0.1591996763
H  H205  1  0.70216000  0.03008000  0.98818000  1.0 0.1591996763
H  H206  1  0.04190000  0.71398000  0.01182000  1.0 0.1591996763
H  H207  1  0.03008000  0.04190000  0.32792000  1.0 0.1591996763
H  H208  1  0.71398000  0.70216000  0.67208000  1.0 0.1591996763
H  H209  1  0.35571000  0.02540000  0.07847000  1.0 0.1724596379
H  H210  1  0.94693000  0.27724000  0.92153000  1.0 0.1724596379
H  H211  1  0.02540000  0.94693000  0.66969000  1.0 0.1724596379
H  H212  1  0.27724000  0.35571000  0.33031000  1.0 0.1724596379
H  H213  1  0.64429000  0.97460000  0.92153000  1.0 0.1724596379
H  H214  1  0.05307000  0.72276000  0.07847000  1.0 0.1724596379
H  H215  1  0.97460000  0.05307000  0.33031000  1.0 0.1724596379
H  H216  1  0.72276000  0.64429000  0.66969000  1.0 0.1724596379
H  H217  1  0.28487000  0.87712000  0.95919000  1.0 0.1398879347
H  H218  1  0.91793000  0.32568000  0.04081000  1.0 0.1398879347
H  H219  1  0.87712000  0.91793000  0.59225000  1.0 0.1398879347
H  H220  1  0.32568000  0.28487000  0.40775000  1.0 0.1398879347
H  H221  1  0.71513000  0.12288000  0.04081000  1.0 0.1398879347
H  H222  1  0.08207000  0.67432000  0.95919000  1.0 0.1398879347
H  H223  1  0.12288000  0.08207000  0.40775000  1.0 0.1398879347
H  H224  1  0.67432000  0.71513000  0.59225000  1.0 0.1398879347
H  H225  1  0.29706000  0.84526000  0.90454000  1.0 0.1398879347
H  H226  1  0.94072000  0.39252000  0.09546000  1.0 0.1398879347
H  H227  1  0.84526000  0.94072000  0.54820000  1.0 0.1398879347
H  H228  1  0.39252000  0.29706000  0.45180000  1.0 0.1398879347
H  H229  1  0.70294000  0.15474000  0.09546000  1.0 0.1398879347
H  H230  1  0.05928000  0.60748000  0.90454000  1.0 0.1398879347
H  H231  1  0.15474000  0.05928000  0.45180000  1.0 0.1398879347
H  H232  1  0.60748000  0.70294000  0.54820000  1.0 0.1398879347
H  H233  1  0.27032000  0.89145000  0.90311000  1.0 0.1398879347
H  H234  1  0.98834000  0.36721000  0.09689000  1.0 0.1398879347
H  H235  1  0.89145000  0.98834000  0.62113000  1.0 0.1398879347
H  H236  1  0.36721000  0.27032000  0.37887000  1.0 0.1398879347
H  H237  1  0.72968000  0.10855000  0.09689000  1.0 0.1398879347
H  H238  1  0.01166000  0.63279000  0.90311000  1.0 0.1398879347
H  H239  1  0.10855000  0.01166000  0.37887000  1.0 0.1398879347
H  H240  1  0.63279000  0.72968000  0.62113000  1.0 0.1398879347
C  C1  1  0.72005000  0.24856000  0.26891000  1.0 0.2205897813
C  C2  1  0.97965000  0.45114000  0.73109000  1.0 0.2205897813
C  C3  1  0.24856000  0.97965000  0.52851000  1.0 0.2205897813
C  C4  1  0.45114000  0.72005000  0.47149000  1.0 0.2205897813
C  C5  1  0.27995000  0.75144000  0.73109000  1.0 0.2205897813
C  C6  1  0.02035000  0.54886000  0.26891000  1.0 0.2205897813
C  C7  1  0.75144000  0.02035000  0.47149000  1.0 0.2205897813
C  C8  1  0.54886000  0.27995000  0.52851000  1.0 0.2205897813
C  C9  1  0.75533000  0.31303000  0.29818000  1.0 -0.1611837753
C  C10  1  0.01485000  0.45715000  0.70182000  1.0 -0.1611837753
C  C11  1  0.31303000  0.01485000  0.55770000  1.0 -0.1611837753
C  C12  1  0.45715000  0.75533000  0.44230000  1.0 -0.1611837753
C  C13  1  0.24467000  0.68697000  0.70182000  1.0 -0.1611837753
C  C14  1  0.98515000  0.54285000  0.29818000  1.0 -0.1611837753
C  C15  1  0.68697000  0.98515000  0.44230000  1.0 -0.1611837753
C  C16  1  0.54285000  0.24467000  0.55770000  1.0 -0.1611837753
C  C17  1  0.73243000  0.34437000  0.27230000  1.0 0.0037674384
C  C18  1  0.07207000  0.46013000  0.72770000  1.0 0.0037674384
C  C19  1  0.34437000  0.07207000  0.61194000  1.0 0.0037674384
C  C20  1  0.46013000  0.73243000  0.38806000  1.0 0.0037674384
C  C21  1  0.26757000  0.65563000  0.72770000  1.0 0.0037674384
C  C22  1  0.92793000  0.53987000  0.27230000  1.0 0.0037674384
C  C23  1  0.65563000  0.92793000  0.38806000  1.0 0.0037674384
C  C24  1  0.53987000  0.26757000  0.61194000  1.0 0.0037674384
C  C25  1  0.67525000  0.31121000  0.21882000  1.0 -0.1092408615
C  C26  1  0.09239000  0.45643000  0.78118000  1.0 -0.1092408615
C  C27  1  0.31121000  0.09239000  0.63596000  1.0 -0.1092408615
C  C28  1  0.45643000  0.67525000  0.36404000  1.0 -0.1092408615
C  C29  1  0.32475000  0.68879000  0.78118000  1.0 -0.1092408615
C  C30  1  0.90761000  0.54357000  0.21882000  1.0 -0.1092408615
C  C31  1  0.68879000  0.90761000  0.36404000  1.0 -0.1092408615
C  C32  1  0.54357000  0.32475000  0.63596000  1.0 -0.1092408615
C  C33  1  0.63979000  0.24764000  0.19183000  1.0 0.0106655132
C  C34  1  0.05581000  0.44796000  0.80817000  1.0 0.0106655132
C  C35  1  0.24764000  0.05581000  0.60785000  1.0 0.0106655132
C  C36  1  0.44796000  0.63979000  0.39215000  1.0 0.0106655132
C  C37  1  0.36021000  0.75236000  0.80817000  1.0 0.0106655132
C  C38  1  0.94419000  0.55204000  0.19183000  1.0 0.0106655132
C  C39  1  0.75236000  0.94419000  0.39215000  1.0 0.0106655132
C  C40  1  0.55204000  0.36021000  0.60785000  1.0 0.0106655132
C  C41  1  0.66212000  0.21631000  0.21681000  1.0 -0.2123926718
C  C42  1  0.99950000  0.44531000  0.78319000  1.0 -0.2123926718
C  C43  1  0.21631000  0.99950000  0.55419000  1.0 -0.2123926718
C  C44  1  0.44531000  0.66212000  0.44581000  1.0 -0.2123926718
C  C45  1  0.33788000  0.78369000  0.78319000  1.0 -0.2123926718
C  C46  1  0.00050000  0.55469000  0.21681000  1.0 -0.2123926718
C  C47  1  0.78369000  0.00050000  0.44581000  1.0 -0.2123926718
C  C48  1  0.55469000  0.33788000  0.55419000  1.0 -0.2123926718
C  C49  1  0.76728000  0.41371000  0.30109000  1.0 0.5784751904
C  C50  1  0.11262000  0.46619000  0.69891000  1.0 0.5784751904
C  C51  1  0.41371000  0.11262000  0.64643000  1.0 0.5784751904
C  C52  1  0.46619000  0.76728000  0.35357000  1.0 0.5784751904
C  C53  1  0.23272000  0.58629000  0.69891000  1.0 0.5784751904
C  C54  1  0.88738000  0.53381000  0.30109000  1.0 0.5784751904
C  C55  1  0.58629000  0.88738000  0.35357000  1.0 0.5784751904
C  C56  1  0.53381000  0.23272000  0.64643000  1.0 0.5784751904
C  C57  1  0.57660000  0.21354000  0.13500000  1.0 0.5702573975
C  C58  1  0.07854000  0.44160000  0.86500000  1.0 0.5702573975
C  C59  1  0.21354000  0.07854000  0.63694000  1.0 0.5702573975
C  C60  1  0.44160000  0.57660000  0.36306000  1.0 0.5702573975
C  C61  1  0.42340000  0.78646000  0.86500000  1.0 0.5702573975
C  C62  1  0.92146000  0.55840000  0.13500000  1.0 0.5702573975
C  C63  1  0.78646000  0.92146000  0.36306000  1.0 0.5702573975
C  C64  1  0.55840000  0.42340000  0.63694000  1.0 0.5702573975
C  C65  1  0.02383000  0.18320000  0.50565000  1.0 0.2102554367
C  C66  1  0.67755000  0.51818000  0.49435000  1.0 0.2102554367
C  C67  1  0.18320000  0.67755000  0.15937000  1.0 0.2102554367
C  C68  1  0.51818000  0.02383000  0.84063000  1.0 0.2102554367
C  C69  1  0.97617000  0.81680000  0.49435000  1.0 0.2102554367
C  C70  1  0.32245000  0.48182000  0.50565000  1.0 0.2102554367
C  C71  1  0.81680000  0.32245000  0.84063000  1.0 0.2102554367
C  C72  1  0.48182000  0.97617000  0.15937000  1.0 0.2102554367
C  C73  1  0.04993000  0.15729000  0.53722000  1.0 -0.1973870269
C  C74  1  0.62007000  0.51271000  0.46278000  1.0 -0.1973870269
C  C75  1  0.15729000  0.62007000  0.10736000  1.0 -0.1973870269
C  C76  1  0.51271000  0.04993000  0.89264000  1.0 -0.1973870269
C  C77  1  0.95007000  0.84271000  0.46278000  1.0 -0.1973870269
C  C78  1  0.37993000  0.48729000  0.53722000  1.0 -0.1973870269
C  C79  1  0.84271000  0.37993000  0.89264000  1.0 -0.1973870269
C  C80  1  0.48729000  0.95007000  0.10736000  1.0 -0.1973870269
C  C81  1  0.10655000  0.19593000  0.59260000  1.0 0.0199708226
C  C82  1  0.60333000  0.51395000  0.40740000  1.0 0.0199708226
C  C83  1  0.19593000  0.60333000  0.08938000  1.0 0.0199708226
C  C84  1  0.51395000  0.10655000  0.91062000  1.0 0.0199708226
C  C85  1  0.89345000  0.80407000  0.40740000  1.0 0.0199708226
C  C86  1  0.39667000  0.48605000  0.59260000  1.0 0.0199708226
C  C87  1  0.80407000  0.39667000  0.91062000  1.0 0.0199708226
C  C88  1  0.48605000  0.89345000  0.08938000  1.0 0.0199708226
C  C89  1  0.13622000  0.25922000  0.61620000  1.0 -0.1015370692
C  C90  1  0.64302000  0.52002000  0.38380000  1.0 -0.1015370692
C  C91  1  0.25922000  0.64302000  0.12300000  1.0 -0.1015370692
C  C92  1  0.52002000  0.13622000  0.87700000  1.0 -0.1015370692
C  C93  1  0.86378000  0.74078000  0.38380000  1.0 -0.1015370692
C  C94  1  0.35698000  0.47998000  0.61620000  1.0 -0.1015370692
C  C95  1  0.74078000  0.35698000  0.87700000  1.0 -0.1015370692
C  C96  1  0.47998000  0.86378000  0.12300000  1.0 -0.1015370692
C  C97  1  0.10975000  0.28490000  0.58485000  1.0 0.0106655132
C  C98  1  0.70005000  0.52490000  0.41515000  1.0 0.0106655132
C  C99  1  0.28490000  0.70005000  0.17515000  1.0 0.0106655132
C  C100  1  0.52490000  0.10975000  0.82485000  1.0 0.0106655132
C  C101  1  0.89025000  0.71510000  0.41515000  1.0 0.0106655132
C  C102  1  0.29995000  0.47510000  0.58485000  1.0 0.0106655132
C  C103  1  0.71510000  0.29995000  0.82485000  1.0 0.0106655132
C  C104  1  0.47510000  0.89025000  0.17515000  1.0 0.0106655132
C  C105  1  0.13198000  0.16744000  0.62884000  1.0 0.5702573975
C  C106  1  0.53860000  0.50314000  0.37116000  1.0 0.5702573975
C  C107  1  0.16744000  0.53860000  0.03546000  1.0 0.5702573975
C  C108  1  0.50314000  0.13198000  0.96454000  1.0 0.5702573975
C  C109  1  0.86802000  0.83256000  0.37116000  1.0 0.5702573975
C  C110  1  0.46140000  0.49686000  0.62884000  1.0 0.5702573975
C  C111  1  0.83256000  0.46140000  0.96454000  1.0 0.5702573975
C  C112  1  0.49686000  0.86802000  0.03546000  1.0 0.5702573975
C  C113  1  0.13991000  0.35432000  0.61271000  1.0 0.5784751904
C  C114  1  0.74161000  0.52720000  0.38729000  1.0 0.5784751904
C  C115  1  0.35432000  0.74161000  0.21441000  1.0 0.5784751904
C  C116  1  0.52720000  0.13991000  0.78559000  1.0 0.5784751904
C  C117  1  0.86009000  0.64568000  0.38729000  1.0 0.5784751904
C  C118  1  0.25839000  0.47280000  0.61271000  1.0 0.5784751904
C  C119  1  0.64568000  0.25839000  0.78559000  1.0 0.5784751904
C  C120  1  0.47280000  0.86009000  0.21441000  1.0 0.5784751904
C  C121  1  0.27910000  0.09839000  0.86431000  1.0 -0.1092408615
C  C122  1  0.23408000  0.41479000  0.13569000  1.0 -0.1092408615
C  C123  1  0.09839000  0.23408000  0.81929000  1.0 -0.1092408615
C  C124  1  0.41479000  0.27910000  0.18071000  1.0 -0.1092408615
C  C125  1  0.72090000  0.90161000  0.13569000  1.0 -0.1092408615
C  C126  1  0.76592000  0.58521000  0.86431000  1.0 -0.1092408615
C  C127  1  0.90161000  0.76592000  0.18071000  1.0 -0.1092408615
C  C128  1  0.58521000  0.72090000  0.81929000  1.0 -0.1092408615
C  C129  1  0.36165000  0.10902000  0.95557000  1.0 0.5702573975
C  C130  1  0.15345000  0.40608000  0.04443000  1.0 0.5702573975
C  C131  1  0.10902000  0.15345000  0.74737000  1.0 0.5702573975
C  C132  1  0.40608000  0.36165000  0.25263000  1.0 0.5702573975
C  C133  1  0.63835000  0.89098000  0.04443000  1.0 0.5702573975
C  C134  1  0.84655000  0.59392000  0.95557000  1.0 0.5702573975
C  C135  1  0.89098000  0.84655000  0.25263000  1.0 0.5702573975
C  C136  1  0.59392000  0.63835000  0.74737000  1.0 0.5702573975
C  C137  1  0.20042000  0.08598000  0.76956000  1.0 0.5702573975
C  C138  1  0.31642000  0.43086000  0.23044000  1.0 0.5702573975
C  C139  1  0.08598000  0.31642000  0.88556000  1.0 0.5702573975
C  C140  1  0.43086000  0.20042000  0.11444000  1.0 0.5702573975
C  C141  1  0.79958000  0.91402000  0.23044000  1.0 0.5702573975
C  C142  1  0.68358000  0.56914000  0.76956000  1.0 0.5702573975
C  C143  1  0.91402000  0.68358000  0.11444000  1.0 0.5702573975
C  C144  1  0.56914000  0.79958000  0.88556000  1.0 0.5702573975
C  C145  1  0.05478000  0.24734000  0.52960000  1.0 -0.1674580843
C  C146  1  0.71774000  0.52518000  0.47040000  1.0 -0.1674580843
C  C147  1  0.24734000  0.71774000  0.19256000  1.0 -0.1674580843
C  C148  1  0.52518000  0.05478000  0.80744000  1.0 -0.1674580843
C  C149  1  0.94522000  0.75266000  0.47040000  1.0 -0.1674580843
C  C150  1  0.28226000  0.47482000  0.52960000  1.0 -0.1674580843
C  C151  1  0.75266000  0.28226000  0.80744000  1.0 -0.1674580843
C  C152  1  0.47482000  0.94522000  0.19256000  1.0 -0.1674580843
C  C153  1  0.18910000  0.99930000  0.85620000  1.0 0.2556334828
C  C154  1  0.14310000  0.33290000  0.14380000  1.0 0.2556334828
C  C155  1  0.99930000  0.14310000  0.81020000  1.0 0.2556334828
C  C156  1  0.33290000  0.18910000  0.18980000  1.0 0.2556334828
C  C157  1  0.81090000  0.00070000  0.14380000  1.0 0.2556334828
C  C158  1  0.85690000  0.66710000  0.85620000  1.0 0.2556334828
C  C159  1  0.00070000  0.85690000  0.18980000  1.0 0.2556334828
C  C160  1  0.66710000  0.81090000  0.81020000  1.0 0.2556334828
C  C161  1  0.25059000  0.02689000  0.90150000  1.0 -0.1611837753
C  C162  1  0.12539000  0.34909000  0.09850000  1.0 -0.1611837753
C  C163  1  0.02689000  0.12539000  0.77630000  1.0 -0.1611837753
C  C164  1  0.34909000  0.25059000  0.22370000  1.0 -0.1611837753
C  C165  1  0.74941000  0.97311000  0.09850000  1.0 -0.1611837753
C  C166  1  0.87461000  0.65091000  0.90150000  1.0 -0.1611837753
C  C167  1  0.97311000  0.87461000  0.22370000  1.0 -0.1611837753
C  C168  1  0.65091000  0.74941000  0.77630000  1.0 -0.1611837753
C  C169  1  0.29530000  0.07716000  0.90574000  1.0 -0.0003950125
C  C170  1  0.17142000  0.38956000  0.09426000  1.0 -0.0003950125
C  C171  1  0.07716000  0.17142000  0.78186000  1.0 -0.0003950125
C  C172  1  0.38956000  0.29530000  0.21814000  1.0 -0.0003950125
C  C173  1  0.70470000  0.92284000  0.09426000  1.0 -0.0003950125
C  C174  1  0.82858000  0.61044000  0.90574000  1.0 -0.0003950125
C  C175  1  0.92284000  0.82858000  0.21814000  1.0 -0.0003950125
C  C176  1  0.61044000  0.70470000  0.78186000  1.0 -0.0003950125
C  C177  1  0.21817000  0.06659000  0.81638000  1.0 -0.0138299369
C  C178  1  0.25021000  0.40179000  0.18362000  1.0 -0.0138299369
C  C179  1  0.06659000  0.25021000  0.84842000  1.0 -0.0138299369
C  C180  1  0.40179000  0.21817000  0.15158000  1.0 -0.0138299369
C  C181  1  0.78183000  0.93341000  0.18362000  1.0 -0.0138299369
C  C182  1  0.74979000  0.59821000  0.81638000  1.0 -0.0138299369
C  C183  1  0.93341000  0.74979000  0.15158000  1.0 -0.0138299369
C  C184  1  0.59821000  0.78183000  0.84842000  1.0 -0.0138299369
C  C185  1  0.17324000  0.01830000  0.81294000  1.0 -0.1513467619
C  C186  1  0.20536000  0.36030000  0.18706000  1.0 -0.1513467619
C  C187  1  0.01830000  0.20536000  0.84506000  1.0 -0.1513467619
C  C188  1  0.36030000  0.17324000  0.15494000  1.0 -0.1513467619
C  C189  1  0.82676000  0.98170000  0.18706000  1.0 -0.1513467619
C  C190  1  0.79464000  0.63970000  0.81294000  1.0 -0.1513467619
C  C191  1  0.98170000  0.79464000  0.15494000  1.0 -0.1513467619
C  C192  1  0.63970000  0.82676000  0.84506000  1.0 -0.1513467619
C  C193  1  0.38550000  0.98270000  0.01740000  1.0 0.4666859751
C  C194  1  0.96530000  0.36810000  0.98260000  1.0 0.4666859751
C  C195  1  0.98270000  0.96530000  0.59720000  1.0 0.4666859751
C  C196  1  0.36810000  0.38550000  0.40280000  1.0 0.4666859751
C  C197  1  0.61450000  0.01730000  0.98260000  1.0 0.4666859751
C  C198  1  0.03470000  0.63190000  0.01740000  1.0 0.4666859751
C  C199  1  0.01730000  0.03470000  0.40280000  1.0 0.4666859751
C  C200  1  0.63190000  0.61450000  0.59720000  1.0 0.4666859751
C  C201  1  0.40800000  0.94230000  0.94270000  1.0 -0.3507341499
C  C202  1  0.99960000  0.46530000  0.05730000  1.0 -0.3507341499
C  C203  1  0.94230000  0.99960000  0.53430000  1.0 -0.3507341499
C  C204  1  0.46530000  0.40800000  0.46570000  1.0 -0.3507341499
C  C205  1  0.59200000  0.05770000  0.05730000  1.0 -0.3507341499
C  C206  1  0.00040000  0.53470000  0.94270000  1.0 -0.3507341499
C  C207  1  0.05770000  0.00040000  0.46570000  1.0 -0.3507341499
C  C208  1  0.53470000  0.59200000  0.53430000  1.0 -0.3507341499
C  C209  1  0.80070000  0.16740000  0.32590000  1.0 -0.1092408615
C  C210  1  0.84150000  0.47480000  0.67410000  1.0 -0.1092408615
C  C211  1  0.16740000  0.84150000  0.36670000  1.0 -0.1092408615
C  C212  1  0.47480000  0.80070000  0.63330000  1.0 -0.1092408615
C  C213  1  0.19930000  0.83260000  0.67410000  1.0 -0.1092408615
C  C214  1  0.15850000  0.52520000  0.32590000  1.0 -0.1092408615
C  C215  1  0.83260000  0.15850000  0.63330000  1.0 -0.1092408615
C  C216  1  0.52520000  0.19930000  0.36670000  1.0 -0.1092408615
C  C217  1  0.82030000  0.17660000  0.39150000  1.0 -0.1809546695
C  C218  1  0.78510000  0.42880000  0.60850000  1.0 -0.1809546695
C  C219  1  0.17660000  0.78510000  0.35630000  1.0 -0.1809546695
C  C220  1  0.42880000  0.82030000  0.64370000  1.0 -0.1809546695
C  C221  1  0.17970000  0.82340000  0.60850000  1.0 -0.1809546695
C  C222  1  0.21490000  0.57120000  0.39150000  1.0 -0.1809546695
C  C223  1  0.82340000  0.21490000  0.64370000  1.0 -0.1809546695
C  C224  1  0.57120000  0.17970000  0.35630000  1.0 -0.1809546695
C  C225  1  0.82500000  0.11720000  0.38740000  1.0 -0.1809546695
C  C226  1  0.72980000  0.43760000  0.61260000  1.0 -0.1809546695
C  C227  1  0.11720000  0.72980000  0.29220000  1.0 -0.1809546695
C  C228  1  0.43760000  0.82500000  0.70780000  1.0 -0.1809546695
C  C229  1  0.17500000  0.88280000  0.61260000  1.0 -0.1809546695
C  C230  1  0.27020000  0.56240000  0.38740000  1.0 -0.1809546695
C  C231  1  0.88280000  0.27020000  0.70780000  1.0 -0.1809546695
C  C232  1  0.56240000  0.17500000  0.29220000  1.0 -0.1809546695
C  C233  1  0.86830000  0.10700000  0.36450000  1.0 -0.1379292337
C  C234  1  0.74250000  0.50380000  0.63550000  1.0 -0.1379292337
C  C235  1  0.10700000  0.74250000  0.23870000  1.0 -0.1379292337
C  C236  1  0.50380000  0.86830000  0.76130000  1.0 -0.1379292337
C  C237  1  0.13170000  0.89300000  0.63550000  1.0 -0.1379292337
C  C238  1  0.25750000  0.49620000  0.36450000  1.0 -0.1379292337
C  C239  1  0.89300000  0.25750000  0.76130000  1.0 -0.1379292337
C  C240  1  0.49620000  0.13170000  0.23870000  1.0 -0.1379292337
C  C241  1  0.85060000  0.10610000  0.30550000  1.0 -0.1674580843
C  C242  1  0.80060000  0.54510000  0.69450000  1.0 -0.1674580843
C  C243  1  0.10610000  0.80060000  0.25550000  1.0 -0.1674580843
C  C244  1  0.54510000  0.85060000  0.74450000  1.0 -0.1674580843
C  C245  1  0.14940000  0.89390000  0.69450000  1.0 -0.1674580843
C  C246  1  0.19940000  0.45490000  0.30550000  1.0 -0.1674580843
C  C247  1  0.89390000  0.19940000  0.74450000  1.0 -0.1674580843
C  C248  1  0.45490000  0.14940000  0.25550000  1.0 -0.1674580843
C  C249  1  0.84530000  0.16200000  0.30650000  1.0 -0.1898538242
C  C250  1  0.85550000  0.53880000  0.69350000  1.0 -0.1898538242
C  C251  1  0.16200000  0.85550000  0.31670000  1.0 -0.1898538242
C  C252  1  0.53880000  0.84530000  0.68330000  1.0 -0.1898538242
C  C253  1  0.15470000  0.83800000  0.69350000  1.0 -0.1898538242
C  C254  1  0.14450000  0.46120000  0.30650000  1.0 -0.1898538242
C  C255  1  0.83800000  0.14450000  0.68330000  1.0 -0.1898538242
C  C256  1  0.46120000  0.15470000  0.31670000  1.0 -0.1898538242
C  C257  1  0.79570000  0.22520000  0.32830000  1.0 0.4888872524
C  C258  1  0.89690000  0.46740000  0.67170000  1.0 0.4888872524
C  C259  1  0.22520000  0.89690000  0.42950000  1.0 0.4888872524
C  C260  1  0.46740000  0.79570000  0.57050000  1.0 0.4888872524
C  C261  1  0.20430000  0.77480000  0.67170000  1.0 0.4888872524
C  C262  1  0.10310000  0.53260000  0.32830000  1.0 0.4888872524
C  C263  1  0.77480000  0.10310000  0.57050000  1.0 0.4888872524
C  C264  1  0.53260000  0.20430000  0.42950000  1.0 0.4888872524
C  C265  1  0.93480000  0.15590000  0.40970000  1.0 0.4666859751
C  C266  1  0.74620000  0.52510000  0.59030000  1.0 0.4666859751
C  C267  1  0.15590000  0.74620000  0.22110000  1.0 0.4666859751
C  C268  1  0.52510000  0.93480000  0.77890000  1.0 0.4666859751
C  C269  1  0.06520000  0.84410000  0.59030000  1.0 0.4666859751
C  C270  1  0.25380000  0.47490000  0.40970000  1.0 0.4666859751
C  C271  1  0.84410000  0.25380000  0.77890000  1.0 0.4666859751
C  C272  1  0.47490000  0.06520000  0.22110000  1.0 0.4666859751
C  C273  1  0.33860000  0.98330000  0.04510000  1.0 -0.5654910709
C  C274  1  0.93820000  0.29350000  0.95490000  1.0 -0.5642199422
C  C275  1  0.98330000  0.93820000  0.64470000  1.0 -0.5654910709
C  C276  1  0.29350000  0.33860000  0.35530000  1.0 -0.5654910709
C  C277  1  0.66140000  0.01670000  0.95490000  1.0 -0.5642199422
C  C278  1  0.06180000  0.70650000  0.04510000  1.0 -0.5654910709
C  C279  1  0.01670000  0.06180000  0.35530000  1.0 -0.5654910709
C  C280  1  0.70650000  0.66140000  0.64470000  1.0 -0.5654910709
C  C281  1  0.29830000  0.88300000  0.93010000  1.0 -0.3345966364
C  C282  1  0.95290000  0.36820000  0.06990000  1.0 -0.3345966364
C  C283  1  0.88300000  0.95290000  0.58470000  1.0 -0.3345966364
C  C284  1  0.36820000  0.29830000  0.41530000  1.0 -0.3391815736
C  C285  1  0.70170000  0.11700000  0.06990000  1.0 -0.3345966364
C  C286  1  0.04710000  0.63180000  0.93010000  1.0 -0.3391815736
C  C287  1  0.11700000  0.04710000  0.41530000  1.0 -0.3391815736
C  C288  1  0.63180000  0.70170000  0.58470000  1.0 -0.3345966364
N  N1  1  0.14130000  0.94700000  0.85170000  1.0 -0.4689235863
N  N2  1  0.09530000  0.28960000  0.14830000  1.0 -0.4689235863
N  N3  1  0.94700000  0.09530000  0.80570000  1.0 -0.4689235863
N  N4  1  0.28960000  0.14130000  0.19430000  1.0 -0.4689235863
N  N5  1  0.85870000  0.05300000  0.14830000  1.0 -0.4689235863
N  N6  1  0.90470000  0.71040000  0.85170000  1.0 -0.4689235863
N  N7  1  0.05300000  0.90470000  0.19430000  1.0 -0.464595517
N  N8  1  0.71040000  0.85870000  0.80570000  1.0 -0.4689235863
N  N9  1  0.73927000  0.21165000  0.29070000  1.0 -0.370291883
N  N10  1  0.92095000  0.44857000  0.70930000  1.0 -0.370291883
N  N11  1  0.21165000  0.92095000  0.47238000  1.0 -0.370291883
N  N12  1  0.44857000  0.73927000  0.52762000  1.0 -0.370291883
N  N13  1  0.26073000  0.78835000  0.70930000  1.0 -0.370291883
N  N14  1  0.07905000  0.55143000  0.29070000  1.0 -0.370291883
N  N15  1  0.78835000  0.07905000  0.52762000  1.0 -0.370291883
N  N16  1  0.55143000  0.26073000  0.47238000  1.0 -0.370291883
N  N17  1  0.96565000  0.14298000  0.45019000  1.0 -0.3391815736
N  N18  1  0.69279000  0.51546000  0.54981000  1.0 -0.3391815736
N  N19  1  0.14298000  0.69279000  0.17733000  1.0 -0.3391815736
N  N20  1  0.51546000  0.96565000  0.82267000  1.0 -0.3391815736
N  N21  1  0.03435000  0.85702000  0.54981000  1.0 -0.3391815736
N  N22  1  0.30721000  0.48454000  0.45019000  1.0 -0.3391815736
N  N23  1  0.85702000  0.30721000  0.82267000  1.0 -0.3391815736
N  N24  1  0.48454000  0.03435000  0.17733000  1.0 -0.3391815736
N  N25  1  0.36410000  0.93750000  0.96620000  1.0 0.0106655132
N  N26  1  0.97130000  0.39790000  0.03380000  1.0 0.0106655132
N  N27  1  0.93750000  0.97130000  0.57340000  1.0 0.0106655132
N  N28  1  0.39790000  0.36410000  0.42660000  1.0 0.0106655132
N  N29  1  0.63590000  0.06250000  0.03380000  1.0 0.0106655132
N  N30  1  0.02870000  0.60210000  0.96620000  1.0 0.0106655132
N  N31  1  0.06250000  0.02870000  0.42660000  1.0 0.0106655132
N  N32  1  0.60210000  0.63590000  0.57340000  1.0 0.0106655132
O  O1  1  0.43615000  0.02841000  0.04930000  1.0 -0.4794810519
O  O2  1  0.97911000  0.38685000  0.95070000  1.0 -0.4794810519
O  O3  1  0.02841000  0.97911000  0.59226000  1.0 -0.4794810519
O  O4  1  0.38685000  0.43615000  0.40774000  1.0 -0.4794810519
O  O5  1  0.56385000  0.97159000  0.95070000  1.0 -0.4794810519
O  O6  1  0.02089000  0.61315000  0.04930000  1.0 -0.4794810519
O  O7  1  0.97159000  0.02089000  0.40774000  1.0 -0.4794810519
O  O8  1  0.61315000  0.56385000  0.59226000  1.0 -0.4794810519
O  O9  1  0.07566000  0.44333000  0.51899000  1.0 -0.1898538242
O  O10  1  0.92434000  0.55667000  0.48101000  1.0 -0.1973870269
O  O11  1  0.44333000  0.92434000  0.36767000  1.0 -0.2123926718
O  O12  1  0.55667000  0.07566000  0.63233000  1.0 -0.1898538242
O  O13  1  0.70272000  0.50540000  0.20812000  1.0 -0.1379292337
O  O14  1  0.29728000  0.49460000  0.79188000  1.0 -0.1513467619
O  O15  1  0.50540000  0.29728000  0.80268000  1.0 -0.1379292337
O  O16  1  0.49460000  0.70272000  0.19732000  1.0 -0.1379292337
O  O17  1  0.74395000  0.43555000  0.27034000  1.0 -0.5257044043
O  O18  1  0.16521000  0.47361000  0.72966000  1.0 -0.5257044043
O  O19  1  0.43555000  0.16521000  0.69160000  1.0 -0.5257044043
O  O20  1  0.47361000  0.74395000  0.30840000  1.0 -0.5257044043
O  O21  1  0.25605000  0.56445000  0.72966000  1.0 -0.5257044043
O  O22  1  0.83479000  0.52639000  0.27034000  1.0 -0.5257044043
O  O23  1  0.56445000  0.83479000  0.30840000  1.0 -0.5257044043
O  O24  1  0.52639000  0.25605000  0.69160000  1.0 -0.5257044043
O  O25  1  0.81605000  0.44535000  0.35326000  1.0 -0.5112119354
O  O26  1  0.09209000  0.46279000  0.64674000  1.0 -0.5112119354
O  O27  1  0.44535000  0.09209000  0.62930000  1.0 -0.5112119354
O  O28  1  0.46279000  0.81605000  0.37070000  1.0 -0.5112119354
O  O29  1  0.18395000  0.55465000  0.64674000  1.0 -0.5112119354
O  O30  1  0.90791000  0.53721000  0.35326000  1.0 -0.5112119354
O  O31  1  0.55465000  0.90791000  0.37070000  1.0 -0.5112119354
O  O32  1  0.53721000  0.18395000  0.62930000  1.0 -0.5112119354
O  O33  1  0.56326000  0.24394000  0.11016000  1.0 -0.5013246591
O  O34  1  0.13378000  0.45310000  0.88984000  1.0 -0.5013246591
O  O35  1  0.24394000  0.13378000  0.68068000  1.0 -0.5013246591
O  O36  1  0.45310000  0.56326000  0.31932000  1.0 -0.5013246591
O  O37  1  0.43674000  0.75606000  0.88984000  1.0 -0.5013246591
O  O38  1  0.86622000  0.54690000  0.11016000  1.0 -0.5013246591
O  O39  1  0.75606000  0.86622000  0.31932000  1.0 -0.5013246591
O  O40  1  0.54690000  0.43674000  0.68068000  1.0 -0.5013246591
O  O41  1  0.54175000  0.15651000  0.11638000  1.0 -0.5210280498
O  O42  1  0.04013000  0.42537000  0.88362000  1.0 -0.5210280498
O  O43  1  0.15651000  0.04013000  0.61476000  1.0 -0.5210280498
O  O44  1  0.42537000  0.54175000  0.38524000  1.0 -0.5210280498
O  O45  1  0.45825000  0.84349000  0.88362000  1.0 -0.5210280498
O  O46  1  0.95987000  0.57463000  0.11638000  1.0 -0.5210280498
O  O47  1  0.84349000  0.95987000  0.38524000  1.0 -0.5210280498
O  O48  1  0.57463000  0.45825000  0.61476000  1.0 -0.5210280498
O  O49  1  0.09768000  0.11081000  0.60901000  1.0 -0.5210280498
O  O50  1  0.50180000  0.48867000  0.39099000  1.0 -0.5210280498
O  O51  1  0.11081000  0.50180000  0.01313000  1.0 -0.5210280498
O  O52  1  0.48867000  0.09768000  0.98687000  1.0 -0.5210280498
O  O53  1  0.90232000  0.88919000  0.39099000  1.0 -0.5210280498
O  O54  1  0.49820000  0.51133000  0.60901000  1.0 -0.5210280498
O  O55  1  0.88919000  0.49820000  0.98687000  1.0 -0.5210280498
O  O56  1  0.51133000  0.90232000  0.01313000  1.0 -0.5210280498
O  O57  1  0.18532000  0.20332000  0.67564000  1.0 -0.4689235863
O  O58  1  0.52768000  0.50968000  0.32436000  1.0 -0.4689235863
O  O59  1  0.20332000  0.52768000  0.01800000  1.0 -0.4689235863
O  O60  1  0.50968000  0.18532000  0.98200000  1.0 -0.4794810519
O  O61  1  0.81468000  0.79668000  0.32436000  1.0 -0.4689235863
O  O62  1  0.47232000  0.49032000  0.67564000  1.0 -0.4689235863
O  O63  1  0.79668000  0.47232000  0.98200000  1.0 -0.4794810519
O  O64  1  0.49032000  0.81468000  0.01800000  1.0 -0.4689235863
O  O65  1  0.18872000  0.38722000  0.66530000  1.0 -0.5112119354
O  O66  1  0.72192000  0.52342000  0.33470000  1.0 -0.5112119354
O  O67  1  0.38722000  0.72192000  0.19850000  1.0 -0.5112119354
O  O68  1  0.52342000  0.18872000  0.80150000  1.0 -0.5112119354
O  O69  1  0.81128000  0.61278000  0.33470000  1.0 -0.5112119354
O  O70  1  0.27808000  0.47658000  0.66530000  1.0 -0.5112119354
O  O71  1  0.61278000  0.27808000  0.80150000  1.0 -0.5112119354
O  O72  1  0.47658000  0.81128000  0.19850000  1.0 -0.5112119354
O  O73  1  0.11485000  0.37457000  0.58124000  1.0 -0.5210280498
O  O74  1  0.79333000  0.53361000  0.41876000  1.0 -0.5210280498
O  O75  1  0.37457000  0.79333000  0.25972000  1.0 -0.5210280498
O  O76  1  0.53361000  0.11485000  0.74028000  1.0 -0.5210280498
O  O77  1  0.88515000  0.62543000  0.41876000  1.0 -0.5210280498
O  O78  1  0.20667000  0.46639000  0.58124000  1.0 -0.5210280498
O  O79  1  0.62543000  0.20667000  0.74028000  1.0 -0.5210280498
O  O80  1  0.46639000  0.88515000  0.25972000  1.0 -0.5210280498
O  O81  1  0.37625000  0.07800000  0.97903000  1.0 -0.5112119354
O  O82  1  0.09897000  0.39722000  0.02097000  1.0 -0.5112119354
O  O83  1  0.07800000  0.09897000  0.70175000  1.0 -0.5112119354
O  O84  1  0.39722000  0.37625000  0.29825000  1.0 -0.5112119354
O  O85  1  0.62375000  0.92200000  0.02097000  1.0 -0.5112119354
O  O86  1  0.90103000  0.60278000  0.97903000  1.0 -0.5112119354
O  O87  1  0.92200000  0.90103000  0.29825000  1.0 -0.5112119354
O  O88  1  0.60278000  0.62375000  0.70175000  1.0 -0.5112119354
O  O89  1  0.39657000  0.16368000  0.97061000  1.0 -0.5013246591
O  O90  1  0.19307000  0.42596000  0.02939000  1.0 -0.5013246591
O  O91  1  0.16368000  0.19307000  0.76711000  1.0 -0.5013246591
O  O92  1  0.42596000  0.39657000  0.23289000  1.0 -0.5013246591
O  O93  1  0.60343000  0.83632000  0.02939000  1.0 -0.5013246591
O  O94  1  0.80693000  0.57404000  0.97061000  1.0 -0.5013246591
O  O95  1  0.83632000  0.80693000  0.23289000  1.0 -0.5013246591
O  O96  1  0.57404000  0.60343000  0.76711000  1.0 -0.5013246591
O  O97  1  0.23648000  0.14027000  0.78449000  1.0 -0.4794810519
O  O98  1  0.35578000  0.45199000  0.21551000  1.0 -0.4794810519
O  O99  1  0.14027000  0.35578000  0.90379000  1.0 -0.4794810519
O  O100  1  0.45199000  0.23648000  0.09621000  1.0 -0.4794810519
O  O101  1  0.76352000  0.85973000  0.21551000  1.0 -0.4794810519
O  O102  1  0.64422000  0.54801000  0.78449000  1.0 -0.4794810519
O  O103  1  0.85973000  0.64422000  0.09621000  1.0 -0.4794810519
O  O104  1  0.54801000  0.76352000  0.90379000  1.0 -0.4794810519
O  O105  1  0.15043000  0.04733000  0.71942000  1.0 -0.5112119354
O  O106  1  0.32791000  0.43101000  0.28058000  1.0 -0.5112119354
O  O107  1  0.04733000  0.32791000  0.89690000  1.0 -0.5112119354
O  O108  1  0.43101000  0.15043000  0.10310000  1.0 -0.5112119354
O  O109  1  0.84957000  0.95267000  0.28058000  1.0 -0.5112119354
O  O110  1  0.67209000  0.56899000  0.71942000  1.0 -0.5112119354
O  O111  1  0.95267000  0.67209000  0.10310000  1.0 -0.5112119354
O  O112  1  0.56899000  0.84957000  0.89690000  1.0 -0.5112119354
O  O113  1  0.30306000  0.26126000  0.79502000  1.0 -0.3891059662
O  O114  1  0.46624000  0.50804000  0.20498000  1.0 -0.4152930583
O  O115  1  0.26126000  0.46624000  0.95820000  1.0 -0.3891059662
O  O116  1  0.50804000  0.30306000  0.04180000  1.0 -0.3891059662
O  O117  1  0.69694000  0.73874000  0.20498000  1.0 -0.4104264582
O  O118  1  0.53376000  0.49196000  0.79502000  1.0 -0.3891059662
O  O119  1  0.73874000  0.53376000  0.04180000  1.0 -0.3891059662
O  O120  1  0.49196000  0.69694000  0.95820000  1.0 -0.3891059662
O  O121  1  0.84104000  0.27920000  0.35824000  1.0 -0.4689235863
O  O122  1  0.92096000  0.48280000  0.64176000  1.0 -0.4689235863
O  O123  1  0.27920000  0.92096000  0.43816000  1.0 -0.4689235863
O  O124  1  0.48280000  0.84104000  0.56184000  1.0 -0.4689235863
O  O125  1  0.15896000  0.72080000  0.64176000  1.0 -0.4689235863
O  O126  1  0.07904000  0.51720000  0.35824000  1.0 -0.4689235863
O  O127  1  0.72080000  0.07904000  0.56184000  1.0 -0.4689235863
O  O128  1  0.51720000  0.15896000  0.43816000  1.0 -0.4689235863
O  O129  1  0.96340000  0.20260000  0.40600000  1.0 -0.3177949096
O  O130  1  0.79660000  0.55740000  0.59400000  1.0 -0.3177949096
O  O131  1  0.20260000  0.79660000  0.23920000  1.0 -0.3177949096
O  O132  1  0.55740000  0.96340000  0.76080000  1.0 -0.3177949096
O  O133  1  0.03660000  0.79740000  0.59400000  1.0 -0.3177949096
O  O134  1  0.20340000  0.44260000  0.40600000  1.0 -0.3177949096
O  O135  1  0.79740000  0.20340000  0.76080000  1.0 -0.3177949096
O  O136  1  0.44260000  0.03660000  0.23920000  1.0 -0.3177949096
O  O137  1  0.93570000  0.20100000  0.44410000  1.0 -0.0300501705
O  O138  1  0.75690000  0.49160000  0.55590000  1.0 -0.0300501705
O  O139  1  0.20100000  0.75690000  0.26530000  1.0 -0.0300501705
O  O140  1  0.49160000  0.93570000  0.73470000  1.0 -0.0300501705
O  O141  1  0.06430000  0.79900000  0.55590000  1.0 -0.0300501705
O  O142  1  0.24310000  0.50840000  0.44410000  1.0 -0.0300501705
O  O143  1  0.79900000  0.24310000  0.73470000  1.0 -0.0300501705
O  O144  1  0.50840000  0.06430000  0.26530000  1.0 -0.0300501705
