# DDEC6 charges by PACMAN v1.1 (https://github.com/mtap-research/PACMAN-charge/)
data_CITPII_ion_pacman
_symmetry_space_group_name_H-M   'P 1'
_cell_length_a   19.12230000
_cell_length_b   19.12230000
_cell_length_c   20.10500000
_cell_angle_alpha   78.38670000
_cell_angle_beta   101.61300000
_cell_angle_gamma   148.76800000
_symmetry_Int_Tables_number   1
_chemical_formula_structural   CdH26C26N3O13
_chemical_formula_sum   'Cd4 H104 C104 N12 O52'
_cell_volume   3727.66316224
_cell_formula_units_Z   4
loop_
 _symmetry_equiv_pos_site_id
 _symmetry_equiv_pos_as_xyz
  1  'x, y, z'
loop_
 _atom_site_type_symbol
 _atom_site_label
 _atom_site_symmetry_multiplicity
 _atom_site_fract_x
 _atom_site_fract_y
 _atom_site_fract_z
 _atom_site_occupancy
 _atom_site_charge
Cd  Cd1  1  0.64057000  0.37215000  0.18190000  1.0 0.9826960935
Cd  Cd2  1  0.62785000  0.35943000  0.68190000  1.0 0.9826960935
Cd  Cd3  1  0.37215000  0.64057000  0.31810000  1.0 0.9826960935
Cd  Cd4  1  0.35943000  0.62785000  0.81810000  1.0 0.9826960935
H  H1  1  0.05657000  0.09617000  0.14233000  1.0 0.2720610721
H  H2  1  0.90383000  0.94343000  0.64233000  1.0 0.2720610721
H  H3  1  0.13855000  0.87465000  0.18335000  1.0 0.118782814
H  H4  1  0.12535000  0.86145000  0.68335000  1.0 0.118782814
H  H5  1  0.23384000  0.16426000  0.14021000  1.0 0.1383808428
H  H6  1  0.83574000  0.76616000  0.64021000  1.0 0.1383808428
H  H7  1  0.84386000  0.77260000  0.14087000  1.0 0.1497362479
H  H8  1  0.22740000  0.15614000  0.64087000  1.0 0.1497362479
H  H9  1  0.65156000  0.07136000  0.96313000  1.0 0.2880873977
H  H10  1  0.92864000  0.34844000  0.46313000  1.0 0.2880873977
H  H11  1  0.63104000  0.34914000  0.92638000  1.0 0.1383808428
H  H12  1  0.65086000  0.36896000  0.42638000  1.0 0.1383808428
H  H13  1  0.65944000  0.18082000  0.87569000  1.0 0.1383808428
H  H14  1  0.81918000  0.34056000  0.37569000  1.0 0.1383808428
H  H15  1  0.67555000  0.20975000  0.07315000  1.0 0.118782814
H  H16  1  0.79025000  0.32445000  0.57315000  1.0 0.118782814
H  H17  1  0.65297000  0.96239000  0.03599000  1.0 0.1115431864
H  H18  1  0.03761000  0.34703000  0.53599000  1.0 0.1115431864
H  H19  1  0.93510000  0.21592000  0.02831000  1.0 0.1115431864
H  H20  1  0.78408000  0.06490000  0.52831000  1.0 0.1115431864
H  H21  1  0.83048000  0.13244000  0.96602000  1.0 0.1115431864
H  H22  1  0.86756000  0.16952000  0.46602000  1.0 0.1115431864
H  H23  1  0.78591000  0.97503000  0.99276000  1.0 0.1276806294
H  H24  1  0.02497000  0.21409000  0.49276000  1.0 0.1276806294
H  H25  1  0.94331000  0.11757000  0.99189000  1.0 0.118782814
H  H26  1  0.88243000  0.05669000  0.49189000  1.0 0.118782814
H  H27  1  0.96398000  0.11672000  0.10869000  1.0 0.1008629267
H  H28  1  0.88328000  0.03602000  0.60869000  1.0 0.1008629267
H  H29  1  0.68101000  0.86057000  0.11374000  1.0 0.1276806294
H  H30  1  0.13943000  0.31899000  0.61374000  1.0 0.1276806294
H  H31  1  0.78290000  0.94024000  0.17749000  1.0 0.118782814
H  H32  1  0.05976000  0.21710000  0.67749000  1.0 0.118782814
H  H33  1  0.83668000  0.10616000  0.14922000  1.0 0.1008629267
H  H34  1  0.89384000  0.16332000  0.64922000  1.0 0.1008629267
H  H35  1  0.67933000  0.96591000  0.15204000  1.0 0.118782814
H  H36  1  0.03409000  0.32067000  0.65204000  1.0 0.118782814
H  H37  1  0.09617000  0.05657000  0.35767000  1.0 0.2720610721
H  H38  1  0.94343000  0.90383000  0.85767000  1.0 0.2720610721
H  H39  1  0.87465000  0.13855000  0.31665000  1.0 0.118782814
H  H40  1  0.86145000  0.12535000  0.81665000  1.0 0.118782814
H  H41  1  0.16425000  0.23384000  0.35979000  1.0 0.1383808428
H  H42  1  0.76616000  0.83574000  0.85979000  1.0 0.1383808428
H  H43  1  0.77260000  0.84386000  0.35913000  1.0 0.1497362479
H  H44  1  0.15614000  0.22740000  0.85913000  1.0 0.1497362479
H  H45  1  0.07136000  0.65156000  0.53687000  1.0 0.2880873977
H  H46  1  0.34844000  0.92864000  0.03687000  1.0 0.2880873977
H  H47  1  0.34914000  0.63104000  0.57362000  1.0 0.1383808428
H  H48  1  0.36896000  0.65086000  0.07362000  1.0 0.1383808428
H  H49  1  0.18082000  0.65944000  0.62431000  1.0 0.1383808428
H  H50  1  0.34056000  0.81918000  0.12431000  1.0 0.1383808428
H  H51  1  0.20975000  0.67555000  0.42685000  1.0 0.118782814
H  H52  1  0.32445000  0.79025000  0.92685000  1.0 0.118782814
H  H53  1  0.96239000  0.65297000  0.46401000  1.0 0.1115431864
H  H54  1  0.34703000  0.03761000  0.96401000  1.0 0.1115431864
H  H55  1  0.21592000  0.93510000  0.47169000  1.0 0.1115431864
H  H56  1  0.06490000  0.78408000  0.97169000  1.0 0.1115431864
H  H57  1  0.13244000  0.83048000  0.53398000  1.0 0.1115431864
H  H58  1  0.16952000  0.86756000  0.03398000  1.0 0.1115431864
H  H59  1  0.97503000  0.78591000  0.50724000  1.0 0.1276806294
H  H60  1  0.21409000  0.02497000  0.00724000  1.0 0.1276806294
H  H61  1  0.11757000  0.94331000  0.50811000  1.0 0.118782814
H  H62  1  0.05669000  0.88243000  0.00811000  1.0 0.118782814
H  H63  1  0.11672000  0.96398000  0.39131000  1.0 0.1008629267
H  H64  1  0.03602000  0.88328000  0.89131000  1.0 0.1008629267
H  H65  1  0.86057000  0.68101000  0.38626000  1.0 0.1276806294
H  H66  1  0.31899000  0.13943000  0.88626000  1.0 0.1276806294
H  H67  1  0.94024000  0.78290000  0.32251000  1.0 0.118782814
H  H68  1  0.21710000  0.05976000  0.82251000  1.0 0.118782814
H  H69  1  0.10616000  0.83668000  0.35078000  1.0 0.1008629267
H  H70  1  0.16332000  0.89384000  0.85078000  1.0 0.1008629267
H  H71  1  0.96591000  0.67933000  0.34796000  1.0 0.118782814
H  H72  1  0.32067000  0.03409000  0.84796000  1.0 0.118782814
H  H73  1  0.10819000  0.52561000  0.79377000  1.0 0.2592615931
H  H74  1  0.05462000  0.55032000  0.78963000  1.0 0.2357952668
H  H75  1  0.92661000  0.40171000  0.88105000  1.0 0.118782814
H  H76  1  0.08119000  0.52079000  0.90050000  1.0 0.118782814
H  H77  1  0.99021000  0.37999000  0.88625000  1.0 0.1276806294
H  H78  1  0.91415000  0.31931000  0.75443000  1.0 0.1276806294
H  H79  1  0.94698000  0.41896000  0.70492000  1.0 0.1115431864
H  H80  1  0.84121000  0.32807000  0.76010000  1.0 0.1276806294
H  H81  1  0.52561000  0.10819000  0.70623000  1.0 0.2592615931
H  H82  1  0.55032000  0.05462000  0.71037000  1.0 0.2348201199
H  H83  1  0.40171000  0.92661000  0.61895000  1.0 0.118782814
H  H84  1  0.52079000  0.08119000  0.59950000  1.0 0.118782814
H  H85  1  0.37999000  0.99021000  0.61375000  1.0 0.1276806294
H  H86  1  0.31931000  0.91415000  0.74557000  1.0 0.1276806294
H  H87  1  0.41896000  0.94698000  0.79508000  1.0 0.1115431864
H  H88  1  0.32807000  0.84121000  0.73990000  1.0 0.1276806294
H  H89  1  0.89181000  0.47439000  0.20623000  1.0 0.2592615931
H  H90  1  0.94537000  0.44967000  0.21037000  1.0 0.2357952668
H  H91  1  0.07339000  0.59829000  0.11895000  1.0 0.118782814
H  H92  1  0.91881000  0.47921000  0.09950000  1.0 0.118782814
H  H93  1  0.00979000  0.62001000  0.11375000  1.0 0.1276806294
H  H94  1  0.08585000  0.68069000  0.24557000  1.0 0.1276806294
H  H95  1  0.05302000  0.58104000  0.29508000  1.0 0.1115431864
H  H96  1  0.15879000  0.67193000  0.23990000  1.0 0.1276806294
H  H97  1  0.47439000  0.89181000  0.29377000  1.0 0.2592615931
H  H98  1  0.44967000  0.94537000  0.28963000  1.0 0.2357952668
H  H99  1  0.59829000  0.07339000  0.38105000  1.0 0.118782814
H  H100  1  0.47921000  0.91881000  0.40050000  1.0 0.118782814
H  H101  1  0.62001000  0.00979000  0.38625000  1.0 0.1276806294
H  H102  1  0.68069000  0.08585000  0.25443000  1.0 0.1276806294
H  H103  1  0.58104000  0.05302000  0.20492000  1.0 0.1115431864
H  H104  1  0.67193000  0.15879000  0.26010000  1.0 0.1276806294
C  C1  1  0.97558000  0.80162000  0.16130000  1.0 0.0029264237
C  C2  1  0.19838000  0.02442000  0.66130000  1.0 0.0029264237
C  C3  1  0.11185000  0.89955000  0.17180000  1.0 -0.1210169272
C  C4  1  0.10045000  0.88815000  0.67180000  1.0 -0.1210169272
C  C5  1  0.20779000  0.03521000  0.16480000  1.0 -0.0018034307
C  C6  1  0.96479000  0.79221000  0.66480000  1.0 -0.0018034307
C  C7  1  0.16888000  0.07332000  0.14690000  1.0 -0.1971488149
C  C8  1  0.92668000  0.83112000  0.64690000  1.0 -0.1971488149
C  C9  1  0.03099000  0.97401000  0.13900000  1.0 0.2244688793
C  C10  1  0.02599000  0.96901000  0.63900000  1.0 0.2244688793
C  C11  1  0.93533000  0.83887000  0.14620000  1.0 -0.1866349239
C  C12  1  0.16113000  0.06467000  0.64620000  1.0 -0.1866349239
C  C13  1  0.86857000  0.65363000  0.16720000  1.0 0.5411276741
C  C14  1  0.34637000  0.13143000  0.66720000  1.0 0.5411276741
C  C15  1  0.35515000  0.14225000  0.17510000  1.0 0.5411276741
C  C16  1  0.85775000  0.64485000  0.67510000  1.0 0.5411276741
C  C17  1  0.64900000  0.28260000  0.00700000  1.0 0.0029264237
C  C18  1  0.71740000  0.35100000  0.50700000  1.0 -0.0018034307
C  C19  1  0.63957000  0.30703000  0.93900000  1.0 -0.1210169272
C  C20  1  0.69297000  0.36043000  0.43900000  1.0 -0.1210169272
C  C21  1  0.64268000  0.26872000  0.88920000  1.0 -0.0065295916
C  C22  1  0.73128000  0.35732000  0.38920000  1.0 -0.0065295916
C  C23  1  0.65713000  0.20627000  0.90890000  1.0 -0.2234729902
C  C24  1  0.79373000  0.34287000  0.40890000  1.0 -0.2234729902
C  C25  1  0.66793000  0.18207000  0.97710000  1.0 0.2072400785
C  C26  1  0.81793000  0.33207000  0.47710000  1.0 0.2072400785
C  C27  1  0.66590000  0.22270000  0.02720000  1.0 -0.267931983
C  C28  1  0.77730000  0.33410000  0.52720000  1.0 -0.267931983
C  C29  1  0.64495000  0.32085000  0.06150000  1.0 0.5159732922
C  C30  1  0.67915000  0.35505000  0.56150000  1.0 0.5159732922
C  C31  1  0.63666000  0.29594000  0.81630000  1.0 0.5484850927
C  C32  1  0.70406000  0.36334000  0.31630000  1.0 0.5484850927
C  C33  1  0.73935000  0.04965000  0.05580000  1.0 -0.1301823229
C  C34  1  0.95035000  0.26065000  0.55580000  1.0 -0.1301823229
C  C35  1  0.84986000  0.12514000  0.01290000  1.0 -0.1826779407
C  C36  1  0.87486000  0.15014000  0.51290000  1.0 -0.1826779407
C  C37  1  0.86455000  0.05885000  0.01580000  1.0 -0.1614551266
C  C38  1  0.94115000  0.13545000  0.51580000  1.0 -0.1614551266
C  C39  1  0.87930000  0.02950000  0.08830000  1.0 -0.1210169272
C  C40  1  0.97050000  0.12070000  0.58830000  1.0 -0.1210169272
C  C41  1  0.76602000  0.95018000  0.13060000  1.0 -0.1614551266
C  C42  1  0.04982000  0.23398000  0.63060000  1.0 -0.1614551266
C  C43  1  0.75585000  0.02155000  0.12710000  1.0 -0.1866349239
C  C44  1  0.97845000  0.24415000  0.62710000  1.0 -0.1866349239
C  C45  1  0.73367000  0.12373000  0.05330000  1.0 0.4024621471
C  C46  1  0.87627000  0.26633000  0.55330000  1.0 0.4024621471
C  C47  1  0.89003000  0.95897000  0.09230000  1.0 0.4736539944
C  C48  1  0.04103000  0.10997000  0.59230000  1.0 0.4736539944
C  C49  1  0.80162000  0.97558000  0.33870000  1.0 0.0029264237
C  C50  1  0.02442000  0.19838000  0.83870000  1.0 0.0029264237
C  C51  1  0.89955000  0.11185000  0.32820000  1.0 -0.1301823229
C  C52  1  0.88815000  0.10045000  0.82820000  1.0 -0.1210169272
C  C53  1  0.03521000  0.20779000  0.33520000  1.0 -0.0018034307
C  C54  1  0.79221000  0.96479000  0.83520000  1.0 -0.0018034307
C  C55  1  0.07332000  0.16888000  0.35310000  1.0 -0.1971488149
C  C56  1  0.83112000  0.92668000  0.85310000  1.0 -0.1971488149
C  C57  1  0.97401000  0.03099000  0.36100000  1.0 0.2244688793
C  C58  1  0.96901000  0.02599000  0.86100000  1.0 0.2244688793
C  C59  1  0.83887000  0.93533000  0.35380000  1.0 -0.1866349239
C  C60  1  0.06467000  0.16113000  0.85380000  1.0 -0.1866349239
C  C61  1  0.65363000  0.86857000  0.33280000  1.0 0.5411276741
C  C62  1  0.13143000  0.34637000  0.83280000  1.0 0.5411276741
C  C63  1  0.14225000  0.35515000  0.32490000  1.0 0.5411276741
C  C64  1  0.64485000  0.85775000  0.82490000  1.0 0.5411276741
C  C65  1  0.28260000  0.64900000  0.49300000  1.0 -0.0018034307
C  C66  1  0.35100000  0.71740000  0.99300000  1.0 -0.0018034307
C  C67  1  0.30703000  0.63957000  0.56100000  1.0 -0.1210169272
C  C68  1  0.36043000  0.69297000  0.06100000  1.0 -0.1210169272
C  C69  1  0.26872000  0.64268000  0.61080000  1.0 -0.0065295916
C  C70  1  0.35732000  0.73128000  0.11080000  1.0 -0.0065295916
C  C71  1  0.20627000  0.65713000  0.59110000  1.0 -0.2234729902
C  C72  1  0.34287000  0.79373000  0.09110000  1.0 -0.2234729902
C  C73  1  0.18207000  0.66793000  0.52290000  1.0 0.2072400785
C  C74  1  0.33207000  0.81793000  0.02290000  1.0 0.2072400785
C  C75  1  0.22270000  0.66590000  0.47280000  1.0 -0.267931983
C  C76  1  0.33410000  0.77730000  0.97280000  1.0 -0.267931983
C  C77  1  0.32085000  0.64495000  0.43850000  1.0 0.5159732922
C  C78  1  0.35505000  0.67915000  0.93850000  1.0 0.5159732922
C  C79  1  0.29594000  0.63666000  0.68370000  1.0 0.5484850927
C  C80  1  0.36334000  0.70406000  0.18370000  1.0 0.5484850927
C  C81  1  0.04965000  0.73935000  0.44420000  1.0 -0.1301823229
C  C82  1  0.26065000  0.95035000  0.94420000  1.0 -0.1301823229
C  C83  1  0.12514000  0.84986000  0.48710000  1.0 -0.1826779407
C  C84  1  0.15014000  0.87486000  0.98710000  1.0 -0.1866349239
C  C85  1  0.05885000  0.86455000  0.48420000  1.0 -0.1614551266
C  C86  1  0.13545000  0.94115000  0.98420000  1.0 -0.1614551266
C  C87  1  0.02950000  0.87930000  0.41170000  1.0 -0.1210169272
C  C88  1  0.12070000  0.97050000  0.91170000  1.0 -0.1210169272
C  C89  1  0.95018000  0.76602000  0.36940000  1.0 -0.1614551266
C  C90  1  0.23398000  0.04982000  0.86940000  1.0 -0.1614551266
C  C91  1  0.02155000  0.75585000  0.37290000  1.0 -0.1866349239
C  C92  1  0.24415000  0.97845000  0.87290000  1.0 -0.1866349239
C  C93  1  0.12373000  0.73367000  0.44670000  1.0 0.4024621471
C  C94  1  0.26633000  0.87627000  0.94670000  1.0 0.4024621471
C  C95  1  0.95897000  0.89003000  0.40770000  1.0 0.4736539944
C  C96  1  0.10997000  0.04103000  0.90770000  1.0 0.4736539944
C  C97  1  0.00560000  0.44360000  0.87350000  1.0 -0.313512847
C  C98  1  0.92440000  0.37860000  0.75040000  1.0 -0.3161870019
C  C99  1  0.44360000  0.00560000  0.62650000  1.0 -0.313512847
C  C100  1  0.37860000  0.92440000  0.74960000  1.0 -0.3161870019
C  C101  1  0.99440000  0.55640000  0.12650000  1.0 -0.313512847
C  C102  1  0.07560000  0.62140000  0.24960000  1.0 -0.3161870019
C  C103  1  0.55640000  0.99440000  0.37350000  1.0 -0.313512847
C  C104  1  0.62140000  0.07560000  0.25040000  1.0 -0.3161870019
N  N1  1  0.99911000  0.02009000  0.12630000  1.0 -0.3673571126
N  N2  1  0.97991000  0.00089000  0.62630000  1.0 -0.3673571126
N  N3  1  0.68050000  0.11890000  0.99370000  1.0 -0.4273067602
N  N4  1  0.88110000  0.31950000  0.49370000  1.0 -0.4273067602
N  N5  1  0.02009000  0.99911000  0.37370000  1.0 -0.3673571126
N  N6  1  0.00089000  0.97991000  0.87370000  1.0 -0.3673571126
N  N7  1  0.11890000  0.68050000  0.50630000  1.0 -0.4273067602
N  N8  1  0.31950000  0.88110000  0.00630000  1.0 -0.4273067602
N  N9  1  0.03491000  0.48729000  0.79980000  1.0 -0.0941582733
N  N10  1  0.48729000  0.03491000  0.70020000  1.0 -0.0941582733
N  N11  1  0.96509000  0.51271000  0.20020000  1.0 -0.0941582733
N  N12  1  0.51271000  0.96509000  0.29980000  1.0 -0.0941582733
O  O1  1  0.90184000  0.61836000  0.17990000  1.0 -0.5512079672
O  O2  1  0.38164000  0.09816000  0.67990000  1.0 -0.5512079672
O  O3  1  0.74784000  0.57076000  0.15810000  1.0 -0.4821471052
O  O4  1  0.42924000  0.25216000  0.65810000  1.0 -0.4821471052
O  O5  1  0.39302000  0.11158000  0.19760000  1.0 -0.5230642037
O  O6  1  0.88842000  0.60698000  0.69760000  1.0 -0.5230642037
O  O7  1  0.43889000  0.26251000  0.16030000  1.0 -0.4945082442
O  O8  1  0.73749000  0.56111000  0.66030000  1.0 -0.4945082442
O  O9  1  0.62598000  0.36842000  0.04890000  1.0 -0.4273067602
O  O10  1  0.63158000  0.37402000  0.54890000  1.0 -0.4273067602
O  O11  1  0.65920000  0.30200000  0.12190000  1.0 -0.4821471052
O  O12  1  0.69800000  0.34080000  0.62190000  1.0 -0.4821471052
O  O13  1  0.63115000  0.36105000  0.79580000  1.0 -0.5254451112
O  O14  1  0.63895000  0.36885000  0.29580000  1.0 -0.5254451112
O  O15  1  0.64282000  0.26378000  0.77190000  1.0 -0.5447819905
O  O16  1  0.73622000  0.35718000  0.27190000  1.0 -0.5447819905
O  O17  1  0.80141000  0.85159000  0.06620000  1.0 -0.4664454089
O  O18  1  0.14841000  0.19859000  0.56620000  1.0 -0.4664454089
O  O19  1  0.76450000  0.17290000  0.10440000  1.0 0.0462672597
O  O20  1  0.82710000  0.23550000  0.60440000  1.0 0.0462672597
O  O21  1  0.72240000  0.77840000  0.69300000  1.0 -0.0242795135
O  O22  1  0.22160000  0.27760000  0.19300000  1.0 -0.0263100603
O  O23  1  0.80000000  0.21600000  0.08590000  1.0 0.0749119966
O  O24  1  0.78400000  0.20000000  0.58590000  1.0 0.0749119966
O  O25  1  0.61836000  0.90184000  0.32010000  1.0 -0.5512079672
O  O26  1  0.09816000  0.38164000  0.82010000  1.0 -0.5512079672
O  O27  1  0.57076000  0.74784000  0.34190000  1.0 -0.4821471052
O  O28  1  0.25216000  0.42924000  0.84190000  1.0 -0.4821471052
O  O29  1  0.11158000  0.39302000  0.30240000  1.0 -0.5230642037
O  O30  1  0.60698000  0.88842000  0.80240000  1.0 -0.5230642037
O  O31  1  0.26251000  0.43889000  0.33970000  1.0 -0.4945082442
O  O32  1  0.56111000  0.73749000  0.83970000  1.0 -0.4945082442
O  O33  1  0.36842000  0.62598000  0.45110000  1.0 -0.4273067602
O  O34  1  0.37402000  0.63158000  0.95110000  1.0 -0.4273067602
O  O35  1  0.30200000  0.65920000  0.37810000  1.0 -0.4821471052
O  O36  1  0.34080000  0.69800000  0.87810000  1.0 -0.4821471052
O  O37  1  0.36105000  0.63115000  0.70420000  1.0 -0.5254451112
O  O38  1  0.36885000  0.63895000  0.20420000  1.0 -0.5254451112
O  O39  1  0.26378000  0.64282000  0.72810000  1.0 -0.5512079672
O  O40  1  0.35718000  0.73622000  0.22810000  1.0 -0.5447819905
O  O41  1  0.85159000  0.80141000  0.43380000  1.0 -0.4664454089
O  O42  1  0.19859000  0.14841000  0.93380000  1.0 -0.4664454089
O  O43  1  0.17290000  0.76450000  0.39560000  1.0 0.0438027958
O  O44  1  0.23550000  0.82710000  0.89560000  1.0 0.0438027958
O  O45  1  0.77840000  0.72240000  0.80700000  1.0 -0.0242795135
O  O46  1  0.27760000  0.22160000  0.30700000  1.0 -0.0263100603
O  O47  1  0.21600000  0.80000000  0.41410000  1.0 0.0755209847
O  O48  1  0.20000000  0.78400000  0.91410000  1.0 0.0755209847
O  O49  1  0.05200000  0.65120000  0.79280000  1.0 -0.1826779407
O  O50  1  0.65120000  0.05200000  0.70720000  1.0 -0.1826779407
O  O51  1  0.94800000  0.34880000  0.20720000  1.0 -0.1826779407
O  O52  1  0.34880000  0.94800000  0.29280000  1.0 -0.1826779407
