# DDEC6 charges by PACMAN v1.1 (https://github.com/mtap-research/PACMAN-charge/)
data_CITYAH_ASR_pacman
_symmetry_space_group_name_H-M   'P 1'
_cell_length_a   17.15600000
_cell_length_b   20.38700000
_cell_length_c   20.56200000
_cell_angle_alpha   90.00000000
_cell_angle_beta   90.00000000
_cell_angle_gamma   90.00000000
_symmetry_Int_Tables_number   1
_chemical_formula_structural   K4ZrH12(C4O3)6
_chemical_formula_sum   'K32 Zr8 H96 C192 O144'
_cell_volume   7191.75220706
_cell_formula_units_Z   8
loop_
 _symmetry_equiv_pos_site_id
 _symmetry_equiv_pos_as_xyz
  1  'x, y, z'
loop_
 _atom_site_type_symbol
 _atom_site_label
 _atom_site_symmetry_multiplicity
 _atom_site_fract_x
 _atom_site_fract_y
 _atom_site_fract_z
 _atom_site_occupancy
 _atom_site_charge
K  K1  1  0.44362000  0.85876000  0.19287000  1.0 0.8708018522
K  K2  1  0.05638000  0.14124000  0.69287000  1.0 0.8708018522
K  K3  1  0.94362000  0.64124000  0.80713000  1.0 0.8708018522
K  K4  1  0.55638000  0.35876000  0.30713000  1.0 0.8708018522
K  K5  1  0.55638000  0.14124000  0.80713000  1.0 0.8708018522
K  K6  1  0.94362000  0.85876000  0.30713000  1.0 0.8708018522
K  K7  1  0.05638000  0.35876000  0.19287000  1.0 0.8708018522
K  K8  1  0.44362000  0.64124000  0.69287000  1.0 0.8708018522
K  K9  1  0.43926000  0.19582000  0.33885000  1.0 0.8708018522
K  K10  1  0.06074000  0.80418000  0.83885000  1.0 0.8708018522
K  K11  1  0.93926000  0.30418000  0.66115000  1.0 0.8708018522
K  K12  1  0.56074000  0.69582000  0.16115000  1.0 0.8708018522
K  K13  1  0.56074000  0.80418000  0.66115000  1.0 0.8708018522
K  K14  1  0.93926000  0.19582000  0.16115000  1.0 0.8708018522
K  K15  1  0.06074000  0.69582000  0.33885000  1.0 0.8708018522
K  K16  1  0.43926000  0.30418000  0.83885000  1.0 0.8708018522
K  K17  1  0.30382000  0.98257000  0.08831000  1.0 0.8708018522
K  K18  1  0.19618000  0.01743000  0.58831000  1.0 0.8708018522
K  K19  1  0.80382000  0.51743000  0.91169000  1.0 0.8708018522
K  K20  1  0.69618000  0.48257000  0.41169000  1.0 0.8708018522
K  K21  1  0.69618000  0.01743000  0.91169000  1.0 0.8708018522
K  K22  1  0.80382000  0.98257000  0.41169000  1.0 0.8708018522
K  K23  1  0.19618000  0.48257000  0.08831000  1.0 0.8708018522
K  K24  1  0.30382000  0.51743000  0.58831000  1.0 0.8708018522
K  K25  1  0.28718000  0.08160000  0.43686000  1.0 0.8557877154
K  K26  1  0.21282000  0.91840000  0.93686000  1.0 0.8557877154
K  K27  1  0.78718000  0.41840000  0.56314000  1.0 0.8557877154
K  K28  1  0.71282000  0.58160000  0.06314000  1.0 0.8557877154
K  K29  1  0.71282000  0.91840000  0.56314000  1.0 0.8557877154
K  K30  1  0.78718000  0.08160000  0.06314000  1.0 0.8557877154
K  K31  1  0.21282000  0.58160000  0.43686000  1.0 0.8557877154
K  K32  1  0.28718000  0.41840000  0.93686000  1.0 0.8557877154
Zr  Zr1  1  0.36927000  0.02540000  0.26559000  1.0 2.1323195458
Zr  Zr2  1  0.13073000  0.97460000  0.76559000  1.0 2.1323195458
Zr  Zr3  1  0.86927000  0.47460000  0.73441000  1.0 2.1323195458
Zr  Zr4  1  0.63073000  0.52540000  0.23441000  1.0 2.1323195458
Zr  Zr5  1  0.63073000  0.97460000  0.73441000  1.0 2.1323195458
Zr  Zr6  1  0.86927000  0.02540000  0.23441000  1.0 2.1323195458
Zr  Zr7  1  0.13073000  0.52540000  0.26559000  1.0 2.1323195458
Zr  Zr8  1  0.36927000  0.47460000  0.76559000  1.0 2.1323195458
H  H1  1  0.55710000  0.87300000  0.34540000  1.0 0.1700283307
H  H2  1  0.94290000  0.12700000  0.84540000  1.0 0.1700283307
H  H3  1  0.05710000  0.62700000  0.65460000  1.0 0.1700283307
H  H4  1  0.44290000  0.37300000  0.15460000  1.0 0.1700283307
H  H5  1  0.44290000  0.12700000  0.65460000  1.0 0.1700283307
H  H6  1  0.05710000  0.87300000  0.15460000  1.0 0.1789399463
H  H7  1  0.94290000  0.37300000  0.34540000  1.0 0.1700283307
H  H8  1  0.55710000  0.62700000  0.84540000  1.0 0.1700283307
H  H9  1  0.52750000  0.08200000  0.44930000  1.0 0.1639062904
H  H10  1  0.97250000  0.91800000  0.94930000  1.0 0.1639062904
H  H11  1  0.02750000  0.41800000  0.55070000  1.0 0.1700283307
H  H12  1  0.47250000  0.58200000  0.05070000  1.0 0.1639062904
H  H13  1  0.47250000  0.91800000  0.55070000  1.0 0.1639062904
H  H14  1  0.02750000  0.08200000  0.05070000  1.0 0.1700283307
H  H15  1  0.97250000  0.58200000  0.44930000  1.0 0.1639062904
H  H16  1  0.52750000  0.41800000  0.94930000  1.0 0.1639062904
H  H17  1  0.25040000  0.22630000  0.32910000  1.0 0.1639062904
H  H18  1  0.24960000  0.77370000  0.82910000  1.0 0.1639062904
H  H19  1  0.75040000  0.27370000  0.67090000  1.0 0.1639062904
H  H20  1  0.74960000  0.72630000  0.17090000  1.0 0.1639062904
H  H21  1  0.74960000  0.77370000  0.67090000  1.0 0.1639062904
H  H22  1  0.75040000  0.22630000  0.17090000  1.0 0.1639062904
H  H23  1  0.24960000  0.72630000  0.32910000  1.0 0.1639062904
H  H24  1  0.25040000  0.27370000  0.82910000  1.0 0.1639062904
H  H25  1  0.16910000  0.11870000  0.13380000  1.0 0.1700283307
H  H26  1  0.33090000  0.88130000  0.63380000  1.0 0.1700283307
H  H27  1  0.66910000  0.38130000  0.86620000  1.0 0.1700283307
H  H28  1  0.83090000  0.61870000  0.36620000  1.0 0.1700283307
H  H29  1  0.83090000  0.88130000  0.86620000  1.0 0.1700283307
H  H30  1  0.66910000  0.11870000  0.36620000  1.0 0.1700283307
H  H31  1  0.33090000  0.61870000  0.13380000  1.0 0.1700283307
H  H32  1  0.16910000  0.38130000  0.63380000  1.0 0.1700283307
H  H33  1  0.55000000  0.17980000  0.17650000  1.0 0.1789399463
H  H34  1  0.95000000  0.82020000  0.67650000  1.0 0.1789399463
H  H35  1  0.05000000  0.32020000  0.82350000  1.0 0.1789399463
H  H36  1  0.45000000  0.67980000  0.32350000  1.0 0.1789399463
H  H37  1  0.45000000  0.82020000  0.82350000  1.0 0.1789399463
H  H38  1  0.05000000  0.17980000  0.32350000  1.0 0.1789399463
H  H39  1  0.95000000  0.67980000  0.17650000  1.0 0.1789399463
H  H40  1  0.55000000  0.32020000  0.67650000  1.0 0.1789399463
H  H41  1  0.51530000  0.96980000  0.07680000  1.0 0.1700283307
H  H42  1  0.98470000  0.03020000  0.57680000  1.0 0.1700283307
H  H43  1  0.01530000  0.53020000  0.92320000  1.0 0.1700283307
H  H44  1  0.48470000  0.46980000  0.42320000  1.0 0.1700283307
H  H45  1  0.48470000  0.03020000  0.92320000  1.0 0.1700283307
H  H46  1  0.01530000  0.96980000  0.42320000  1.0 0.1700283307
H  H47  1  0.98470000  0.46980000  0.07680000  1.0 0.1700283307
H  H48  1  0.51530000  0.53020000  0.57680000  1.0 0.1700283307
H  H49  1  0.21610000  0.84610000  0.18880000  1.0 0.1639062904
H  H50  1  0.28390000  0.15390000  0.68880000  1.0 0.1639062904
H  H51  1  0.71610000  0.65390000  0.81120000  1.0 0.1639062904
H  H52  1  0.78390000  0.34610000  0.31120000  1.0 0.1639062904
H  H53  1  0.78390000  0.15390000  0.81120000  1.0 0.1639062904
H  H54  1  0.71610000  0.84610000  0.31120000  1.0 0.1639062904
H  H55  1  0.28390000  0.34610000  0.18880000  1.0 0.1639062904
H  H56  1  0.21610000  0.65390000  0.68880000  1.0 0.1639062904
H  H57  1  0.17990000  0.92710000  0.40540000  1.0 0.1789399463
H  H58  1  0.32010000  0.07290000  0.90540000  1.0 0.1789399463
H  H59  1  0.67990000  0.57290000  0.59460000  1.0 0.1789399463
H  H60  1  0.82010000  0.42710000  0.09460000  1.0 0.1789399463
H  H61  1  0.82010000  0.07290000  0.59460000  1.0 0.1789399463
H  H62  1  0.67990000  0.92710000  0.09460000  1.0 0.1789399463
H  H63  1  0.32010000  0.42710000  0.40540000  1.0 0.1789399463
H  H64  1  0.17990000  0.57290000  0.90540000  1.0 0.1789399463
H  H65  1  0.32550000  0.83100000  0.07220000  1.0 0.3956845542
H  H66  1  0.17450000  0.16900000  0.57220000  1.0 0.3956845542
H  H67  1  0.82550000  0.66900000  0.92780000  1.0 0.3956845542
H  H68  1  0.67450000  0.33100000  0.42780000  1.0 0.3956845542
H  H69  1  0.67450000  0.16900000  0.92780000  1.0 0.3956845542
H  H70  1  0.82550000  0.83100000  0.42780000  1.0 0.3956845542
H  H71  1  0.17450000  0.33100000  0.07220000  1.0 0.3956845542
H  H72  1  0.32550000  0.66900000  0.57220000  1.0 0.3956845542
H  H73  1  0.39910000  0.85620000  0.04630000  1.0 0.3935762862
H  H74  1  0.10090000  0.14380000  0.54630000  1.0 0.3935762862
H  H75  1  0.89910000  0.64380000  0.95370000  1.0 0.3935762862
H  H76  1  0.60090000  0.35620000  0.45370000  1.0 0.3935762862
H  H77  1  0.60090000  0.14380000  0.95370000  1.0 0.3935762862
H  H78  1  0.89910000  0.85620000  0.45370000  1.0 0.3935762862
H  H79  1  0.10090000  0.35620000  0.04630000  1.0 0.3935762862
H  H80  1  0.39910000  0.64380000  0.54630000  1.0 0.3935762862
H  H81  1  0.32290000  0.21670000  0.47620000  1.0 0.3935762862
H  H82  1  0.17710000  0.78330000  0.97620000  1.0 0.3956845542
H  H83  1  0.82290000  0.28330000  0.52380000  1.0 0.3956845542
H  H84  1  0.67710000  0.71670000  0.02380000  1.0 0.3956845542
H  H85  1  0.67710000  0.78330000  0.52380000  1.0 0.3956845542
H  H86  1  0.82290000  0.21670000  0.02380000  1.0 0.3956845542
H  H87  1  0.17710000  0.71670000  0.47620000  1.0 0.3956845542
H  H88  1  0.32290000  0.28330000  0.97620000  1.0 0.3956845542
H  H89  1  0.40240000  0.19590000  0.48950000  1.0 0.3935762862
H  H90  1  0.09760000  0.80410000  0.98950000  1.0 0.3935762862
H  H91  1  0.90240000  0.30410000  0.51050000  1.0 0.3935762862
H  H92  1  0.59760000  0.69590000  0.01050000  1.0 0.3935762862
H  H93  1  0.59760000  0.80410000  0.51050000  1.0 0.3935762862
H  H94  1  0.90240000  0.19590000  0.01050000  1.0 0.3935762862
H  H95  1  0.09760000  0.69590000  0.48950000  1.0 0.3935762862
H  H96  1  0.40240000  0.30410000  0.98950000  1.0 0.3935762862
C  C1  1  0.48650000  0.02210000  0.37930000  1.0 0.3040469225
C  C2  1  0.01350000  0.97790000  0.87930000  1.0 0.3040469225
C  C3  1  0.98650000  0.47790000  0.62070000  1.0 0.3040469225
C  C4  1  0.51350000  0.52210000  0.12070000  1.0 0.3040469225
C  C5  1  0.51350000  0.97790000  0.62070000  1.0 0.3040469225
C  C6  1  0.98650000  0.02210000  0.12070000  1.0 0.3040469225
C  C7  1  0.01350000  0.52210000  0.37930000  1.0 0.3040469225
C  C8  1  0.48650000  0.47790000  0.87930000  1.0 0.3040469225
C  C9  1  0.55440000  0.91450000  0.36390000  1.0 -0.3812872161
C  C10  1  0.94560000  0.08550000  0.86390000  1.0 -0.3812872161
C  C11  1  0.05440000  0.58550000  0.63610000  1.0 -0.3812872161
C  C12  1  0.44560000  0.41450000  0.13610000  1.0 -0.3812872161
C  C13  1  0.44560000  0.08550000  0.63610000  1.0 -0.3812872161
C  C14  1  0.05440000  0.91450000  0.13610000  1.0 -0.3812872161
C  C15  1  0.94560000  0.41450000  0.36390000  1.0 -0.3812872161
C  C16  1  0.55440000  0.58550000  0.86390000  1.0 -0.3812872161
C  C17  1  0.53600000  0.04240000  0.42790000  1.0 -0.3965776353
C  C18  1  0.96400000  0.95760000  0.92790000  1.0 -0.3965776353
C  C19  1  0.03600000  0.45760000  0.57210000  1.0 -0.3965776353
C  C20  1  0.46400000  0.54240000  0.07210000  1.0 -0.3965776353
C  C21  1  0.46400000  0.95760000  0.57210000  1.0 -0.3965776353
C  C22  1  0.03600000  0.04240000  0.07210000  1.0 -0.3965776353
C  C23  1  0.96400000  0.54240000  0.42790000  1.0 -0.3965776353
C  C24  1  0.53600000  0.45760000  0.92790000  1.0 -0.3965776353
C  C25  1  0.49770000  0.95830000  0.34510000  1.0 0.3101309691
C  C26  1  0.00230000  0.04170000  0.84510000  1.0 0.3101309691
C  C27  1  0.99770000  0.54170000  0.65490000  1.0 0.3101309691
C  C28  1  0.50230000  0.45830000  0.15490000  1.0 0.3101309691
C  C29  1  0.50230000  0.04170000  0.65490000  1.0 0.3101309691
C  C30  1  0.99770000  0.95830000  0.15490000  1.0 0.3101309691
C  C31  1  0.00230000  0.45830000  0.34510000  1.0 0.3101309691
C  C32  1  0.49770000  0.54170000  0.84510000  1.0 0.3101309691
C  C33  1  0.59990000  0.00240000  0.44480000  1.0 0.321176684
C  C34  1  0.90010000  0.99760000  0.94480000  1.0 0.321176684
C  C35  1  0.09990000  0.49760000  0.55520000  1.0 0.321176684
C  C36  1  0.40010000  0.50240000  0.05520000  1.0 0.321176684
C  C37  1  0.40010000  0.99760000  0.55520000  1.0 0.321176684
C  C38  1  0.09990000  0.00240000  0.05520000  1.0 0.321176684
C  C39  1  0.90010000  0.50240000  0.44480000  1.0 0.321176684
C  C40  1  0.59990000  0.49760000  0.94480000  1.0 0.321176684
C  C41  1  0.60850000  0.93410000  0.41220000  1.0 0.3040469225
C  C42  1  0.89150000  0.06590000  0.91220000  1.0 0.3040469225
C  C43  1  0.10850000  0.56590000  0.58780000  1.0 0.3040469225
C  C44  1  0.39150000  0.43410000  0.08780000  1.0 0.3040469225
C  C45  1  0.39150000  0.06590000  0.58780000  1.0 0.3040469225
C  C46  1  0.10850000  0.93410000  0.08780000  1.0 0.3040469225
C  C47  1  0.89150000  0.43410000  0.41220000  1.0 0.3040469225
C  C48  1  0.60850000  0.56590000  0.91220000  1.0 0.3040469225
C  C49  1  0.26450000  0.14780000  0.27220000  1.0 0.2909800619
C  C50  1  0.23550000  0.85220000  0.77220000  1.0 0.2909800619
C  C51  1  0.76450000  0.35220000  0.72780000  1.0 0.2909800619
C  C52  1  0.73550000  0.64780000  0.22780000  1.0 0.2909800619
C  C53  1  0.73550000  0.85220000  0.72780000  1.0 0.2909800619
C  C54  1  0.76450000  0.14780000  0.22780000  1.0 0.2909800619
C  C55  1  0.23550000  0.64780000  0.27220000  1.0 0.2909800619
C  C56  1  0.26450000  0.35220000  0.77220000  1.0 0.2909800619
C  C57  1  0.23220000  0.20530000  0.29200000  1.0 -0.3866086095
C  C58  1  0.26780000  0.79470000  0.79200000  1.0 -0.3866086095
C  C59  1  0.73220000  0.29470000  0.70800000  1.0 -0.3866086095
C  C60  1  0.76780000  0.70530000  0.20800000  1.0 -0.3866086095
C  C61  1  0.76780000  0.79470000  0.70800000  1.0 -0.3866086095
C  C62  1  0.73220000  0.20530000  0.20800000  1.0 -0.3866086095
C  C63  1  0.26780000  0.70530000  0.29200000  1.0 -0.3866086095
C  C64  1  0.23220000  0.29470000  0.79200000  1.0 -0.3866086095
C  C65  1  0.24050000  0.11420000  0.21020000  1.0 0.3101309691
C  C66  1  0.25950000  0.88580000  0.71020000  1.0 0.3101309691
C  C67  1  0.74050000  0.38580000  0.78980000  1.0 0.3101309691
C  C68  1  0.75950000  0.61420000  0.28980000  1.0 0.3101309691
C  C69  1  0.75950000  0.88580000  0.78980000  1.0 0.3101309691
C  C70  1  0.74050000  0.11420000  0.28980000  1.0 0.3101309691
C  C71  1  0.25950000  0.61420000  0.21020000  1.0 0.3101309691
C  C72  1  0.24050000  0.38580000  0.71020000  1.0 0.3101309691
C  C73  1  0.18300000  0.13950000  0.17230000  1.0 -0.3965776353
C  C74  1  0.31700000  0.86050000  0.67230000  1.0 -0.3965776353
C  C75  1  0.68300000  0.36050000  0.82770000  1.0 -0.3965776353
C  C76  1  0.81700000  0.63950000  0.32770000  1.0 -0.3965776353
C  C77  1  0.81700000  0.86050000  0.82770000  1.0 -0.3965776353
C  C78  1  0.68300000  0.13950000  0.32770000  1.0 -0.3965776353
C  C79  1  0.31700000  0.63950000  0.17230000  1.0 -0.3965776353
C  C80  1  0.18300000  0.36050000  0.67230000  1.0 -0.3965776353
C  C81  1  0.48210000  0.02910000  0.14890000  1.0 0.2770216823
C  C82  1  0.01790000  0.97090000  0.64890000  1.0 0.2770216823
C  C83  1  0.98210000  0.47090000  0.85110000  1.0 0.2770216823
C  C84  1  0.51790000  0.52910000  0.35110000  1.0 0.2770216823
C  C85  1  0.51790000  0.97090000  0.85110000  1.0 0.2770216823
C  C86  1  0.98210000  0.02910000  0.35110000  1.0 0.2770216823
C  C87  1  0.01790000  0.52910000  0.14890000  1.0 0.2770216823
C  C88  1  0.48210000  0.47090000  0.64890000  1.0 0.2770216823
C  C89  1  0.49440000  0.09410000  0.18220000  1.0 0.3101309691
C  C90  1  0.00560000  0.90590000  0.68220000  1.0 0.3101309691
C  C91  1  0.99440000  0.40590000  0.81780000  1.0 0.3101309691
C  C92  1  0.50560000  0.59410000  0.31780000  1.0 0.3101309691
C  C93  1  0.50560000  0.90590000  0.81780000  1.0 0.3101309691
C  C94  1  0.99440000  0.09410000  0.31780000  1.0 0.3101309691
C  C95  1  0.00560000  0.59410000  0.18220000  1.0 0.3101309691
C  C96  1  0.49440000  0.40590000  0.68220000  1.0 0.3101309691
C  C97  1  0.54640000  0.13810000  0.15840000  1.0 -0.3739769286
C  C98  1  0.95360000  0.86190000  0.65840000  1.0 -0.3739769286
C  C99  1  0.04640000  0.36190000  0.84160000  1.0 -0.3739769286
C  C100  1  0.45360000  0.63810000  0.34160000  1.0 -0.3739769286
C  C101  1  0.45360000  0.86190000  0.84160000  1.0 -0.3739769286
C  C102  1  0.04640000  0.13810000  0.34160000  1.0 -0.3739769286
C  C103  1  0.95360000  0.63810000  0.15840000  1.0 -0.3739769286
C  C104  1  0.54640000  0.36190000  0.65840000  1.0 -0.3739769286
C  C105  1  0.52580000  0.00940000  0.09750000  1.0 -0.3812872161
C  C106  1  0.97420000  0.99060000  0.59750000  1.0 -0.3812872161
C  C107  1  0.02580000  0.49060000  0.90250000  1.0 -0.3812872161
C  C108  1  0.47420000  0.50940000  0.40250000  1.0 -0.3812872161
C  C109  1  0.47420000  0.99060000  0.90250000  1.0 -0.3812872161
C  C110  1  0.02580000  0.00940000  0.40250000  1.0 -0.3812872161
C  C111  1  0.97420000  0.50940000  0.09750000  1.0 -0.3812872161
C  C112  1  0.52580000  0.49060000  0.59750000  1.0 -0.3812872161
C  C113  1  0.14420000  0.19800000  0.19200000  1.0 0.3359758244
C  C114  1  0.35580000  0.80200000  0.69200000  1.0 0.3359758244
C  C115  1  0.64420000  0.30200000  0.80800000  1.0 0.3359758244
C  C116  1  0.85580000  0.69800000  0.30800000  1.0 0.3359758244
C  C117  1  0.85580000  0.80200000  0.80800000  1.0 0.3359758244
C  C118  1  0.64420000  0.19800000  0.30800000  1.0 0.3359758244
C  C119  1  0.35580000  0.69800000  0.19200000  1.0 0.3359758244
C  C120  1  0.14420000  0.30200000  0.69200000  1.0 0.3359758244
C  C121  1  0.17050000  0.23290000  0.25540000  1.0 0.3289218493
C  C122  1  0.32950000  0.76710000  0.75540000  1.0 0.3289218493
C  C123  1  0.67050000  0.26710000  0.74460000  1.0 0.3289218493
C  C124  1  0.82950000  0.73290000  0.24460000  1.0 0.3289218493
C  C125  1  0.82950000  0.76710000  0.74460000  1.0 0.3289218493
C  C126  1  0.67050000  0.23290000  0.24460000  1.0 0.3289218493
C  C127  1  0.32950000  0.73290000  0.25540000  1.0 0.3289218493
C  C128  1  0.17050000  0.26710000  0.75540000  1.0 0.3289218493
C  C129  1  0.20800000  0.86140000  0.23090000  1.0 -0.3866086095
C  C130  1  0.29200000  0.13860000  0.73090000  1.0 -0.3866086095
C  C131  1  0.70800000  0.63860000  0.76910000  1.0 -0.3866086095
C  C132  1  0.79200000  0.36140000  0.26910000  1.0 -0.3866086095
C  C133  1  0.79200000  0.13860000  0.76910000  1.0 -0.3866086095
C  C134  1  0.70800000  0.86140000  0.26910000  1.0 -0.3866086095
C  C135  1  0.29200000  0.36140000  0.23090000  1.0 -0.3866086095
C  C136  1  0.20800000  0.63860000  0.73090000  1.0 -0.3866086095
C  C137  1  0.18520000  0.91180000  0.36310000  1.0 -0.3812872161
C  C138  1  0.31480000  0.08820000  0.86310000  1.0 -0.3812872161
C  C139  1  0.68520000  0.58820000  0.63690000  1.0 -0.3812872161
C  C140  1  0.81480000  0.41180000  0.13690000  1.0 -0.3812872161
C  C141  1  0.81480000  0.08820000  0.63690000  1.0 -0.3812872161
C  C142  1  0.68520000  0.91180000  0.13690000  1.0 -0.3812872161
C  C143  1  0.31480000  0.41180000  0.36310000  1.0 -0.3812872161
C  C144  1  0.18520000  0.58820000  0.86310000  1.0 -0.3812872161
C  C145  1  0.59510000  0.12000000  0.10570000  1.0 0.321176684
C  C146  1  0.90490000  0.88000000  0.60570000  1.0 0.321176684
C  C147  1  0.09510000  0.38000000  0.89430000  1.0 0.321176684
C  C148  1  0.40490000  0.62000000  0.39430000  1.0 0.321176684
C  C149  1  0.40490000  0.88000000  0.89430000  1.0 0.321176684
C  C150  1  0.09510000  0.12000000  0.39430000  1.0 0.321176684
C  C151  1  0.90490000  0.62000000  0.10570000  1.0 0.321176684
C  C152  1  0.59510000  0.38000000  0.60570000  1.0 0.321176684
C  C153  1  0.25500000  0.90980000  0.25600000  1.0 0.321176684
C  C154  1  0.24500000  0.09020000  0.75600000  1.0 0.321176684
C  C155  1  0.75500000  0.59020000  0.74400000  1.0 0.321176684
C  C156  1  0.74500000  0.40980000  0.24400000  1.0 0.321176684
C  C157  1  0.74500000  0.09020000  0.74400000  1.0 0.321176684
C  C158  1  0.75500000  0.90980000  0.24400000  1.0 0.321176684
C  C159  1  0.24500000  0.40980000  0.25600000  1.0 0.321176684
C  C160  1  0.25500000  0.59020000  0.75600000  1.0 0.321176684
C  C161  1  0.24030000  0.93810000  0.32270000  1.0 0.3101309691
C  C162  1  0.25970000  0.06190000  0.82270000  1.0 0.3101309691
C  C163  1  0.74030000  0.56190000  0.67730000  1.0 0.3101309691
C  C164  1  0.75970000  0.43810000  0.17730000  1.0 0.3101309691
C  C165  1  0.75970000  0.06190000  0.67730000  1.0 0.3101309691
C  C166  1  0.74030000  0.93810000  0.17730000  1.0 0.3101309691
C  C167  1  0.25970000  0.43810000  0.32270000  1.0 0.3101309691
C  C168  1  0.24030000  0.56190000  0.82270000  1.0 0.3101309691
C  C169  1  0.58760000  0.05000000  0.07570000  1.0 0.3289218493
C  C170  1  0.91240000  0.95000000  0.57570000  1.0 0.3289218493
C  C171  1  0.08760000  0.45000000  0.92430000  1.0 0.3289218493
C  C172  1  0.41240000  0.55000000  0.42430000  1.0 0.3289218493
C  C173  1  0.41240000  0.95000000  0.92430000  1.0 0.3289218493
C  C174  1  0.08760000  0.05000000  0.42430000  1.0 0.3289218493
C  C175  1  0.91240000  0.55000000  0.07570000  1.0 0.3289218493
C  C176  1  0.58760000  0.45000000  0.57570000  1.0 0.3289218493
C  C177  1  0.13630000  0.86100000  0.33970000  1.0 0.3289218493
C  C178  1  0.36370000  0.13900000  0.83970000  1.0 0.3289218493
C  C179  1  0.63630000  0.63900000  0.66030000  1.0 0.3289218493
C  C180  1  0.86370000  0.36100000  0.16030000  1.0 0.3289218493
C  C181  1  0.86370000  0.13900000  0.66030000  1.0 0.3289218493
C  C182  1  0.63630000  0.86100000  0.16030000  1.0 0.3289218493
C  C183  1  0.36370000  0.36100000  0.33970000  1.0 0.3289218493
C  C184  1  0.13630000  0.63900000  0.83970000  1.0 0.3289218493
C  C185  1  0.14780000  0.83520000  0.26920000  1.0 0.3040469225
C  C186  1  0.35220000  0.16480000  0.76920000  1.0 0.3040469225
C  C187  1  0.64780000  0.66480000  0.73080000  1.0 0.3040469225
C  C188  1  0.85220000  0.33520000  0.23080000  1.0 0.3040469225
C  C189  1  0.85220000  0.16480000  0.73080000  1.0 0.3040469225
C  C190  1  0.64780000  0.83520000  0.23080000  1.0 0.3040469225
C  C191  1  0.35220000  0.33520000  0.26920000  1.0 0.3040469225
C  C192  1  0.14780000  0.66480000  0.76920000  1.0 0.3040469225
O  O1  1  0.45020000  0.10234000  0.23305000  1.0 -0.5976793594
O  O2  1  0.04980000  0.89766000  0.73305000  1.0 -0.5976793594
O  O3  1  0.95020000  0.39766000  0.76695000  1.0 -0.5976793594
O  O4  1  0.54980000  0.60234000  0.26695000  1.0 -0.5976793594
O  O5  1  0.54980000  0.89766000  0.76695000  1.0 -0.5976793594
O  O6  1  0.95020000  0.10234000  0.26695000  1.0 -0.5976793594
O  O7  1  0.04980000  0.60234000  0.23305000  1.0 -0.5976793594
O  O8  1  0.45020000  0.39766000  0.73305000  1.0 -0.5976793594
O  O9  1  0.42520000  0.99474000  0.17473000  1.0 -0.6605007886
O  O10  1  0.07480000  0.00526000  0.67473000  1.0 -0.6605007886
O  O11  1  0.92520000  0.50526000  0.82527000  1.0 -0.6605007886
O  O12  1  0.57480000  0.49474000  0.32527000  1.0 -0.6605007886
O  O13  1  0.57480000  0.00526000  0.82527000  1.0 -0.6605007886
O  O14  1  0.92520000  0.99474000  0.32527000  1.0 -0.6605007886
O  O15  1  0.07480000  0.49474000  0.17473000  1.0 -0.6605007886
O  O16  1  0.42520000  0.50526000  0.67473000  1.0 -0.6605007886
O  O17  1  0.31750000  0.11572000  0.30474000  1.0 -0.6485255002
O  O18  1  0.18250000  0.88428000  0.80474000  1.0 -0.6485255002
O  O19  1  0.81750000  0.38428000  0.69526000  1.0 -0.6485255002
O  O20  1  0.68250000  0.61572000  0.19526000  1.0 -0.6485255002
O  O21  1  0.68250000  0.88428000  0.69526000  1.0 -0.6485255002
O  O22  1  0.81750000  0.11572000  0.19526000  1.0 -0.6485255002
O  O23  1  0.18250000  0.61572000  0.30474000  1.0 -0.6485255002
O  O24  1  0.31750000  0.38428000  0.80474000  1.0 -0.6485255002
O  O25  1  0.28510000  0.98772000  0.33626000  1.0 -0.5976793594
O  O26  1  0.21490000  0.01228000  0.83626000  1.0 -0.5976793594
O  O27  1  0.78510000  0.51228000  0.66374000  1.0 -0.5976793594
O  O28  1  0.71490000  0.48772000  0.16374000  1.0 -0.5976793594
O  O29  1  0.71490000  0.01228000  0.66374000  1.0 -0.5976793594
O  O30  1  0.78510000  0.98772000  0.16374000  1.0 -0.5976793594
O  O31  1  0.21490000  0.48772000  0.33626000  1.0 -0.5976793594
O  O32  1  0.28510000  0.51228000  0.83626000  1.0 -0.5976793594
O  O33  1  0.27970000  0.06072000  0.19880000  1.0 -0.6213826179
O  O34  1  0.22030000  0.93928000  0.69880000  1.0 -0.6213826179
O  O35  1  0.77970000  0.43928000  0.80120000  1.0 -0.6213826179
O  O36  1  0.72030000  0.56072000  0.30120000  1.0 -0.6213826179
O  O37  1  0.72030000  0.93928000  0.80120000  1.0 -0.6213826179
O  O38  1  0.77970000  0.06072000  0.30120000  1.0 -0.6213826179
O  O39  1  0.22030000  0.56072000  0.19880000  1.0 -0.6213826179
O  O40  1  0.27970000  0.43928000  0.69880000  1.0 -0.6213826179
O  O41  1  0.31220000  0.93634000  0.22590000  1.0 -0.5976793594
O  O42  1  0.18780000  0.06366000  0.72590000  1.0 -0.5976793594
O  O43  1  0.81220000  0.56366000  0.77410000  1.0 -0.5976793594
O  O44  1  0.68780000  0.43634000  0.27410000  1.0 -0.5976793594
O  O45  1  0.68780000  0.06366000  0.77410000  1.0 -0.5976793594
O  O46  1  0.81220000  0.93634000  0.27410000  1.0 -0.5976793594
O  O47  1  0.18780000  0.43634000  0.22590000  1.0 -0.5976793594
O  O48  1  0.31220000  0.56366000  0.72590000  1.0 -0.5976793594
O  O49  1  0.42820000  0.05597000  0.35759000  1.0 -0.6266303598
O  O50  1  0.07180000  0.94403000  0.85759000  1.0 -0.6266303598
O  O51  1  0.92820000  0.44403000  0.64241000  1.0 -0.6266303598
O  O52  1  0.57180000  0.55597000  0.14241000  1.0 -0.6266303598
O  O53  1  0.57180000  0.94403000  0.64241000  1.0 -0.6266303598
O  O54  1  0.92820000  0.05597000  0.14241000  1.0 -0.6266303598
O  O55  1  0.07180000  0.55597000  0.35759000  1.0 -0.6266303598
O  O56  1  0.42820000  0.44403000  0.85759000  1.0 -0.6266303598
O  O57  1  0.44970000  0.94899000  0.29705000  1.0 -0.5976793594
O  O58  1  0.05030000  0.05101000  0.79705000  1.0 -0.5976793594
O  O59  1  0.94970000  0.55101000  0.70295000  1.0 -0.5976793594
O  O60  1  0.55030000  0.44899000  0.20295000  1.0 -0.5976793594
O  O61  1  0.55030000  0.05101000  0.70295000  1.0 -0.5976793594
O  O62  1  0.94970000  0.94899000  0.20295000  1.0 -0.5976793594
O  O63  1  0.05030000  0.44899000  0.29705000  1.0 -0.5976793594
O  O64  1  0.44970000  0.55101000  0.79705000  1.0 -0.5976793594
O  O65  1  0.63650000  0.03380000  0.03503000  1.0 -0.5093280389
O  O66  1  0.86350000  0.96620000  0.53503000  1.0 -0.5093280389
O  O67  1  0.13650000  0.46620000  0.96497000  1.0 -0.5093280389
O  O68  1  0.36350000  0.53380000  0.46497000  1.0 -0.5093280389
O  O69  1  0.36350000  0.96620000  0.96497000  1.0 -0.5093280389
O  O70  1  0.13650000  0.03380000  0.46497000  1.0 -0.5093280389
O  O71  1  0.86350000  0.53380000  0.03503000  1.0 -0.5093280389
O  O72  1  0.63650000  0.46620000  0.53503000  1.0 -0.5093280389
O  O73  1  0.08300000  0.83520000  0.37070000  1.0 -0.4898295342
O  O74  1  0.41700000  0.16480000  0.87070000  1.0 -0.4898295342
O  O75  1  0.58300000  0.66480000  0.62930000  1.0 -0.4898295342
O  O76  1  0.91700000  0.33520000  0.12930000  1.0 -0.4898295342
O  O77  1  0.91700000  0.16480000  0.62930000  1.0 -0.4898295342
O  O78  1  0.58300000  0.83520000  0.12930000  1.0 -0.4898295342
O  O79  1  0.41700000  0.33520000  0.37070000  1.0 -0.4898295342
O  O80  1  0.08300000  0.66480000  0.87070000  1.0 -0.4898295342
O  O81  1  0.66630000  0.90140000  0.42870000  1.0 -0.5230210661
O  O82  1  0.83370000  0.09860000  0.92870000  1.0 -0.5230210661
O  O83  1  0.16630000  0.59860000  0.57130000  1.0 -0.5230210661
O  O84  1  0.33370000  0.40140000  0.07130000  1.0 -0.5230210661
O  O85  1  0.33370000  0.09860000  0.57130000  1.0 -0.5230210661
O  O86  1  0.16630000  0.90140000  0.07130000  1.0 -0.5230210661
O  O87  1  0.83370000  0.40140000  0.42870000  1.0 -0.5230210661
O  O88  1  0.66630000  0.59860000  0.92870000  1.0 -0.5230210661
O  O89  1  0.13360000  0.28240000  0.27200000  1.0 -0.4600121542
O  O90  1  0.36640000  0.71760000  0.77200000  1.0 -0.4600121542
O  O91  1  0.63360000  0.21760000  0.72800000  1.0 -0.4600121542
O  O92  1  0.86640000  0.78240000  0.22800000  1.0 -0.4600121542
O  O93  1  0.86640000  0.71760000  0.72800000  1.0 -0.4600121542
O  O94  1  0.63360000  0.28240000  0.22800000  1.0 -0.4600121542
O  O95  1  0.36640000  0.78240000  0.27200000  1.0 -0.4600121542
O  O96  1  0.13360000  0.21760000  0.77200000  1.0 -0.4600121542
O  O97  1  0.64610000  0.15590000  0.08120000  1.0 -0.4600121542
O  O98  1  0.85390000  0.84410000  0.58120000  1.0 -0.4600121542
O  O99  1  0.14610000  0.34410000  0.91880000  1.0 -0.4600121542
O  O100  1  0.35390000  0.65590000  0.41880000  1.0 -0.4600121542
O  O101  1  0.35390000  0.84410000  0.91880000  1.0 -0.4600121542
O  O102  1  0.14610000  0.15590000  0.41880000  1.0 -0.4600121542
O  O103  1  0.85390000  0.65590000  0.08120000  1.0 -0.4600121542
O  O104  1  0.64610000  0.34410000  0.58120000  1.0 -0.4600121542
O  O105  1  0.10030000  0.79230000  0.25100000  1.0 -0.4971453711
O  O106  1  0.39970000  0.20770000  0.75100000  1.0 -0.4971453711
O  O107  1  0.60030000  0.70770000  0.74900000  1.0 -0.4971453711
O  O108  1  0.89970000  0.29230000  0.24900000  1.0 -0.4971453711
O  O109  1  0.89970000  0.20770000  0.74900000  1.0 -0.4971453711
O  O110  1  0.60030000  0.79230000  0.24900000  1.0 -0.4971453711
O  O111  1  0.39970000  0.29230000  0.25100000  1.0 -0.4971453711
O  O112  1  0.10030000  0.70770000  0.75100000  1.0 -0.4971453711
O  O113  1  0.08900000  0.22290000  0.16210000  1.0 -0.5258369981
O  O114  1  0.41100000  0.77710000  0.66210000  1.0 -0.5258369981
O  O115  1  0.58900000  0.27710000  0.83790000  1.0 -0.5258369981
O  O116  1  0.91100000  0.72290000  0.33790000  1.0 -0.5258369981
O  O117  1  0.91100000  0.77710000  0.83790000  1.0 -0.5258369981
O  O118  1  0.58900000  0.22290000  0.33790000  1.0 -0.5258369981
O  O119  1  0.41100000  0.72290000  0.16210000  1.0 -0.5258369981
O  O120  1  0.08900000  0.27710000  0.66210000  1.0 -0.5258369981
O  O121  1  0.65130000  0.01760000  0.48400000  1.0 -0.4716387107
O  O122  1  0.84870000  0.98240000  0.98400000  1.0 -0.4716387107
O  O123  1  0.15130000  0.48240000  0.51600000  1.0 -0.4716387107
O  O124  1  0.34870000  0.51760000  0.01600000  1.0 -0.4716387107
O  O125  1  0.34870000  0.98240000  0.51600000  1.0 -0.4716387107
O  O126  1  0.15130000  0.01760000  0.01600000  1.0 -0.4716387107
O  O127  1  0.84870000  0.51760000  0.48400000  1.0 -0.4716387107
O  O128  1  0.65130000  0.48240000  0.98400000  1.0 -0.4716387107
O  O129  1  0.36840000  0.86050000  0.07750000  1.0 -0.7896225988
O  O130  1  0.13160000  0.13950000  0.57750000  1.0 -0.7896225988
O  O131  1  0.86840000  0.63950000  0.92250000  1.0 -0.7896225988
O  O132  1  0.63160000  0.36050000  0.42250000  1.0 -0.7896225988
O  O133  1  0.63160000  0.13950000  0.92250000  1.0 -0.7896225988
O  O134  1  0.86840000  0.86050000  0.42250000  1.0 -0.7896225988
O  O135  1  0.13160000  0.36050000  0.07750000  1.0 -0.7896225988
O  O136  1  0.36840000  0.63950000  0.57750000  1.0 -0.7896225988
O  O137  1  0.36150000  0.19930000  0.45470000  1.0 -0.7896225988
O  O138  1  0.13850000  0.80070000  0.95470000  1.0 -0.7896225988
O  O139  1  0.86150000  0.30070000  0.54530000  1.0 -0.7896225988
O  O140  1  0.63850000  0.69930000  0.04530000  1.0 -0.7896225988
O  O141  1  0.63850000  0.80070000  0.54530000  1.0 -0.7896225988
O  O142  1  0.86150000  0.19930000  0.04530000  1.0 -0.7896225988
O  O143  1  0.13850000  0.69930000  0.45470000  1.0 -0.7896225988
O  O144  1  0.36150000  0.30070000  0.95470000  1.0 -0.7896225988
