# DDEC6 charges by PACMAN v1.1 (https://github.com/mtap-research/PACMAN-charge/)
data_CIWHOJ_ASR_pacman
_symmetry_space_group_name_H-M   'P 1'
_cell_length_a   13.27920000
_cell_length_b   13.27920000
_cell_length_c   13.27920000
_cell_angle_alpha   116.57400000
_cell_angle_beta   116.57400000
_cell_angle_gamma   116.57400000
_symmetry_Int_Tables_number   1
_chemical_formula_structural   FeH18(C2N)12
_chemical_formula_sum   'Fe2 H36 C48 N24'
_cell_volume   1099.74226057
_cell_formula_units_Z   2
loop_
 _symmetry_equiv_pos_site_id
 _symmetry_equiv_pos_as_xyz
  1  'x, y, z'
loop_
 _atom_site_type_symbol
 _atom_site_label
 _atom_site_symmetry_multiplicity
 _atom_site_fract_x
 _atom_site_fract_y
 _atom_site_fract_z
 _atom_site_occupancy
 _atom_site_charge
Fe  Fe1  1  0.00000000  0.00000000  0.00000000  1.0 0.4406919251
Fe  Fe2  1  0.50000000  0.50000000  0.50000000  1.0 0.4318967829
H  H1  1  0.67734000  0.18789000  0.31010000  1.0 0.068775259
H  H2  1  0.18789000  0.31010000  0.67734000  1.0 0.068775259
H  H3  1  0.31010000  0.67734000  0.18789000  1.0 0.068775259
H  H4  1  0.32266000  0.81211000  0.68990000  1.0 0.068775259
H  H5  1  0.81211000  0.68990000  0.32266000  1.0 0.068775259
H  H6  1  0.68990000  0.32266000  0.81211000  1.0 0.068775259
H  H7  1  0.23624000  0.89769000  0.78860000  1.0 0.0814010384
H  H8  1  0.89769000  0.78860000  0.23624000  1.0 0.0814010384
H  H9  1  0.78860000  0.23624000  0.89769000  1.0 0.0814010384
H  H10  1  0.76376000  0.10231000  0.21140000  1.0 0.0814010384
H  H11  1  0.10231000  0.21140000  0.76376000  1.0 0.0814010384
H  H12  1  0.21140000  0.76376000  0.10231000  1.0 0.0814010384
H  H13  1  0.68924000  0.31189000  0.20870000  1.0 0.0814010384
H  H14  1  0.31189000  0.20870000  0.68924000  1.0 0.0814010384
H  H15  1  0.20870000  0.68924000  0.31189000  1.0 0.0814010384
H  H16  1  0.31076000  0.68811000  0.79130000  1.0 0.0814010384
H  H17  1  0.68811000  0.79130000  0.31076000  1.0 0.0814010384
H  H18  1  0.79130000  0.31076000  0.68811000  1.0 0.0814010384
H  H19  1  0.24604000  0.78929000  0.90760000  1.0 0.0630517609
H  H20  1  0.78929000  0.90760000  0.24604000  1.0 0.0630517609
H  H21  1  0.90760000  0.24604000  0.78929000  1.0 0.0630517609
H  H22  1  0.75396000  0.21071000  0.09240000  1.0 0.0630517609
H  H23  1  0.21071000  0.09240000  0.75396000  1.0 0.0630517609
H  H24  1  0.09240000  0.75396000  0.21071000  1.0 0.0630517609
H  H25  1  0.70804000  0.26759000  0.29930000  1.0 0.068775259
H  H26  1  0.26759000  0.29930000  0.70804000  1.0 0.068775259
H  H27  1  0.29930000  0.70804000  0.26759000  1.0 0.068775259
H  H28  1  0.29196000  0.73241000  0.70070000  1.0 0.068775259
H  H29  1  0.73241000  0.70070000  0.29196000  1.0 0.068775259
H  H30  1  0.70070000  0.29196000  0.73241000  1.0 0.068775259
H  H31  1  0.19284000  0.78489000  0.80260000  1.0 0.0479877064
H  H32  1  0.78489000  0.80260000  0.19284000  1.0 0.0479877064
H  H33  1  0.80260000  0.19284000  0.78489000  1.0 0.0479877064
H  H34  1  0.80716000  0.21511000  0.19740000  1.0 0.0479877064
H  H35  1  0.21511000  0.19740000  0.80716000  1.0 0.0479877064
H  H36  1  0.19740000  0.80716000  0.21511000  1.0 0.0479877064
C  C1  1  0.40144000  0.11989000  0.12030000  1.0 0.1622322073
C  C2  1  0.11989000  0.12030000  0.40144000  1.0 0.1622322073
C  C3  1  0.12030000  0.40144000  0.11989000  1.0 0.1622322073
C  C4  1  0.59856000  0.88011000  0.87970000  1.0 0.1622322073
C  C5  1  0.88011000  0.87970000  0.59856000  1.0 0.1622322073
C  C6  1  0.87970000  0.59856000  0.88011000  1.0 0.1622322073
C  C7  1  0.45464000  0.06019000  0.06020000  1.0 0.019487645
C  C8  1  0.06019000  0.06020000  0.45464000  1.0 0.019487645
C  C9  1  0.06020000  0.45464000  0.06019000  1.0 0.019487645
C  C10  1  0.54536000  0.93981000  0.93980000  1.0 0.019487645
C  C11  1  0.93981000  0.93980000  0.54536000  1.0 0.019487645
C  C12  1  0.93980000  0.54536000  0.93981000  1.0 0.019487645
C  C13  1  0.61064000  0.11659000  0.18980000  1.0 -0.0522810928
C  C14  1  0.11659000  0.18980000  0.61064000  1.0 -0.0522810928
C  C15  1  0.18980000  0.61064000  0.11659000  1.0 -0.0522810928
C  C16  1  0.38936000  0.88341000  0.81020000  1.0 -0.0522810928
C  C17  1  0.88341000  0.81020000  0.38936000  1.0 -0.0522810928
C  C18  1  0.81020000  0.38936000  0.88341000  1.0 -0.0522810928
C  C19  1  0.34244000  0.94019000  0.87240000  1.0 -0.0522810928
C  C20  1  0.94019000  0.87240000  0.34244000  1.0 -0.0522810928
C  C21  1  0.87240000  0.34244000  0.94019000  1.0 -0.0522810928
C  C22  1  0.65756000  0.05981000  0.12760000  1.0 -0.0522810928
C  C23  1  0.05981000  0.12760000  0.65756000  1.0 -0.0522810928
C  C24  1  0.12760000  0.65756000  0.05981000  1.0 -0.0522810928
C  C25  1  0.61184000  0.18589000  0.12230000  1.0 -0.0522810928
C  C26  1  0.18589000  0.12230000  0.61184000  1.0 -0.0522810928
C  C27  1  0.12230000  0.61184000  0.18589000  1.0 -0.0522810928
C  C28  1  0.38816000  0.81411000  0.87770000  1.0 -0.0522810928
C  C29  1  0.81411000  0.87770000  0.38816000  1.0 -0.0522810928
C  C30  1  0.87770000  0.38816000  0.81411000  1.0 -0.0522810928
C  C31  1  0.34484000  0.87169000  0.94150000  1.0 -0.0758580198
C  C32  1  0.87169000  0.94150000  0.34484000  1.0 -0.0758580198
C  C33  1  0.94150000  0.34484000  0.87169000  1.0 -0.0758580198
C  C34  1  0.65516000  0.12831000  0.05850000  1.0 -0.0758580198
C  C35  1  0.12831000  0.05850000  0.65516000  1.0 -0.0758580198
C  C36  1  0.05850000  0.65516000  0.12831000  1.0 -0.0758580198
C  C37  1  0.61604000  0.15799000  0.17000000  1.0 -0.017486798
C  C38  1  0.15799000  0.17000000  0.61604000  1.0 -0.017486798
C  C39  1  0.17000000  0.61604000  0.15799000  1.0 -0.017486798
C  C40  1  0.38396000  0.84201000  0.83000000  1.0 -0.017486798
C  C41  1  0.84201000  0.83000000  0.38396000  1.0 -0.017486798
C  C42  1  0.83000000  0.38396000  0.84201000  1.0 -0.017486798
C  C43  1  0.32204000  0.88099000  0.88600000  1.0 -0.0368563653
C  C44  1  0.88099000  0.88600000  0.32204000  1.0 -0.0368563653
C  C45  1  0.88600000  0.32204000  0.88099000  1.0 -0.0368563653
C  C46  1  0.67796000  0.11901000  0.11400000  1.0 -0.0368563653
C  C47  1  0.11901000  0.11400000  0.67796000  1.0 -0.0368563653
C  C48  1  0.11400000  0.67796000  0.11901000  1.0 -0.0368563653
N  N1  1  0.23094000  0.10559000  0.10500000  1.0 -0.0147880614
N  N2  1  0.10559000  0.10500000  0.23094000  1.0 -0.017486798
N  N3  1  0.10500000  0.23094000  0.10559000  1.0 -0.0147880614
N  N4  1  0.76906000  0.89441000  0.89500000  1.0 -0.017486798
N  N5  1  0.89441000  0.89500000  0.76906000  1.0 -0.017486798
N  N6  1  0.89500000  0.76906000  0.89441000  1.0 -0.017486798
N  N7  1  0.41044000  0.27789000  0.27760000  1.0 -0.0321578221
N  N8  1  0.27789000  0.27760000  0.41044000  1.0 -0.0321578221
N  N9  1  0.27760000  0.41044000  0.27789000  1.0 -0.0321578221
N  N10  1  0.58956000  0.72211000  0.72240000  1.0 -0.0321578221
N  N11  1  0.72211000  0.72240000  0.58956000  1.0 -0.0321578221
N  N12  1  0.72240000  0.58956000  0.72211000  1.0 -0.0321578221
N  N13  1  0.21974000  0.00209000  0.00130000  1.0 -0.1885553901
N  N14  1  0.00209000  0.00130000  0.21974000  1.0 -0.1885553901
N  N15  1  0.00130000  0.21974000  0.00209000  1.0 -0.1885553901
N  N16  1  0.78026000  0.99791000  0.99870000  1.0 -0.1885553901
N  N17  1  0.99791000  0.99870000  0.78026000  1.0 -0.1885553901
N  N18  1  0.99870000  0.78026000  0.99791000  1.0 -0.1885553901
N  N19  1  0.52214000  0.29079000  0.29100000  1.0 -0.2141984731
N  N20  1  0.29079000  0.29100000  0.52214000  1.0 -0.2141984731
N  N21  1  0.29100000  0.52214000  0.29079000  1.0 -0.2141984731
N  N22  1  0.47786000  0.70921000  0.70900000  1.0 -0.2141984731
N  N23  1  0.70921000  0.70900000  0.47786000  1.0 -0.2141984731
N  N24  1  0.70900000  0.47786000  0.70921000  1.0 -0.2141984731
