# DDEC6 charges by PACMAN v1.1 (https://github.com/mtap-research/PACMAN-charge/)
data_CIWZEP_FSR_pacman
_symmetry_space_group_name_H-M   'P 1'
_cell_length_a   26.11000000
_cell_length_b   13.91000000
_cell_length_c   37.94790000
_cell_angle_alpha   90.00000000
_cell_angle_beta   129.05500000
_cell_angle_gamma   90.00000000
_symmetry_Int_Tables_number   1
_chemical_formula_structural   Ni4Mo2H87(C19N8)4
_chemical_formula_sum   'Ni16 Mo8 H348 C304 N128'
_cell_volume   10702.52914478
_cell_formula_units_Z   4
loop_
 _symmetry_equiv_pos_site_id
 _symmetry_equiv_pos_as_xyz
  1  'x, y, z'
loop_
 _atom_site_type_symbol
 _atom_site_label
 _atom_site_symmetry_multiplicity
 _atom_site_fract_x
 _atom_site_fract_y
 _atom_site_fract_z
 _atom_site_occupancy
 _atom_site_charge
Ni  Ni1  1  0.73379000  0.66507000  0.99108000  1.0 0.610890687
Ni  Ni2  1  0.26621000  0.16507000  0.50892000  1.0 0.610890687
Ni  Ni3  1  0.26621000  0.33493000  0.00892000  1.0 0.610890687
Ni  Ni4  1  0.73379000  0.83493000  0.49108000  1.0 0.610890687
Ni  Ni5  1  0.05316000  0.38159000  0.28999000  1.0 0.5942561333
Ni  Ni6  1  0.94684000  0.88159000  0.21001000  1.0 0.5953778331
Ni  Ni7  1  0.94684000  0.61841000  0.71001000  1.0 0.5942561333
Ni  Ni8  1  0.05316000  0.11841000  0.78999000  1.0 0.5942561333
Ni  Ni9  1  0.74259000  0.62845000  0.24150000  1.0 0.4824885582
Ni  Ni10  1  0.25741000  0.12845000  0.25850000  1.0 0.4824885582
Ni  Ni11  1  0.25741000  0.37155000  0.75850000  1.0 0.4824885582
Ni  Ni12  1  0.74259000  0.87155000  0.74150000  1.0 0.4824885582
Ni  Ni13  1  0.45658000  0.66653000  0.72468000  1.0 0.5772998636
Ni  Ni14  1  0.54342000  0.16653000  0.77532000  1.0 0.5772998636
Ni  Ni15  1  0.54342000  0.33347000  0.27532000  1.0 0.5772998636
Ni  Ni16  1  0.45658000  0.83347000  0.22468000  1.0 0.5772998636
Mo  Mo1  1  0.83595000  0.53804000  0.15537000  1.0 0.6431528037
Mo  Mo2  1  0.16405000  0.03804000  0.34463000  1.0 0.6431528037
Mo  Mo3  1  0.16405000  0.46196000  0.84463000  1.0 0.6431528037
Mo  Mo4  1  0.83595000  0.96196000  0.65537000  1.0 0.6431528037
Mo  Mo5  1  0.67116000  0.84383000  0.84684000  1.0 0.7239069646
Mo  Mo6  1  0.32884000  0.34383000  0.65316000  1.0 0.7267025416
Mo  Mo7  1  0.32884000  0.15617000  0.15316000  1.0 0.7267025416
Mo  Mo8  1  0.67116000  0.65617000  0.34684000  1.0 0.7267025416
H  H1  1  0.80960000  0.63710000  0.97650000  1.0 0.2494003778
H  H2  1  0.19040000  0.13710000  0.52350000  1.0 0.2494003778
H  H3  1  0.19040000  0.36290000  0.02350000  1.0 0.2494003778
H  H4  1  0.80960000  0.86290000  0.47650000  1.0 0.2494003778
H  H5  1  0.99950000  0.38350000  0.20830000  1.0 0.2672625487
H  H6  1  0.00050000  0.88350000  0.29170000  1.0 0.2672625487
H  H7  1  0.00050000  0.61650000  0.79170000  1.0 0.2672625487
H  H8  1  0.99950000  0.11650000  0.70830000  1.0 0.2672625487
H  H9  1  0.78180000  0.47370000  0.23850000  1.0 0.2494003778
H  H10  1  0.21820000  0.97370000  0.26150000  1.0 0.2494003778
H  H11  1  0.21820000  0.52630000  0.76150000  1.0 0.2494003778
H  H12  1  0.78180000  0.02630000  0.73850000  1.0 0.2494003778
H  H13  1  0.46640000  0.53990000  0.68520000  1.0 0.2494003778
H  H14  1  0.53360000  0.03990000  0.81480000  1.0 0.2494003778
H  H15  1  0.53360000  0.46010000  0.31480000  1.0 0.2494003778
H  H16  1  0.46640000  0.96010000  0.18520000  1.0 0.2494003778
H  H17  1  0.72380000  0.98970000  0.00330000  1.0 0.1500889763
H  H18  1  0.27620000  0.48970000  0.49670000  1.0 0.1500889763
H  H19  1  0.27620000  0.01030000  0.99670000  1.0 0.1500889763
H  H20  1  0.72380000  0.51030000  0.50330000  1.0 0.1500889763
H  H21  1  0.64680000  0.97890000  0.96960000  1.0 0.1574834154
H  H22  1  0.35320000  0.47890000  0.53040000  1.0 0.1574834154
H  H23  1  0.35320000  0.02110000  0.03040000  1.0 0.1574834154
H  H24  1  0.64680000  0.52110000  0.46960000  1.0 0.1574834154
H  H25  1  0.68590000  0.96800000  0.02200000  1.0 0.1500889763
H  H26  1  0.31410000  0.46800000  0.47800000  1.0 0.1500889763
H  H27  1  0.31410000  0.03200000  0.97800000  1.0 0.1500889763
H  H28  1  0.68590000  0.53200000  0.52200000  1.0 0.1500889763
H  H29  1  0.57110000  0.87250000  0.97390000  1.0 0.1399256294
H  H30  1  0.42890000  0.37250000  0.52610000  1.0 0.1399256294
H  H31  1  0.42890000  0.12750000  0.02610000  1.0 0.1399256294
H  H32  1  0.57110000  0.62750000  0.47390000  1.0 0.1399256294
H  H33  1  0.50000000  0.75820000  0.95530000  1.0 0.1285209272
H  H34  1  0.50000000  0.25820000  0.54470000  1.0 0.1285209272
H  H35  1  0.50000000  0.24180000  0.04470000  1.0 0.1285209272
H  H36  1  0.50000000  0.74180000  0.45530000  1.0 0.1285209272
H  H37  1  0.52440000  0.59560000  0.95530000  1.0 0.1285209272
H  H38  1  0.47560000  0.09560000  0.54470000  1.0 0.1285209272
H  H39  1  0.47560000  0.40440000  0.04470000  1.0 0.1285209272
H  H40  1  0.52440000  0.90440000  0.45530000  1.0 0.1285209272
H  H41  1  0.59320000  0.40170000  0.94020000  1.0 0.1399256294
H  H42  1  0.40680000  0.90170000  0.55980000  1.0 0.1399256294
H  H43  1  0.40680000  0.59830000  0.05980000  1.0 0.1399256294
H  H44  1  0.59320000  0.09830000  0.44020000  1.0 0.1399256294
H  H45  1  0.62430000  0.40540000  0.99150000  1.0 0.169292673
H  H46  1  0.37570000  0.90540000  0.50850000  1.0 0.169292673
H  H47  1  0.37570000  0.59460000  0.00850000  1.0 0.169292673
H  H48  1  0.62430000  0.09460000  0.49150000  1.0 0.169292673
H  H49  1  0.55730000  0.45780000  0.95490000  1.0 0.1500889763
H  H50  1  0.44270000  0.95780000  0.54510000  1.0 0.1500889763
H  H51  1  0.44270000  0.54220000  0.04510000  1.0 0.1500889763
H  H52  1  0.55730000  0.04220000  0.45490000  1.0 0.1500889763
H  H53  1  0.75140000  0.42140000  0.01590000  1.0 0.1285209272
H  H54  1  0.24860000  0.92140000  0.48410000  1.0 0.1285209272
H  H55  1  0.24860000  0.57860000  0.98410000  1.0 0.1285209272
H  H56  1  0.75140000  0.07860000  0.51590000  1.0 0.1285209272
H  H57  1  0.70400000  0.39620000  0.96420000  1.0 0.1100183773
H  H58  1  0.29600000  0.89620000  0.53580000  1.0 0.1100183773
H  H59  1  0.29600000  0.60380000  0.03580000  1.0 0.1100183773
H  H60  1  0.70400000  0.10380000  0.46420000  1.0 0.1100183773
H  H61  1  0.76830000  0.48410000  0.95380000  1.0 0.1285209272
H  H62  1  0.23170000  0.98410000  0.54620000  1.0 0.1285209272
H  H63  1  0.23170000  0.51590000  0.04620000  1.0 0.1285209272
H  H64  1  0.76830000  0.01590000  0.45380000  1.0 0.1285209272
H  H65  1  0.80940000  0.40210000  0.98930000  1.0 0.1285209272
H  H66  1  0.19060000  0.90210000  0.51070000  1.0 0.1285209272
H  H67  1  0.19060000  0.59790000  0.01070000  1.0 0.1285209272
H  H68  1  0.80940000  0.09790000  0.48930000  1.0 0.1285209272
H  H69  1  0.87790000  0.52320000  0.02090000  1.0 0.1100183773
H  H70  1  0.12210000  0.02320000  0.47910000  1.0 0.1100183773
H  H71  1  0.12210000  0.47680000  0.97910000  1.0 0.1100183773
H  H72  1  0.87790000  0.97680000  0.52090000  1.0 0.1100183773
H  H73  1  0.84830000  0.52430000  0.04620000  1.0 0.1285209272
H  H74  1  0.15170000  0.02430000  0.45380000  1.0 0.1285209272
H  H75  1  0.15170000  0.47570000  0.95380000  1.0 0.1285209272
H  H76  1  0.84830000  0.97570000  0.54620000  1.0 0.1285209272
H  H77  1  0.90930000  0.69050000  0.03870000  1.0 0.1100183773
H  H78  1  0.09070000  0.19050000  0.46130000  1.0 0.1100183773
H  H79  1  0.09070000  0.30950000  0.96130000  1.0 0.1100183773
H  H80  1  0.90930000  0.80950000  0.53870000  1.0 0.1100183773
H  H81  1  0.87890000  0.70390000  0.06320000  1.0 0.1285209272
H  H82  1  0.12110000  0.20390000  0.43680000  1.0 0.1285209272
H  H83  1  0.12110000  0.29610000  0.93680000  1.0 0.1285209272
H  H84  1  0.87890000  0.79610000  0.56320000  1.0 0.1285209272
H  H85  1  0.88790000  0.83830000  0.02860000  1.0 0.1178599841
H  H86  1  0.11210000  0.33830000  0.47140000  1.0 0.1178599841
H  H87  1  0.11210000  0.16170000  0.97140000  1.0 0.1178599841
H  H88  1  0.88790000  0.66170000  0.52860000  1.0 0.1178599841
H  H89  1  0.82490000  0.79630000  0.98340000  1.0 0.1399256294
H  H90  1  0.17510000  0.29630000  0.51660000  1.0 0.1399256294
H  H91  1  0.17510000  0.20370000  0.01660000  1.0 0.1399256294
H  H92  1  0.82490000  0.70370000  0.48340000  1.0 0.1399256294
H  H93  1  0.79560000  0.91950000  0.00930000  1.0 0.1178599841
H  H94  1  0.20440000  0.41950000  0.49070000  1.0 0.1178599841
H  H95  1  0.20440000  0.08050000  0.99070000  1.0 0.1178599841
H  H96  1  0.79560000  0.58050000  0.50930000  1.0 0.1178599841
H  H97  1  0.82900000  0.86540000  0.05530000  1.0 0.1100183773
H  H98  1  0.17100000  0.36540000  0.44470000  1.0 0.1100183773
H  H99  1  0.17100000  0.13460000  0.94470000  1.0 0.1100183773
H  H100  1  0.82900000  0.63460000  0.55530000  1.0 0.1100183773
H  H101  1  0.52800000  0.71720000  0.11840000  1.0 0.1500889763
H  H102  1  0.47200000  0.21720000  0.38160000  1.0 0.1500889763
H  H103  1  0.47200000  0.28280000  0.88160000  1.0 0.1500889763
H  H104  1  0.52800000  0.78280000  0.61840000  1.0 0.1500889763
H  H105  1  0.56220000  0.78540000  0.10590000  1.0 0.1399256294
H  H106  1  0.43780000  0.28540000  0.39410000  1.0 0.1399256294
H  H107  1  0.43780000  0.21460000  0.89410000  1.0 0.1399256294
H  H108  1  0.56220000  0.71460000  0.60590000  1.0 0.1399256294
H  H109  1  0.55650000  0.67510000  0.09560000  1.0 0.1574834154
H  H110  1  0.44350000  0.17510000  0.40440000  1.0 0.1574834154
H  H111  1  0.44350000  0.32490000  0.90440000  1.0 0.1574834154
H  H112  1  0.55650000  0.82490000  0.59560000  1.0 0.1574834154
H  H113  1  0.61120000  0.89600000  0.14820000  1.0 0.1399256294
H  H114  1  0.38880000  0.39600000  0.35180000  1.0 0.1399256294
H  H115  1  0.38880000  0.10400000  0.85180000  1.0 0.1399256294
H  H116  1  0.61120000  0.60400000  0.64820000  1.0 0.1399256294
H  H117  1  0.67430000  0.00700000  0.19810000  1.0 0.1178599841
H  H118  1  0.32570000  0.50700000  0.30190000  1.0 0.1178599841
H  H119  1  0.32570000  0.99300000  0.80190000  1.0 0.1178599841
H  H120  1  0.67430000  0.49300000  0.69810000  1.0 0.1178599841
H  H121  1  0.76820000  0.97550000  0.27310000  1.0 0.1399256294
H  H122  1  0.23180000  0.47550000  0.22690000  1.0 0.1399256294
H  H123  1  0.23180000  0.02450000  0.72690000  1.0 0.1399256294
H  H124  1  0.76820000  0.52450000  0.77310000  1.0 0.1399256294
H  H125  1  0.90410000  0.80200000  0.36490000  1.0 0.1399256294
H  H126  1  0.09590000  0.30200000  0.13510000  1.0 0.1399256294
H  H127  1  0.09590000  0.19800000  0.63510000  1.0 0.1399256294
H  H128  1  0.90410000  0.69800000  0.86490000  1.0 0.1399256294
H  H129  1  0.86590000  0.89780000  0.34070000  1.0 0.1399256294
H  H130  1  0.13410000  0.39780000  0.15930000  1.0 0.1399256294
H  H131  1  0.13410000  0.10220000  0.65930000  1.0 0.1399256294
H  H132  1  0.86590000  0.60220000  0.84070000  1.0 0.1399256294
H  H133  1  0.84430000  0.83190000  0.36280000  1.0 0.1774278735
H  H134  1  0.15570000  0.33190000  0.13720000  1.0 0.1774278735
H  H135  1  0.15570000  0.16810000  0.63720000  1.0 0.1774278735
H  H136  1  0.84430000  0.66810000  0.86280000  1.0 0.1774278735
H  H137  1  0.91380000  0.65130000  0.35530000  1.0 0.1100183773
H  H138  1  0.08620000  0.15130000  0.14470000  1.0 0.1100183773
H  H139  1  0.08620000  0.34870000  0.64470000  1.0 0.1100183773
H  H140  1  0.91380000  0.84870000  0.85530000  1.0 0.1100183773
H  H141  1  0.86060000  0.62180000  0.36040000  1.0 0.1178599841
H  H142  1  0.13940000  0.12180000  0.13960000  1.0 0.1178599841
H  H143  1  0.13940000  0.37820000  0.63960000  1.0 0.1178599841
H  H144  1  0.86060000  0.87820000  0.86040000  1.0 0.1178599841
H  H145  1  0.90070000  0.48340000  0.34820000  1.0 0.1178599841
H  H146  1  0.09930000  0.98340000  0.15180000  1.0 0.1178599841
H  H147  1  0.09930000  0.51660000  0.65180000  1.0 0.1178599841
H  H148  1  0.90070000  0.01660000  0.84820000  1.0 0.1178599841
H  H149  1  0.87990000  0.52690000  0.30300000  1.0 0.1285209272
H  H150  1  0.12010000  0.02690000  0.19700000  1.0 0.1285209272
H  H151  1  0.12010000  0.47310000  0.69700000  1.0 0.1285209272
H  H152  1  0.87990000  0.97310000  0.80300000  1.0 0.1285209272
H  H153  1  0.78540000  0.47620000  0.31000000  1.0 0.1178599841
H  H154  1  0.21460000  0.97620000  0.19000000  1.0 0.1178599841
H  H155  1  0.21460000  0.52380000  0.69000000  1.0 0.1178599841
H  H156  1  0.78540000  0.02380000  0.81000000  1.0 0.1178599841
H  H157  1  0.81800000  0.39820000  0.30010000  1.0 0.1100183773
H  H158  1  0.18200000  0.89820000  0.19990000  1.0 0.1100183773
H  H159  1  0.18200000  0.60180000  0.69990000  1.0 0.1100183773
H  H160  1  0.81800000  0.10180000  0.80010000  1.0 0.1100183773
H  H161  1  0.71580000  0.36070000  0.23080000  1.0 0.1100183773
H  H162  1  0.28420000  0.86070000  0.26920000  1.0 0.1100183773
H  H163  1  0.28420000  0.63930000  0.76920000  1.0 0.1100183773
H  H164  1  0.71580000  0.13930000  0.73080000  1.0 0.1100183773
H  H165  1  0.67730000  0.44090000  0.23480000  1.0 0.1100183773
H  H166  1  0.32270000  0.94090000  0.26520000  1.0 0.1100183773
H  H167  1  0.32270000  0.55910000  0.76520000  1.0 0.1100183773
H  H168  1  0.67730000  0.05910000  0.73480000  1.0 0.1100183773
H  H169  1  0.69350000  0.45580000  0.16970000  1.0 0.1399256294
H  H170  1  0.30650000  0.95580000  0.33030000  1.0 0.1399256294
H  H171  1  0.30650000  0.54420000  0.83030000  1.0 0.1399256294
H  H172  1  0.69350000  0.04420000  0.66970000  1.0 0.1399256294
H  H173  1  0.63680000  0.39160000  0.16000000  1.0 0.1178599841
H  H174  1  0.36320000  0.89160000  0.34000000  1.0 0.1178599841
H  H175  1  0.36320000  0.60840000  0.84000000  1.0 0.1178599841
H  H176  1  0.63680000  0.10840000  0.66000000  1.0 0.1178599841
H  H177  1  0.58530000  0.52530000  0.16140000  1.0 0.1100183773
H  H178  1  0.41470000  0.02530000  0.33860000  1.0 0.1100183773
H  H179  1  0.41470000  0.47470000  0.83860000  1.0 0.1100183773
H  H180  1  0.58530000  0.97470000  0.66140000  1.0 0.1100183773
H  H181  1  0.59490000  0.53780000  0.12490000  1.0 0.1178599841
H  H182  1  0.40510000  0.03780000  0.37510000  1.0 0.1178599841
H  H183  1  0.40510000  0.46220000  0.87510000  1.0 0.1178599841
H  H184  1  0.59490000  0.96220000  0.62490000  1.0 0.1178599841
H  H185  1  0.92560000  0.22260000  0.31230000  1.0 0.1500889763
H  H186  1  0.07440000  0.72260000  0.18770000  1.0 0.1500889763
H  H187  1  0.07440000  0.77740000  0.68770000  1.0 0.1500889763
H  H188  1  0.92560000  0.27740000  0.81230000  1.0 0.1500889763
H  H189  1  0.98180000  0.23700000  0.36460000  1.0 0.1574834154
H  H190  1  0.01820000  0.73700000  0.13540000  1.0 0.1574834154
H  H191  1  0.01820000  0.76300000  0.63540000  1.0 0.1574834154
H  H192  1  0.98180000  0.26300000  0.86460000  1.0 0.1574834154
H  H193  1  0.92390000  0.31140000  0.33700000  1.0 0.1399256294
H  H194  1  0.07610000  0.81140000  0.16300000  1.0 0.1399256294
H  H195  1  0.07610000  0.68860000  0.66300000  1.0 0.1399256294
H  H196  1  0.92390000  0.18860000  0.83700000  1.0 0.1399256294
H  H197  1  0.01080000  0.44120000  0.39600000  1.0 0.1399256294
H  H198  1  0.98920000  0.94120000  0.10400000  1.0 0.1399256294
H  H199  1  0.98920000  0.55880000  0.60400000  1.0 0.1399256294
H  H200  1  0.01080000  0.05880000  0.89600000  1.0 0.1399256294
H  H201  1  0.08330000  0.56510000  0.42940000  1.0 0.1285209272
H  H202  1  0.91670000  0.06510000  0.07060000  1.0 0.1285209272
H  H203  1  0.91670000  0.43490000  0.57060000  1.0 0.1285209272
H  H204  1  0.08330000  0.93490000  0.92940000  1.0 0.1285209272
H  H205  1  0.14510000  0.61680000  0.40980000  1.0 0.1574834154
H  H206  1  0.85490000  0.11680000  0.09020000  1.0 0.1574834154
H  H207  1  0.85490000  0.38320000  0.59020000  1.0 0.1574834154
H  H208  1  0.14510000  0.88320000  0.90980000  1.0 0.1574834154
H  H209  1  0.19310000  0.64990000  0.34980000  1.0 0.169292673
H  H210  1  0.80690000  0.14990000  0.15020000  1.0 0.169292673
H  H211  1  0.80690000  0.35010000  0.65020000  1.0 0.169292673
H  H212  1  0.19310000  0.85010000  0.84980000  1.0 0.169292673
H  H213  1  0.21220000  0.61770000  0.39630000  1.0 0.1500889763
H  H214  1  0.78780000  0.11770000  0.10370000  1.0 0.1500889763
H  H215  1  0.78780000  0.38230000  0.60370000  1.0 0.1500889763
H  H216  1  0.21220000  0.88230000  0.89630000  1.0 0.1500889763
H  H217  1  0.24280000  0.56500000  0.37690000  1.0 0.1500889763
H  H218  1  0.75720000  0.06500000  0.12310000  1.0 0.1574834154
H  H219  1  0.75720000  0.43500000  0.62310000  1.0 0.1500889763
H  H220  1  0.24280000  0.93500000  0.87690000  1.0 0.1500889763
H  H221  1  0.17350000  0.54790000  0.29100000  1.0 0.1100183773
H  H222  1  0.82650000  0.04790000  0.20900000  1.0 0.1100183773
H  H223  1  0.82650000  0.45210000  0.70900000  1.0 0.1100183773
H  H224  1  0.17350000  0.95210000  0.79100000  1.0 0.1100183773
H  H225  1  0.19430000  0.43970000  0.30330000  1.0 0.1178599841
H  H226  1  0.80570000  0.93970000  0.19670000  1.0 0.1178599841
H  H227  1  0.80570000  0.56030000  0.69670000  1.0 0.1178599841
H  H228  1  0.19430000  0.06030000  0.80330000  1.0 0.1178599841
H  H229  1  0.09380000  0.50210000  0.21670000  1.0 0.1178599841
H  H230  1  0.90620000  0.00210000  0.28330000  1.0 0.1178599841
H  H231  1  0.90620000  0.49790000  0.78330000  1.0 0.1178599841
H  H232  1  0.09380000  0.99790000  0.71670000  1.0 0.1178599841
H  H233  1  0.12270000  0.31550000  0.25270000  1.0 0.1178599841
H  H234  1  0.87730000  0.81550000  0.24730000  1.0 0.1178599841
H  H235  1  0.87730000  0.68450000  0.74730000  1.0 0.1178599841
H  H236  1  0.12270000  0.18450000  0.75270000  1.0 0.1178599841
H  H237  1  0.07360000  0.33880000  0.20060000  1.0 0.1178599841
H  H238  1  0.92640000  0.83880000  0.29940000  1.0 0.1178599841
H  H239  1  0.92640000  0.66120000  0.79940000  1.0 0.1178599841
H  H240  1  0.07360000  0.16120000  0.70060000  1.0 0.1100183773
H  H241  1  0.98630000  0.23170000  0.18620000  1.0 0.1100183773
H  H242  1  0.01370000  0.73170000  0.31380000  1.0 0.1100183773
H  H243  1  0.01370000  0.76830000  0.81380000  1.0 0.1100183773
H  H244  1  0.98630000  0.26830000  0.68620000  1.0 0.1100183773
H  H245  1  0.03580000  0.19910000  0.23710000  1.0 0.1178599841
H  H246  1  0.96420000  0.69910000  0.26290000  1.0 0.1178599841
H  H247  1  0.96420000  0.80090000  0.76290000  1.0 0.1178599841
H  H248  1  0.03580000  0.30090000  0.73710000  1.0 0.1178599841
H  H249  1  0.91920000  0.18030000  0.19880000  1.0 0.1100183773
H  H250  1  0.08080000  0.68030000  0.30120000  1.0 0.1100183773
H  H251  1  0.08080000  0.81970000  0.80120000  1.0 0.1100183773
H  H252  1  0.91920000  0.31970000  0.69880000  1.0 0.1100183773
H  H253  1  0.91690000  0.29130000  0.20250000  1.0 0.1285209272
H  H254  1  0.08310000  0.79130000  0.29750000  1.0 0.1285209272
H  H255  1  0.08310000  0.70870000  0.79750000  1.0 0.1285209272
H  H256  1  0.91690000  0.20870000  0.70250000  1.0 0.1285209272
H  H257  1  0.98000000  0.16490000  0.27610000  1.0 0.1285209272
H  H258  1  0.02000000  0.66490000  0.22390000  1.0 0.1285209272
H  H259  1  0.02000000  0.83510000  0.72390000  1.0 0.1285209272
H  H260  1  0.98000000  0.33510000  0.77610000  1.0 0.1285209272
H  H261  1  0.91270000  0.21670000  0.25420000  1.0 0.1178599841
H  H262  1  0.08730000  0.71670000  0.24580000  1.0 0.1178599841
H  H263  1  0.08730000  0.78330000  0.74580000  1.0 0.1178599841
H  H264  1  0.91270000  0.28330000  0.75420000  1.0 0.1178599841
H  H265  1  0.51290000  0.68200000  0.86790000  1.0 0.1574834154
H  H266  1  0.48710000  0.18200000  0.63210000  1.0 0.1574834154
H  H267  1  0.48710000  0.31800000  0.13210000  1.0 0.1574834154
H  H268  1  0.51290000  0.81800000  0.36790000  1.0 0.1574834154
H  H269  1  0.51400000  0.57220000  0.85910000  1.0 0.1500889763
H  H270  1  0.48600000  0.07220000  0.64090000  1.0 0.1500889763
H  H271  1  0.48600000  0.42780000  0.14090000  1.0 0.1500889763
H  H272  1  0.51400000  0.92780000  0.35910000  1.0 0.1500889763
H  H273  1  0.56980000  0.64010000  0.86920000  1.0 0.169292673
H  H274  1  0.43020000  0.14010000  0.63080000  1.0 0.169292673
H  H275  1  0.43020000  0.35990000  0.13080000  1.0 0.169292673
H  H276  1  0.56980000  0.85990000  0.36920000  1.0 0.169292673
H  H277  1  0.41430000  0.76500000  0.82830000  1.0 0.1399256294
H  H278  1  0.58570000  0.26500000  0.67170000  1.0 0.1399256294
H  H279  1  0.58570000  0.23500000  0.17170000  1.0 0.1399256294
H  H280  1  0.41430000  0.73500000  0.32830000  1.0 0.1399256294
H  H281  1  0.31710000  0.84530000  0.76900000  1.0 0.1100183773
H  H282  1  0.68290000  0.34530000  0.73100000  1.0 0.1100183773
H  H283  1  0.68290000  0.15470000  0.23100000  1.0 0.1100183773
H  H284  1  0.31710000  0.65470000  0.26900000  1.0 0.1100183773
H  H285  1  0.27490000  0.86850000  0.69230000  1.0 0.1399256294
H  H286  1  0.72510000  0.36850000  0.80770000  1.0 0.1399256294
H  H287  1  0.72510000  0.13150000  0.30770000  1.0 0.1399256294
H  H288  1  0.27490000  0.63150000  0.19230000  1.0 0.1399256294
H  H289  1  0.26130000  0.80890000  0.60610000  1.0 0.1500889763
H  H290  1  0.73870000  0.30890000  0.89390000  1.0 0.1574834154
H  H291  1  0.73870000  0.19110000  0.39390000  1.0 0.1574834154
H  H292  1  0.26130000  0.69110000  0.10610000  1.0 0.1574834154
H  H293  1  0.27320000  0.87860000  0.64310000  1.0 0.1500889763
H  H294  1  0.72680000  0.37860000  0.85690000  1.0 0.1500889763
H  H295  1  0.72680000  0.12140000  0.35690000  1.0 0.1500889763
H  H296  1  0.27320000  0.62140000  0.14310000  1.0 0.1500889763
H  H297  1  0.30770000  0.89820000  0.62180000  1.0 0.1500889763
H  H298  1  0.69230000  0.39820000  0.87820000  1.0 0.1500889763
H  H299  1  0.69230000  0.10180000  0.37820000  1.0 0.1500889763
H  H300  1  0.30770000  0.60180000  0.12180000  1.0 0.1500889763
H  H301  1  0.40860000  0.79890000  0.62410000  1.0 0.1178599841
H  H302  1  0.59140000  0.29890000  0.87590000  1.0 0.1178599841
H  H303  1  0.59140000  0.20110000  0.37590000  1.0 0.1178599841
H  H304  1  0.40860000  0.70110000  0.12410000  1.0 0.1178599841
H  H305  1  0.34440000  0.73620000  0.59620000  1.0 0.1100183773
H  H306  1  0.65560000  0.23620000  0.90380000  1.0 0.1100183773
H  H307  1  0.65560000  0.26380000  0.40380000  1.0 0.1178599841
H  H308  1  0.34440000  0.76380000  0.09620000  1.0 0.1100183773
H  H309  1  0.39990000  0.60630000  0.62650000  1.0 0.1285209272
H  H310  1  0.60010000  0.10630000  0.87350000  1.0 0.1285209272
H  H311  1  0.60010000  0.39370000  0.37350000  1.0 0.1285209272
H  H312  1  0.39990000  0.89370000  0.12650000  1.0 0.1285209272
H  H313  1  0.42020000  0.66150000  0.60170000  1.0 0.1178599841
H  H314  1  0.57980000  0.16150000  0.89830000  1.0 0.1178599841
H  H315  1  0.57980000  0.33850000  0.39830000  1.0 0.1178599841
H  H316  1  0.42020000  0.83850000  0.10170000  1.0 0.1178599841
H  H317  1  0.52560000  0.68410000  0.67650000  1.0 0.1100183773
H  H318  1  0.47440000  0.18410000  0.82350000  1.0 0.1100183773
H  H319  1  0.47440000  0.31590000  0.32350000  1.0 0.1100183773
H  H320  1  0.52560000  0.81590000  0.17650000  1.0 0.1100183773
H  H321  1  0.50830000  0.58140000  0.65360000  1.0 0.1040165206
H  H322  1  0.49170000  0.08140000  0.84640000  1.0 0.1040165206
H  H323  1  0.49170000  0.41860000  0.34640000  1.0 0.1040165206
H  H324  1  0.50830000  0.91860000  0.15360000  1.0 0.1040165206
H  H325  1  0.56490000  0.50720000  0.71380000  1.0 0.1100183773
H  H326  1  0.43510000  0.00720000  0.78620000  1.0 0.1100183773
H  H327  1  0.43510000  0.49280000  0.28620000  1.0 0.1100183773
H  H328  1  0.56490000  0.99280000  0.21380000  1.0 0.1100183773
H  H329  1  0.58990000  0.60490000  0.74130000  1.0 0.1178599841
H  H330  1  0.41010000  0.10490000  0.75870000  1.0 0.1178599841
H  H331  1  0.41010000  0.39510000  0.25870000  1.0 0.1178599841
H  H332  1  0.58990000  0.89510000  0.24130000  1.0 0.1178599841
H  H333  1  0.59540000  0.47080000  0.78220000  1.0 0.1178599841
H  H334  1  0.40460000  0.97080000  0.71780000  1.0 0.1178599841
H  H335  1  0.40460000  0.52920000  0.21780000  1.0 0.1178599841
H  H336  1  0.59540000  0.02920000  0.28220000  1.0 0.1178599841
H  H337  1  0.51920000  0.46500000  0.74750000  1.0 0.1285209272
H  H338  1  0.48080000  0.96500000  0.75250000  1.0 0.1285209272
H  H339  1  0.48080000  0.53500000  0.25250000  1.0 0.1285209272
H  H340  1  0.51920000  0.03500000  0.24750000  1.0 0.1285209272
H  H341  1  0.59270000  0.58990000  0.81710000  1.0 0.1285209272
H  H342  1  0.40730000  0.08990000  0.68290000  1.0 0.1285209272
H  H343  1  0.40730000  0.41010000  0.18290000  1.0 0.1285209272
H  H344  1  0.59270000  0.91010000  0.31710000  1.0 0.1285209272
H  H345  1  0.55150000  0.50400000  0.81330000  1.0 0.1100183773
H  H346  1  0.44850000  0.00400000  0.68670000  1.0 0.1100183773
H  H347  1  0.44850000  0.49600000  0.18670000  1.0 0.1100183773
H  H348  1  0.55150000  0.99600000  0.31330000  1.0 0.1100183773
C  C1  1  0.79460000  0.60370000  0.09110000  1.0 0.020174108
C  C2  1  0.20540000  0.10370000  0.40890000  1.0 0.020174108
C  C3  1  0.20540000  0.39630000  0.90890000  1.0 0.020174108
C  C4  1  0.79460000  0.89630000  0.59110000  1.0 0.020174108
C  C5  1  0.92760000  0.50960000  0.22080000  1.0 -0.0272167771
C  C6  1  0.07240000  0.00960000  0.27920000  1.0 -0.0272167771
C  C7  1  0.07240000  0.49040000  0.77920000  1.0 -0.0272167771
C  C8  1  0.92760000  0.99040000  0.72080000  1.0 -0.0272167771
C  C9  1  0.80800000  0.60140000  0.19310000  1.0 -0.0036424908
C  C10  1  0.19200000  0.10140000  0.30690000  1.0 -0.0036424908
C  C11  1  0.19200000  0.39860000  0.80690000  1.0 -0.0036424908
C  C12  1  0.80800000  0.89860000  0.69310000  1.0 -0.0036424908
C  C13  1  0.91250000  0.54110000  0.14880000  1.0 -0.0369310706
C  C14  1  0.08750000  0.04110000  0.35120000  1.0 -0.0369310706
C  C15  1  0.08750000  0.45890000  0.85120000  1.0 -0.0369310706
C  C16  1  0.91250000  0.95890000  0.64880000  1.0 -0.0369310706
C  C17  1  0.82500000  0.41200000  0.11810000  1.0 -0.0483707959
C  C18  1  0.17500000  0.91200000  0.38190000  1.0 -0.0584022241
C  C19  1  0.17500000  0.58800000  0.88190000  1.0 -0.0584022241
C  C20  1  0.82500000  0.08800000  0.61810000  1.0 -0.0483707959
C  C21  1  0.73050000  0.52590000  0.11220000  1.0 -0.0087081747
C  C22  1  0.26950000  0.02590000  0.38780000  1.0 -0.0087081747
C  C23  1  0.26950000  0.47410000  0.88780000  1.0 -0.0087081747
C  C24  1  0.73050000  0.97410000  0.61220000  1.0 -0.0087081747
C  C25  1  0.81860000  0.41890000  0.18410000  1.0 -0.0369310706
C  C26  1  0.18140000  0.91890000  0.31590000  1.0 -0.0369310706
C  C27  1  0.18140000  0.58110000  0.81590000  1.0 -0.0369310706
C  C28  1  0.81860000  0.08110000  0.68410000  1.0 -0.0369310706
C  C29  1  0.86730000  0.68610000  0.17020000  1.0 0.0108486005
C  C30  1  0.13270000  0.18610000  0.32980000  1.0 0.0108486005
C  C31  1  0.13270000  0.31390000  0.82980000  1.0 0.0108486005
C  C32  1  0.86730000  0.81390000  0.67020000  1.0 0.0108486005
C  C33  1  0.69410000  0.85020000  0.99400000  1.0 0.2591386666
C  C34  1  0.30590000  0.35020000  0.50600000  1.0 0.2591386666
C  C35  1  0.30590000  0.14980000  0.00600000  1.0 0.2591386666
C  C36  1  0.69410000  0.64980000  0.49400000  1.0 0.2591386666
C  C37  1  0.68700000  0.95630000  0.99750000  1.0 -0.4902232851
C  C38  1  0.31300000  0.45630000  0.50250000  1.0 -0.4902232851
C  C39  1  0.31300000  0.04370000  0.00250000  1.0 -0.4902232851
C  C40  1  0.68700000  0.54370000  0.49750000  1.0 -0.4902232851
C  C41  1  0.63810000  0.78620000  0.97880000  1.0 0.1774278735
C  C42  1  0.36190000  0.28620000  0.52120000  1.0 0.1774278735
C  C43  1  0.36190000  0.21380000  0.02120000  1.0 0.1774278735
C  C44  1  0.63810000  0.71380000  0.47880000  1.0 0.1774278735
C  C45  1  0.58030000  0.80920000  0.97170000  1.0 -0.1613153586
C  C46  1  0.41970000  0.30920000  0.52830000  1.0 -0.1613153586
C  C47  1  0.41970000  0.19080000  0.02830000  1.0 -0.1613153586
C  C48  1  0.58030000  0.69080000  0.47170000  1.0 -0.1613153586
C  C49  1  0.53980000  0.74200000  0.96190000  1.0 -0.0692842845
C  C50  1  0.46020000  0.24200000  0.53810000  1.0 -0.0692842845
C  C51  1  0.46020000  0.25800000  0.03810000  1.0 -0.0692842845
C  C52  1  0.53980000  0.75800000  0.46190000  1.0 -0.0692842845
C  C53  1  0.55300000  0.64430000  0.96080000  1.0 -0.1749133463
C  C54  1  0.44700000  0.14430000  0.53920000  1.0 -0.1749133463
C  C55  1  0.44700000  0.35570000  0.03920000  1.0 -0.1749133463
C  C56  1  0.55300000  0.85570000  0.46080000  1.0 -0.1803735313
C  C57  1  0.61000000  0.62560000  0.96820000  1.0 0.1500889763
C  C58  1  0.39000000  0.12560000  0.53180000  1.0 0.1500889763
C  C59  1  0.39000000  0.37440000  0.03180000  1.0 0.1500889763
C  C60  1  0.61000000  0.87440000  0.46820000  1.0 0.1500889763
C  C61  1  0.63670000  0.53100000  0.96970000  1.0 0.230267244
C  C62  1  0.36330000  0.03100000  0.53030000  1.0 0.230267244
C  C63  1  0.36330000  0.46900000  0.03030000  1.0 0.230267244
C  C64  1  0.63670000  0.96900000  0.46970000  1.0 0.230267244
C  C65  1  0.59950000  0.44080000  0.96350000  1.0 -0.4902232851
C  C66  1  0.40050000  0.94080000  0.53650000  1.0 -0.4902232851
C  C67  1  0.40050000  0.55920000  0.03650000  1.0 -0.4902232851
C  C68  1  0.59950000  0.05920000  0.46350000  1.0 -0.4902232851
C  C69  1  0.73260000  0.44580000  0.98600000  1.0 -0.0900929696
C  C70  1  0.26740000  0.94580000  0.51400000  1.0 -0.0900929696
C  C71  1  0.26740000  0.55420000  0.01400000  1.0 -0.0900929696
C  C72  1  0.73260000  0.05420000  0.48600000  1.0 -0.0900929696
C  C73  1  0.78730000  0.46290000  0.98410000  1.0 -0.2091050441
C  C74  1  0.21270000  0.96290000  0.51590000  1.0 -0.2091050441
C  C75  1  0.21270000  0.53710000  0.01590000  1.0 -0.2091050441
C  C76  1  0.78730000  0.03710000  0.48410000  1.0 -0.2091050441
C  C77  1  0.83790000  0.53430000  0.01700000  1.0 -0.0692842845
C  C78  1  0.16210000  0.03430000  0.48300000  1.0 -0.0692842845
C  C79  1  0.16210000  0.46570000  0.98300000  1.0 -0.0692842845
C  C80  1  0.83790000  0.96570000  0.51700000  1.0 -0.0692842845
C  C81  1  0.86910000  0.70580000  0.03400000  1.0 -0.0900929696
C  C82  1  0.13090000  0.20580000  0.46600000  1.0 -0.0900929696
C  C83  1  0.13090000  0.29420000  0.96600000  1.0 -0.0900929696
C  C84  1  0.86910000  0.79420000  0.53400000  1.0 -0.0900929696
C  C85  1  0.84850000  0.80040000  0.01580000  1.0 -0.1993256914
C  C86  1  0.15150000  0.30040000  0.48420000  1.0 -0.1993256914
C  C87  1  0.15150000  0.19960000  0.98420000  1.0 -0.1993256914
C  C88  1  0.84850000  0.69960000  0.51580000  1.0 -0.1993256914
C  C89  1  0.80500000  0.85650000  0.02300000  1.0 -0.0782168046
C  C90  1  0.19500000  0.35650000  0.47700000  1.0 -0.0782168046
C  C91  1  0.19500000  0.14350000  0.97700000  1.0 -0.0782168046
C  C92  1  0.80500000  0.64350000  0.52300000  1.0 -0.0782168046
C  C93  1  0.62780000  0.70580000  0.16230000  1.0 0.2591386666
C  C94  1  0.37220000  0.20580000  0.33770000  1.0 0.2591386666
C  C95  1  0.37220000  0.29420000  0.83770000  1.0 0.2591386666
C  C96  1  0.62780000  0.79420000  0.66230000  1.0 0.2591386666
C  C97  1  0.56280000  0.72240000  0.11640000  1.0 -0.4989324505
C  C98  1  0.43720000  0.22240000  0.38360000  1.0 -0.4989324505
C  C99  1  0.43720000  0.27760000  0.88360000  1.0 -0.4989324505
C  C100  1  0.56280000  0.77760000  0.61640000  1.0 -0.4989324505
C  C101  1  0.66580000  0.78800000  0.18940000  1.0 0.1178599841
C  C102  1  0.33420000  0.28800000  0.31060000  1.0 0.1178599841
C  C103  1  0.33420000  0.21200000  0.81060000  1.0 0.1178599841
C  C104  1  0.66580000  0.71200000  0.68940000  1.0 0.1178599841
C  C105  1  0.64870000  0.87940000  0.17710000  1.0 -0.1388546521
C  C106  1  0.35130000  0.37940000  0.32290000  1.0 -0.1388546521
C  C107  1  0.35130000  0.12060000  0.82290000  1.0 -0.1388546521
C  C108  1  0.64870000  0.62060000  0.67710000  1.0 -0.1388546521
C  C109  1  0.68610000  0.94320000  0.20690000  1.0 -0.0900929696
C  C110  1  0.31390000  0.44320000  0.29310000  1.0 -0.0900929696
C  C111  1  0.31390000  0.05680000  0.79310000  1.0 -0.0900929696
C  C112  1  0.68610000  0.55680000  0.70690000  1.0 -0.0900929696
C  C113  1  0.74390000  0.92680000  0.25200000  1.0 -0.1489252182
C  C114  1  0.25610000  0.42680000  0.24800000  1.0 -0.1489252182
C  C115  1  0.25610000  0.07320000  0.74800000  1.0 -0.1489252182
C  C116  1  0.74390000  0.57320000  0.75200000  1.0 -0.1489252182
C  C117  1  0.76100000  0.82450000  0.26170000  1.0 0.1574834154
C  C118  1  0.23900000  0.32450000  0.23830000  1.0 0.1574834154
C  C119  1  0.23900000  0.17550000  0.73830000  1.0 0.1574834154
C  C120  1  0.76100000  0.67550000  0.76170000  1.0 0.1574834154
C  C121  1  0.81490000  0.77870000  0.30220000  1.0 0.230267244
C  C122  1  0.18510000  0.27870000  0.19780000  1.0 0.230267244
C  C123  1  0.18510000  0.22130000  0.69780000  1.0 0.230267244
C  C124  1  0.81490000  0.72130000  0.80220000  1.0 0.230267244
C  C125  1  0.86150000  0.83260000  0.34670000  1.0 -0.4646717901
C  C126  1  0.13850000  0.33260000  0.15330000  1.0 -0.4646717901
C  C127  1  0.13850000  0.16740000  0.65330000  1.0 -0.4646717901
C  C128  1  0.86150000  0.66740000  0.84670000  1.0 -0.4646717901
C  C129  1  0.87000000  0.62460000  0.33940000  1.0 -0.0692842845
C  C130  1  0.13000000  0.12460000  0.16060000  1.0 -0.0692842845
C  C131  1  0.13000000  0.37540000  0.66060000  1.0 -0.0692842845
C  C132  1  0.87000000  0.87540000  0.83940000  1.0 -0.0692842845
C  C133  1  0.86700000  0.52140000  0.32190000  1.0 -0.2173690689
C  C134  1  0.13300000  0.02140000  0.17810000  1.0 -0.2173690689
C  C135  1  0.13300000  0.47860000  0.67810000  1.0 -0.2173690689
C  C136  1  0.86700000  0.97860000  0.82190000  1.0 -0.2173690689
C  C137  1  0.80660000  0.46580000  0.29660000  1.0 -0.0782168046
C  C138  1  0.19340000  0.96580000  0.20340000  1.0 -0.0782168046
C  C139  1  0.19340000  0.53420000  0.70340000  1.0 -0.0782168046
C  C140  1  0.80660000  0.03420000  0.79660000  1.0 -0.0782168046
C  C141  1  0.70310000  0.42800000  0.22500000  1.0 -0.0900929696
C  C142  1  0.29690000  0.92800000  0.27500000  1.0 -0.0900929696
C  C143  1  0.29690000  0.57200000  0.77500000  1.0 -0.0900929696
C  C144  1  0.70310000  0.07200000  0.72500000  1.0 -0.0900929696
C  C145  1  0.66350000  0.44800000  0.17640000  1.0 -0.2091050441
C  C146  1  0.33650000  0.94800000  0.32360000  1.0 -0.2091050441
C  C147  1  0.33650000  0.55200000  0.82360000  1.0 -0.2091050441
C  C148  1  0.66350000  0.05200000  0.67640000  1.0 -0.2091050441
C  C149  1  0.61800000  0.53440000  0.15720000  1.0 -0.0900929696
C  C150  1  0.38200000  0.03440000  0.34280000  1.0 -0.0900929696
C  C151  1  0.38200000  0.46560000  0.84280000  1.0 -0.0900929696
C  C152  1  0.61800000  0.96560000  0.65720000  1.0 -0.0900929696
C  C153  1  0.99090000  0.32690000  0.32650000  1.0 0.1974045192
C  C154  1  0.00910000  0.82690000  0.17350000  1.0 0.1974045192
C  C155  1  0.00910000  0.67310000  0.67350000  1.0 0.1974045192
C  C156  1  0.99090000  0.17310000  0.82650000  1.0 0.1974045192
C  C157  1  0.95210000  0.26920000  0.33600000  1.0 -0.4807168948
C  C158  1  0.04790000  0.76920000  0.16400000  1.0 -0.4807168948
C  C159  1  0.04790000  0.73080000  0.66400000  1.0 -0.4807168948
C  C160  1  0.95210000  0.23080000  0.83600000  1.0 -0.4807168948
C  C161  1  0.03440000  0.40660000  0.35330000  1.0 0.1774278735
C  C162  1  0.96560000  0.90660000  0.14670000  1.0 0.1774278735
C  C163  1  0.96560000  0.59340000  0.64670000  1.0 0.1774278735
C  C164  1  0.03440000  0.09340000  0.85330000  1.0 0.1774278735
C  C165  1  0.03650000  0.45790000  0.38780000  1.0 -0.1803735313
C  C166  1  0.96350000  0.95790000  0.11220000  1.0 -0.1803735313
C  C167  1  0.96350000  0.54210000  0.61220000  1.0 -0.1803735313
C  C168  1  0.03650000  0.04210000  0.88780000  1.0 -0.1803735313
C  C169  1  0.07940000  0.53170000  0.40660000  1.0 -0.0584022241
C  C170  1  0.92060000  0.03170000  0.09340000  1.0 -0.0584022241
C  C171  1  0.92060000  0.46830000  0.59340000  1.0 -0.0584022241
C  C172  1  0.07940000  0.96830000  0.90660000  1.0 -0.0584022241
C  C173  1  0.11790000  0.56320000  0.39620000  1.0 -0.1803735313
C  C174  1  0.88210000  0.06320000  0.10380000  1.0 -0.1749133463
C  C175  1  0.88210000  0.43680000  0.60380000  1.0 -0.1749133463
C  C176  1  0.11790000  0.93680000  0.89620000  1.0 -0.1803735313
C  C177  1  0.11310000  0.50920000  0.36400000  1.0 0.1399256294
C  C178  1  0.88690000  0.00920000  0.13600000  1.0 0.1399256294
C  C179  1  0.88690000  0.49080000  0.63600000  1.0 0.1399256294
C  C180  1  0.11310000  0.99080000  0.86400000  1.0 0.1399256294
C  C181  1  0.14820000  0.52650000  0.34510000  1.0 0.2494003778
C  C182  1  0.85180000  0.02650000  0.15490000  1.0 0.2494003778
C  C183  1  0.85180000  0.47350000  0.65490000  1.0 0.2494003778
C  C184  1  0.14820000  0.97350000  0.84510000  1.0 0.2494003778
C  C185  1  0.20390000  0.59590000  0.36910000  1.0 -0.4989324505
C  C186  1  0.79610000  0.09590000  0.13090000  1.0 -0.4989324505
C  C187  1  0.79610000  0.40410000  0.63090000  1.0 -0.4989324505
C  C188  1  0.20390000  0.90410000  0.86910000  1.0 -0.4989324505
C  C189  1  0.15710000  0.48360000  0.28830000  1.0 -0.0900929696
C  C190  1  0.84290000  0.98360000  0.21170000  1.0 -0.0900929696
C  C191  1  0.84290000  0.51640000  0.71170000  1.0 -0.0900929696
C  C192  1  0.15710000  0.01640000  0.78830000  1.0 -0.0900929696
C  C193  1  0.10900000  0.45760000  0.23970000  1.0 -0.1918646253
C  C194  1  0.89100000  0.95760000  0.26030000  1.0 -0.1918646253
C  C195  1  0.89100000  0.54240000  0.76030000  1.0 -0.1918646253
C  C196  1  0.10900000  0.04240000  0.73970000  1.0 -0.1918646253
C  C197  1  0.08650000  0.35680000  0.22990000  1.0 -0.0900929696
C  C198  1  0.91350000  0.85680000  0.27010000  1.0 -0.0900929696
C  C199  1  0.91350000  0.64320000  0.77010000  1.0 -0.0900929696
C  C200  1  0.08650000  0.14320000  0.72990000  1.0 -0.0900929696
C  C201  1  0.00200000  0.24590000  0.21660000  1.0 -0.0900929696
C  C202  1  0.99800000  0.74590000  0.28340000  1.0 -0.0900929696
C  C203  1  0.99800000  0.75410000  0.78340000  1.0 -0.0900929696
C  C204  1  0.00200000  0.25410000  0.71660000  1.0 -0.0900929696
C  C205  1  0.94480000  0.23530000  0.21770000  1.0 -0.1918646253
C  C206  1  0.05520000  0.73530000  0.28230000  1.0 -0.1918646253
C  C207  1  0.05520000  0.76470000  0.78230000  1.0 -0.1918646253
C  C208  1  0.94480000  0.26470000  0.71770000  1.0 -0.1918646253
C  C209  1  0.95530000  0.22350000  0.26120000  1.0 -0.0782168046
C  C210  1  0.04470000  0.72350000  0.23880000  1.0 -0.0782168046
C  C211  1  0.04470000  0.77650000  0.73880000  1.0 -0.0782168046
C  C212  1  0.95530000  0.27650000  0.76120000  1.0 -0.0782168046
C  C213  1  0.68810000  0.74880000  0.89720000  1.0 -0.0272167771
C  C214  1  0.31190000  0.24880000  0.60280000  1.0 -0.0272167771
C  C215  1  0.31190000  0.25120000  0.10280000  1.0 -0.0272167771
C  C216  1  0.68810000  0.75120000  0.39720000  1.0 -0.0272167771
C  C217  1  0.58040000  0.79690000  0.78610000  1.0 -0.0087081747
C  C218  1  0.41960000  0.29690000  0.71390000  1.0 -0.0087081747
C  C219  1  0.41960000  0.20310000  0.21390000  1.0 -0.0087081747
C  C220  1  0.58040000  0.70310000  0.28610000  1.0 -0.0087081747
C  C221  1  0.71210000  0.94520000  0.90060000  1.0 -0.0483707959
C  C222  1  0.28790000  0.44520000  0.59940000  1.0 -0.0483707959
C  C223  1  0.28790000  0.05480000  0.09940000  1.0 -0.0483707959
C  C224  1  0.71210000  0.55480000  0.40060000  1.0 -0.0483707959
C  C225  1  0.77430000  0.83780000  0.88740000  1.0 -0.0483707959
C  C226  1  0.22570000  0.33780000  0.61260000  1.0 -0.0483707959
C  C227  1  0.22570000  0.16220000  0.11260000  1.0 -0.0483707959
C  C228  1  0.77430000  0.66220000  0.38740000  1.0 -0.0483707959
C  C229  1  0.69150000  0.70340000  0.83290000  1.0 -0.0272167771
C  C230  1  0.30850000  0.20340000  0.66710000  1.0 -0.0369310706
C  C231  1  0.30850000  0.29660000  0.16710000  1.0 -0.0369310706
C  C232  1  0.69150000  0.79660000  0.33290000  1.0 -0.0369310706
C  C233  1  0.59680000  0.86940000  0.85480000  1.0 -0.0584022241
C  C234  1  0.40320000  0.36940000  0.64520000  1.0 -0.0584022241
C  C235  1  0.40320000  0.13060000  0.14520000  1.0 -0.0584022241
C  C236  1  0.59680000  0.63060000  0.35480000  1.0 -0.0584022241
C  C237  1  0.63300000  0.97950000  0.81590000  1.0 0.0108486005
C  C238  1  0.36700000  0.47950000  0.68410000  1.0 0.0108486005
C  C239  1  0.36700000  0.02050000  0.18410000  1.0 0.0108486005
C  C240  1  0.63300000  0.52050000  0.31590000  1.0 0.0108486005
C  C241  1  0.70000000  0.61950000  0.27370000  1.0 -0.0483707959
C  C242  1  0.30000000  0.11950000  0.22630000  1.0 -0.0483707959
C  C243  1  0.30000000  0.38050000  0.72630000  1.0 -0.0483707959
C  C244  1  0.70000000  0.88050000  0.77370000  1.0 -0.0483707959
C  C245  1  0.48620000  0.65380000  0.80810000  1.0 0.2220791732
C  C246  1  0.51380000  0.15380000  0.69190000  1.0 0.2220791732
C  C247  1  0.51380000  0.34620000  0.19190000  1.0 0.2220791732
C  C248  1  0.48620000  0.84620000  0.30810000  1.0 0.2220791732
C  C249  1  0.52370000  0.63560000  0.85480000  1.0 -0.4807168948
C  C250  1  0.47630000  0.13560000  0.64520000  1.0 -0.4807168948
C  C251  1  0.47630000  0.36440000  0.14520000  1.0 -0.4807168948
C  C252  1  0.52370000  0.86440000  0.35480000  1.0 -0.4807168948
C  C253  1  0.42920000  0.71860000  0.78010000  1.0 0.169292673
C  C254  1  0.57080000  0.21860000  0.71990000  1.0 0.169292673
C  C255  1  0.57080000  0.28140000  0.21990000  1.0 0.169292673
C  C256  1  0.42920000  0.78140000  0.28010000  1.0 0.169292673
C  C257  1  0.39870000  0.76730000  0.79850000  1.0 -0.2173690689
C  C258  1  0.60130000  0.26730000  0.70150000  1.0 -0.2173690689
C  C259  1  0.60130000  0.23270000  0.20150000  1.0 -0.2173690689
C  C260  1  0.39870000  0.73270000  0.29850000  1.0 -0.2173690689
C  C261  1  0.34140000  0.81770000  0.76140000  1.0 -0.0782168046
C  C262  1  0.65860000  0.31770000  0.73860000  1.0 -0.0782168046
C  C263  1  0.65860000  0.18230000  0.23860000  1.0 -0.0782168046
C  C264  1  0.34140000  0.68230000  0.26140000  1.0 -0.0782168046
C  C265  1  0.31320000  0.83500000  0.71440000  1.0 -0.1993256914
C  C266  1  0.68680000  0.33500000  0.78560000  1.0 -0.1993256914
C  C267  1  0.68680000  0.16500000  0.28560000  1.0 -0.1993256914
C  C268  1  0.31320000  0.66500000  0.21440000  1.0 -0.1993256914
C  C269  1  0.35770000  0.78890000  0.71010000  1.0 0.1500889763
C  C270  1  0.64230000  0.28890000  0.78990000  1.0 0.1500889763
C  C271  1  0.64230000  0.21110000  0.28990000  1.0 0.1500889763
C  C272  1  0.35770000  0.71110000  0.21010000  1.0 0.1500889763
C  C273  1  0.35310000  0.78730000  0.66920000  1.0 0.2494003778
C  C274  1  0.64690000  0.28730000  0.83080000  1.0 0.2494003778
C  C275  1  0.64690000  0.21270000  0.33080000  1.0 0.2494003778
C  C276  1  0.35310000  0.71270000  0.16920000  1.0 0.2494003778
C  C277  1  0.29310000  0.84910000  0.63140000  1.0 -0.4989324505
C  C278  1  0.70690000  0.34910000  0.86860000  1.0 -0.4902232851
C  C279  1  0.70690000  0.15090000  0.36860000  1.0 -0.4902232851
C  C280  1  0.29310000  0.65090000  0.13140000  1.0 -0.4989324505
C  C281  1  0.38880000  0.74080000  0.62490000  1.0 -0.1224766685
C  C282  1  0.61120000  0.24080000  0.87510000  1.0 -0.1224766685
C  C283  1  0.61120000  0.25920000  0.37510000  1.0 -0.1224766685
C  C284  1  0.38880000  0.75920000  0.12490000  1.0 -0.1224766685
C  C285  1  0.42540000  0.66090000  0.62940000  1.0 -0.2287397515
C  C286  1  0.57460000  0.16090000  0.87060000  1.0 -0.2395602802
C  C287  1  0.57460000  0.33910000  0.37060000  1.0 -0.2287397515
C  C288  1  0.42540000  0.83910000  0.12940000  1.0 -0.2287397515
C  C289  1  0.49540000  0.63010000  0.66500000  1.0 -0.1008937205
C  C290  1  0.50460000  0.13010000  0.83500000  1.0 -0.1008937205
C  C291  1  0.50460000  0.36990000  0.33500000  1.0 -0.1008937205
C  C292  1  0.49540000  0.86990000  0.16500000  1.0 -0.1008937205
C  C293  1  0.55680000  0.55470000  0.72850000  1.0 -0.0900929696
C  C294  1  0.44320000  0.05470000  0.77150000  1.0 -0.0900929696
C  C295  1  0.44320000  0.44530000  0.27150000  1.0 -0.0900929696
C  C296  1  0.55680000  0.94530000  0.22850000  1.0 -0.0900929696
C  C297  1  0.55580000  0.50990000  0.76400000  1.0 -0.2395602802
C  C298  1  0.44420000  0.00990000  0.73600000  1.0 -0.2395602802
C  C299  1  0.44420000  0.49010000  0.23600000  1.0 -0.2395602802
C  C300  1  0.55580000  0.99010000  0.26400000  1.0 -0.2395602802
C  C301  1  0.55160000  0.55540000  0.79610000  1.0 -0.0692842845
C  C302  1  0.44840000  0.05540000  0.70390000  1.0 -0.0692842845
C  C303  1  0.44840000  0.44460000  0.20390000  1.0 -0.0692842845
C  C304  1  0.55160000  0.94460000  0.29610000  1.0 -0.0692842845
N  N1  1  0.77400000  0.63750000  0.05710000  1.0 -0.3401276315
N  N2  1  0.22600000  0.13750000  0.44290000  1.0 -0.3401276315
N  N3  1  0.22600000  0.36250000  0.94290000  1.0 -0.3401276315
N  N4  1  0.77400000  0.86250000  0.55710000  1.0 -0.3401276315
N  N5  1  0.97800000  0.48950000  0.25270000  1.0 -0.3698693782
N  N6  1  0.02200000  0.98950000  0.24730000  1.0 -0.3698693782
N  N7  1  0.02200000  0.51050000  0.74730000  1.0 -0.3698693782
N  N8  1  0.97800000  0.01050000  0.75270000  1.0 -0.3698693782
N  N9  1  0.78980000  0.63140000  0.21150000  1.0 -0.3698693782
N  N10  1  0.21020000  0.13140000  0.28850000  1.0 -0.3698693782
N  N11  1  0.21020000  0.36860000  0.78850000  1.0 -0.3698693782
N  N12  1  0.78980000  0.86860000  0.71150000  1.0 -0.3698693782
N  N13  1  0.95280000  0.54120000  0.14440000  1.0 -0.390327069
N  N14  1  0.04720000  0.04120000  0.35560000  1.0 -0.3812436531
N  N15  1  0.04720000  0.45880000  0.85560000  1.0 -0.390327069
N  N16  1  0.95280000  0.95880000  0.64440000  1.0 -0.390327069
N  N17  1  0.81850000  0.34480000  0.09800000  1.0 -0.3953086133
N  N18  1  0.18150000  0.84480000  0.40200000  1.0 -0.390327069
N  N19  1  0.18150000  0.65520000  0.90200000  1.0 -0.3953086133
N  N20  1  0.81850000  0.15520000  0.59800000  1.0 -0.390327069
N  N21  1  0.67620000  0.51950000  0.08930000  1.0 -0.3698693782
N  N22  1  0.32380000  0.01950000  0.41070000  1.0 -0.3698693782
N  N23  1  0.32380000  0.48050000  0.91070000  1.0 -0.3698693782
N  N24  1  0.67620000  0.98050000  0.58930000  1.0 -0.3698693782
N  N25  1  0.81030000  0.35940000  0.20140000  1.0 -0.3953086133
N  N26  1  0.18970000  0.85940000  0.29860000  1.0 -0.390327069
N  N27  1  0.18970000  0.64060000  0.79860000  1.0 -0.390327069
N  N28  1  0.81030000  0.14060000  0.70140000  1.0 -0.390327069
N  N29  1  0.88300000  0.76490000  0.17780000  1.0 -0.361083425
N  N30  1  0.11700000  0.26490000  0.32220000  1.0 -0.361083425
N  N31  1  0.11700000  0.23510000  0.82220000  1.0 -0.361083425
N  N32  1  0.88300000  0.73510000  0.67780000  1.0 -0.361083425
N  N33  1  0.65000000  0.69650000  0.97730000  1.0 -0.2395602802
N  N34  1  0.35000000  0.19650000  0.52270000  1.0 -0.2395602802
N  N35  1  0.35000000  0.30350000  0.02270000  1.0 -0.2395602802
N  N36  1  0.65000000  0.80350000  0.47730000  1.0 -0.2395602802
N  N37  1  0.74480000  0.80850000  0.00410000  1.0 -0.2091050441
N  N38  1  0.25520000  0.30850000  0.49590000  1.0 -0.2091050441
N  N39  1  0.25520000  0.19150000  0.99590000  1.0 -0.2091050441
N  N40  1  0.74480000  0.69150000  0.50410000  1.0 -0.2091050441
N  N41  1  0.81800000  0.63110000  0.00360000  1.0 -0.2669457142
N  N42  1  0.18200000  0.13110000  0.49640000  1.0 -0.2669457142
N  N43  1  0.18200000  0.36890000  0.99640000  1.0 -0.2669457142
N  N44  1  0.81800000  0.86890000  0.50360000  1.0 -0.2669457142
N  N45  1  0.69230000  0.52980000  0.97690000  1.0 -0.2395602802
N  N46  1  0.30770000  0.02980000  0.52310000  1.0 -0.2395602802
N  N47  1  0.30770000  0.47020000  0.02310000  1.0 -0.2395602802
N  N48  1  0.69230000  0.97020000  0.47690000  1.0 -0.2395602802
N  N49  1  0.07260000  0.43480000  0.34480000  1.0 -0.2173690689
N  N50  1  0.92740000  0.93480000  0.15520000  1.0 -0.2173690689
N  N51  1  0.92740000  0.56520000  0.65520000  1.0 -0.2173690689
N  N52  1  0.07260000  0.06520000  0.84480000  1.0 -0.2173690689
N  N53  1  0.98980000  0.30260000  0.29180000  1.0 -0.2287397515
N  N54  1  0.01020000  0.80260000  0.20820000  1.0 -0.2287397515
N  N55  1  0.01020000  0.69740000  0.70820000  1.0 -0.2287397515
N  N56  1  0.98980000  0.19740000  0.79180000  1.0 -0.2287397515
N  N57  1  0.03160000  0.34260000  0.22960000  1.0 -0.2603621061
N  N58  1  0.96840000  0.84260000  0.27040000  1.0 -0.2669457142
N  N59  1  0.96840000  0.65740000  0.77040000  1.0 -0.2669457142
N  N60  1  0.03160000  0.15740000  0.72960000  1.0 -0.2603621061
N  N61  1  0.12860000  0.48000000  0.31100000  1.0 -0.2287397515
N  N62  1  0.87140000  0.98000000  0.18900000  1.0 -0.2287397515
N  N63  1  0.87140000  0.52000000  0.68900000  1.0 -0.2287397515
N  N64  1  0.12860000  0.02000000  0.81100000  1.0 -0.2287397515
N  N65  1  0.71990000  0.76480000  0.22960000  1.0 -0.2091050441
N  N66  1  0.28010000  0.26480000  0.27040000  1.0 -0.2173690689
N  N67  1  0.28010000  0.23520000  0.77040000  1.0 -0.2173690689
N  N68  1  0.71990000  0.73520000  0.72960000  1.0 -0.2173690689
N  N69  1  0.65200000  0.62580000  0.17800000  1.0 -0.2091050441
N  N70  1  0.34800000  0.12580000  0.32200000  1.0 -0.2091050441
N  N71  1  0.34800000  0.37420000  0.82200000  1.0 -0.2091050441
N  N72  1  0.65200000  0.87420000  0.67800000  1.0 -0.2091050441
N  N73  1  0.76080000  0.48670000  0.25000000  1.0 -0.2603621061
N  N74  1  0.23920000  0.98670000  0.25000000  1.0 -0.2603621061
N  N75  1  0.23920000  0.51330000  0.75000000  1.0 -0.2603621061
N  N76  1  0.76080000  0.01330000  0.75000000  1.0 -0.2603621061
N  N77  1  0.81940000  0.68780000  0.29910000  1.0 -0.2173690689
N  N78  1  0.18060000  0.18780000  0.20090000  1.0 -0.2173690689
N  N79  1  0.18060000  0.31220000  0.70090000  1.0 -0.2173690689
N  N80  1  0.81940000  0.81220000  0.79910000  1.0 -0.2173690689
N  N81  1  0.69680000  0.69790000  0.92490000  1.0 -0.390327069
N  N82  1  0.30320000  0.19790000  0.57510000  1.0 -0.3812436531
N  N83  1  0.30320000  0.30210000  0.07510000  1.0 -0.3812436531
N  N84  1  0.69680000  0.80210000  0.42490000  1.0 -0.3812436531
N  N85  1  0.53120000  0.77130000  0.75340000  1.0 -0.361083425
N  N86  1  0.46880000  0.27130000  0.74660000  1.0 -0.361083425
N  N87  1  0.46880000  0.22870000  0.24660000  1.0 -0.361083425
N  N88  1  0.53120000  0.72870000  0.25340000  1.0 -0.361083425
N  N89  1  0.73290000  0.00090000  0.92940000  1.0 -0.3698693782
N  N90  1  0.26710000  0.50090000  0.57060000  1.0 -0.3698693782
N  N91  1  0.26710000  0.99910000  0.07060000  1.0 -0.3698693782
N  N92  1  0.73290000  0.49910000  0.42940000  1.0 -0.3698693782
N  N93  1  0.83090000  0.83160000  0.90990000  1.0 -0.3812436531
N  N94  1  0.16910000  0.33160000  0.59010000  1.0 -0.3812436531
N  N95  1  0.16910000  0.16840000  0.09010000  1.0 -0.3812436531
N  N96  1  0.83090000  0.66840000  0.40990000  1.0 -0.3812436531
N  N97  1  0.55710000  0.88300000  0.85820000  1.0 -0.3698693782
N  N98  1  0.44290000  0.38300000  0.64180000  1.0 -0.3698693782
N  N99  1  0.44290000  0.11700000  0.14180000  1.0 -0.3698693782
N  N100  1  0.55710000  0.61700000  0.35820000  1.0 -0.3698693782
N  N101  1  0.70510000  0.62900000  0.82750000  1.0 -0.3698693782
N  N102  1  0.29490000  0.12900000  0.67250000  1.0 -0.3698693782
N  N103  1  0.29490000  0.37100000  0.17250000  1.0 -0.3698693782
N  N104  1  0.70510000  0.87100000  0.32750000  1.0 -0.3698693782
N  N105  1  0.60920000  0.05260000  0.79950000  1.0 -0.3539905766
N  N106  1  0.39080000  0.55260000  0.70050000  1.0 -0.3539905766
N  N107  1  0.39080000  0.94740000  0.20050000  1.0 -0.3539905766
N  N108  1  0.60920000  0.44740000  0.29950000  1.0 -0.3539905766
N  N109  1  0.41100000  0.73710000  0.73950000  1.0 -0.2395602802
N  N110  1  0.58900000  0.23710000  0.76050000  1.0 -0.2395602802
N  N111  1  0.58900000  0.26290000  0.26050000  1.0 -0.2395602802
N  N112  1  0.41100000  0.76290000  0.23950000  1.0 -0.2395602802
N  N113  1  0.38490000  0.74880000  0.66390000  1.0 -0.1803735313
N  N114  1  0.61510000  0.24880000  0.83610000  1.0 -0.1803735313
N  N115  1  0.61510000  0.25120000  0.33610000  1.0 -0.1803735313
N  N116  1  0.38490000  0.75120000  0.16390000  1.0 -0.1803735313
N  N117  1  0.49300000  0.59240000  0.69850000  1.0 -0.2603621061
N  N118  1  0.50700000  0.09240000  0.80150000  1.0 -0.2603621061
N  N119  1  0.50700000  0.40760000  0.30150000  1.0 -0.2603621061
N  N120  1  0.49300000  0.90760000  0.19850000  1.0 -0.2603621061
N  N121  1  0.50220000  0.61780000  0.78450000  1.0 -0.1918646253
N  N122  1  0.49780000  0.11780000  0.71550000  1.0 -0.1918646253
N  N123  1  0.49780000  0.38220000  0.21550000  1.0 -0.1918646253
N  N124  1  0.50220000  0.88220000  0.28450000  1.0 -0.1918646253
N  N125  1  0.69020000  0.63050000  0.29900000  1.0 -0.3208587314
N  N126  1  0.30980000  0.13050000  0.20100000  1.0 -0.3208587314
N  N127  1  0.30980000  0.36950000  0.70100000  1.0 -0.3208587314
N  N128  1  0.69020000  0.86950000  0.79900000  1.0 -0.3208587314
