# DDEC6 charges by PACMAN v1.1 (https://github.com/mtap-research/PACMAN-charge/)
data_CIWZIT_ASR_pacman
_symmetry_space_group_name_H-M   'P 1'
_cell_length_a   26.24570000
_cell_length_b   13.96710000
_cell_length_c   37.85130000
_cell_angle_alpha   90.00000000
_cell_angle_beta   128.35200000
_cell_angle_gamma   90.00000000
_symmetry_Int_Tables_number   1
_chemical_formula_structural   Ni2H44W(C19N8)2
_chemical_formula_sum   'Ni16 H352 W8 C304 N128'
_cell_volume   10881.26900232
_cell_formula_units_Z   8
loop_
 _symmetry_equiv_pos_site_id
 _symmetry_equiv_pos_as_xyz
  1  'x, y, z'
loop_
 _atom_site_type_symbol
 _atom_site_label
 _atom_site_symmetry_multiplicity
 _atom_site_fract_x
 _atom_site_fract_y
 _atom_site_fract_z
 _atom_site_occupancy
 _atom_site_charge
Ni  Ni1  1  0.25276000  0.62811000  0.75375000  1.0 0.588894223
Ni  Ni2  1  0.74724000  0.12811000  0.74625000  1.0 0.588894223
Ni  Ni3  1  0.74724000  0.37189000  0.24625000  1.0 0.588894223
Ni  Ni4  1  0.25276000  0.87189000  0.25375000  1.0 0.588894223
Ni  Ni5  1  0.05623000  0.88426000  0.78995000  1.0 0.588894223
Ni  Ni6  1  0.94377000  0.38426000  0.71005000  1.0 0.588894223
Ni  Ni7  1  0.94377000  0.11574000  0.21005000  1.0 0.588894223
Ni  Ni8  1  0.05623000  0.61574000  0.28995000  1.0 0.588894223
Ni  Ni9  1  0.27031000  0.66557000  0.00813000  1.0 0.604200152
Ni  Ni10  1  0.72969000  0.16557000  0.49187000  1.0 0.604200152
Ni  Ni11  1  0.72969000  0.33443000  0.99187000  1.0 0.604200152
Ni  Ni12  1  0.27031000  0.83443000  0.50813000  1.0 0.604200152
Ni  Ni13  1  0.54354000  0.66626000  0.27665000  1.0 0.5577847634
Ni  Ni14  1  0.45646000  0.16626000  0.22335000  1.0 0.5577847634
Ni  Ni15  1  0.45646000  0.33374000  0.72335000  1.0 0.5577847634
Ni  Ni16  1  0.54354000  0.83374000  0.77665000  1.0 0.5577847634
H  H1  1  0.21040000  0.47350000  0.75360000  1.0 0.2490745906
H  H2  1  0.78960000  0.97350000  0.74640000  1.0 0.2490745906
H  H3  1  0.78960000  0.52650000  0.24640000  1.0 0.2490745906
H  H4  1  0.21040000  0.02650000  0.25360000  1.0 0.2490745906
H  H5  1  0.99940000  0.88600000  0.70860000  1.0 0.2575807397
H  H6  1  0.00060000  0.38600000  0.79140000  1.0 0.2575807397
H  H7  1  0.00060000  0.11400000  0.29140000  1.0 0.2575807397
H  H8  1  0.99940000  0.61400000  0.20860000  1.0 0.2575807397
H  H9  1  0.19140000  0.63740000  0.02090000  1.0 0.2490745906
H  H10  1  0.80860000  0.13740000  0.47910000  1.0 0.2490745906
H  H11  1  0.80860000  0.36260000  0.97910000  1.0 0.2490745906
H  H12  1  0.19140000  0.86260000  0.52090000  1.0 0.2490745906
H  H13  1  0.52940000  0.53710000  0.31290000  1.0 0.2408563841
H  H14  1  0.47060000  0.03710000  0.18710000  1.0 0.2408563841
H  H15  1  0.47060000  0.46290000  0.68710000  1.0 0.2408563841
H  H16  1  0.52940000  0.96290000  0.81290000  1.0 0.2408563841
H  H17  1  0.22940000  0.97340000  0.72340000  1.0 0.1308447797
H  H18  1  0.77060000  0.47340000  0.77660000  1.0 0.1308447797
H  H19  1  0.77060000  0.02660000  0.27660000  1.0 0.1308447797
H  H20  1  0.22940000  0.52660000  0.22340000  1.0 0.1308447797
H  H21  1  0.32190000  0.00570000  0.79710000  1.0 0.1101061489
H  H22  1  0.67810000  0.50570000  0.70290000  1.0 0.1101061489
H  H23  1  0.67810000  0.99430000  0.20290000  1.0 0.1101061489
H  H24  1  0.32190000  0.49430000  0.29710000  1.0 0.1101061489
H  H25  1  0.38570000  0.89160000  0.85110000  1.0 0.1308447797
H  H26  1  0.61430000  0.39160000  0.64890000  1.0 0.1308447797
H  H27  1  0.61430000  0.10840000  0.14890000  1.0 0.1308447797
H  H28  1  0.38570000  0.60840000  0.35110000  1.0 0.1308447797
H  H29  1  0.46820000  0.69640000  0.87770000  1.0 0.150779349
H  H30  1  0.53180000  0.19640000  0.62230000  1.0 0.150779349
H  H31  1  0.53180000  0.30360000  0.12230000  1.0 0.150779349
H  H32  1  0.46820000  0.80360000  0.37770000  1.0 0.150779349
H  H33  1  0.44090000  0.78490000  0.88670000  1.0 0.1395147616
H  H34  1  0.55910000  0.28490000  0.61330000  1.0 0.1395147616
H  H35  1  0.55910000  0.21510000  0.11330000  1.0 0.1395147616
H  H36  1  0.44090000  0.71510000  0.38670000  1.0 0.1395147616
H  H37  1  0.43890000  0.68280000  0.90300000  1.0 0.1604998533
H  H38  1  0.56110000  0.18280000  0.59700000  1.0 0.1604998533
H  H39  1  0.56110000  0.31720000  0.09700000  1.0 0.1604998533
H  H40  1  0.43890000  0.81720000  0.40300000  1.0 0.1604998533
H  H41  1  0.39860000  0.53230000  0.87030000  1.0 0.1101061489
H  H42  1  0.60140000  0.03230000  0.62970000  1.0 0.1101061489
H  H43  1  0.60140000  0.46770000  0.12970000  1.0 0.1101061489
H  H44  1  0.39860000  0.96770000  0.37030000  1.0 0.1101061489
H  H45  1  0.40820000  0.52000000  0.83360000  1.0 0.1101061489
H  H46  1  0.59180000  0.02000000  0.66640000  1.0 0.1101061489
H  H47  1  0.59180000  0.48000000  0.16640000  1.0 0.1101061489
H  H48  1  0.40820000  0.98000000  0.33360000  1.0 0.1101061489
H  H49  1  0.35780000  0.39040000  0.83500000  1.0 0.1189782668
H  H50  1  0.64220000  0.89040000  0.66500000  1.0 0.1189782668
H  H51  1  0.64220000  0.60960000  0.16500000  1.0 0.1189782668
H  H52  1  0.35780000  0.10960000  0.33500000  1.0 0.1189782668
H  H53  1  0.30270000  0.45470000  0.82680000  1.0 0.1395147616
H  H54  1  0.69730000  0.95470000  0.67320000  1.0 0.1395147616
H  H55  1  0.69730000  0.54530000  0.17320000  1.0 0.1395147616
H  H56  1  0.30270000  0.04530000  0.32680000  1.0 0.1395147616
H  H57  1  0.27790000  0.36100000  0.76350000  1.0 0.1021379253
H  H58  1  0.72210000  0.86100000  0.73650000  1.0 0.1021379253
H  H59  1  0.72210000  0.63900000  0.23650000  1.0 0.1021379253
H  H60  1  0.27790000  0.13900000  0.26350000  1.0 0.1021379253
H  H61  1  0.31630000  0.43980000  0.75920000  1.0 0.1101061489
H  H62  1  0.68370000  0.93980000  0.74080000  1.0 0.1101061489
H  H63  1  0.68370000  0.56020000  0.24080000  1.0 0.1101061489
H  H64  1  0.31630000  0.06020000  0.25920000  1.0 0.1101061489
H  H65  1  0.21090000  0.47880000  0.68290000  1.0 0.1189782668
H  H66  1  0.78910000  0.97880000  0.81710000  1.0 0.1189782668
H  H67  1  0.78910000  0.52120000  0.31710000  1.0 0.1189782668
H  H68  1  0.21090000  0.02120000  0.18290000  1.0 0.1189782668
H  H69  1  0.17680000  0.39990000  0.69120000  1.0 0.1101061489
H  H70  1  0.82320000  0.89990000  0.80880000  1.0 0.1101061489
H  H71  1  0.82320000  0.60010000  0.30880000  1.0 0.1101061489
H  H72  1  0.17680000  0.10010000  0.19120000  1.0 0.1101061489
H  H73  1  0.09440000  0.49380000  0.64450000  1.0 0.1101061489
H  H74  1  0.90560000  0.99380000  0.85550000  1.0 0.1101061489
H  H75  1  0.90560000  0.50620000  0.35550000  1.0 0.1101061489
H  H76  1  0.09440000  0.00620000  0.14450000  1.0 0.1101061489
H  H77  1  0.11550000  0.53060000  0.69070000  1.0 0.1308447797
H  H78  1  0.88450000  0.03060000  0.80930000  1.0 0.1308447797
H  H79  1  0.88450000  0.46940000  0.30930000  1.0 0.1308447797
H  H80  1  0.11550000  0.96940000  0.19070000  1.0 0.1308447797
H  H81  1  0.08680000  0.66290000  0.64260000  1.0 0.1021379253
H  H82  1  0.91320000  0.16290000  0.85740000  1.0 0.1021379253
H  H83  1  0.91320000  0.33710000  0.35740000  1.0 0.1021379253
H  H84  1  0.08680000  0.83710000  0.14260000  1.0 0.1021379253
H  H85  1  0.13850000  0.63350000  0.63640000  1.0 0.1189782668
H  H86  1  0.86150000  0.13350000  0.86360000  1.0 0.1189782668
H  H87  1  0.86150000  0.36650000  0.36360000  1.0 0.1189782668
H  H88  1  0.13850000  0.86650000  0.13640000  1.0 0.1189782668
H  H89  1  0.09580000  0.83360000  0.64140000  1.0 0.1395147616
H  H90  1  0.90420000  0.33360000  0.85860000  1.0 0.1395147616
H  H91  1  0.90420000  0.16640000  0.35860000  1.0 0.1395147616
H  H92  1  0.09580000  0.66640000  0.14140000  1.0 0.1395147616
H  H93  1  0.15310000  0.90340000  0.65690000  1.0 0.1395147616
H  H94  1  0.84690000  0.40340000  0.84310000  1.0 0.1395147616
H  H95  1  0.84690000  0.09660000  0.34310000  1.0 0.1395147616
H  H96  1  0.15310000  0.59660000  0.15690000  1.0 0.1395147616
H  H97  1  0.14200000  0.81110000  0.62940000  1.0 0.1682099033
H  H98  1  0.85800000  0.31110000  0.87060000  1.0 0.1682099033
H  H99  1  0.85800000  0.18890000  0.37060000  1.0 0.1682099033
H  H100  1  0.14200000  0.68890000  0.12940000  1.0 0.1682099033
H  H101  1  0.01650000  0.94600000  0.89690000  1.0 0.1395147616
H  H102  1  0.98350000  0.44600000  0.60310000  1.0 0.1395147616
H  H103  1  0.98350000  0.05400000  0.10310000  1.0 0.1395147616
H  H104  1  0.01650000  0.55400000  0.39690000  1.0 0.1395147616
H  H105  1  0.08490000  0.07390000  0.92900000  1.0 0.1308447797
H  H106  1  0.91510000  0.57390000  0.57100000  1.0 0.1308447797
H  H107  1  0.91510000  0.92610000  0.07100000  1.0 0.1308447797
H  H108  1  0.08490000  0.42610000  0.42900000  1.0 0.1308447797
H  H109  1  0.14910000  0.11900000  0.91040000  1.0 0.150779349
H  H110  1  0.85090000  0.61900000  0.58960000  1.0 0.150779349
H  H111  1  0.85090000  0.88100000  0.08960000  1.0 0.150779349
H  H112  1  0.14910000  0.38100000  0.41040000  1.0 0.150779349
H  H113  1  0.23980000  0.07610000  0.86530000  1.0 0.150779349
H  H114  1  0.76020000  0.57610000  0.63470000  1.0 0.150779349
H  H115  1  0.76020000  0.92390000  0.13470000  1.0 0.150779349
H  H116  1  0.23980000  0.42390000  0.36530000  1.0 0.150779349
H  H117  1  0.19180000  0.15940000  0.85390000  1.0 0.1682099033
H  H118  1  0.80820000  0.65940000  0.64610000  1.0 0.1682099033
H  H119  1  0.80820000  0.84060000  0.14610000  1.0 0.1682099033
H  H120  1  0.19180000  0.34060000  0.35390000  1.0 0.1682099033
H  H121  1  0.22630000  0.10260000  0.89910000  1.0 0.150779349
H  H122  1  0.77370000  0.60260000  0.60090000  1.0 0.150779349
H  H123  1  0.77370000  0.89740000  0.10090000  1.0 0.150779349
H  H124  1  0.22630000  0.39740000  0.39910000  1.0 0.150779349
H  H125  1  0.17600000  0.04750000  0.78950000  1.0 0.1101061489
H  H126  1  0.82400000  0.54750000  0.71050000  1.0 0.1101061489
H  H127  1  0.82400000  0.95250000  0.21050000  1.0 0.1101061489
H  H128  1  0.17600000  0.45250000  0.28950000  1.0 0.1101061489
H  H129  1  0.19590000  0.93960000  0.80170000  1.0 0.1101061489
H  H130  1  0.80410000  0.43960000  0.69830000  1.0 0.1101061489
H  H131  1  0.80410000  0.06040000  0.19830000  1.0 0.1101061489
H  H132  1  0.19590000  0.56040000  0.30170000  1.0 0.1101061489
H  H133  1  0.07450000  0.00080000  0.72480000  1.0 0.1395147616
H  H134  1  0.92550000  0.50080000  0.77520000  1.0 0.1395147616
H  H135  1  0.92550000  0.99920000  0.27520000  1.0 0.1395147616
H  H136  1  0.07450000  0.49920000  0.22480000  1.0 0.1395147616
H  H137  1  0.13080000  0.96950000  0.72400000  1.0 0.1189782668
H  H138  1  0.86920000  0.46950000  0.77600000  1.0 0.1189782668
H  H139  1  0.86920000  0.03050000  0.27600000  1.0 0.1189782668
H  H140  1  0.13080000  0.53050000  0.22400000  1.0 0.1189782668
H  H141  1  0.11860000  0.81000000  0.74680000  1.0 0.1189782668
H  H142  1  0.88140000  0.31000000  0.75320000  1.0 0.1189782668
H  H143  1  0.88140000  0.19000000  0.25320000  1.0 0.1189782668
H  H144  1  0.11860000  0.69000000  0.24680000  1.0 0.1189782668
H  H145  1  0.06820000  0.83960000  0.69600000  1.0 0.1101061489
H  H146  1  0.93180000  0.33960000  0.80400000  1.0 0.1101061489
H  H147  1  0.93180000  0.16040000  0.30400000  1.0 0.1101061489
H  H148  1  0.06820000  0.66040000  0.19600000  1.0 0.1101061489
H  H149  1  0.03360000  0.70040000  0.73530000  1.0 0.1101061489
H  H150  1  0.96640000  0.20040000  0.76470000  1.0 0.1101061489
H  H151  1  0.96640000  0.29960000  0.26470000  1.0 0.1101061489
H  H152  1  0.03360000  0.79960000  0.23530000  1.0 0.1101061489
H  H153  1  0.98450000  0.73470000  0.68520000  1.0 0.1101061489
H  H154  1  0.01550000  0.23470000  0.81480000  1.0 0.1101061489
H  H155  1  0.01550000  0.26530000  0.31480000  1.0 0.1101061489
H  H156  1  0.98450000  0.76530000  0.18520000  1.0 0.1101061489
H  H157  1  0.91920000  0.79340000  0.70300000  1.0 0.1308447797
H  H158  1  0.08080000  0.29340000  0.79700000  1.0 0.1308447797
H  H159  1  0.08080000  0.20660000  0.29700000  1.0 0.1308447797
H  H160  1  0.91920000  0.70660000  0.20300000  1.0 0.1308447797
H  H161  1  0.92180000  0.68260000  0.69980000  1.0 0.1101061489
H  H162  1  0.07820000  0.18260000  0.80020000  1.0 0.1101061489
H  H163  1  0.07820000  0.31740000  0.30020000  1.0 0.1101061489
H  H164  1  0.92180000  0.81740000  0.19980000  1.0 0.1101061489
H  H165  1  0.98420000  0.66890000  0.77790000  1.0 0.1189782668
H  H166  1  0.01580000  0.16890000  0.72210000  1.0 0.1189782668
H  H167  1  0.01580000  0.33110000  0.22210000  1.0 0.1189782668
H  H168  1  0.98420000  0.83110000  0.27790000  1.0 0.1189782668
H  H169  1  0.91820000  0.72050000  0.75760000  1.0 0.1189782668
H  H170  1  0.08180000  0.22050000  0.74240000  1.0 0.1189782668
H  H171  1  0.08180000  0.27950000  0.24240000  1.0 0.1189782668
H  H172  1  0.91820000  0.77950000  0.25760000  1.0 0.1189782668
H  H173  1  0.97470000  0.71290000  0.84740000  1.0 0.1794229012
H  H174  1  0.02530000  0.21290000  0.65260000  1.0 0.1794229012
H  H175  1  0.02530000  0.28710000  0.15260000  1.0 0.1794229012
H  H176  1  0.97470000  0.78710000  0.34740000  1.0 0.1794229012
H  H177  1  0.96510000  0.80920000  0.86390000  1.0 0.1395147616
H  H178  1  0.03490000  0.30920000  0.63610000  1.0 0.1395147616
H  H179  1  0.03490000  0.19080000  0.13610000  1.0 0.1395147616
H  H180  1  0.96510000  0.69080000  0.36390000  1.0 0.1395147616
H  H181  1  0.91320000  0.77630000  0.81380000  1.0 0.1682099033
H  H182  1  0.08680000  0.27630000  0.68620000  1.0 0.1682099033
H  H183  1  0.08680000  0.22370000  0.18620000  1.0 0.1682099033
H  H184  1  0.91320000  0.72370000  0.31380000  1.0 0.1682099033
H  H185  1  0.43560000  0.87410000  0.02940000  1.0 0.1308447797
H  H186  1  0.56440000  0.37410000  0.47060000  1.0 0.1308447797
H  H187  1  0.56440000  0.12590000  0.97060000  1.0 0.1308447797
H  H188  1  0.43560000  0.62590000  0.52940000  1.0 0.1308447797
H  H189  1  0.50640000  0.75620000  0.04920000  1.0 0.1189782668
H  H190  1  0.49360000  0.25620000  0.45080000  1.0 0.1189782668
H  H191  1  0.49360000  0.24380000  0.95080000  1.0 0.1189782668
H  H192  1  0.50640000  0.74380000  0.54920000  1.0 0.1189782668
H  H193  1  0.48450000  0.59730000  0.05240000  1.0 0.1308447797
H  H194  1  0.51550000  0.09730000  0.44760000  1.0 0.1308447797
H  H195  1  0.51550000  0.40270000  0.94760000  1.0 0.1395147616
H  H196  1  0.48450000  0.90270000  0.55240000  1.0 0.1395147616
H  H197  1  0.39270000  0.39090000  0.04850000  1.0 0.1395147616
H  H198  1  0.60730000  0.89090000  0.45150000  1.0 0.1395147616
H  H199  1  0.60730000  0.60910000  0.95150000  1.0 0.1395147616
H  H200  1  0.39270000  0.10910000  0.54850000  1.0 0.1395147616
H  H201  1  0.39790000  0.42450000  0.01130000  1.0 0.1794229012
H  H202  1  0.60210000  0.92450000  0.48870000  1.0 0.1794229012
H  H203  1  0.60210000  0.57550000  0.98870000  1.0 0.1794229012
H  H204  1  0.39790000  0.07550000  0.51130000  1.0 0.1794229012
H  H205  1  0.45130000  0.45490000  0.06160000  1.0 0.150779349
H  H206  1  0.54870000  0.95490000  0.43840000  1.0 0.150779349
H  H207  1  0.54870000  0.54510000  0.93840000  1.0 0.150779349
H  H208  1  0.45130000  0.04510000  0.56160000  1.0 0.150779349
H  H209  1  0.25890000  0.41880000  0.98540000  1.0 0.1308447797
H  H210  1  0.74110000  0.91880000  0.51460000  1.0 0.1308447797
H  H211  1  0.74110000  0.58120000  0.01460000  1.0 0.1308447797
H  H212  1  0.25890000  0.08120000  0.48540000  1.0 0.1308447797
H  H213  1  0.30360000  0.39830000  0.03730000  1.0 0.1021379253
H  H214  1  0.69640000  0.89830000  0.46270000  1.0 0.1021379253
H  H215  1  0.69640000  0.60170000  0.96270000  1.0 0.1021379253
H  H216  1  0.30360000  0.10170000  0.53730000  1.0 0.1021379253
H  H217  1  0.19800000  0.40190000  0.00990000  1.0 0.1189782668
H  H218  1  0.80200000  0.90190000  0.49010000  1.0 0.1189782668
H  H219  1  0.80200000  0.59810000  0.99010000  1.0 0.1189782668
H  H220  1  0.19800000  0.09810000  0.50990000  1.0 0.1189782668
H  H221  1  0.23620000  0.48530000  0.04420000  1.0 0.1189782668
H  H222  1  0.76380000  0.98530000  0.45580000  1.0 0.1189782668
H  H223  1  0.76380000  0.51470000  0.95580000  1.0 0.1189782668
H  H224  1  0.23620000  0.01470000  0.54420000  1.0 0.1189782668
H  H225  1  0.12700000  0.51920000  0.97810000  1.0 0.1021379253
H  H226  1  0.87300000  0.01920000  0.52190000  1.0 0.1021379253
H  H227  1  0.87300000  0.48080000  0.02190000  1.0 0.1021379253
H  H228  1  0.12700000  0.98080000  0.47810000  1.0 0.1021379253
H  H229  1  0.15510000  0.52260000  0.95170000  1.0 0.1189782668
H  H230  1  0.84490000  0.02260000  0.54830000  1.0 0.1189782668
H  H231  1  0.84490000  0.47740000  0.04830000  1.0 0.1189782668
H  H232  1  0.15510000  0.97740000  0.45170000  1.0 0.1189782668
H  H233  1  0.09540000  0.68890000  0.95950000  1.0 0.1101061489
H  H234  1  0.90460000  0.18890000  0.54050000  1.0 0.1101061489
H  H235  1  0.90460000  0.31110000  0.04050000  1.0 0.1101061489
H  H236  1  0.09540000  0.81110000  0.45950000  1.0 0.1101061489
H  H237  1  0.12680000  0.70190000  0.93570000  1.0 0.1189782668
H  H238  1  0.87320000  0.20190000  0.56430000  1.0 0.1189782668
H  H239  1  0.87320000  0.29810000  0.06430000  1.0 0.1189782668
H  H240  1  0.12680000  0.79810000  0.43570000  1.0 0.1189782668
H  H241  1  0.11460000  0.83850000  0.96820000  1.0 0.1101061489
H  H242  1  0.88540000  0.33850000  0.53180000  1.0 0.1101061489
H  H243  1  0.88540000  0.16150000  0.03180000  1.0 0.1101061489
H  H244  1  0.11460000  0.66150000  0.46820000  1.0 0.1101061489
H  H245  1  0.17610000  0.79960000  0.01390000  1.0 0.1395147616
H  H246  1  0.82390000  0.29960000  0.48610000  1.0 0.1395147616
H  H247  1  0.82390000  0.20040000  0.98610000  1.0 0.1395147616
H  H248  1  0.17610000  0.70040000  0.51390000  1.0 0.1395147616
H  H249  1  0.20560000  0.92080000  0.98820000  1.0 0.1101061489
H  H250  1  0.79440000  0.42080000  0.51180000  1.0 0.1101061489
H  H251  1  0.79440000  0.07920000  0.01180000  1.0 0.1101061489
H  H252  1  0.20560000  0.57920000  0.48820000  1.0 0.1101061489
H  H253  1  0.17450000  0.86590000  0.94290000  1.0 0.1021379253
H  H254  1  0.82550000  0.36590000  0.55710000  1.0 0.1021379253
H  H255  1  0.82550000  0.13410000  0.05710000  1.0 0.1021379253
H  H256  1  0.17450000  0.63410000  0.44290000  1.0 0.1021379253
H  H257  1  0.27440000  0.98790000  0.98380000  1.0 0.150779349
H  H258  1  0.72560000  0.48790000  0.51620000  1.0 0.150779349
H  H259  1  0.72560000  0.01210000  0.01620000  1.0 0.150779349
H  H260  1  0.27440000  0.51210000  0.48380000  1.0 0.150779349
H  H261  1  0.34580000  0.98570000  0.02890000  1.0 0.1682099033
H  H262  1  0.65420000  0.48570000  0.47110000  1.0 0.1682099033
H  H263  1  0.65420000  0.01430000  0.97110000  1.0 0.1682099033
H  H264  1  0.34580000  0.51430000  0.52890000  1.0 0.1682099033
H  H265  1  0.33220000  0.96640000  0.98290000  1.0 0.150779349
H  H266  1  0.66780000  0.46640000  0.51710000  1.0 0.150779349
H  H267  1  0.66780000  0.03360000  0.01710000  1.0 0.150779349
H  H268  1  0.33220000  0.53360000  0.48290000  1.0 0.150779349
H  H269  1  0.59640000  0.76260000  0.17980000  1.0 0.1395147616
H  H270  1  0.40360000  0.26260000  0.32020000  1.0 0.1395147616
H  H271  1  0.40360000  0.23740000  0.82020000  1.0 0.1395147616
H  H272  1  0.59640000  0.73740000  0.67980000  1.0 0.1395147616
H  H273  1  0.68220000  0.84680000  0.23430000  1.0 0.1189782668
H  H274  1  0.31780000  0.34680000  0.26570000  1.0 0.1189782668
H  H275  1  0.31780000  0.15320000  0.76570000  1.0 0.1189782668
H  H276  1  0.68220000  0.65320000  0.73430000  1.0 0.1189782668
H  H277  1  0.72130000  0.86500000  0.30950000  1.0 0.1395147616
H  H278  1  0.27870000  0.36500000  0.19050000  1.0 0.1395147616
H  H279  1  0.27870000  0.13500000  0.69050000  1.0 0.1395147616
H  H280  1  0.72130000  0.63500000  0.80950000  1.0 0.1395147616
H  H281  1  0.73480000  0.80460000  0.39930000  1.0 0.1604998533
H  H282  1  0.26520000  0.30460000  0.10070000  1.0 0.1604998533
H  H283  1  0.26520000  0.19540000  0.60070000  1.0 0.1604998533
H  H284  1  0.73480000  0.69540000  0.89930000  1.0 0.1604998533
H  H285  1  0.72710000  0.87710000  0.36460000  1.0 0.150779349
H  H286  1  0.27290000  0.37710000  0.13540000  1.0 0.150779349
H  H287  1  0.27290000  0.12290000  0.63540000  1.0 0.150779349
H  H288  1  0.72710000  0.62290000  0.86460000  1.0 0.150779349
H  H289  1  0.68980000  0.89450000  0.38410000  1.0 0.150779349
H  H290  1  0.31020000  0.39450000  0.11590000  1.0 0.150779349
H  H291  1  0.31020000  0.10550000  0.61590000  1.0 0.150779349
H  H292  1  0.68980000  0.60550000  0.88410000  1.0 0.150779349
H  H293  1  0.58180000  0.79500000  0.37070000  1.0 0.1101061489
H  H294  1  0.41820000  0.29500000  0.12930000  1.0 0.1101061489
H  H295  1  0.41820000  0.20500000  0.62930000  1.0 0.1101061489
H  H296  1  0.58180000  0.70500000  0.87070000  1.0 0.1101061489
H  H297  1  0.64880000  0.74410000  0.40130000  1.0 0.1101061489
H  H298  1  0.35120000  0.24410000  0.09870000  1.0 0.1101061489
H  H299  1  0.35120000  0.25590000  0.59870000  1.0 0.1101061489
H  H300  1  0.64880000  0.75590000  0.90130000  1.0 0.1101061489
H  H301  1  0.60570000  0.60760000  0.38780000  1.0 0.1395147616
H  H302  1  0.39430000  0.10760000  0.11220000  1.0 0.1395147616
H  H303  1  0.39430000  0.39240000  0.61220000  1.0 0.1395147616
H  H304  1  0.60570000  0.89240000  0.88780000  1.0 0.1395147616
H  H305  1  0.57480000  0.67730000  0.40190000  1.0 0.1189782668
H  H306  1  0.42520000  0.17730000  0.09810000  1.0 0.1189782668
H  H307  1  0.42520000  0.32270000  0.59810000  1.0 0.1189782668
H  H308  1  0.57480000  0.82270000  0.90190000  1.0 0.1189782668
H  H309  1  0.47960000  0.68440000  0.32570000  1.0 0.1101061489
H  H310  1  0.52040000  0.18440000  0.17430000  1.0 0.1101061489
H  H311  1  0.52040000  0.31560000  0.67430000  1.0 0.1101061489
H  H312  1  0.47960000  0.81560000  0.82570000  1.0 0.1101061489
H  H313  1  0.49310000  0.58230000  0.34690000  1.0 0.1021379253
H  H314  1  0.50690000  0.08230000  0.15310000  1.0 0.1021379253
H  H315  1  0.50690000  0.41770000  0.65310000  1.0 0.1021379253
H  H316  1  0.49310000  0.91770000  0.84690000  1.0 0.1021379253
H  H317  1  0.42810000  0.51260000  0.28080000  1.0 0.1021379253
H  H318  1  0.57190000  0.01260000  0.21920000  1.0 0.1021379253
H  H319  1  0.57190000  0.48740000  0.71920000  1.0 0.1021379253
H  H320  1  0.42810000  0.98740000  0.78080000  1.0 0.1021379253
H  H321  1  0.41000000  0.60930000  0.25410000  1.0 0.1189782668
H  H322  1  0.59000000  0.10930000  0.24590000  1.0 0.1189782668
H  H323  1  0.59000000  0.39070000  0.74590000  1.0 0.1189782668
H  H324  1  0.41000000  0.89070000  0.75410000  1.0 0.1189782668
H  H325  1  0.47590000  0.45970000  0.24840000  1.0 0.1189782668
H  H326  1  0.52410000  0.95970000  0.25160000  1.0 0.1189782668
H  H327  1  0.52410000  0.54030000  0.75160000  1.0 0.1189782668
H  H328  1  0.47590000  0.04030000  0.74840000  1.0 0.1189782668
H  H329  1  0.40080000  0.46820000  0.21450000  1.0 0.1101061489
H  H330  1  0.59920000  0.96820000  0.28550000  1.0 0.1101061489
H  H331  1  0.59920000  0.53180000  0.78550000  1.0 0.1101061489
H  H332  1  0.40080000  0.03180000  0.71450000  1.0 0.1101061489
H  H333  1  0.40650000  0.59240000  0.17440000  1.0 0.1189782668
H  H334  1  0.59350000  0.09240000  0.32560000  1.0 0.1189782668
H  H335  1  0.59350000  0.40760000  0.82560000  1.0 0.1189782668
H  H336  1  0.40650000  0.90760000  0.67440000  1.0 0.1189782668
H  H337  1  0.44950000  0.50740000  0.17940000  1.0 0.1021379253
H  H338  1  0.55050000  0.00740000  0.32060000  1.0 0.1021379253
H  H339  1  0.55050000  0.49260000  0.82060000  1.0 0.1021379253
H  H340  1  0.44950000  0.99260000  0.67940000  1.0 0.1021379253
H  H341  1  0.47480000  0.69950000  0.13150000  1.0 0.1682099033
H  H342  1  0.52520000  0.19950000  0.36850000  1.0 0.1682099033
H  H343  1  0.52520000  0.30050000  0.86850000  1.0 0.1682099033
H  H344  1  0.47480000  0.80050000  0.63150000  1.0 0.1682099033
H  H345  1  0.51220000  0.60260000  0.14280000  1.0 0.1395147616
H  H346  1  0.48780000  0.10260000  0.35720000  1.0 0.1395147616
H  H347  1  0.48780000  0.39740000  0.85720000  1.0 0.1395147616
H  H348  1  0.51220000  0.89740000  0.64280000  1.0 0.1395147616
H  H349  1  0.44570000  0.60450000  0.13430000  1.0 0.150779349
H  H350  1  0.55430000  0.10450000  0.36570000  1.0 0.150779349
H  H351  1  0.55430000  0.39550000  0.86570000  1.0 0.150779349
H  H352  1  0.44570000  0.89550000  0.63430000  1.0 0.150779349
W  W1  1  0.16438000  0.53923000  0.84286000  1.0 0.5270996813
W  W2  1  0.83562000  0.03923000  0.65714000  1.0 0.5270996813
W  W3  1  0.83562000  0.46077000  0.15714000  1.0 0.5270996813
W  W4  1  0.16438000  0.96077000  0.34286000  1.0 0.522919995
W  W5  1  0.33014000  0.84240000  0.15198000  1.0 0.522919995
W  W6  1  0.66986000  0.34240000  0.34802000  1.0 0.522919995
W  W7  1  0.66986000  0.15760000  0.84802000  1.0 0.522919995
W  W8  1  0.33014000  0.65760000  0.65198000  1.0 0.5270996813
C  C1  1  0.18840000  0.60130000  0.80230000  1.0 0.0213872501
C  C2  1  0.81160000  0.10130000  0.69770000  1.0 0.0213872501
C  C3  1  0.81160000  0.39870000  0.19770000  1.0 0.0213872501
C  C4  1  0.18840000  0.89870000  0.30230000  1.0 0.0213872501
C  C5  1  0.13470000  0.68610000  0.82970000  1.0 0.0288278877
C  C6  1  0.86530000  0.18610000  0.67030000  1.0 0.0288278877
C  C7  1  0.86530000  0.31390000  0.17030000  1.0 0.0288278877
C  C8  1  0.13470000  0.81390000  0.32970000  1.0 0.0288278877
C  C9  1  0.20880000  0.60370000  0.90770000  1.0 0.047412378
C  C10  1  0.79120000  0.10370000  0.59230000  1.0 0.047412378
C  C11  1  0.79120000  0.39630000  0.09230000  1.0 0.047412378
C  C12  1  0.20880000  0.89630000  0.40770000  1.0 0.047412378
C  C13  1  0.26770000  0.52700000  0.88390000  1.0 0.0024998633
C  C14  1  0.73230000  0.02700000  0.61610000  1.0 0.0024998633
C  C15  1  0.73230000  0.47300000  0.11610000  1.0 0.0024998633
C  C16  1  0.26770000  0.97300000  0.38390000  1.0 0.0024998633
C  C17  1  0.17780000  0.41940000  0.81230000  1.0 -0.0143845825
C  C18  1  0.82220000  0.91940000  0.68770000  1.0 -0.0143845825
C  C19  1  0.82220000  0.58060000  0.18770000  1.0 -0.0143845825
C  C20  1  0.17780000  0.08060000  0.31230000  1.0 -0.0143845825
C  C21  1  0.17650000  0.41290000  0.88030000  1.0 -0.0392568971
C  C22  1  0.82350000  0.91290000  0.61970000  1.0 -0.0392568971
C  C23  1  0.82350000  0.58710000  0.11970000  1.0 -0.0392568971
C  C24  1  0.17650000  0.08710000  0.38030000  1.0 -0.0392568971
C  C25  1  0.09020000  0.54420000  0.85150000  1.0 -0.0180434039
C  C26  1  0.90980000  0.04420000  0.64850000  1.0 -0.0180434039
C  C27  1  0.90980000  0.45580000  0.14850000  1.0 -0.0180434039
C  C28  1  0.09020000  0.95580000  0.35150000  1.0 -0.0180434039
C  C29  1  0.07070000  0.51130000  0.77820000  1.0 -0.0180434039
C  C30  1  0.92930000  0.01130000  0.72180000  1.0 -0.0180434039
C  C31  1  0.92930000  0.48870000  0.22180000  1.0 -0.0180434039
C  C32  1  0.07070000  0.98870000  0.27820000  1.0 -0.0180434039
C  C33  1  0.23840000  0.82610000  0.73620000  1.0 0.1863914404
C  C34  1  0.76160000  0.32610000  0.76380000  1.0 0.1863914404
C  C35  1  0.76160000  0.17390000  0.26380000  1.0 0.1863914404
C  C36  1  0.23840000  0.67390000  0.23620000  1.0 0.1863914404
C  C37  1  0.25360000  0.92540000  0.74460000  1.0 -0.1775860723
C  C38  1  0.74640000  0.42540000  0.75540000  1.0 -0.1775860723
C  C39  1  0.74640000  0.07460000  0.25540000  1.0 -0.1775860723
C  C40  1  0.25360000  0.57460000  0.24460000  1.0 -0.1775860723
C  C41  1  0.30990000  0.94200000  0.78900000  1.0 -0.0712033787
C  C42  1  0.69010000  0.44200000  0.71100000  1.0 -0.0712033787
C  C43  1  0.69010000  0.05800000  0.21100000  1.0 -0.0712033787
C  C44  1  0.30990000  0.55800000  0.28900000  1.0 -0.0712033787
C  C45  1  0.34970000  0.87500000  0.82220000  1.0 -0.1625961576
C  C46  1  0.65030000  0.37500000  0.67780000  1.0 -0.1625961576
C  C47  1  0.65030000  0.12500000  0.17780000  1.0 -0.1625961576
C  C48  1  0.34970000  0.62500000  0.32220000  1.0 -0.1625961576
C  C49  1  0.33180000  0.78530000  0.80890000  1.0 0.1189782668
C  C50  1  0.66820000  0.28530000  0.69110000  1.0 0.1189782668
C  C51  1  0.66820000  0.21470000  0.19110000  1.0 0.1189782668
C  C52  1  0.33180000  0.71470000  0.30890000  1.0 0.1189782668
C  C53  1  0.36890000  0.70080000  0.83520000  1.0 0.2699110681
C  C54  1  0.63110000  0.20080000  0.66480000  1.0 0.2699110681
C  C55  1  0.63110000  0.29920000  0.16480000  1.0 0.2699110681
C  C56  1  0.36890000  0.79920000  0.33520000  1.0 0.2699110681
C  C57  1  0.43530000  0.71770000  0.87970000  1.0 -0.4994302753
C  C58  1  0.56470000  0.21770000  0.62030000  1.0 -0.4994302753
C  C59  1  0.56470000  0.28230000  0.12030000  1.0 -0.4994302753
C  C60  1  0.43530000  0.78230000  0.37970000  1.0 -0.4994302753
C  C61  1  0.37600000  0.52960000  0.83810000  1.0 -0.0955600062
C  C62  1  0.62400000  0.02960000  0.66190000  1.0 -0.088473724
C  C63  1  0.62400000  0.47040000  0.16190000  1.0 -0.0955600062
C  C64  1  0.37600000  0.97040000  0.33810000  1.0 -0.0955600062
C  C65  1  0.33190000  0.44720000  0.81940000  1.0 -0.2109750411
C  C66  1  0.66810000  0.94720000  0.68060000  1.0 -0.2109750411
C  C67  1  0.66810000  0.55280000  0.18060000  1.0 -0.2109750411
C  C68  1  0.33190000  0.05280000  0.31940000  1.0 -0.2109750411
C  C69  1  0.29060000  0.42790000  0.76910000  1.0 -0.0799020274
C  C70  1  0.70940000  0.92790000  0.73090000  1.0 -0.0799020274
C  C71  1  0.70940000  0.57210000  0.23090000  1.0 -0.0799020274
C  C72  1  0.29060000  0.07210000  0.26910000  1.0 -0.0799020274
C  C73  1  0.18900000  0.46700000  0.69580000  1.0 -0.0799020274
C  C74  1  0.81100000  0.96700000  0.80420000  1.0 -0.0799020274
C  C75  1  0.81100000  0.53300000  0.30420000  1.0 -0.0799020274
C  C76  1  0.18900000  0.03300000  0.19580000  1.0 -0.0799020274
C  C77  1  0.12850000  0.52780000  0.67170000  1.0 -0.2205451053
C  C78  1  0.87150000  0.02780000  0.82830000  1.0 -0.2205451053
C  C79  1  0.87150000  0.47220000  0.32830000  1.0 -0.2205451053
C  C80  1  0.12850000  0.97220000  0.17170000  1.0 -0.2205451053
C  C81  1  0.12930000  0.63430000  0.65750000  1.0 -0.0524007015
C  C82  1  0.87070000  0.13430000  0.84250000  1.0 -0.0524007015
C  C83  1  0.87070000  0.36570000  0.34250000  1.0 -0.0524007015
C  C84  1  0.12930000  0.86570000  0.15750000  1.0 -0.0524007015
C  C85  1  0.18280000  0.78360000  0.69390000  1.0 0.2113454987
C  C86  1  0.81720000  0.28360000  0.80610000  1.0 0.2113454987
C  C87  1  0.81720000  0.21640000  0.30610000  1.0 0.2113454987
C  C88  1  0.18280000  0.71640000  0.19390000  1.0 0.2113454987
C  C89  1  0.13970000  0.83760000  0.65180000  1.0 -0.4660149093
C  C90  1  0.86030000  0.33760000  0.84820000  1.0 -0.4660149093
C  C91  1  0.86030000  0.16240000  0.34820000  1.0 -0.4660149093
C  C92  1  0.13970000  0.66240000  0.15180000  1.0 -0.4660149093
C  C93  1  0.03870000  0.91220000  0.85440000  1.0 0.1964995277
C  C94  1  0.96130000  0.41220000  0.64560000  1.0 0.1964995277
C  C95  1  0.96130000  0.08780000  0.14560000  1.0 0.1964995277
C  C96  1  0.03870000  0.58780000  0.35440000  1.0 0.1964995277
C  C97  1  0.04160000  0.96350000  0.88830000  1.0 -0.1912377801
C  C98  1  0.95840000  0.46350000  0.61170000  1.0 -0.1912377801
C  C99  1  0.95840000  0.03650000  0.11170000  1.0 -0.1912377801
C  C100  1  0.04160000  0.53650000  0.38830000  1.0 -0.1912377801
C  C101  1  0.08280000  0.03880000  0.90730000  1.0 -0.0524007015
C  C102  1  0.91720000  0.53880000  0.59270000  1.0 -0.0524007015
C  C103  1  0.91720000  0.96120000  0.09270000  1.0 -0.0524007015
C  C104  1  0.08280000  0.46120000  0.40730000  1.0 -0.0524007015
C  C105  1  0.12140000  0.06660000  0.89670000  1.0 -0.1705809192
C  C106  1  0.87860000  0.56660000  0.60330000  1.0 -0.1705809192
C  C107  1  0.87860000  0.93340000  0.10330000  1.0 -0.1705809192
C  C108  1  0.12140000  0.43340000  0.39670000  1.0 -0.1705809192
C  C109  1  0.11710000  0.01200000  0.86370000  1.0 0.1395147616
C  C110  1  0.88290000  0.51200000  0.63630000  1.0 0.1395147616
C  C111  1  0.88290000  0.98800000  0.13630000  1.0 0.1395147616
C  C112  1  0.11710000  0.48800000  0.36370000  1.0 0.1395147616
C  C113  1  0.15250000  0.02820000  0.84500000  1.0 0.2575807397
C  C114  1  0.84750000  0.52820000  0.65500000  1.0 0.2575807397
C  C115  1  0.84750000  0.97180000  0.15500000  1.0 0.2575807397
C  C116  1  0.15250000  0.47180000  0.34500000  1.0 0.2575807397
C  C117  1  0.20750000  0.09780000  0.86790000  1.0 -0.4994302753
C  C118  1  0.79250000  0.59780000  0.63210000  1.0 -0.4994302753
C  C119  1  0.79250000  0.90220000  0.13210000  1.0 -0.4994302753
C  C120  1  0.20750000  0.40220000  0.36790000  1.0 -0.4994302753
C  C121  1  0.15950000  0.98370000  0.78710000  1.0 -0.0799020274
C  C122  1  0.84050000  0.48370000  0.71290000  1.0 -0.0799020274
C  C123  1  0.84050000  0.01630000  0.21290000  1.0 -0.0799020274
C  C124  1  0.15950000  0.51630000  0.28710000  1.0 -0.0799020274
C  C125  1  0.11100000  0.95740000  0.73830000  1.0 -0.2109750411
C  C126  1  0.88900000  0.45740000  0.76170000  1.0 -0.2109750411
C  C127  1  0.88900000  0.04260000  0.26170000  1.0 -0.2109750411
C  C128  1  0.11100000  0.54260000  0.23830000  1.0 -0.2109750411
C  C129  1  0.08410000  0.85470000  0.72630000  1.0 -0.0712033787
C  C130  1  0.91590000  0.35470000  0.77370000  1.0 -0.0712033787
C  C131  1  0.91590000  0.14530000  0.27370000  1.0 -0.0712033787
C  C132  1  0.08410000  0.64530000  0.22630000  1.0 -0.0712033787
C  C133  1  0.00060000  0.74790000  0.71570000  1.0 -0.0955600062
C  C134  1  0.99940000  0.24790000  0.78430000  1.0 -0.0955600062
C  C135  1  0.99940000  0.25210000  0.28430000  1.0 -0.0955600062
C  C136  1  0.00060000  0.75210000  0.21570000  1.0 -0.0955600062
C  C137  1  0.94690000  0.73790000  0.71790000  1.0 -0.2026878972
C  C138  1  0.05310000  0.23790000  0.78210000  1.0 -0.2026878972
C  C139  1  0.05310000  0.26210000  0.28210000  1.0 -0.2026878972
C  C140  1  0.94690000  0.76210000  0.21790000  1.0 -0.2026878972
C  C141  1  0.95960000  0.72710000  0.76330000  1.0 -0.0712033787
C  C142  1  0.04040000  0.22710000  0.73670000  1.0 -0.0712033787
C  C143  1  0.04040000  0.27290000  0.23670000  1.0 -0.0712033787
C  C144  1  0.95960000  0.77290000  0.26330000  1.0 -0.0712033787
C  C145  1  0.99490000  0.82980000  0.82610000  1.0 0.2408563841
C  C146  1  0.00510000  0.32980000  0.67390000  1.0 0.2408563841
C  C147  1  0.00510000  0.17020000  0.17390000  1.0 0.2408563841
C  C148  1  0.99490000  0.67020000  0.32610000  1.0 0.2408563841
C  C149  1  0.95880000  0.77730000  0.83900000  1.0 -0.4926969956
C  C150  1  0.04120000  0.27730000  0.66100000  1.0 -0.4926969956
C  C151  1  0.04120000  0.22270000  0.16100000  1.0 -0.4926969956
C  C152  1  0.95880000  0.72270000  0.33900000  1.0 -0.4926969956
C  C153  1  0.36500000  0.78850000  0.01980000  1.0 0.1794229012
C  C154  1  0.63500000  0.28850000  0.48020000  1.0 0.1794229012
C  C155  1  0.63500000  0.21150000  0.98020000  1.0 0.1794229012
C  C156  1  0.36500000  0.71150000  0.51980000  1.0 0.1794229012
C  C157  1  0.42500000  0.81110000  0.03040000  1.0 -0.1705809192
C  C158  1  0.57500000  0.31110000  0.46960000  1.0 -0.1705809192
C  C159  1  0.57500000  0.18890000  0.96960000  1.0 -0.1775860723
C  C160  1  0.42500000  0.68890000  0.53040000  1.0 -0.1705809192
C  C161  1  0.46650000  0.74050000  0.04200000  1.0 -0.0628239464
C  C162  1  0.53350000  0.24050000  0.45800000  1.0 -0.0628239464
C  C163  1  0.53350000  0.25950000  0.95800000  1.0 -0.0628239464
C  C164  1  0.46650000  0.75950000  0.54200000  1.0 -0.0628239464
C  C165  1  0.45430000  0.64530000  0.04400000  1.0 -0.1705809192
C  C166  1  0.54570000  0.14530000  0.45600000  1.0 -0.1705809192
C  C167  1  0.54570000  0.35470000  0.95600000  1.0 -0.1705809192
C  C168  1  0.45430000  0.85470000  0.54400000  1.0 -0.1705809192
C  C169  1  0.39430000  0.62640000  0.03280000  1.0 0.150779349
C  C170  1  0.60570000  0.12640000  0.46720000  1.0 0.150779349
C  C171  1  0.60570000  0.37360000  0.96720000  1.0 0.150779349
C  C172  1  0.39430000  0.87360000  0.53280000  1.0 0.150779349
C  C173  1  0.36710000  0.53120000  0.03100000  1.0 0.2699110681
C  C174  1  0.63290000  0.03120000  0.46900000  1.0 0.2699110681
C  C175  1  0.63290000  0.46880000  0.96900000  1.0 0.2699110681
C  C176  1  0.36710000  0.96880000  0.53100000  1.0 0.2699110681
C  C177  1  0.40580000  0.44220000  0.03880000  1.0 -0.4926969956
C  C178  1  0.59420000  0.94220000  0.46120000  1.0 -0.4926969956
C  C179  1  0.59420000  0.55780000  0.96120000  1.0 -0.4926969956
C  C180  1  0.40580000  0.05780000  0.53880000  1.0 -0.4926969956
C  C181  1  0.27510000  0.44550000  0.01430000  1.0 -0.088473724
C  C182  1  0.72490000  0.94550000  0.48570000  1.0 -0.088473724
C  C183  1  0.72490000  0.55450000  0.98570000  1.0 -0.088473724
C  C184  1  0.27510000  0.05450000  0.51430000  1.0 -0.088473724
C  C185  1  0.21860000  0.46330000  0.01430000  1.0 -0.2026878972
C  C186  1  0.78140000  0.96330000  0.48570000  1.0 -0.2026878972
C  C187  1  0.78140000  0.53670000  0.98570000  1.0 -0.2026878972
C  C188  1  0.21860000  0.03670000  0.51430000  1.0 -0.2026878972
C  C189  1  0.16570000  0.53250000  0.98100000  1.0 -0.0712033787
C  C190  1  0.83430000  0.03250000  0.51900000  1.0 -0.0712033787
C  C191  1  0.83430000  0.46750000  0.01900000  1.0 -0.0712033787
C  C192  1  0.16570000  0.96750000  0.48100000  1.0 -0.0712033787
C  C193  1  0.13550000  0.70450000  0.96460000  1.0 -0.088473724
C  C194  1  0.86450000  0.20450000  0.53540000  1.0 -0.088473724
C  C195  1  0.86450000  0.29550000  0.03540000  1.0 -0.088473724
C  C196  1  0.13550000  0.79550000  0.46460000  1.0 -0.088473724
C  C197  1  0.15410000  0.80190000  0.98180000  1.0 -0.2026878972
C  C198  1  0.84590000  0.30190000  0.51820000  1.0 -0.2026878972
C  C199  1  0.84590000  0.19810000  0.01820000  1.0 -0.2026878972
C  C200  1  0.15410000  0.69810000  0.48180000  1.0 -0.2026878972
C  C201  1  0.19730000  0.85770000  0.97490000  1.0 -0.088473724
C  C202  1  0.80270000  0.35770000  0.52510000  1.0 -0.0799020274
C  C203  1  0.80270000  0.14230000  0.02510000  1.0 -0.088473724
C  C204  1  0.19730000  0.64230000  0.47490000  1.0 -0.088473724
C  C205  1  0.30940000  0.85240000  0.00420000  1.0 0.2699110681
C  C206  1  0.69060000  0.35240000  0.49580000  1.0 0.2699110681
C  C207  1  0.69060000  0.14760000  0.99580000  1.0 0.2699110681
C  C208  1  0.30940000  0.64760000  0.50420000  1.0 0.2699110681
C  C209  1  0.31600000  0.95760000  0.99950000  1.0 -0.4809458654
C  C210  1  0.68400000  0.45760000  0.50050000  1.0 -0.4809458654
C  C211  1  0.68400000  0.04240000  0.00050000  1.0 -0.4809458654
C  C212  1  0.31600000  0.54240000  0.49950000  1.0 -0.4809458654
C  C213  1  0.31480000  0.74690000  0.10150000  1.0 0.0213872501
C  C214  1  0.68520000  0.24690000  0.39850000  1.0 0.0213872501
C  C215  1  0.68520000  0.25310000  0.89850000  1.0 0.0213872501
C  C216  1  0.31480000  0.75310000  0.60150000  1.0 0.0213872501
C  C217  1  0.28990000  0.94430000  0.09760000  1.0 -0.0143845825
C  C218  1  0.71010000  0.44430000  0.40240000  1.0 -0.0143845825
C  C219  1  0.71010000  0.05570000  0.90240000  1.0 -0.0143845825
C  C220  1  0.28990000  0.55570000  0.59760000  1.0 -0.0143845825
C  C221  1  0.22590000  0.83680000  0.10940000  1.0 -0.0392568971
C  C222  1  0.77410000  0.33680000  0.39060000  1.0 -0.0392568971
C  C223  1  0.77410000  0.16320000  0.89060000  1.0 -0.0392568971
C  C224  1  0.22590000  0.66320000  0.60940000  1.0 -0.0392568971
C  C225  1  0.40720000  0.86690000  0.14690000  1.0 -0.0275572888
C  C226  1  0.59280000  0.36690000  0.35310000  1.0 -0.0275572888
C  C227  1  0.59280000  0.13310000  0.85310000  1.0 -0.0275572888
C  C228  1  0.40720000  0.63310000  0.64690000  1.0 -0.0275572888
C  C229  1  0.30860000  0.70210000  0.16440000  1.0 -0.0180434039
C  C230  1  0.69140000  0.20210000  0.33560000  1.0 -0.0180434039
C  C231  1  0.69140000  0.29790000  0.83560000  1.0 -0.0180434039
C  C232  1  0.30860000  0.79790000  0.66440000  1.0 -0.0180434039
C  C233  1  0.30870000  0.86740000  0.19790000  1.0 0.0288278877
C  C234  1  0.69130000  0.36740000  0.30210000  1.0 0.0288278877
C  C235  1  0.69130000  0.13260000  0.80210000  1.0 0.0288278877
C  C236  1  0.30870000  0.63260000  0.69790000  1.0 0.0288278877
C  C237  1  0.42030000  0.79470000  0.21400000  1.0 0.0024998633
C  C238  1  0.57970000  0.29470000  0.28600000  1.0 0.0024998633
C  C239  1  0.57970000  0.20530000  0.78600000  1.0 0.0024998633
C  C240  1  0.42030000  0.70530000  0.71400000  1.0 0.0024998633
C  C241  1  0.57440000  0.72010000  0.22390000  1.0 0.2113454987
C  C242  1  0.42560000  0.22010000  0.27610000  1.0 0.2113454987
C  C243  1  0.42560000  0.27990000  0.77610000  1.0 0.2113454987
C  C244  1  0.57440000  0.77990000  0.72390000  1.0 0.2113454987
C  C245  1  0.60870000  0.76720000  0.20870000  1.0 -0.1705809192
C  C246  1  0.39130000  0.26720000  0.29130000  1.0 -0.1705809192
C  C247  1  0.39130000  0.23280000  0.79130000  1.0 -0.1705809192
C  C248  1  0.60870000  0.73280000  0.70870000  1.0 -0.1705809192
C  C249  1  0.65860000  0.81620000  0.24180000  1.0 -0.0799020274
C  C250  1  0.34140000  0.31620000  0.25820000  1.0 -0.0799020274
C  C251  1  0.34140000  0.18380000  0.75820000  1.0 -0.0799020274
C  C252  1  0.65860000  0.68380000  0.74180000  1.0 -0.0799020274
C  C253  1  0.68370000  0.83140000  0.28750000  1.0 -0.1912377801
C  C254  1  0.31630000  0.33140000  0.21250000  1.0 -0.1912377801
C  C255  1  0.31630000  0.16860000  0.71250000  1.0 -0.1912377801
C  C256  1  0.68370000  0.66860000  0.78750000  1.0 -0.1912377801
C  C257  1  0.64130000  0.78650000  0.29310000  1.0 0.1395147616
C  C258  1  0.35870000  0.28650000  0.20690000  1.0 0.1395147616
C  C259  1  0.35870000  0.21350000  0.70690000  1.0 0.1395147616
C  C260  1  0.64130000  0.71350000  0.79310000  1.0 0.1395147616
C  C261  1  0.64470000  0.78580000  0.33380000  1.0 0.2490745906
C  C262  1  0.35530000  0.28580000  0.16620000  1.0 0.2490745906
C  C263  1  0.35530000  0.21420000  0.66620000  1.0 0.2490745906
C  C264  1  0.64470000  0.71420000  0.83380000  1.0 0.2490745906
C  C265  1  0.70520000  0.84660000  0.37450000  1.0 -0.4926969956
C  C266  1  0.29480000  0.34660000  0.12550000  1.0 -0.4926969956
C  C267  1  0.29480000  0.15340000  0.62550000  1.0 -0.4926969956
C  C268  1  0.70520000  0.65340000  0.87450000  1.0 -0.4926969956
C  C269  1  0.60520000  0.73850000  0.37300000  1.0 -0.1157754816
C  C270  1  0.39480000  0.23850000  0.12700000  1.0 -0.1157754816
C  C271  1  0.39480000  0.26150000  0.62700000  1.0 -0.1157754816
C  C272  1  0.60520000  0.76150000  0.87300000  1.0 -0.1157754816
C  C273  1  0.57680000  0.66200000  0.37780000  1.0 -0.2109750411
C  C274  1  0.42320000  0.16200000  0.12220000  1.0 -0.2109750411
C  C275  1  0.42320000  0.33800000  0.62220000  1.0 -0.2109750411
C  C276  1  0.57680000  0.83800000  0.87780000  1.0 -0.2109750411
C  C277  1  0.50860000  0.62980000  0.33690000  1.0 -0.0799020274
C  C278  1  0.49140000  0.12980000  0.16310000  1.0 -0.0799020274
C  C279  1  0.49140000  0.37020000  0.66310000  1.0 -0.0799020274
C  C280  1  0.50860000  0.87020000  0.83690000  1.0 -0.0799020274
C  C281  1  0.44070000  0.55650000  0.26760000  1.0 -0.088473724
C  C282  1  0.55930000  0.05650000  0.23240000  1.0 -0.088473724
C  C283  1  0.55930000  0.44350000  0.73240000  1.0 -0.088473724
C  C284  1  0.44070000  0.94350000  0.76760000  1.0 -0.088473724
C  C285  1  0.44050000  0.50550000  0.23210000  1.0 -0.2205451053
C  C286  1  0.55950000  0.00550000  0.26790000  1.0 -0.2205451053
C  C287  1  0.55950000  0.49450000  0.76790000  1.0 -0.2205451053
C  C288  1  0.44050000  0.99450000  0.73210000  1.0 -0.2205451053
C  C289  1  0.44600000  0.55650000  0.19590000  1.0 -0.0275572888
C  C290  1  0.55400000  0.05650000  0.30410000  1.0 -0.0275572888
C  C291  1  0.55400000  0.44350000  0.80410000  1.0 -0.0275572888
C  C292  1  0.44600000  0.94350000  0.69590000  1.0 -0.0275572888
C  C293  1  0.51790000  0.65510000  0.19260000  1.0 0.1794229012
C  C294  1  0.48210000  0.15510000  0.30740000  1.0 0.1794229012
C  C295  1  0.48210000  0.34490000  0.80740000  1.0 0.1794229012
C  C296  1  0.51790000  0.84490000  0.69260000  1.0 0.1794229012
C  C297  1  0.48510000  0.63920000  0.14670000  1.0 -0.4809458654
C  C298  1  0.51490000  0.13920000  0.35330000  1.0 -0.4809458654
C  C299  1  0.51490000  0.36080000  0.85330000  1.0 -0.4809458654
C  C300  1  0.48510000  0.86080000  0.64670000  1.0 -0.4809458654
C  C301  1  0.36780000  0.97950000  0.18280000  1.0 0.0288278877
C  C302  1  0.63220000  0.47950000  0.31720000  1.0 0.0288278877
C  C303  1  0.63220000  0.02050000  0.81720000  1.0 0.0288278877
C  C304  1  0.36780000  0.52050000  0.68280000  1.0 0.0288278877
N  N1  1  0.20470000  0.62970000  0.78260000  1.0 -0.3902751867
N  N2  1  0.79530000  0.12970000  0.71740000  1.0 -0.3902751867
N  N3  1  0.79530000  0.37030000  0.21740000  1.0 -0.3902751867
N  N4  1  0.20470000  0.87030000  0.28260000  1.0 -0.3902751867
N  N5  1  0.11960000  0.76660000  0.82150000  1.0 -0.3806101762
N  N6  1  0.88040000  0.26660000  0.67850000  1.0 -0.3806101762
N  N7  1  0.88040000  0.23340000  0.17850000  1.0 -0.3806101762
N  N8  1  0.11960000  0.73340000  0.32150000  1.0 -0.3806101762
N  N9  1  0.23020000  0.63750000  0.94170000  1.0 -0.3485648061
N  N10  1  0.76980000  0.13750000  0.55830000  1.0 -0.3485648061
N  N11  1  0.76980000  0.36250000  0.05830000  1.0 -0.3485648061
N  N12  1  0.23020000  0.86250000  0.44170000  1.0 -0.3485648061
N  N13  1  0.32290000  0.52210000  0.90590000  1.0 -0.4012462767
N  N14  1  0.67710000  0.02210000  0.59410000  1.0 -0.4012462767
N  N15  1  0.67710000  0.47790000  0.09410000  1.0 -0.4012462767
N  N16  1  0.32290000  0.97790000  0.40590000  1.0 -0.4012462767
N  N17  1  0.18480000  0.35890000  0.79510000  1.0 -0.4012462767
N  N18  1  0.81520000  0.85890000  0.70490000  1.0 -0.4012462767
N  N19  1  0.81520000  0.64110000  0.20490000  1.0 -0.4012462767
N  N20  1  0.18480000  0.14110000  0.29510000  1.0 -0.4012462767
N  N21  1  0.18190000  0.34670000  0.90040000  1.0 -0.4012462767
N  N22  1  0.81810000  0.84670000  0.59960000  1.0 -0.4012462767
N  N23  1  0.81810000  0.65330000  0.09960000  1.0 -0.4012462767
N  N24  1  0.18190000  0.15330000  0.40040000  1.0 -0.4056520488
N  N25  1  0.05110000  0.54460000  0.85620000  1.0 -0.3902751867
N  N26  1  0.94890000  0.04460000  0.64380000  1.0 -0.3902751867
N  N27  1  0.94890000  0.45540000  0.14380000  1.0 -0.3902751867
N  N28  1  0.05110000  0.95540000  0.35620000  1.0 -0.3902751867
N  N29  1  0.27690000  0.76310000  0.76770000  1.0 -0.2306234229
N  N30  1  0.72310000  0.26310000  0.73230000  1.0 -0.2306234229
N  N31  1  0.72310000  0.23690000  0.23230000  1.0 -0.2306234229
N  N32  1  0.27690000  0.73690000  0.26770000  1.0 -0.2306234229
N  N33  1  0.34320000  0.62230000  0.81790000  1.0 -0.2205451053
N  N34  1  0.65680000  0.12230000  0.68210000  1.0 -0.2205451053
N  N35  1  0.65680000  0.37770000  0.18210000  1.0 -0.2205451053
N  N36  1  0.34320000  0.87770000  0.31790000  1.0 -0.2205451053
N  N37  1  0.23280000  0.48690000  0.74310000  1.0 -0.279393005
N  N38  1  0.76720000  0.98690000  0.75690000  1.0 -0.279393005
N  N39  1  0.76720000  0.51310000  0.25690000  1.0 -0.279393005
N  N40  1  0.23280000  0.01310000  0.24310000  1.0 -0.279393005
N  N41  1  0.17610000  0.68990000  0.69500000  1.0 -0.2370870172
N  N42  1  0.82390000  0.18990000  0.80500000  1.0 -0.2370870172
N  N43  1  0.82390000  0.31010000  0.30500000  1.0 -0.2370870172
N  N44  1  0.17610000  0.81010000  0.19500000  1.0 -0.2370870172
N  N45  1  0.29750000  0.87860000  0.22260000  1.0 -0.372981372
N  N46  1  0.70250000  0.37860000  0.27740000  1.0 -0.372981372
N  N47  1  0.70250000  0.12140000  0.77740000  1.0 -0.372981372
N  N48  1  0.29750000  0.62140000  0.72260000  1.0 -0.372981372
N  N49  1  0.07590000  0.93800000  0.84480000  1.0 -0.2205451053
N  N50  1  0.92410000  0.43800000  0.65520000  1.0 -0.2205451053
N  N51  1  0.92410000  0.06200000  0.15520000  1.0 -0.2205451053
N  N52  1  0.07590000  0.56200000  0.34480000  1.0 -0.2205451053
N  N53  1  0.99410000  0.80630000  0.79300000  1.0 -0.2026878972
N  N54  1  0.00590000  0.30630000  0.70700000  1.0 -0.2026878972
N  N55  1  0.00590000  0.19370000  0.20700000  1.0 -0.2026878972
N  N56  1  0.99410000  0.69370000  0.29300000  1.0 -0.2026878972
N  N57  1  0.03090000  0.84440000  0.72910000  1.0 -0.279393005
N  N58  1  0.96910000  0.34440000  0.77090000  1.0 -0.279393005
N  N59  1  0.96910000  0.15560000  0.27090000  1.0 -0.279393005
N  N60  1  0.03090000  0.65560000  0.22910000  1.0 -0.279393005
N  N61  1  0.13120000  0.98110000  0.81010000  1.0 -0.2458937002
N  N62  1  0.86880000  0.48110000  0.68990000  1.0 -0.2458937002
N  N63  1  0.86880000  0.01890000  0.18990000  1.0 -0.2458937002
N  N64  1  0.13120000  0.51890000  0.31010000  1.0 -0.2458937002
N  N65  1  0.02000000  0.49250000  0.74710000  1.0 -0.3902751867
N  N66  1  0.98000000  0.99250000  0.75290000  1.0 -0.3902751867
N  N67  1  0.98000000  0.50750000  0.25290000  1.0 -0.3902751867
N  N68  1  0.02000000  0.00750000  0.24710000  1.0 -0.3902751867
N  N69  1  0.35380000  0.69860000  0.02230000  1.0 -0.2370870172
N  N70  1  0.64620000  0.19860000  0.47770000  1.0 -0.2458937002
N  N71  1  0.64620000  0.30140000  0.97770000  1.0 -0.2458937002
N  N72  1  0.35380000  0.80140000  0.52230000  1.0 -0.2458937002
N  N73  1  0.25870000  0.81020000  0.99480000  1.0 -0.2205451053
N  N74  1  0.74130000  0.31020000  0.50520000  1.0 -0.2205451053
N  N75  1  0.74130000  0.18980000  0.00520000  1.0 -0.2205451053
N  N76  1  0.25870000  0.68980000  0.49480000  1.0 -0.2205451053
N  N77  1  0.18430000  0.63140000  0.99420000  1.0 -0.279393005
N  N78  1  0.81570000  0.13140000  0.50580000  1.0 -0.279393005
N  N79  1  0.81570000  0.36860000  0.00580000  1.0 -0.279393005
N  N80  1  0.18430000  0.86860000  0.49420000  1.0 -0.279393005
N  N81  1  0.31270000  0.53170000  0.02260000  1.0 -0.2370870172
N  N82  1  0.68730000  0.03170000  0.47740000  1.0 -0.2370870172
N  N83  1  0.68730000  0.46830000  0.97740000  1.0 -0.2370870172
N  N84  1  0.31270000  0.96830000  0.52260000  1.0 -0.2370870172
N  N85  1  0.30700000  0.69820000  0.07440000  1.0 -0.3902751867
N  N86  1  0.69300000  0.19820000  0.42560000  1.0 -0.3902751867
N  N87  1  0.69300000  0.30180000  0.92560000  1.0 -0.3902751867
N  N88  1  0.30700000  0.80180000  0.57440000  1.0 -0.3902751867
N  N89  1  0.26880000  0.00010000  0.07010000  1.0 -0.3806101762
N  N90  1  0.73120000  0.50010000  0.42990000  1.0 -0.3806101762
N  N91  1  0.73120000  0.99990000  0.92990000  1.0 -0.3806101762
N  N92  1  0.26880000  0.49990000  0.57010000  1.0 -0.3806101762
N  N93  1  0.17030000  0.83150000  0.08720000  1.0 -0.3902751867
N  N94  1  0.82970000  0.33150000  0.41280000  1.0 -0.3902751867
N  N95  1  0.82970000  0.16850000  0.91280000  1.0 -0.3902751867
N  N96  1  0.17030000  0.66850000  0.58720000  1.0 -0.3902751867
N  N97  1  0.44770000  0.88040000  0.14410000  1.0 -0.3902751867
N  N98  1  0.55230000  0.38040000  0.35590000  1.0 -0.3902751867
N  N99  1  0.55230000  0.11960000  0.85590000  1.0 -0.3902751867
N  N100  1  0.44770000  0.61960000  0.64410000  1.0 -0.3902751867
N  N101  1  0.29390000  0.62820000  0.16920000  1.0 -0.3806101762
N  N102  1  0.70610000  0.12820000  0.33080000  1.0 -0.3806101762
N  N103  1  0.70610000  0.37180000  0.83080000  1.0 -0.3806101762
N  N104  1  0.29390000  0.87180000  0.66920000  1.0 -0.3806101762
N  N105  1  0.46850000  0.77170000  0.24720000  1.0 -0.3806101762
N  N106  1  0.53150000  0.27170000  0.25280000  1.0 -0.3806101762
N  N107  1  0.53150000  0.22830000  0.75280000  1.0 -0.3806101762
N  N108  1  0.46850000  0.72830000  0.74720000  1.0 -0.3806101762
N  N109  1  0.59040000  0.73830000  0.26200000  1.0 -0.2026878972
N  N110  1  0.40960000  0.23830000  0.23800000  1.0 -0.2026878972
N  N111  1  0.40960000  0.26170000  0.73800000  1.0 -0.2026878972
N  N112  1  0.59040000  0.76170000  0.76200000  1.0 -0.2026878972
N  N113  1  0.61170000  0.74700000  0.33800000  1.0 -0.1912377801
N  N114  1  0.38830000  0.24700000  0.16200000  1.0 -0.1912377801
N  N115  1  0.38830000  0.25300000  0.66200000  1.0 -0.1912377801
N  N116  1  0.61170000  0.75300000  0.83800000  1.0 -0.1912377801
N  N117  1  0.49780000  0.61680000  0.21560000  1.0 -0.2306234229
N  N118  1  0.50220000  0.11680000  0.28440000  1.0 -0.2306234229
N  N119  1  0.50220000  0.38320000  0.78440000  1.0 -0.2306234229
N  N120  1  0.49780000  0.88320000  0.71560000  1.0 -0.2306234229
N  N121  1  0.50470000  0.59110000  0.30110000  1.0 -0.2598170813
N  N122  1  0.49530000  0.09110000  0.19890000  1.0 -0.2598170813
N  N123  1  0.49530000  0.40890000  0.69890000  1.0 -0.2598170813
N  N124  1  0.50470000  0.90890000  0.80110000  1.0 -0.2598170813
N  N125  1  0.38950000  0.05290000  0.19800000  1.0 -0.372981372
N  N126  1  0.61050000  0.55290000  0.30200000  1.0 -0.372981372
N  N127  1  0.61050000  0.94710000  0.80200000  1.0 -0.372981372
N  N128  1  0.38950000  0.44710000  0.69800000  1.0 -0.372981372
