# DDEC6 charges by PACMAN v1.1 (https://github.com/mtap-research/PACMAN-charge/)
data_CIYPEI_ASR_pacman
_symmetry_space_group_name_H-M   'P 1'
_cell_length_a   24.36280000
_cell_length_b   24.36280000
_cell_length_c   24.36280000
_cell_angle_alpha   111.20500000
_cell_angle_beta   109.70900000
_cell_angle_gamma   107.52100000
_symmetry_Int_Tables_number   1
_chemical_formula_structural   Cd11H54(C47O20)2
_chemical_formula_sum   'Cd44 H216 C376 O160'
_cell_volume   11120.01865713
_cell_formula_units_Z   4
loop_
 _symmetry_equiv_pos_site_id
 _symmetry_equiv_pos_as_xyz
  1  'x, y, z'
loop_
 _atom_site_type_symbol
 _atom_site_label
 _atom_site_symmetry_multiplicity
 _atom_site_fract_x
 _atom_site_fract_y
 _atom_site_fract_z
 _atom_site_occupancy
 _atom_site_charge
Cd  Cd1  1  0.91691000  0.48745000  0.60496000  1.0 0.908420569
Cd  Cd2  1  0.80742000  0.40379000  0.38787000  1.0 0.9809051964
Cd  Cd3  1  0.87928000  0.38323000  0.27749000  1.0 1.0029344174
Cd  Cd4  1  0.68354000  0.81501000  0.38695000  1.0 0.7530236605
Cd  Cd5  1  0.67222000  0.45219000  0.33163000  1.0 0.7586166474
Cd  Cd6  1  0.38249000  0.31195000  0.89504000  1.0 0.908420569
Cd  Cd7  1  0.51592000  0.41955000  0.11213000  1.0 0.9809051964
Cd  Cd8  1  0.60574000  0.60179000  0.22251000  1.0 1.0029344174
Cd  Cd9  1  0.92806000  0.29659000  0.11305000  1.0 0.7530236605
Cd  Cd10  1  0.62056000  0.34059000  0.16837000  1.0 0.7586166474
Cd  Cd11  1  0.11751000  0.01255000  0.92946000  1.0 0.908420569
Cd  Cd12  1  0.98408000  0.09621000  0.90363000  1.0 0.9809051964
Cd  Cd13  1  0.89426000  0.11677000  0.99605000  1.0 1.0029344174
Cd  Cd14  1  0.57194000  0.68499000  0.36853000  1.0 0.7530236605
Cd  Cd15  1  0.87944000  0.04781000  0.72003000  1.0 0.7586166474
Cd  Cd16  1  0.58309000  0.18805000  0.57054000  1.0 0.908420569
Cd  Cd17  1  0.69258000  0.08045000  0.59637000  1.0 0.9809051964
Cd  Cd18  1  0.62072000  0.89821000  0.50395000  1.0 1.0029344174
Cd  Cd19  1  0.81646000  0.20341000  0.13147000  1.0 0.7530236605
Cd  Cd20  1  0.82778000  0.15941000  0.77997000  1.0 0.7586166474
Cd  Cd21  1  0.08309000  0.51255000  0.39504000  1.0 0.908420569
Cd  Cd22  1  0.19258000  0.59621000  0.61213000  1.0 0.9809051964
Cd  Cd23  1  0.12072000  0.61677000  0.72251000  1.0 1.0029344174
Cd  Cd24  1  0.31646000  0.18499000  0.61305000  1.0 0.7530236605
Cd  Cd25  1  0.32778000  0.54781000  0.66837000  1.0 0.7586166474
Cd  Cd26  1  0.61751000  0.68805000  0.10496000  1.0 0.908420569
Cd  Cd27  1  0.48408000  0.58045000  0.88787000  1.0 0.9809051964
Cd  Cd28  1  0.39426000  0.39821000  0.77749000  1.0 1.0029344174
Cd  Cd29  1  0.07194000  0.70341000  0.88695000  1.0 0.7530236605
Cd  Cd30  1  0.37944000  0.65941000  0.83163000  1.0 0.7586166474
Cd  Cd31  1  0.88249000  0.98745000  0.07054000  1.0 0.908420569
Cd  Cd32  1  0.01592000  0.90379000  0.09637000  1.0 0.9809051964
Cd  Cd33  1  0.10574000  0.88323000  0.00395000  1.0 1.0029344174
Cd  Cd34  1  0.42806000  0.31501000  0.63147000  1.0 0.7530236605
Cd  Cd35  1  0.12056000  0.95219000  0.27997000  1.0 0.7586166474
Cd  Cd36  1  0.41691000  0.81195000  0.42946000  1.0 0.908420569
Cd  Cd37  1  0.30742000  0.91955000  0.40363000  1.0 0.9809051964
Cd  Cd38  1  0.37928000  0.10179000  0.49605000  1.0 1.0029344174
Cd  Cd39  1  0.18354000  0.79659000  0.86853000  1.0 0.7530236605
Cd  Cd40  1  0.17222000  0.84059000  0.22003000  1.0 0.7586166474
Cd  Cd41  1  0.00000000  0.50000000  0.50000000  1.0 1.0968473169
Cd  Cd42  1  0.50000000  0.50000000  0.00000000  1.0 1.0968473169
Cd  Cd43  1  0.00000000  0.00000000  0.00000000  1.0 1.0968473169
Cd  Cd44  1  0.50000000  0.00000000  0.50000000  1.0 1.0968473169
H  H1  1  0.84420000  0.57850000  0.58590000  1.0 0.1104123868
H  H2  1  0.75370000  0.58550000  0.48900000  1.0 0.1002097291
H  H3  1  0.72620000  0.67350000  0.52730000  1.0 0.1104123868
H  H4  1  0.86740000  0.67080000  0.66880000  1.0 0.1002097291
H  H5  1  0.82560000  0.82170000  0.72230000  1.0 0.1104123868
H  H6  1  0.74410000  0.83000000  0.63770000  1.0 0.118627721
H  H7  1  0.69100000  0.73620000  0.50500000  1.0 0.1104123868
H  H8  1  0.93190000  0.75890000  0.78380000  1.0 0.1104123868
H  H9  1  0.91840000  0.87230000  0.82010000  1.0 0.1279974391
H  H10  1  0.89040000  0.28510000  0.40530000  1.0 0.1279974391
H  H11  1  0.85880000  0.26540000  0.49640000  1.0 0.1104123868
H  H12  1  0.88200000  0.18650000  0.35710000  1.0 0.1104123868
H  H13  1  0.81370000  0.15300000  0.47650000  1.0 0.1104123868
H  H14  1  0.80970000  0.00340000  0.33270000  1.0 0.1104123868
H  H15  1  0.76700000  0.97940000  0.39860000  1.0 0.1002097291
H  H16  1  0.76050000  0.07540000  0.49470000  1.0 0.1279974391
H  H17  1  0.77020000  0.67180000  0.27560000  1.0 0.118627721
H  H18  1  0.85000000  0.75560000  0.25180000  1.0 0.1104123868
H  H19  1  0.85240000  0.65260000  0.32640000  1.0 0.1104123868
H  H20  1  0.96490000  0.78950000  0.30140000  1.0 0.1104123868
H  H21  1  0.04850000  0.71550000  0.40560000  1.0 0.118627721
H  H22  1  0.11670000  0.79050000  0.38800000  1.0 0.118627721
H  H23  1  0.06790000  0.84360000  0.31650000  1.0 0.118627721
H  H24  1  0.98450000  0.64190000  0.43260000  1.0 0.118627721
H  H25  1  0.85640000  0.55680000  0.33180000  1.0 0.1393025729
H  H26  1  0.86470000  0.12710000  0.25020000  1.0 0.1002097291
H  H27  1  0.81500000  0.97480000  0.22860000  1.0 0.1002097291
H  H28  1  0.49260000  0.25830000  0.91410000  1.0 0.1104123868
H  H29  1  0.59650000  0.26470000  0.01100000  1.0 0.1002097291
H  H30  1  0.64620000  0.19890000  0.97270000  1.0 0.1104123868
H  H31  1  0.50200000  0.19860000  0.83120000  1.0 0.1002097291
H  H32  1  0.59940000  0.10330000  0.77770000  1.0 0.1104123868
H  H33  1  0.69230000  0.10640000  0.86230000  1.0 0.118627721
H  H34  1  0.73120000  0.18600000  0.99500000  1.0 0.1104123868
H  H35  1  0.47510000  0.14810000  0.71620000  1.0 0.1104123868
H  H36  1  0.55220000  0.09830000  0.67990000  1.0 0.1279974391
H  H37  1  0.37980000  0.48510000  0.09470000  1.0 0.1279974391
H  H38  1  0.26900000  0.36240000  0.00360000  1.0 0.1104123868
H  H39  1  0.32940000  0.52490000  0.14290000  1.0 0.1104123868
H  H40  1  0.17650000  0.33720000  0.02350000  1.0 0.1104123868
H  H41  1  0.17070000  0.47700000  0.16730000  1.0 0.1104123868
H  H42  1  0.08080000  0.36840000  0.10140000  1.0 0.1002097291
H  H43  1  0.08070000  0.26580000  0.00530000  1.0 0.1279974391
H  H44  1  0.89620000  0.49460000  0.22440000  1.0 0.118627721
H  H45  1  0.00380000  0.59820000  0.24820000  1.0 0.1104123868
H  H46  1  0.82620000  0.52600000  0.17360000  1.0 0.1104123868
H  H47  1  0.98810000  0.66350000  0.19860000  1.0 0.1104123868
H  H48  1  0.80990000  0.64290000  0.09440000  1.0 0.118627721
H  H49  1  0.90250000  0.72870000  0.11200000  1.0 0.118627721
H  H50  1  0.02710000  0.75140000  0.18350000  1.0 0.118627721
H  H51  1  0.70930000  0.55190000  0.06740000  1.0 0.118627721
H  H52  1  0.72500000  0.52460000  0.16820000  1.0 0.1393025729
H  H53  1  0.37690000  0.61450000  0.24980000  1.0 0.1002097291
H  H54  1  0.24620000  0.58640000  0.27140000  1.0 0.1002097291
H  H55  1  0.00740000  0.92150000  0.76570000  1.0 0.1104123868
H  H56  1  0.90350000  0.91450000  0.66820000  1.0 0.1002097291
H  H57  1  0.85380000  0.82650000  0.55270000  1.0 0.1104123868
H  H58  1  0.99800000  0.82920000  0.69660000  1.0 0.1002097291
H  H59  1  0.90060000  0.67830000  0.50390000  1.0 0.1104123868
H  H60  1  0.80770000  0.67000000  0.41410000  1.0 0.118627721
H  H61  1  0.76880000  0.76380000  0.45480000  1.0 0.1104123868
H  H62  1  0.02490000  0.74110000  0.67300000  1.0 0.1104123868
H  H63  1  0.94780000  0.62770000  0.54610000  1.0 0.1279974391
H  H64  1  0.12020000  0.21490000  0.10530000  1.0 0.1279974391
H  H65  1  0.23100000  0.23460000  0.09340000  1.0 0.1104123868
H  H66  1  0.17060000  0.31350000  0.19550000  1.0 0.1104123868
H  H67  1  0.32350000  0.34700000  0.16070000  1.0 0.1104123868
H  H68  1  0.32930000  0.49660000  0.30630000  1.0 0.1104123868
H  H69  1  0.41920000  0.52060000  0.28760000  1.0 0.1002097291
H  H70  1  0.41930000  0.42460000  0.18510000  1.0 0.1279974391
H  H71  1  0.60380000  0.82820000  0.59840000  1.0 0.118627721
H  H72  1  0.49620000  0.74440000  0.59440000  1.0 0.1104123868
H  H73  1  0.67380000  0.84740000  0.69980000  1.0 0.1104123868
H  H74  1  0.51190000  0.71050000  0.67540000  1.0 0.1104123868
H  H75  1  0.69010000  0.78450000  0.83300000  1.0 0.118627721
H  H76  1  0.59750000  0.70950000  0.82620000  1.0 0.118627721
H  H77  1  0.47290000  0.65640000  0.72430000  1.0 0.118627721
H  H78  1  0.79070000  0.85810000  0.84260000  1.0 0.118627721
H  H79  1  0.77500000  0.94320000  0.79960000  1.0 0.1393025729
H  H80  1  0.12310000  0.37290000  0.23760000  1.0 0.1002097291
H  H81  1  0.25380000  0.52520000  0.34020000  1.0 0.1002097291
H  H82  1  0.65580000  0.24170000  0.73430000  1.0 0.1104123868
H  H83  1  0.74630000  0.23530000  0.83180000  1.0 0.1002097291
H  H84  1  0.77380000  0.30110000  0.94730000  1.0 0.1104123868
H  H85  1  0.63260000  0.30140000  0.80340000  1.0 0.1002097291
H  H86  1  0.67440000  0.39670000  0.99610000  1.0 0.1104123868
H  H87  1  0.75590000  0.39360000  0.08590000  1.0 0.118627721
H  H88  1  0.80900000  0.31400000  0.04520000  1.0 0.1104123868
H  H89  1  0.56810000  0.35190000  0.82700000  1.0 0.1104123868
H  H90  1  0.58160000  0.40170000  0.95390000  1.0 0.1279974391
H  H91  1  0.60960000  0.01490000  0.39470000  1.0 0.1279974391
H  H92  1  0.64120000  0.13760000  0.40660000  1.0 0.1104123868
H  H93  1  0.61800000  0.97510000  0.30450000  1.0 0.1104123868
H  H94  1  0.68630000  0.16280000  0.33930000  1.0 0.1104123868
H  H95  1  0.69030000  0.02300000  0.19370000  1.0 0.1104123868
H  H96  1  0.73300000  0.13160000  0.21240000  1.0 0.1002097291
H  H97  1  0.73950000  0.23420000  0.31490000  1.0 0.1279974391
H  H98  1  0.72980000  0.00540000  0.90160000  1.0 0.118627721
H  H99  1  0.65000000  0.90180000  0.90560000  1.0 0.1104123868
H  H100  1  0.64760000  0.97400000  0.80020000  1.0 0.1104123868
H  H101  1  0.53510000  0.83650000  0.82460000  1.0 0.1104123868
H  H102  1  0.45150000  0.85710000  0.66700000  1.0 0.118627721
H  H103  1  0.38330000  0.77130000  0.67380000  1.0 0.118627721
H  H104  1  0.43210000  0.74860000  0.77570000  1.0 0.118627721
H  H105  1  0.51550000  0.94810000  0.65740000  1.0 0.118627721
H  H106  1  0.64360000  0.97540000  0.70040000  1.0 0.1393025729
H  H107  1  0.63530000  0.88550000  0.26240000  1.0 0.1002097291
H  H108  1  0.68500000  0.91360000  0.15980000  1.0 0.1002097291
H  H109  1  0.15580000  0.42150000  0.41410000  1.0 0.1104123868
H  H110  1  0.24630000  0.41450000  0.51100000  1.0 0.1002097291
H  H111  1  0.27380000  0.32650000  0.47270000  1.0 0.1104123868
H  H112  1  0.13260000  0.32920000  0.33120000  1.0 0.1002097291
H  H113  1  0.17440000  0.17830000  0.27770000  1.0 0.1104123868
H  H114  1  0.25590000  0.17000000  0.36230000  1.0 0.118627721
H  H115  1  0.30900000  0.26380000  0.49500000  1.0 0.1104123868
H  H116  1  0.06810000  0.24110000  0.21620000  1.0 0.1104123868
H  H117  1  0.08160000  0.12770000  0.17990000  1.0 0.1279974391
H  H118  1  0.10960000  0.71490000  0.59470000  1.0 0.1279974391
H  H119  1  0.14120000  0.73460000  0.50360000  1.0 0.1104123868
H  H120  1  0.11800000  0.81350000  0.64290000  1.0 0.1104123868
H  H121  1  0.18630000  0.84700000  0.52350000  1.0 0.1104123868
H  H122  1  0.19030000  0.99660000  0.66730000  1.0 0.1104123868
H  H123  1  0.23300000  0.02060000  0.60140000  1.0 0.1002097291
H  H124  1  0.23950000  0.92460000  0.50530000  1.0 0.1279974391
H  H125  1  0.22980000  0.32820000  0.72440000  1.0 0.118627721
H  H126  1  0.15000000  0.24440000  0.74820000  1.0 0.1104123868
H  H127  1  0.14760000  0.34740000  0.67360000  1.0 0.1104123868
H  H128  1  0.03510000  0.21050000  0.69860000  1.0 0.1104123868
H  H129  1  0.95150000  0.28450000  0.59440000  1.0 0.118627721
H  H130  1  0.88330000  0.20950000  0.61200000  1.0 0.118627721
H  H131  1  0.93210000  0.15640000  0.68350000  1.0 0.118627721
H  H132  1  0.01550000  0.35810000  0.56740000  1.0 0.118627721
H  H133  1  0.14360000  0.44320000  0.66820000  1.0 0.1393025729
H  H134  1  0.13530000  0.87290000  0.74980000  1.0 0.1002097291
H  H135  1  0.18500000  0.02520000  0.77140000  1.0 0.1002097291
H  H136  1  0.50740000  0.74170000  0.08590000  1.0 0.1104123868
H  H137  1  0.40350000  0.73530000  0.98900000  1.0 0.1002097291
H  H138  1  0.35380000  0.80110000  0.02730000  1.0 0.1104123868
H  H139  1  0.49800000  0.80140000  0.16880000  1.0 0.1002097291
H  H140  1  0.40060000  0.89670000  0.22230000  1.0 0.1104123868
H  H141  1  0.30770000  0.89360000  0.13770000  1.0 0.118627721
H  H142  1  0.26880000  0.81400000  0.00500000  1.0 0.1104123868
H  H143  1  0.52490000  0.85190000  0.28380000  1.0 0.1104123868
H  H144  1  0.44780000  0.90170000  0.32010000  1.0 0.1279974391
H  H145  1  0.62020000  0.51490000  0.90530000  1.0 0.1279974391
H  H146  1  0.73100000  0.63760000  0.99640000  1.0 0.1104123868
H  H147  1  0.67060000  0.47510000  0.85710000  1.0 0.1104123868
H  H148  1  0.82350000  0.66280000  0.97650000  1.0 0.1104123868
H  H149  1  0.82930000  0.52300000  0.83270000  1.0 0.1104123868
H  H150  1  0.91920000  0.63160000  0.89860000  1.0 0.1002097291
H  H151  1  0.91930000  0.73420000  0.99470000  1.0 0.1279974391
H  H152  1  0.10380000  0.50540000  0.77560000  1.0 0.118627721
H  H153  1  0.99620000  0.40180000  0.75180000  1.0 0.1104123868
H  H154  1  0.17380000  0.47400000  0.82640000  1.0 0.1104123868
H  H155  1  0.01190000  0.33650000  0.80140000  1.0 0.1104123868
H  H156  1  0.19010000  0.35710000  0.90560000  1.0 0.118627721
H  H157  1  0.09750000  0.27130000  0.88800000  1.0 0.118627721
H  H158  1  0.97290000  0.24860000  0.81650000  1.0 0.118627721
H  H159  1  0.29070000  0.44810000  0.93260000  1.0 0.118627721
H  H160  1  0.27500000  0.47540000  0.83180000  1.0 0.1393025729
H  H161  1  0.62310000  0.38550000  0.75020000  1.0 0.1002097291
H  H162  1  0.75380000  0.41360000  0.72860000  1.0 0.1002097291
H  H163  1  0.99260000  0.07850000  0.23430000  1.0 0.1104123868
H  H164  1  0.09650000  0.08550000  0.33180000  1.0 0.1002097291
H  H165  1  0.14620000  0.17350000  0.44730000  1.0 0.1104123868
H  H166  1  0.00200000  0.17080000  0.30340000  1.0 0.1002097291
H  H167  1  0.09940000  0.32170000  0.49610000  1.0 0.1104123868
H  H168  1  0.19230000  0.33000000  0.58590000  1.0 0.118627721
H  H169  1  0.23120000  0.23620000  0.54520000  1.0 0.1104123868
H  H170  1  0.97510000  0.25890000  0.32700000  1.0 0.1104123868
H  H171  1  0.05220000  0.37230000  0.45390000  1.0 0.1279974391
H  H172  1  0.87980000  0.78510000  0.89470000  1.0 0.1279974391
H  H173  1  0.76900000  0.76540000  0.90660000  1.0 0.1104123868
H  H174  1  0.82940000  0.68650000  0.80450000  1.0 0.1104123868
H  H175  1  0.67650000  0.65300000  0.83930000  1.0 0.1104123868
H  H176  1  0.67070000  0.50340000  0.69370000  1.0 0.1104123868
H  H177  1  0.58080000  0.47940000  0.71240000  1.0 0.1002097291
H  H178  1  0.58070000  0.57540000  0.81490000  1.0 0.1279974391
H  H179  1  0.39620000  0.17180000  0.40160000  1.0 0.118627721
H  H180  1  0.50380000  0.25560000  0.40560000  1.0 0.1104123868
H  H181  1  0.32620000  0.15260000  0.30020000  1.0 0.1104123868
H  H182  1  0.48810000  0.28950000  0.32460000  1.0 0.1104123868
H  H183  1  0.30990000  0.21550000  0.16700000  1.0 0.118627721
H  H184  1  0.40250000  0.29050000  0.17380000  1.0 0.118627721
H  H185  1  0.52710000  0.34360000  0.27570000  1.0 0.118627721
H  H186  1  0.20930000  0.14190000  0.15740000  1.0 0.118627721
H  H187  1  0.22500000  0.05680000  0.20040000  1.0 0.1393025729
H  H188  1  0.87690000  0.62710000  0.76240000  1.0 0.1002097291
H  H189  1  0.74620000  0.47480000  0.65980000  1.0 0.1002097291
H  H190  1  0.34420000  0.75830000  0.26570000  1.0 0.1104123868
H  H191  1  0.25370000  0.76470000  0.16820000  1.0 0.1002097291
H  H192  1  0.22620000  0.69890000  0.05270000  1.0 0.1104123868
H  H193  1  0.36740000  0.69860000  0.19660000  1.0 0.1002097291
H  H194  1  0.32560000  0.60330000  0.00390000  1.0 0.1104123868
H  H195  1  0.24410000  0.60640000  0.91410000  1.0 0.118627721
H  H196  1  0.19100000  0.68600000  0.95480000  1.0 0.1104123868
H  H197  1  0.43190000  0.64810000  0.17300000  1.0 0.1104123868
H  H198  1  0.41840000  0.59830000  0.04610000  1.0 0.1279974391
H  H199  1  0.39040000  0.98510000  0.60530000  1.0 0.1279974391
H  H200  1  0.35880000  0.86240000  0.59340000  1.0 0.1104123868
H  H201  1  0.38200000  0.02490000  0.69550000  1.0 0.1104123868
H  H202  1  0.31370000  0.83720000  0.66070000  1.0 0.1104123868
H  H203  1  0.30970000  0.97700000  0.80630000  1.0 0.1104123868
H  H204  1  0.26700000  0.86840000  0.78760000  1.0 0.1002097291
H  H205  1  0.26050000  0.76580000  0.68510000  1.0 0.1279974391
H  H206  1  0.27020000  0.99460000  0.09840000  1.0 0.118627721
H  H207  1  0.35000000  0.09820000  0.09440000  1.0 0.1104123868
H  H208  1  0.35240000  0.02600000  0.19980000  1.0 0.1104123868
H  H209  1  0.46490000  0.16350000  0.17540000  1.0 0.1104123868
H  H210  1  0.54850000  0.14290000  0.33300000  1.0 0.118627721
H  H211  1  0.61670000  0.22870000  0.32620000  1.0 0.118627721
H  H212  1  0.56790000  0.25140000  0.22430000  1.0 0.118627721
H  H213  1  0.48450000  0.05190000  0.34260000  1.0 0.118627721
H  H214  1  0.35640000  0.02460000  0.29960000  1.0 0.1393025729
H  H215  1  0.36470000  0.11450000  0.73760000  1.0 0.1002097291
H  H216  1  0.31500000  0.08640000  0.84020000  1.0 0.1002097291
C  C1  1  0.81020000  0.50910000  0.48670000  1.0 0.6121010843
C  C2  1  0.81620000  0.56590000  0.54150000  1.0 -0.2850464371
C  C3  1  0.78510000  0.60110000  0.53340000  1.0 -0.1134203461
C  C4  1  0.79520000  0.66210000  0.58750000  1.0 0.118627721
C  C5  1  0.75930000  0.69340000  0.57210000  1.0 -0.2009310734
C  C6  1  0.84354000  0.69190000  0.65664000  1.0 -0.2086787922
C  C7  1  0.85550000  0.75199000  0.70629000  1.0 0.118627721
C  C8  1  0.77060000  0.75370000  0.62110000  1.0 0.1104123868
C  C9  1  0.81850000  0.78210000  0.68880000  1.0 -0.2009310734
C  C10  1  0.73780000  0.79210000  0.60250000  1.0 -0.0985172812
C  C11  1  0.70120000  0.77610000  0.54090000  1.0 -0.2605156705
C  C12  1  0.67450000  0.81950000  0.52540000  1.0 0.5851766679
C  C13  1  0.91269000  0.78470000  0.77499000  1.0 -0.1198689661
C  C14  1  0.93960000  0.84700000  0.82520000  1.0 -0.239828198
C  C15  1  0.00230000  0.87760000  0.88930000  1.0 0.6224313478
C  C16  1  0.89550000  0.36660000  0.48010000  1.0 0.6224313478
C  C17  1  0.88370000  0.29720000  0.44230000  1.0 -0.239828198
C  C18  1  0.86400000  0.25180000  0.45840000  1.0 -0.1198689661
C  C19  1  0.84980000  0.18200000  0.42240000  1.0 0.118627721
C  C20  1  0.86240000  0.15740000  0.36940000  1.0 -0.2086787922
C  C21  1  0.82170000  0.13720000  0.44070000  1.0 -0.2009310734
C  C22  1  0.80570000  0.07050000  0.40720000  1.0 0.1279974391
C  C23  1  0.81920000  0.04800000  0.35480000  1.0 -0.2086787922
C  C24  1  0.84650000  0.09030000  0.33460000  1.0 0.0667692346
C  C25  1  0.77350000  0.02250000  0.42280000  1.0 -0.1198689661
C  C26  1  0.75200000  0.03210000  0.46730000  1.0 -0.2693989028
C  C27  1  0.71540000  0.97790000  0.47550000  1.0 0.6325705002
C  C28  1  0.85370000  0.06500000  0.27430000  1.0 -0.0575755479
C  C29  1  0.72590000  0.70060000  0.20970000  1.0 0.6045485947
C  C30  1  0.77980000  0.69670000  0.25570000  1.0 -0.2605156705
C  C31  1  0.84190000  0.72790000  0.26940000  1.0 -0.0985172812
C  C32  1  0.89960000  0.72350000  0.30930000  1.0 0.118627721
C  C33  1  0.89360000  0.67940000  0.33380000  1.0 -0.2086787922
C  C34  1  0.96110000  0.76140000  0.31910000  1.0 -0.2086787922
C  C35  1  0.01690000  0.75850000  0.35460000  1.0 0.1104123868
C  C36  1  0.94874000  0.67584000  0.36910000  1.0 0.1104123868
C  C37  1  0.01090000  0.71670000  0.38040000  1.0 -0.2086787922
C  C38  1  0.08260000  0.79580000  0.36260000  1.0 -0.0847509534
C  C39  1  0.09920000  0.83420000  0.34000000  1.0 -0.239828198
C  C40  1  0.17080000  0.86520000  0.35080000  1.0 0.5838921282
C  C41  1  0.94638000  0.62808000  0.39370000  1.0 -0.0909115479
C  C42  1  0.89730000  0.56990000  0.36720000  1.0 -0.239828198
C  C43  1  0.90354000  0.52284000  0.39090000  1.0 0.6325705002
C  C44  1  0.86200000  0.08550000  0.24050000  1.0 -0.0909115479
C  C45  1  0.86850000  0.04740000  0.18090000  1.0 0.2375182703
C  C46  1  0.83890000  0.01300000  0.22930000  1.0 -0.0909115479
C  C47  1  0.85500000  0.00260000  0.17340000  1.0 0.2456891748
C  C48  1  0.52240000  0.32350000  0.01330000  1.0 0.6121010843
C  C49  1  0.52440000  0.27470000  0.95850000  1.0 -0.2850464371
C  C50  1  0.56770000  0.25170000  0.96660000  1.0 -0.1134203461
C  C51  1  0.57460000  0.20770000  0.91250000  1.0 0.118627721
C  C52  1  0.62130000  0.18720000  0.92790000  1.0 -0.2009310734
C  C53  1  0.53526000  0.18690000  0.84336000  1.0 -0.2086787922
C  C54  1  0.54570000  0.14921000  0.79371000  1.0 0.118627721
C  C55  1  0.63260000  0.14950000  0.87890000  1.0 0.1104123868
C  C56  1  0.59330000  0.12970000  0.81120000  1.0 -0.2009310734
C  C57  1  0.68960000  0.13530000  0.89750000  1.0 -0.0985172812
C  C58  1  0.73520000  0.16030000  0.95910000  1.0 -0.2605156705
C  C59  1  0.79410000  0.14910000  0.97460000  1.0 0.5851766679
C  C60  1  0.50971000  0.13770000  0.72501000  1.0 -0.1198689661
C  C61  1  0.52180000  0.11440000  0.67480000  1.0 -0.239828198
C  C62  1  0.48830000  0.11300000  0.61070000  1.0 0.6224313478
C  C63  1  0.38650000  0.41540000  0.01990000  1.0 0.6224313478
C  C64  1  0.35490000  0.44140000  0.05770000  1.0 -0.239828198
C  C65  1  0.29340000  0.40560000  0.04160000  1.0 -0.1198689661
C  C66  1  0.25960000  0.42740000  0.07760000  1.0 0.118627721
C  C67  1  0.28800000  0.49300000  0.13060000  1.0 -0.2086787922
C  C68  1  0.19650000  0.38100000  0.05930000  1.0 -0.2009310734
C  C69  1  0.16330000  0.39850000  0.09280000  1.0 0.1279974391
C  C70  1  0.19320000  0.46440000  0.14520000  1.0 -0.2086787922
C  C71  1  0.25570000  0.51190000  0.16540000  1.0 0.0667692346
C  C72  1  0.09970000  0.35070000  0.07720000  1.0 -0.1198689661
C  C73  1  0.06480000  0.28470000  0.03270000  1.0 -0.2693989028
C  C74  1  0.00240000  0.23990000  0.02450000  1.0 0.6325705002
C  C75  1  0.29070000  0.57940000  0.22570000  1.0 -0.0575755479
C  C76  1  0.99090000  0.51620000  0.29030000  1.0 0.6045485947
C  C77  1  0.94100000  0.52410000  0.24430000  1.0 -0.2605156705
C  C78  1  0.95850000  0.57250000  0.23060000  1.0 -0.0985172812
C  C79  1  0.91420000  0.59030000  0.19070000  1.0 0.118627721
C  C80  1  0.84560000  0.55980000  0.16620000  1.0 -0.2086787922
C  C81  1  0.94230000  0.64200000  0.18090000  1.0 -0.2086787922
C  C82  1  0.90390000  0.66230000  0.14540000  1.0 0.1104123868
C  C83  1  0.80674000  0.57964000  0.13090000  1.0 0.1104123868
C  C84  1  0.83630000  0.63050000  0.11960000  1.0 -0.2086787922
C  C85  1  0.93320000  0.72000000  0.13740000  1.0 -0.0847509534
C  C86  1  0.99420000  0.75920000  0.16000000  1.0 -0.239828198
C  C87  1  0.01440000  0.82000000  0.14920000  1.0 0.5838921282
C  C88  1  0.73438000  0.55268000  0.10630000  1.0 -0.0909115479
C  C89  1  0.70270000  0.53010000  0.13280000  1.0 -0.239828198
C  C90  1  0.63194000  0.51264000  0.10910000  1.0 0.6325705002
C  C91  1  0.34500000  0.62150000  0.25950000  1.0 -0.0909115479
C  C92  1  0.36650000  0.68760000  0.31910000  1.0 0.2375182703
C  C93  1  0.28370000  0.60960000  0.27070000  1.0 -0.0909115479
C  C94  1  0.32920000  0.68160000  0.32660000  1.0 0.2456891748
C  C95  1  0.97760000  0.99090000  0.80110000  1.0 0.6121010843
C  C96  1  0.97560000  0.93410000  0.75030000  1.0 -0.2850464371
C  C97  1  0.93230000  0.89890000  0.68400000  1.0 -0.1134203461
C  C98  1  0.92540000  0.83790000  0.63310000  1.0 0.118627721
C  C99  1  0.87870000  0.80660000  0.56590000  1.0 -0.2009310734
C  C100  1  0.96474000  0.80810000  0.65164000  1.0 -0.2086787922
C  C101  1  0.95430000  0.74801000  0.60351000  1.0 0.118627721
C  C102  1  0.86740000  0.74630000  0.51690000  1.0 0.1104123868
C  C103  1  0.90670000  0.71790000  0.53640000  1.0 -0.2009310734
C  C104  1  0.81040000  0.70790000  0.44570000  1.0 -0.0985172812
C  C105  1  0.76480000  0.72390000  0.42510000  1.0 -0.2605156705
C  C106  1  0.70590000  0.68050000  0.35500000  1.0 0.5851766679
C  C107  1  0.99029000  0.71530000  0.62799000  1.0 -0.1198689661
C  C108  1  0.97820000  0.65300000  0.59260000  1.0 -0.239828198
C  C109  1  0.01170000  0.62240000  0.62470000  1.0 0.6224313478
C  C110  1  0.11350000  0.13340000  0.02890000  1.0 0.6224313478
C  C111  1  0.14510000  0.20280000  0.08650000  1.0 -0.239828198
C  C112  1  0.20660000  0.24820000  0.11220000  1.0 -0.1198689661
C  C113  1  0.24040000  0.31800000  0.16780000  1.0 0.118627721
C  C114  1  0.21200000  0.34260000  0.20500000  1.0 -0.2086787922
C  C115  1  0.30350000  0.36280000  0.18450000  1.0 -0.2009310734
C  C116  1  0.33670000  0.42950000  0.23520000  1.0 0.1279974391
C  C117  1  0.30680000  0.45200000  0.27120000  1.0 -0.2086787922
C  C118  1  0.24430000  0.40970000  0.25620000  1.0 0.0667692346
C  C119  1  0.40030000  0.47750000  0.25100000  1.0 -0.1198689661
C  C120  1  0.43520000  0.46790000  0.21990000  1.0 -0.2693989028
C  C121  1  0.49760000  0.52210000  0.23750000  1.0 0.6325705002
C  C122  1  0.20930000  0.43500000  0.28870000  1.0 -0.0575755479
C  C123  1  0.50910000  0.79940000  0.52530000  1.0 0.6045485947
C  C124  1  0.55900000  0.80330000  0.58310000  1.0 -0.2605156705
C  C125  1  0.54150000  0.77210000  0.61400000  1.0 -0.0985172812
C  C126  1  0.58580000  0.77650000  0.67610000  1.0 0.118627721
C  C127  1  0.65440000  0.82060000  0.71420000  1.0 -0.2086787922
C  C128  1  0.55770000  0.73860000  0.69970000  1.0 -0.2086787922
C  C129  1  0.59610000  0.74150000  0.75840000  1.0 0.1104123868
C  C130  1  0.69326000  0.82416000  0.77290000  1.0 0.1104123868
C  C131  1  0.66370000  0.78330000  0.79420000  1.0 -0.2086787922
C  C132  1  0.56680000  0.70420000  0.78680000  1.0 -0.0847509534
C  C133  1  0.50580000  0.66580000  0.76500000  1.0 -0.239828198
C  C134  1  0.48560000  0.63480000  0.80560000  1.0 0.5838921282
C  C135  1  0.76562000  0.87192000  0.81830000  1.0 -0.0909115479
C  C136  1  0.79730000  0.93010000  0.82740000  1.0 -0.239828198
C  C137  1  0.86806000  0.97716000  0.88070000  1.0 0.6325705002
C  C138  1  0.15500000  0.41450000  0.27650000  1.0 -0.0909115479
C  C139  1  0.13350000  0.45260000  0.32110000  1.0 0.2375182703
C  C140  1  0.21630000  0.48700000  0.32590000  1.0 -0.0909115479
C  C141  1  0.17080000  0.49740000  0.35240000  1.0 0.2456891748
C  C142  1  0.68980000  0.17650000  0.69890000  1.0 0.6121010843
C  C143  1  0.68380000  0.22530000  0.74970000  1.0 -0.2850464371
C  C144  1  0.71490000  0.24830000  0.81600000  1.0 -0.1134203461
C  C145  1  0.70480000  0.29230000  0.86690000  1.0 0.118627721
C  C146  1  0.74070000  0.31280000  0.93410000  1.0 -0.2009310734
C  C147  1  0.65646000  0.31310000  0.84836000  1.0 -0.2086787922
C  C148  1  0.64450000  0.35079000  0.89649000  1.0 0.118627721
C  C149  1  0.72940000  0.35050000  0.98310000  1.0 0.1104123868
C  C150  1  0.68150000  0.37030000  0.96360000  1.0 -0.2009310734
C  C151  1  0.76220000  0.36470000  0.05430000  1.0 -0.0985172812
C  C152  1  0.79880000  0.33970000  0.07490000  1.0 -0.2605156705
C  C153  1  0.82550000  0.35090000  0.14500000  1.0 0.5851766679
C  C154  1  0.58731000  0.36230000  0.87201000  1.0 -0.1198689661
C  C155  1  0.56040000  0.38560000  0.90740000  1.0 -0.239828198
C  C156  1  0.49770000  0.38700000  0.87530000  1.0 0.6224313478
C  C157  1  0.60450000  0.08460000  0.47110000  1.0 0.6224313478
C  C158  1  0.61630000  0.05860000  0.41350000  1.0 -0.239828198
C  C159  1  0.63600000  0.09440000  0.38780000  1.0 -0.1198689661
C  C160  1  0.65020000  0.07260000  0.33220000  1.0 0.118627721
C  C161  1  0.63760000  0.00700000  0.29500000  1.0 -0.2086787922
C  C162  1  0.67830000  0.11900000  0.31550000  1.0 -0.2009310734
C  C163  1  0.69430000  0.10150000  0.26480000  1.0 0.1279974391
C  C164  1  0.68080000  0.03560000  0.22880000  1.0 -0.2086787922
C  C165  1  0.65350000  0.98810000  0.24380000  1.0 0.0667692346
C  C166  1  0.72650000  0.14930000  0.24900000  1.0 -0.1198689661
C  C167  1  0.74800000  0.21530000  0.28010000  1.0 -0.2693989028
C  C168  1  0.78460000  0.26010000  0.26250000  1.0 0.6325705002
C  C169  1  0.64630000  0.92060000  0.21130000  1.0 -0.0575755479
C  C170  1  0.77410000  0.98380000  0.97470000  1.0 0.6045485947
C  C171  1  0.72020000  0.97590000  0.91690000  1.0 -0.2605156705
C  C172  1  0.65810000  0.92750000  0.88600000  1.0 -0.0985172812
C  C173  1  0.60040000  0.90970000  0.82390000  1.0 0.118627721
C  C174  1  0.60640000  0.94020000  0.78580000  1.0 -0.2086787922
C  C175  1  0.53890000  0.85800000  0.80030000  1.0 -0.2086787922
C  C176  1  0.48310000  0.83770000  0.74160000  1.0 0.1104123868
C  C177  1  0.55126000  0.92036000  0.72710000  1.0 0.1104123868
C  C178  1  0.48910000  0.86950000  0.70580000  1.0 -0.2086787922
C  C179  1  0.41740000  0.78000000  0.71320000  1.0 -0.0847509534
C  C180  1  0.40080000  0.74080000  0.73500000  1.0 -0.239828198
C  C181  1  0.32920000  0.68000000  0.69440000  1.0 0.5838921282
C  C182  1  0.55362000  0.94732000  0.68170000  1.0 -0.0909115479
C  C183  1  0.60270000  0.96990000  0.67260000  1.0 -0.239828198
C  C184  1  0.59646000  0.98736000  0.61930000  1.0 0.6325705002
C  C185  1  0.63800000  0.87850000  0.22350000  1.0 -0.0909115479
C  C186  1  0.63150000  0.81240000  0.17890000  1.0 0.2375182703
C  C187  1  0.66110000  0.89040000  0.17410000  1.0 -0.0909115479
C  C188  1  0.64500000  0.81840000  0.14760000  1.0 0.2456891748
C  C189  1  0.18980000  0.49090000  0.51330000  1.0 0.6121010843
C  C190  1  0.18380000  0.43410000  0.45850000  1.0 -0.2850464371
C  C191  1  0.21490000  0.39890000  0.46660000  1.0 -0.1134203461
C  C192  1  0.20480000  0.33790000  0.41250000  1.0 0.118627721
C  C193  1  0.24070000  0.30660000  0.42790000  1.0 -0.2009310734
C  C194  1  0.15646000  0.30810000  0.34336000  1.0 -0.2086787922
C  C195  1  0.14450000  0.24801000  0.29371000  1.0 0.118627721
C  C196  1  0.22940000  0.24630000  0.37890000  1.0 0.1104123868
C  C197  1  0.18150000  0.21790000  0.31120000  1.0 -0.2009310734
C  C198  1  0.26220000  0.20790000  0.39750000  1.0 -0.0985172812
C  C199  1  0.29880000  0.22390000  0.45910000  1.0 -0.2605156705
C  C200  1  0.32550000  0.18050000  0.47460000  1.0 0.5851766679
C  C201  1  0.08731000  0.21530000  0.22501000  1.0 -0.1198689661
C  C202  1  0.06040000  0.15300000  0.17480000  1.0 -0.239828198
C  C203  1  0.99770000  0.12240000  0.11070000  1.0 0.6224313478
C  C204  1  0.10450000  0.63340000  0.51990000  1.0 0.6224313478
C  C205  1  0.11630000  0.70280000  0.55770000  1.0 -0.239828198
C  C206  1  0.13600000  0.74820000  0.54160000  1.0 -0.1198689661
C  C207  1  0.15020000  0.81800000  0.57760000  1.0 0.118627721
C  C208  1  0.13760000  0.84260000  0.63060000  1.0 -0.2086787922
C  C209  1  0.17830000  0.86280000  0.55930000  1.0 -0.2009310734
C  C210  1  0.19430000  0.92950000  0.59280000  1.0 0.1279974391
C  C211  1  0.18080000  0.95200000  0.64520000  1.0 -0.2086787922
C  C212  1  0.15350000  0.90970000  0.66540000  1.0 0.0667692346
C  C213  1  0.22650000  0.97750000  0.57720000  1.0 -0.1198689661
C  C214  1  0.24800000  0.96790000  0.53270000  1.0 -0.2693989028
C  C215  1  0.28460000  0.02210000  0.52450000  1.0 0.6325705002
C  C216  1  0.14630000  0.93500000  0.72570000  1.0 -0.0575755479
C  C217  1  0.27410000  0.29940000  0.79030000  1.0 0.6045485947
C  C218  1  0.22020000  0.30330000  0.74430000  1.0 -0.2605156705
C  C219  1  0.15810000  0.27210000  0.73060000  1.0 -0.0985172812
C  C220  1  0.10040000  0.27650000  0.69070000  1.0 0.118627721
C  C221  1  0.10640000  0.32060000  0.66620000  1.0 -0.2086787922
C  C222  1  0.03890000  0.23860000  0.68090000  1.0 -0.2086787922
C  C223  1  0.98310000  0.24150000  0.64540000  1.0 0.1104123868
C  C224  1  0.05126000  0.32416000  0.63090000  1.0 0.1104123868
C  C225  1  0.98910000  0.28330000  0.61960000  1.0 -0.2086787922
C  C226  1  0.91740000  0.20420000  0.63740000  1.0 -0.0847509534
C  C227  1  0.90080000  0.16580000  0.66000000  1.0 -0.239828198
C  C228  1  0.82920000  0.13480000  0.64920000  1.0 0.5838921282
C  C229  1  0.05362000  0.37192000  0.60630000  1.0 -0.0909115479
C  C230  1  0.10270000  0.43010000  0.63280000  1.0 -0.239828198
C  C231  1  0.09646000  0.47716000  0.60910000  1.0 0.6325705002
C  C232  1  0.13800000  0.91450000  0.75950000  1.0 -0.0909115479
C  C233  1  0.13150000  0.95260000  0.81910000  1.0 0.2375182703
C  C234  1  0.16110000  0.98700000  0.77070000  1.0 -0.0909115479
C  C235  1  0.14500000  0.99740000  0.82660000  1.0 0.2456891748
C  C236  1  0.47760000  0.67650000  0.98670000  1.0 0.6121010843
C  C237  1  0.47560000  0.72530000  0.04150000  1.0 -0.2850464371
C  C238  1  0.43230000  0.74830000  0.03340000  1.0 -0.1134203461
C  C239  1  0.42540000  0.79230000  0.08750000  1.0 0.118627721
C  C240  1  0.37870000  0.81280000  0.07210000  1.0 -0.2009310734
C  C241  1  0.46474000  0.81310000  0.15664000  1.0 -0.2086787922
C  C242  1  0.45430000  0.85079000  0.20629000  1.0 0.118627721
C  C243  1  0.36740000  0.85050000  0.12110000  1.0 0.1104123868
C  C244  1  0.40670000  0.87030000  0.18880000  1.0 -0.2009310734
C  C245  1  0.31040000  0.86470000  0.10250000  1.0 -0.0985172812
C  C246  1  0.26480000  0.83970000  0.04090000  1.0 -0.2605156705
C  C247  1  0.20590000  0.85090000  0.02540000  1.0 0.5851766679
C  C248  1  0.49029000  0.86230000  0.27499000  1.0 -0.1198689661
C  C249  1  0.47820000  0.88560000  0.32520000  1.0 -0.239828198
C  C250  1  0.51170000  0.88700000  0.38930000  1.0 0.6224313478
C  C251  1  0.61350000  0.58460000  0.98010000  1.0 0.6224313478
C  C252  1  0.64510000  0.55860000  0.94230000  1.0 -0.239828198
C  C253  1  0.70660000  0.59440000  0.95840000  1.0 -0.1198689661
C  C254  1  0.74040000  0.57260000  0.92240000  1.0 0.118627721
C  C255  1  0.71200000  0.50700000  0.86940000  1.0 -0.2086787922
C  C256  1  0.80350000  0.61900000  0.94070000  1.0 -0.2009310734
C  C257  1  0.83670000  0.60150000  0.90720000  1.0 0.1279974391
C  C258  1  0.80680000  0.53560000  0.85480000  1.0 -0.2086787922
C  C259  1  0.74430000  0.48810000  0.83460000  1.0 0.0667692346
C  C260  1  0.90030000  0.64930000  0.92280000  1.0 -0.1198689661
C  C261  1  0.93520000  0.71530000  0.96730000  1.0 -0.2693989028
C  C262  1  0.99760000  0.76010000  0.97550000  1.0 0.6325705002
C  C263  1  0.70930000  0.42060000  0.77430000  1.0 -0.0575755479
C  C264  1  0.00910000  0.48380000  0.70970000  1.0 0.6045485947
C  C265  1  0.05900000  0.47590000  0.75570000  1.0 -0.2605156705
C  C266  1  0.04150000  0.42750000  0.76940000  1.0 -0.0985172812
C  C267  1  0.08580000  0.40970000  0.80930000  1.0 0.118627721
C  C268  1  0.15440000  0.44020000  0.83380000  1.0 -0.2086787922
C  C269  1  0.05770000  0.35800000  0.81910000  1.0 -0.2086787922
C  C270  1  0.09610000  0.33770000  0.85460000  1.0 0.1104123868
C  C271  1  0.19326000  0.42036000  0.86910000  1.0 0.1104123868
C  C272  1  0.16370000  0.36950000  0.88040000  1.0 -0.2086787922
C  C273  1  0.06680000  0.28000000  0.86260000  1.0 -0.0847509534
C  C274  1  0.00580000  0.24080000  0.84000000  1.0 -0.239828198
C  C275  1  0.98560000  0.18000000  0.85080000  1.0 0.5838921282
C  C276  1  0.26562000  0.44732000  0.89370000  1.0 -0.0909115479
C  C277  1  0.29730000  0.46990000  0.86720000  1.0 -0.239828198
C  C278  1  0.36806000  0.48736000  0.89090000  1.0 0.6325705002
C  C279  1  0.65500000  0.37850000  0.74050000  1.0 -0.0909115479
C  C280  1  0.63350000  0.31240000  0.68090000  1.0 0.2375182703
C  C281  1  0.71630000  0.39040000  0.72930000  1.0 -0.0909115479
C  C282  1  0.67080000  0.31840000  0.67340000  1.0 0.2456891748
C  C283  1  0.02240000  0.00910000  0.19890000  1.0 0.6121010843
C  C284  1  0.02440000  0.06590000  0.24970000  1.0 -0.2844098893
C  C285  1  0.06770000  0.10110000  0.31600000  1.0 -0.1134203461
C  C286  1  0.07460000  0.16210000  0.36690000  1.0 0.118627721
C  C287  1  0.12130000  0.19340000  0.43410000  1.0 -0.2009310734
C  C288  1  0.03526000  0.19190000  0.34836000  1.0 -0.2086787922
C  C289  1  0.04570000  0.25199000  0.39649000  1.0 0.118627721
C  C290  1  0.13260000  0.25370000  0.48310000  1.0 0.1104123868
C  C291  1  0.09330000  0.28210000  0.46360000  1.0 -0.2009310734
C  C292  1  0.18960000  0.29210000  0.55430000  1.0 -0.0985172812
C  C293  1  0.23520000  0.27610000  0.57490000  1.0 -0.2605156705
C  C294  1  0.29410000  0.31950000  0.64500000  1.0 0.5851766679
C  C295  1  0.00971000  0.28470000  0.37201000  1.0 -0.1198689661
C  C296  1  0.02180000  0.34700000  0.40740000  1.0 -0.239828198
C  C297  1  0.98830000  0.37760000  0.37530000  1.0 0.6224313478
C  C298  1  0.88650000  0.86660000  0.97110000  1.0 0.6224313478
C  C299  1  0.85490000  0.79720000  0.91350000  1.0 -0.239828198
C  C300  1  0.79340000  0.75180000  0.88780000  1.0 -0.1198689661
C  C301  1  0.75960000  0.68200000  0.83220000  1.0 0.118627721
C  C302  1  0.78800000  0.65740000  0.79500000  1.0 -0.2086787922
C  C303  1  0.69650000  0.63720000  0.81550000  1.0 -0.2009310734
C  C304  1  0.66330000  0.57050000  0.76480000  1.0 0.1279974391
C  C305  1  0.69320000  0.54800000  0.72880000  1.0 -0.2086787922
C  C306  1  0.75570000  0.59030000  0.74380000  1.0 0.0667692346
C  C307  1  0.59970000  0.52250000  0.74900000  1.0 -0.1198689661
C  C308  1  0.56480000  0.53210000  0.78010000  1.0 -0.2693989028
C  C309  1  0.50240000  0.47790000  0.76250000  1.0 0.6325705002
C  C310  1  0.79070000  0.56500000  0.71130000  1.0 -0.0575755479
C  C311  1  0.49090000  0.20060000  0.47470000  1.0 0.6045485947
C  C312  1  0.44100000  0.19670000  0.41690000  1.0 -0.2605156705
C  C313  1  0.45850000  0.22790000  0.38600000  1.0 -0.0985172812
C  C314  1  0.41420000  0.22350000  0.32390000  1.0 0.118627721
C  C315  1  0.34560000  0.17940000  0.28580000  1.0 -0.2086787922
C  C316  1  0.44230000  0.26140000  0.30030000  1.0 -0.2086787922
C  C317  1  0.40390000  0.25850000  0.24160000  1.0 0.1104123868
C  C318  1  0.30674000  0.17584000  0.22710000  1.0 0.1104123868
C  C319  1  0.33630000  0.21670000  0.20580000  1.0 -0.2086787922
C  C320  1  0.43320000  0.29580000  0.21320000  1.0 -0.0847509534
C  C321  1  0.49420000  0.33420000  0.23500000  1.0 -0.239828198
C  C322  1  0.51440000  0.36520000  0.19440000  1.0 0.5838921282
C  C323  1  0.23438000  0.12808000  0.18170000  1.0 -0.0909115479
C  C324  1  0.20270000  0.06990000  0.17260000  1.0 -0.239828198
C  C325  1  0.13194000  0.02284000  0.11930000  1.0 0.6325705002
C  C326  1  0.84500000  0.58550000  0.72350000  1.0 -0.0909115479
C  C327  1  0.86650000  0.54740000  0.67890000  1.0 0.2375182703
C  C328  1  0.78370000  0.51300000  0.67410000  1.0 -0.0909115479
C  C329  1  0.82920000  0.50260000  0.64760000  1.0 0.2456891748
C  C330  1  0.31020000  0.82350000  0.30110000  1.0 0.6121010843
C  C331  1  0.31620000  0.77470000  0.25030000  1.0 -0.2850464371
C  C332  1  0.28510000  0.75170000  0.18400000  1.0 -0.1134203461
C  C333  1  0.29520000  0.70770000  0.13310000  1.0 0.118627721
C  C334  1  0.25930000  0.68720000  0.06590000  1.0 -0.2009310734
C  C335  1  0.34354000  0.68690000  0.15164000  1.0 -0.2086787922
C  C336  1  0.35550000  0.64921000  0.10351000  1.0 0.118627721
C  C337  1  0.27060000  0.64950000  0.01690000  1.0 0.1104123868
C  C338  1  0.31850000  0.62970000  0.03640000  1.0 -0.2009310734
C  C339  1  0.23780000  0.63530000  0.94570000  1.0 -0.0985172812
C  C340  1  0.20120000  0.66030000  0.92510000  1.0 -0.2605156705
C  C341  1  0.17450000  0.64910000  0.85500000  1.0 0.5851766679
C  C342  1  0.41269000  0.63770000  0.12799000  1.0 -0.1198689661
C  C343  1  0.43960000  0.61440000  0.09260000  1.0 -0.239828198
C  C344  1  0.50230000  0.61300000  0.12470000  1.0 0.6224313478
C  C345  1  0.39550000  0.91540000  0.52890000  1.0 0.6224313478
C  C346  1  0.38370000  0.94140000  0.58650000  1.0 -0.239828198
C  C347  1  0.36400000  0.90560000  0.61220000  1.0 -0.1198689661
C  C348  1  0.34980000  0.92740000  0.66780000  1.0 0.118627721
C  C349  1  0.36240000  0.99300000  0.70500000  1.0 -0.2086787922
C  C350  1  0.32170000  0.88100000  0.68450000  1.0 -0.2009310734
C  C351  1  0.30570000  0.89850000  0.73520000  1.0 0.1279974391
C  C352  1  0.31920000  0.96440000  0.77120000  1.0 -0.2086787922
C  C353  1  0.34650000  0.01190000  0.75620000  1.0 0.0667692346
C  C354  1  0.27350000  0.85070000  0.75100000  1.0 -0.1198689661
C  C355  1  0.25200000  0.78470000  0.71990000  1.0 -0.2693989028
C  C356  1  0.21540000  0.73990000  0.73750000  1.0 0.6325705002
C  C357  1  0.35370000  0.07940000  0.78870000  1.0 -0.0575755479
C  C358  1  0.22590000  0.01620000  0.02530000  1.0 0.6045485947
C  C359  1  0.27980000  0.02410000  0.08310000  1.0 -0.2605156705
C  C360  1  0.34190000  0.07250000  0.11400000  1.0 -0.0985172812
C  C361  1  0.39960000  0.09030000  0.17610000  1.0 0.118627721
C  C362  1  0.39360000  0.05980000  0.21420000  1.0 -0.2086787922
C  C363  1  0.46110000  0.14200000  0.19970000  1.0 -0.2086787922
C  C364  1  0.51690000  0.16230000  0.25840000  1.0 0.1104123868
C  C365  1  0.44874000  0.07964000  0.27290000  1.0 0.1104123868
C  C366  1  0.51090000  0.13050000  0.29420000  1.0 -0.2086787922
C  C367  1  0.58260000  0.22000000  0.28680000  1.0 -0.0847509534
C  C368  1  0.59920000  0.25920000  0.26500000  1.0 -0.239828198
C  C369  1  0.67080000  0.32000000  0.30560000  1.0 0.5838921282
C  C370  1  0.44638000  0.05268000  0.31830000  1.0 -0.0909115479
C  C371  1  0.39730000  0.03010000  0.32740000  1.0 -0.239828198
C  C372  1  0.40354000  0.01264000  0.38070000  1.0 0.6325705002
C  C373  1  0.36200000  0.12150000  0.77650000  1.0 -0.0909115479
C  C374  1  0.36850000  0.18760000  0.82110000  1.0 0.2375182703
C  C375  1  0.33890000  0.10960000  0.82590000  1.0 -0.0909115479
C  C376  1  0.35500000  0.18160000  0.85240000  1.0 0.2456891748
O  O1  1  0.77843000  0.49326000  0.42483000  1.0 -0.5915920411
O  O2  1  0.83879000  0.47712000  0.50085000  1.0 -0.5678701897
O  O3  1  0.68975000  0.87454000  0.57095000  1.0 -0.5236072329
O  O4  1  0.63532000  0.79750000  0.46322000  1.0 -0.6111518529
O  O5  1  0.02965000  0.94061000  0.93128000  1.0 -0.6206832316
O  O6  1  0.02589000  0.84132000  0.89875000  1.0 -0.5299950627
O  O7  1  0.89875000  0.38716000  0.53673000  1.0 -0.5299950627
O  O8  1  0.90363000  0.40281000  0.45280000  1.0 -0.6315126655
O  O9  1  0.70300000  0.91920000  0.44000000  1.0 -0.5784343642
O  O10  1  0.69466000  0.99196000  0.51650000  1.0 -0.5678701897
O  O11  1  0.95181000  0.54581000  0.44776000  1.0 -0.5616367843
O  O12  1  0.85951000  0.46039000  0.35030000  1.0 -0.5979228404
O  O13  1  0.73685000  0.73817000  0.18668000  1.0 -0.5299950627
O  O14  1  0.66601000  0.66219000  0.19044000  1.0 -0.5915920411
O  O15  1  0.20870000  0.85100000  0.38310000  1.0 -0.5046199572
O  O16  1  0.18200000  0.90010000  0.32650000  1.0 -0.5526536789
O  O17  1  0.89400000  0.08160000  0.15840000  1.0 -0.2188086689
O  O18  1  0.85380000  0.98670000  0.15330000  1.0 0.0388820774
O  O19  1  0.83750000  0.94100000  0.13070000  1.0 -0.1697450646
O  O20  1  0.87610000  0.04520000  0.16330000  1.0 0.0226757561
O  O21  1  0.56843000  0.35360000  0.07517000  1.0 -0.5915920411
O  O22  1  0.47627000  0.33794000  0.99915000  1.0 -0.5678701897
O  O23  1  0.80359000  0.11880000  0.92905000  1.0 -0.5236072329
O  O24  1  0.83428000  0.17210000  0.03678000  1.0 -0.6111518529
O  O25  1  0.50933000  0.09837000  0.56872000  1.0 -0.6206832316
O  O26  1  0.44257000  0.12714000  0.60125000  1.0 -0.5299950627
O  O27  1  0.35043000  0.36202000  0.96327000  1.0 -0.5299950627
O  O28  1  0.45001000  0.45083000  0.04720000  1.0 -0.6315126655
O  O29  1  0.97920000  0.26300000  0.06000000  1.0 -0.5784343642
O  O30  1  0.97546000  0.17816000  0.98350000  1.0 -0.5678701897
O  O31  1  0.59805000  0.50405000  0.05224000  1.0 -0.5616367843
O  O32  1  0.61009000  0.50921000  0.14970000  1.0 -0.5979228404
O  O33  1  0.05149000  0.55017000  0.31332000  1.0 -0.5299950627
O  O34  1  0.97175000  0.47557000  0.30956000  1.0 -0.5915920411
O  O35  1  0.96790000  0.82560000  0.11690000  1.0 -0.5046199572
O  O36  1  0.07360000  0.85550000  0.17350000  1.0 -0.5526536789
O  O37  1  0.42320000  0.73560000  0.34160000  1.0 -0.2188086689
O  O38  1  0.33340000  0.70050000  0.34670000  1.0 0.0388820774
O  O39  1  0.31030000  0.70680000  0.36930000  1.0 -0.1697450646
O  O40  1  0.38190000  0.71280000  0.33670000  1.0 0.0226757561
O  O41  1  0.93157000  0.00674000  0.78517000  1.0 -0.5915920411
O  O42  1  0.02373000  0.02288000  0.86167000  1.0 -0.5678701897
O  O43  1  0.69641000  0.62546000  0.31521000  1.0 -0.5236072329
O  O44  1  0.66572000  0.70250000  0.33782000  1.0 -0.6111518529
O  O45  1  0.99067000  0.55939000  0.58904000  1.0 -0.6206832316
O  O46  1  0.05743000  0.65868000  0.68457000  1.0 -0.5299950627
O  O47  1  0.14957000  0.11284000  0.01159000  1.0 -0.5299950627
O  O48  1  0.04999000  0.09719000  0.00082000  1.0 -0.6315126655
O  O49  1  0.52080000  0.58080000  0.28380000  1.0 -0.5784343642
O  O50  1  0.52454000  0.50804000  0.20270000  1.0 -0.5678701897
O  O51  1  0.90195000  0.95419000  0.90600000  1.0 -0.5616367843
O  O52  1  0.88991000  0.03961000  0.89912000  1.0 -0.5979228404
O  O53  1  0.44851000  0.76183000  0.49868000  1.0 -0.5299950627
O  O54  1  0.52825000  0.83781000  0.50382000  1.0 -0.5915920411
O  O55  1  0.53210000  0.64900000  0.85770000  1.0 -0.5046199572
O  O56  1  0.42640000  0.59990000  0.78190000  1.0 -0.5526536789
O  O57  1  0.07680000  0.41840000  0.31240000  1.0 -0.2188086689
O  O58  1  0.16660000  0.51330000  0.36710000  1.0 0.0388820774
O  O59  1  0.18970000  0.55900000  0.39650000  1.0 -0.1697450646
O  O60  1  0.11810000  0.45480000  0.33090000  1.0 0.0226757561
O  O61  1  0.72157000  0.14640000  0.71483000  1.0 -0.5915920411
O  O62  1  0.66121000  0.16206000  0.63833000  1.0 -0.5678701897
O  O63  1  0.81025000  0.38120000  0.18479000  1.0 -0.5236072329
O  O64  1  0.86468000  0.32790000  0.16218000  1.0 -0.6111518529
O  O65  1  0.47035000  0.40163000  0.91096000  1.0 -0.6206832316
O  O66  1  0.47411000  0.37286000  0.81543000  1.0 -0.5299950627
O  O67  1  0.60125000  0.13798000  0.48841000  1.0 -0.5299950627
O  O68  1  0.59637000  0.04917000  0.49918000  1.0 -0.6315126655
O  O69  1  0.79700000  0.23700000  0.21620000  1.0 -0.5784343642
O  O70  1  0.80534000  0.32184000  0.29730000  1.0 -0.5678701897
O  O71  1  0.54819000  0.99595000  0.59400000  1.0 -0.5616367843
O  O72  1  0.64049000  0.99079000  0.60088000  1.0 -0.5979228404
O  O73  1  0.76315000  0.94983000  0.00132000  1.0 -0.5299950627
O  O74  1  0.83399000  0.02443000  0.99618000  1.0 -0.5915920411
O  O75  1  0.29130000  0.67440000  0.64230000  1.0 -0.5046199572
O  O76  1  0.31800000  0.64450000  0.71810000  1.0 -0.5526536789
O  O77  1  0.60600000  0.76440000  0.18760000  1.0 -0.2188086689
O  O78  1  0.64620000  0.79950000  0.13290000  1.0 0.0388820774
O  O79  1  0.66250000  0.79320000  0.10350000  1.0 -0.1697450646
O  O80  1  0.62390000  0.78720000  0.16910000  1.0 0.0226757561
O  O81  1  0.22157000  0.50674000  0.57517000  1.0 -0.5915920411
O  O82  1  0.16121000  0.52288000  0.49915000  1.0 -0.5678701897
O  O83  1  0.31025000  0.12546000  0.42905000  1.0 -0.5236072329
O  O84  1  0.36468000  0.20250000  0.53678000  1.0 -0.6111518529
O  O85  1  0.97035000  0.05939000  0.06872000  1.0 -0.6206832316
O  O86  1  0.97411000  0.15868000  0.10125000  1.0 -0.5299950627
O  O87  1  0.10125000  0.61284000  0.46327000  1.0 -0.5299950627
O  O88  1  0.09637000  0.59719000  0.54720000  1.0 -0.6315126655
O  O89  1  0.29700000  0.08080000  0.56000000  1.0 -0.5784343642
O  O90  1  0.30534000  0.00804000  0.48350000  1.0 -0.5678701897
O  O91  1  0.04819000  0.45419000  0.55224000  1.0 -0.5616367843
O  O92  1  0.14049000  0.53961000  0.64970000  1.0 -0.5979228404
O  O93  1  0.26315000  0.26183000  0.81332000  1.0 -0.5299950627
O  O94  1  0.33399000  0.33781000  0.80956000  1.0 -0.5915920411
O  O95  1  0.79130000  0.14900000  0.61690000  1.0 -0.5046199572
O  O96  1  0.81800000  0.09990000  0.67350000  1.0 -0.5526536789
O  O97  1  0.10600000  0.91840000  0.84160000  1.0 -0.2188086689
O  O98  1  0.14620000  0.01330000  0.84670000  1.0 0.0388820774
O  O99  1  0.16250000  0.05900000  0.86930000  1.0 -0.1697450646
O  O100  1  0.12390000  0.95480000  0.83670000  1.0 0.0226757561
O  O101  1  0.43157000  0.64640000  0.92483000  1.0 -0.5915920411
O  O102  1  0.52373000  0.66206000  0.00085000  1.0 -0.5678701897
O  O103  1  0.19641000  0.88120000  0.07095000  1.0 -0.5236072329
O  O104  1  0.16572000  0.82790000  0.96322000  1.0 -0.6111518529
O  O105  1  0.49067000  0.90163000  0.43128000  1.0 -0.6206832316
O  O106  1  0.55743000  0.87286000  0.39875000  1.0 -0.5299950627
O  O107  1  0.64957000  0.63798000  0.03673000  1.0 -0.5299950627
O  O108  1  0.54999000  0.54917000  0.95280000  1.0 -0.6315126655
O  O109  1  0.02080000  0.73700000  0.94000000  1.0 -0.5784343642
O  O110  1  0.02454000  0.82184000  0.01650000  1.0 -0.5678701897
O  O111  1  0.40195000  0.49595000  0.94776000  1.0 -0.5616367843
O  O112  1  0.38991000  0.49079000  0.85030000  1.0 -0.5979228404
O  O113  1  0.94851000  0.44983000  0.68668000  1.0 -0.5299950627
O  O114  1  0.02825000  0.52443000  0.69044000  1.0 -0.5915920411
O  O115  1  0.03210000  0.17440000  0.88310000  1.0 -0.5046199572
O  O116  1  0.92640000  0.14450000  0.82650000  1.0 -0.5526536789
O  O117  1  0.57680000  0.26440000  0.65840000  1.0 -0.2188086689
O  O118  1  0.66666667  0.29950000  0.65330000  1.0 0.0388820774
O  O119  1  0.68970000  0.29320000  0.63070000  1.0 -0.1697450646
O  O120  1  0.61810000  0.28720000  0.66330000  1.0 0.0226757561
O  O121  1  0.06843000  0.99326000  0.21483000  1.0 -0.5915920411
O  O122  1  0.97627000  0.97712000  0.13833000  1.0 -0.5678701897
O  O123  1  0.30359000  0.37454000  0.68479000  1.0 -0.5236072329
O  O124  1  0.33428000  0.29750000  0.66218000  1.0 -0.6111518529
O  O125  1  0.00933000  0.44061000  0.41096000  1.0 -0.6206832316
O  O126  1  0.94257000  0.34132000  0.31543000  1.0 -0.5299950627
O  O127  1  0.85043000  0.88716000  0.98841000  1.0 -0.5299950627
O  O128  1  0.95001000  0.90281000  0.99918000  1.0 -0.6315126655
O  O129  1  0.47920000  0.41920000  0.71620000  1.0 -0.5784343642
O  O130  1  0.47546000  0.49196000  0.79730000  1.0 -0.5678701897
O  O131  1  0.09805000  0.04581000  0.09400000  1.0 -0.5616367843
O  O132  1  0.11009000  0.96039000  0.10088000  1.0 -0.5979228404
O  O133  1  0.55149000  0.23817000  0.50132000  1.0 -0.5299950627
O  O134  1  0.47175000  0.16219000  0.49618000  1.0 -0.5915920411
O  O135  1  0.46790000  0.35100000  0.14230000  1.0 -0.5046199572
O  O136  1  0.57360000  0.40010000  0.21810000  1.0 -0.5526536789
O  O137  1  0.92320000  0.58160000  0.68760000  1.0 -0.2188086689
O  O138  1  0.83340000  0.48670000  0.63290000  1.0 0.0388820774
O  O139  1  0.81030000  0.44100000  0.60350000  1.0 -0.1697450646
O  O140  1  0.88190000  0.54520000  0.66910000  1.0 0.0226757561
O  O141  1  0.27843000  0.85360000  0.28517000  1.0 -0.5915920411
O  O142  1  0.33879000  0.83794000  0.36167000  1.0 -0.5678701897
O  O143  1  0.18975000  0.61880000  0.81521000  1.0 -0.5236072329
O  O144  1  0.13532000  0.67210000  0.83782000  1.0 -0.6111518529
O  O145  1  0.52965000  0.59837000  0.08904000  1.0 -0.6206832316
O  O146  1  0.52589000  0.62714000  0.18457000  1.0 -0.5299950627
O  O147  1  0.39875000  0.86202000  0.51159000  1.0 -0.5299950627
O  O148  1  0.40363000  0.95083000  0.50082000  1.0 -0.6315126655
O  O149  1  0.20300000  0.76300000  0.78380000  1.0 -0.5784343642
O  O150  1  0.19466000  0.67816000  0.70270000  1.0 -0.5678701897
O  O151  1  0.45181000  0.00405000  0.40600000  1.0 -0.5616367843
O  O152  1  0.35951000  0.00921000  0.39912000  1.0 -0.5979228404
O  O153  1  0.23685000  0.05017000  0.99868000  1.0 -0.5299950627
O  O154  1  0.16601000  0.97557000  0.00382000  1.0 -0.5915920411
O  O155  1  0.70870000  0.32560000  0.35770000  1.0 -0.5046199572
O  O156  1  0.68200000  0.35550000  0.28190000  1.0 -0.5526536789
O  O157  1  0.39400000  0.23560000  0.81240000  1.0 -0.2188086689
O  O158  1  0.35380000  0.20050000  0.86710000  1.0 0.0388820774
O  O159  1  0.33750000  0.20680000  0.89650000  1.0 -0.1697450646
O  O160  1  0.37610000  0.21280000  0.83090000  1.0 0.0226757561
