# DDEC6 charges by PACMAN v1.1 (https://github.com/mtap-research/PACMAN-charge/)
data_COBWEV_ASR_pacman
_symmetry_space_group_name_H-M   'P 1'
_cell_length_a   15.63670000
_cell_length_b   15.63670000
_cell_length_c   25.12600000
_cell_angle_alpha   53.04250000
_cell_angle_beta   126.95700000
_cell_angle_gamma   160.22900000
_symmetry_Int_Tables_number   1
_chemical_formula_structural   CdPC9N3O7
_chemical_formula_sum   'Cd4 P4 C36 N12 O28'
_cell_volume   1646.24100034
_cell_formula_units_Z   4
loop_
 _symmetry_equiv_pos_site_id
 _symmetry_equiv_pos_as_xyz
  1  'x, y, z'
loop_
 _atom_site_type_symbol
 _atom_site_label
 _atom_site_symmetry_multiplicity
 _atom_site_fract_x
 _atom_site_fract_y
 _atom_site_fract_z
 _atom_site_occupancy
 _atom_site_charge
Cd  Cd1  1  0.85100000  0.37900000  0.42320000  1.0 1.1435777743
Cd  Cd2  1  0.37900000  0.85100000  0.57680000  1.0 1.1435777743
Cd  Cd3  1  0.31350000  0.68650000  0.04200000  1.0 1.1329888303
Cd  Cd4  1  0.68650000  0.31350000  0.95800000  1.0 1.1329888303
P  P1  1  0.75620000  0.15980000  0.95750000  1.0 1.5124648809
P  P2  1  0.15980000  0.75620000  0.04250000  1.0 1.5162845452
P  P3  1  0.22900000  0.89100000  0.40790000  1.0 1.5124648809
P  P4  1  0.89100000  0.22900000  0.59210000  1.0 1.5124648809
C  C1  1  0.04640000  0.55360000  0.65780000  1.0 0.6021804411
C  C2  1  0.55360000  0.04640000  0.34220000  1.0 0.6021804411
C  C3  1  0.15620000  0.33780000  0.15360000  1.0 0.5893538196
C  C4  1  0.33780000  0.15620000  0.84640000  1.0 0.5893538196
C  C5  1  0.36340000  0.70060000  0.74670000  1.0 0.5129357178
C  C6  1  0.70060000  0.36340000  0.25330000  1.0 0.5129357178
C  C7  1  0.47440000  0.56160000  0.13610000  1.0 0.4907540281
C  C8  1  0.56160000  0.47440000  0.86390000  1.0 0.4907540281
C  C9  1  0.20460000  0.52540000  0.80310000  1.0 -0.1384200256
C  C10  1  0.52540000  0.20460000  0.19690000  1.0 -0.1384200256
C  C11  1  0.42510000  0.40490000  0.19040000  1.0 -0.1872683268
C  C12  1  0.40490000  0.42510000  0.80960000  1.0 -0.1872683268
C  C13  1  0.98090000  0.37910000  0.78190000  1.0 0.1609729763
C  C14  1  0.37910000  0.98090000  0.21810000  1.0 0.1609729763
C  C15  1  0.22750000  0.19450000  0.23230000  1.0 0.1609729763
C  C16  1  0.19450000  0.22750000  0.76770000  1.0 0.1609729763
C  C17  1  0.70240000  0.28360000  0.69150000  1.0 0.4139875073
C  C18  1  0.28360000  0.70240000  0.30850000  1.0 0.4139875073
C  C19  1  0.88270000  0.97530000  0.24740000  1.0 0.469461878
C  C20  1  0.97530000  0.88270000  0.75260000  1.0 0.469461878
C  C21  1  0.75240000  0.43560000  0.67750000  1.0 -0.1384200256
C  C22  1  0.43560000  0.75240000  0.32250000  1.0 -0.1384200256
C  C23  1  0.99590000  0.09210000  0.30550000  1.0 -0.0674656581
C  C24  1  0.09210000  0.99590000  0.69450000  1.0 -0.0647071775
C  C25  1  0.72590000  0.37610000  0.74500000  1.0 0.2698121865
C  C26  1  0.37610000  0.72590000  0.25500000  1.0 0.2698121865
C  C27  1  0.97630000  0.95970000  0.36570000  1.0 0.2240841736
C  C28  1  0.95970000  0.97630000  0.63430000  1.0 0.2251213242
C  C29  1  0.47270000  0.07930000  0.76500000  1.0 0.2062621513
C  C30  1  0.07930000  0.47270000  0.23500000  1.0 0.2062621513
C  C31  1  0.79210000  0.72990000  0.35040000  1.0 0.1787863274
C  C32  1  0.72990000  0.79210000  0.64960000  1.0 0.1787863274
C  C33  1  0.44160000  0.96640000  0.84290000  1.0 0.2049199093
C  C34  1  0.96640000  0.44160000  0.15710000  1.0 0.2062621513
C  C35  1  0.87450000  0.68950000  0.38420000  1.0 0.261173283
C  C36  1  0.68950000  0.87450000  0.61580000  1.0 0.261173283
N  N1  1  0.90120000  0.39280000  0.71530000  1.0 -0.1457144718
N  N2  1  0.39280000  0.90120000  0.28470000  1.0 -0.1384200256
N  N3  1  0.11180000  0.19220000  0.20970000  1.0 -0.1800445419
N  N4  1  0.19220000  0.11180000  0.79030000  1.0 -0.1800445419
N  N5  1  0.24200000  0.67000000  0.68310000  1.0 -0.5127072435
N  N6  1  0.67000000  0.24200000  0.31690000  1.0 -0.5127072435
N  N7  1  0.35470000  0.54730000  0.11400000  1.0 -0.5305879514
N  N8  1  0.54730000  0.35470000  0.88600000  1.0 -0.5305879514
N  N9  1  0.57900000  0.84700000  0.75900000  1.0 -0.4186423074
N  N10  1  0.84700000  0.57900000  0.24100000  1.0 -0.4186423074
N  N11  1  0.67490000  0.76310000  0.10040000  1.0 -0.393652926
N  N12  1  0.76310000  0.67490000  0.89960000  1.0 -0.4007468721
O  O1  1  0.68360000  0.14440000  0.87870000  1.0 -0.4007468721
O  O2  1  0.14440000  0.68360000  0.12130000  1.0 -0.4007468721
O  O3  1  0.11590000  0.90010000  0.37920000  1.0 -0.4067529838
O  O4  1  0.90010000  0.11590000  0.62080000  1.0 -0.4067529838
O  O5  1  0.58570000  0.06630000  0.97100000  1.0 -0.7980921369
O  O6  1  0.06630000  0.58570000  0.02900000  1.0 -0.7980921369
O  O7  1  0.12350000  0.71650000  0.47440000  1.0 -0.768949787
O  O8  1  0.71650000  0.12350000  0.52560000  1.0 -0.768949787
O  O9  1  0.69150000  0.98250000  0.99210000  1.0 -0.6832315128
O  O10  1  0.98250000  0.69150000  0.00790000  1.0 -0.6864188712
O  O11  1  0.11340000  0.75660000  0.36130000  1.0 -0.7384871643
O  O12  1  0.75660000  0.11340000  0.63870000  1.0 -0.7384871643
O  O13  1  0.01510000  0.42090000  0.96240000  1.0 -0.6832315128
O  O14  1  0.42090000  0.01510000  0.03760000  1.0 -0.6832315128
O  O15  1  0.50690000  0.15910000  0.41260000  1.0 -0.7384871643
O  O16  1  0.15910000  0.50690000  0.58740000  1.0 -0.7384871643
O  O17  1  0.97810000  0.56990000  0.59940000  1.0 -0.4755219321
O  O18  1  0.56990000  0.97810000  0.40060000  1.0 -0.4747224252
O  O19  1  0.04900000  0.31700000  0.13850000  1.0 -0.4186423074
O  O20  1  0.31700000  0.04900000  0.86150000  1.0 -0.4186423074
O  O21  1  0.51890000  0.04910000  0.74510000  1.0 -0.2247075688
O  O22  1  0.04910000  0.51890000  0.25490000  1.0 -0.2247075688
O  O23  1  0.79980000  0.79620000  0.27820000  1.0 -0.1800445419
O  O24  1  0.79620000  0.79980000  0.72180000  1.0 -0.1800445419
O  O25  1  0.67330000  0.42070000  0.74520000  1.0 -0.5561893981
O  O26  1  0.42070000  0.67330000  0.25480000  1.0 -0.5561893981
O  O27  1  0.96300000  0.95300000  0.42570000  1.0 -0.265090565
O  O28  1  0.95300000  0.96300000  0.57430000  1.0 -0.2639703851
