# DDEC6 charges by PACMAN v1.1 (https://github.com/mtap-research/PACMAN-charge/)
data_COCMAJ_FSR_pacman
_symmetry_space_group_name_H-M   'P 1'
_cell_length_a   13.51000000
_cell_length_b   27.37000000
_cell_length_c   27.99100000
_cell_angle_alpha   90.00000000
_cell_angle_beta   90.00000000
_cell_angle_gamma   90.00000000
_symmetry_Int_Tables_number   1
_chemical_formula_structural   Zn2H34PdC28N2Cl2O13
_chemical_formula_sum   'Zn16 H272 Pd8 C224 N16 Cl16 O104'
_cell_volume   10350.19568170
_cell_formula_units_Z   8
loop_
 _symmetry_equiv_pos_site_id
 _symmetry_equiv_pos_as_xyz
  1  'x, y, z'
loop_
 _atom_site_type_symbol
 _atom_site_label
 _atom_site_symmetry_multiplicity
 _atom_site_fract_x
 _atom_site_fract_y
 _atom_site_fract_z
 _atom_site_occupancy
 _atom_site_charge
Zn  Zn1  1  0.61598000  0.49630000  0.95858000  1.0 0.8870773676
Zn  Zn2  1  0.88402000  0.50370000  0.45858000  1.0 0.8870773676
Zn  Zn3  1  0.11598000  0.00370000  0.04142000  1.0 0.8870773676
Zn  Zn4  1  0.38402000  0.99630000  0.54142000  1.0 0.8870773676
Zn  Zn5  1  0.40809000  0.53620000  0.02705000  1.0 0.9166788671
Zn  Zn6  1  0.09191000  0.46380000  0.52705000  1.0 0.9166788671
Zn  Zn7  1  0.90809000  0.96380000  0.97295000  1.0 0.9166788671
Zn  Zn8  1  0.59191000  0.03620000  0.47295000  1.0 0.9166788671
Zn  Zn9  1  0.73999000  0.31300000  0.25520000  1.0 0.9074938658
Zn  Zn10  1  0.76001000  0.68700000  0.75520000  1.0 0.9074938658
Zn  Zn11  1  0.23999000  0.18700000  0.74480000  1.0 0.9074938658
Zn  Zn12  1  0.26001000  0.81300000  0.24480000  1.0 0.9074938658
Zn  Zn13  1  0.93618000  0.23522000  0.21517000  1.0 1.0326426986
Zn  Zn14  1  0.56382000  0.76478000  0.71517000  1.0 1.0326426986
Zn  Zn15  1  0.43618000  0.26478000  0.78483000  1.0 1.0326426986
Zn  Zn16  1  0.06382000  0.73522000  0.28483000  1.0 1.0326426986
H  H1  1  0.97700000  0.31900000  0.09300000  1.0 0.1360222611
H  H2  1  0.52300000  0.68100000  0.59300000  1.0 0.1360222611
H  H3  1  0.47700000  0.18100000  0.90700000  1.0 0.1360222611
H  H4  1  0.02300000  0.81900000  0.40700000  1.0 0.1360222611
H  H5  1  0.71960000  0.38830000  0.12100000  1.0 0.1283385745
H  H6  1  0.78040000  0.61170000  0.62100000  1.0 0.1283385745
H  H7  1  0.21960000  0.11170000  0.87900000  1.0 0.1283385745
H  H8  1  0.28040000  0.88830000  0.37900000  1.0 0.1283385745
H  H9  1  0.86840000  0.41100000  0.99740000  1.0 0.1201205186
H  H10  1  0.63160000  0.58900000  0.49740000  1.0 0.1283385745
H  H11  1  0.36840000  0.08900000  0.00260000  1.0 0.1283385745
H  H12  1  0.13160000  0.91100000  0.50260000  1.0 0.1283385745
H  H13  1  0.30890000  0.62570000  0.92460000  1.0 0.1360222611
H  H14  1  0.19110000  0.37430000  0.42460000  1.0 0.1360222611
H  H15  1  0.80890000  0.87430000  0.07540000  1.0 0.1360222611
H  H16  1  0.69110000  0.12570000  0.57540000  1.0 0.1360222611
H  H17  1  0.56630000  0.61030000  0.85450000  1.0 0.1455129746
H  H18  1  0.93370000  0.38970000  0.35450000  1.0 0.1455129746
H  H19  1  0.06630000  0.88970000  0.14550000  1.0 0.1455129746
H  H20  1  0.43370000  0.11030000  0.64550000  1.0 0.1455129746
H  H21  1  0.37240000  0.71720000  0.82040000  1.0 0.1283385745
H  H22  1  0.12760000  0.28280000  0.32040000  1.0 0.1283385745
H  H23  1  0.87240000  0.78280000  0.17960000  1.0 0.1283385745
H  H24  1  0.62760000  0.21720000  0.67960000  1.0 0.1283385745
H  H25  1  0.25410000  0.41530000  0.00980000  1.0 0.1201205186
H  H26  1  0.24590000  0.58470000  0.50980000  1.0 0.1201205186
H  H27  1  0.75410000  0.08470000  0.99020000  1.0 0.1201205186
H  H28  1  0.74590000  0.91530000  0.49020000  1.0 0.1201205186
H  H29  1  0.43080000  0.37790000  0.89990000  1.0 0.1360222611
H  H30  1  0.06920000  0.62210000  0.39990000  1.0 0.1360222611
H  H31  1  0.93080000  0.12210000  0.10010000  1.0 0.1360222611
H  H32  1  0.56920000  0.87790000  0.60010000  1.0 0.1360222611
H  H33  1  0.16000000  0.31640000  0.91580000  1.0 0.1283385745
H  H34  1  0.34000000  0.68360000  0.41580000  1.0 0.1283385745
H  H35  1  0.66000000  0.18360000  0.08420000  1.0 0.1283385745
H  H36  1  0.84000000  0.81640000  0.58420000  1.0 0.1283385745
H  H37  1  0.49440000  0.79320000  0.14890000  1.0 0.1283385745
H  H38  1  0.00560000  0.20680000  0.64890000  1.0 0.1283385745
H  H39  1  0.99440000  0.70680000  0.85110000  1.0 0.1283385745
H  H40  1  0.50560000  0.29320000  0.35110000  1.0 0.1283385745
H  H41  1  0.35160000  0.67020000  0.10730000  1.0 0.1283385745
H  H42  1  0.14840000  0.32980000  0.60730000  1.0 0.1283385745
H  H43  1  0.85160000  0.82980000  0.89270000  1.0 0.1283385745
H  H44  1  0.64840000  0.17020000  0.39270000  1.0 0.1283385745
H  H45  1  0.62810000  0.70130000  0.06220000  1.0 0.1283385745
H  H46  1  0.87190000  0.29870000  0.56220000  1.0 0.1283385745
H  H47  1  0.12810000  0.79870000  0.93780000  1.0 0.1283385745
H  H48  1  0.37190000  0.20130000  0.43780000  1.0 0.1283385745
H  H49  1  0.70590000  0.39900000  0.91300000  1.0 0.0918680763
H  H50  1  0.79410000  0.60100000  0.41300000  1.0 0.0918680763
H  H51  1  0.20590000  0.10100000  0.08700000  1.0 0.0918680763
H  H52  1  0.29410000  0.89900000  0.58700000  1.0 0.0918680763
H  H53  1  0.80030000  0.43240000  0.90070000  1.0 0.0918680763
H  H54  1  0.69970000  0.56760000  0.40070000  1.0 0.0918680763
H  H55  1  0.30030000  0.06760000  0.09930000  1.0 0.0918680763
H  H56  1  0.19970000  0.93240000  0.59930000  1.0 0.0918680763
H  H57  1  0.78520000  0.41860000  0.81860000  1.0 0.1097591422
H  H58  1  0.71480000  0.58140000  0.31860000  1.0 0.1097591422
H  H59  1  0.28520000  0.08140000  0.18140000  1.0 0.1097591422
H  H60  1  0.21480000  0.91860000  0.68140000  1.0 0.1097591422
H  H61  1  0.73040000  0.36920000  0.83590000  1.0 0.1097591422
H  H62  1  0.76960000  0.63080000  0.33590000  1.0 0.1097591422
H  H63  1  0.23040000  0.13080000  0.16410000  1.0 0.1097591422
H  H64  1  0.26960000  0.86920000  0.66410000  1.0 0.1097591422
H  H65  1  0.58260000  0.39930000  0.82210000  1.0 0.1201205186
H  H66  1  0.91740000  0.60070000  0.32210000  1.0 0.1201205186
H  H67  1  0.08260000  0.10070000  0.17790000  1.0 0.1201205186
H  H68  1  0.41740000  0.89930000  0.67790000  1.0 0.1201205186
H  H69  1  0.64070000  0.43530000  0.78640000  1.0 0.1008916908
H  H70  1  0.85930000  0.56470000  0.28640000  1.0 0.1008916908
H  H71  1  0.14070000  0.06470000  0.21360000  1.0 0.1008916908
H  H72  1  0.35930000  0.93530000  0.71360000  1.0 0.1008916908
H  H73  1  0.61920000  0.49730000  0.83320000  1.0 0.1008916908
H  H74  1  0.88080000  0.50270000  0.33320000  1.0 0.1008916908
H  H75  1  0.11920000  0.00270000  0.16680000  1.0 0.1008916908
H  H76  1  0.38080000  0.99730000  0.66680000  1.0 0.1008916908
H  H77  1  0.53930000  0.46430000  0.86060000  1.0 0.1008916908
H  H78  1  0.96070000  0.53570000  0.36060000  1.0 0.1008916908
H  H79  1  0.03930000  0.03570000  0.13940000  1.0 0.1008916908
H  H80  1  0.46070000  0.96430000  0.63940000  1.0 0.1008916908
H  H81  1  0.88060000  0.53030000  0.93690000  1.0 0.1008916908
H  H82  1  0.61940000  0.46970000  0.43690000  1.0 0.1008916908
H  H83  1  0.38060000  0.96970000  0.06310000  1.0 0.1008916908
H  H84  1  0.11940000  0.03030000  0.56310000  1.0 0.1008916908
H  H85  1  0.85710000  0.51120000  0.99020000  1.0 0.0918680763
H  H86  1  0.64290000  0.48880000  0.49020000  1.0 0.0918680763
H  H87  1  0.35710000  0.98880000  0.00980000  1.0 0.0918680763
H  H88  1  0.14290000  0.01120000  0.50980000  1.0 0.0918680763
H  H89  1  0.86840000  0.58930000  0.02220000  1.0 0.1097591422
H  H90  1  0.63160000  0.41070000  0.52220000  1.0 0.1097591422
H  H91  1  0.36840000  0.91070000  0.97780000  1.0 0.1097591422
H  H92  1  0.13160000  0.08930000  0.47780000  1.0 0.1097591422
H  H93  1  0.95560000  0.59050000  0.98280000  1.0 0.1008916908
H  H94  1  0.54440000  0.40950000  0.48280000  1.0 0.1008916908
H  H95  1  0.45560000  0.90950000  0.01720000  1.0 0.1008916908
H  H96  1  0.04440000  0.09050000  0.51720000  1.0 0.1008916908
H  H97  1  0.80840000  0.65150000  0.97900000  1.0 0.1201205186
H  H98  1  0.69160000  0.34850000  0.47900000  1.0 0.1201205186
H  H99  1  0.30840000  0.84850000  0.02100000  1.0 0.1201205186
H  H100  1  0.19160000  0.15150000  0.52100000  1.0 0.1201205186
H  H101  1  0.86510000  0.63410000  0.93130000  1.0 0.1008916908
H  H102  1  0.63490000  0.36590000  0.43130000  1.0 0.1008916908
H  H103  1  0.36510000  0.86590000  0.06870000  1.0 0.1008916908
H  H104  1  0.13490000  0.13410000  0.56870000  1.0 0.1008916908
H  H105  1  0.67720000  0.61330000  0.95640000  1.0 0.1097591422
H  H106  1  0.82280000  0.38670000  0.45640000  1.0 0.1097591422
H  H107  1  0.17720000  0.88670000  0.04360000  1.0 0.1097591422
H  H108  1  0.32280000  0.11330000  0.54360000  1.0 0.1097591422
H  H109  1  0.73250000  0.59770000  0.90800000  1.0 0.0918680763
H  H110  1  0.76750000  0.40230000  0.40800000  1.0 0.0918680763
H  H111  1  0.23250000  0.90230000  0.09200000  1.0 0.0918680763
H  H112  1  0.26750000  0.09770000  0.59200000  1.0 0.0918680763
H  H113  1  0.34940000  0.57330000  0.13650000  1.0 0.1008916908
H  H114  1  0.15060000  0.42670000  0.63650000  1.0 0.1008916908
H  H115  1  0.84940000  0.92670000  0.86350000  1.0 0.1008916908
H  H116  1  0.65060000  0.07330000  0.36350000  1.0 0.1008916908
H  H117  1  0.46520000  0.56350000  0.14510000  1.0 0.1097591422
H  H118  1  0.03480000  0.43650000  0.64510000  1.0 0.1097591422
H  H119  1  0.96520000  0.93650000  0.85490000  1.0 0.1097591422
H  H120  1  0.53480000  0.06350000  0.35490000  1.0 0.1097591422
H  H121  1  0.30480000  0.51140000  0.18730000  1.0 0.1008916908
H  H122  1  0.19520000  0.48860000  0.68730000  1.0 0.1008916908
H  H123  1  0.80480000  0.98860000  0.81270000  1.0 0.1008916908
H  H124  1  0.69520000  0.01140000  0.31270000  1.0 0.1008916908
H  H125  1  0.39970000  0.53500000  0.21430000  1.0 0.1008916908
H  H126  1  0.10030000  0.46500000  0.71430000  1.0 0.1008916908
H  H127  1  0.89970000  0.96500000  0.78570000  1.0 0.1008916908
H  H128  1  0.60030000  0.03500000  0.28570000  1.0 0.1008916908
H  H129  1  0.41690000  0.44710000  0.19050000  1.0 0.1008916908
H  H130  1  0.08310000  0.55290000  0.69050000  1.0 0.1008916908
H  H131  1  0.91690000  0.05290000  0.80950000  1.0 0.1008916908
H  H132  1  0.58310000  0.94710000  0.30950000  1.0 0.1008916908
H  H133  1  0.50770000  0.48250000  0.17700000  1.0 0.1008916908
H  H134  1  0.99230000  0.51750000  0.67700000  1.0 0.1008916908
H  H135  1  0.00770000  0.01750000  0.82300000  1.0 0.1008916908
H  H136  1  0.49230000  0.98250000  0.32300000  1.0 0.1008916908
H  H137  1  0.47620000  0.45160000  0.10340000  1.0 0.1097591422
H  H138  1  0.02380000  0.54840000  0.60340000  1.0 0.1097591422
H  H139  1  0.97620000  0.04840000  0.89660000  1.0 0.1097591422
H  H140  1  0.52380000  0.95160000  0.39660000  1.0 0.1097591422
H  H141  1  0.35930000  0.44570000  0.11400000  1.0 0.1008916908
H  H142  1  0.14070000  0.55430000  0.61400000  1.0 0.1008916908
H  H143  1  0.85930000  0.05430000  0.88600000  1.0 0.1008916908
H  H144  1  0.64070000  0.94570000  0.38600000  1.0 0.1008916908
H  H145  1  0.21290000  0.50330000  0.97290000  1.0 0.1008916908
H  H146  1  0.28710000  0.49670000  0.47290000  1.0 0.1008916908
H  H147  1  0.71290000  0.99670000  0.02710000  1.0 0.1008916908
H  H148  1  0.78710000  0.00330000  0.52710000  1.0 0.1008916908
H  H149  1  0.17410000  0.55860000  0.97150000  1.0 0.1201205186
H  H150  1  0.32590000  0.44140000  0.47150000  1.0 0.1097591422
H  H151  1  0.67410000  0.94140000  0.02850000  1.0 0.1201205186
H  H152  1  0.82590000  0.05860000  0.52850000  1.0 0.1201205186
H  H153  1  0.03140000  0.52530000  0.99090000  1.0 0.1008916908
H  H154  1  0.46860000  0.47470000  0.49090000  1.0 0.1008916908
H  H155  1  0.53140000  0.97470000  0.00910000  1.0 0.1008916908
H  H156  1  0.96860000  0.02530000  0.50910000  1.0 0.1008916908
H  H157  1  0.08340000  0.47790000  0.01470000  1.0 0.1008916908
H  H158  1  0.41660000  0.52210000  0.51470000  1.0 0.1008916908
H  H159  1  0.58340000  0.02210000  0.98530000  1.0 0.1008916908
H  H160  1  0.91660000  0.97790000  0.48530000  1.0 0.1008916908
H  H161  1  0.04180000  0.52390000  0.08030000  1.0 0.1097591422
H  H162  1  0.45820000  0.47610000  0.58030000  1.0 0.1097591422
H  H163  1  0.54180000  0.97610000  0.91970000  1.0 0.1097591422
H  H164  1  0.95820000  0.02390000  0.41970000  1.0 0.1097591422
H  H165  1  0.07560000  0.57400000  0.05430000  1.0 0.1097591422
H  H166  1  0.42440000  0.42600000  0.55430000  1.0 0.1097591422
H  H167  1  0.57560000  0.92600000  0.94570000  1.0 0.1097591422
H  H168  1  0.92440000  0.07400000  0.44570000  1.0 0.1097591422
H  H169  1  0.21170000  0.54740000  0.09870000  1.0 0.1008916908
H  H170  1  0.28830000  0.45260000  0.59870000  1.0 0.1008916908
H  H171  1  0.71170000  0.95260000  0.90130000  1.0 0.1008916908
H  H172  1  0.78830000  0.04740000  0.40130000  1.0 0.1008916908
H  H173  1  0.20140000  0.49320000  0.07690000  1.0 0.1097591422
H  H174  1  0.29860000  0.50680000  0.57690000  1.0 0.1097591422
H  H175  1  0.70140000  0.00680000  0.92310000  1.0 0.1097591422
H  H176  1  0.79860000  0.99320000  0.42310000  1.0 0.1097591422
H  H177  1  0.76650000  0.41230000  0.32350000  1.0 0.0827256914
H  H178  1  0.73350000  0.58770000  0.82350000  1.0 0.0827256914
H  H179  1  0.26650000  0.08770000  0.67650000  1.0 0.0827256914
H  H180  1  0.23350000  0.91230000  0.17650000  1.0 0.0827256914
H  H181  1  0.66950000  0.38340000  0.34060000  1.0 0.0827256914
H  H182  1  0.83050000  0.61660000  0.84060000  1.0 0.0827256914
H  H183  1  0.16950000  0.11660000  0.65940000  1.0 0.0827256914
H  H184  1  0.33050000  0.88340000  0.15940000  1.0 0.0827256914
H  H185  1  0.68380000  0.47960000  0.32740000  1.0 0.0631030064
H  H186  1  0.81620000  0.52040000  0.82740000  1.0 0.0631030064
H  H187  1  0.18380000  0.02040000  0.67260000  1.0 0.0631030064
H  H188  1  0.31620000  0.97960000  0.17260000  1.0 0.0631030064
H  H189  1  0.58410000  0.45000000  0.33990000  1.0 0.0918680763
H  H190  1  0.91590000  0.55000000  0.83990000  1.0 0.0918680763
H  H191  1  0.08410000  0.05000000  0.66010000  1.0 0.0918680763
H  H192  1  0.41590000  0.95000000  0.16010000  1.0 0.0918680763
H  H193  1  0.62310000  0.49290000  0.25660000  1.0 0.0827256914
H  H194  1  0.87690000  0.50710000  0.75660000  1.0 0.0827256914
H  H195  1  0.12310000  0.00710000  0.74340000  1.0 0.0827256914
H  H196  1  0.37690000  0.99290000  0.24340000  1.0 0.0827256914
H  H197  1  0.53150000  0.45670000  0.26670000  1.0 0.0631030064
H  H198  1  0.96850000  0.54330000  0.76670000  1.0 0.0631030064
H  H199  1  0.03150000  0.04330000  0.73330000  1.0 0.0631030064
H  H200  1  0.46850000  0.95670000  0.23330000  1.0 0.0631030064
H  H201  1  0.60560000  0.40720000  0.21630000  1.0 0.0827256914
H  H202  1  0.89440000  0.59280000  0.71630000  1.0 0.0827256914
H  H203  1  0.10560000  0.09280000  0.78370000  1.0 0.0827256914
H  H204  1  0.39440000  0.90720000  0.28370000  1.0 0.0827256914
H  H205  1  0.70940000  0.43540000  0.22110000  1.0 0.0686881639
H  H206  1  0.79060000  0.56460000  0.72110000  1.0 0.0686881639
H  H207  1  0.20940000  0.06460000  0.77890000  1.0 0.0686881639
H  H208  1  0.29060000  0.93540000  0.27890000  1.0 0.0686881639
H  H209  1  0.91920000  0.10340000  0.23830000  1.0 0.1008916908
H  H210  1  0.58080000  0.89660000  0.73830000  1.0 0.1008916908
H  H211  1  0.41920000  0.39660000  0.76170000  1.0 0.1008916908
H  H212  1  0.08080000  0.60340000  0.26170000  1.0 0.1008916908
H  H213  1  0.82100000  0.13590000  0.24460000  1.0 0.1097591422
H  H214  1  0.67900000  0.86410000  0.74460000  1.0 0.1097591422
H  H215  1  0.32100000  0.36410000  0.75540000  1.0 0.1097591422
H  H216  1  0.17900000  0.63590000  0.25540000  1.0 0.1097591422
H  H217  1  0.81800000  0.12560000  0.32300000  1.0 0.1201205186
H  H218  1  0.68200000  0.87440000  0.82300000  1.0 0.1201205186
H  H219  1  0.31800000  0.37440000  0.67700000  1.0 0.1201205186
H  H220  1  0.18200000  0.62560000  0.17700000  1.0 0.1201205186
H  H221  1  0.86610000  0.07410000  0.30710000  1.0 0.0918680763
H  H222  1  0.63390000  0.92590000  0.80710000  1.0 0.0918680763
H  H223  1  0.36610000  0.42590000  0.69290000  1.0 0.0918680763
H  H224  1  0.13390000  0.57410000  0.19290000  1.0 0.0918680763
H  H225  1  0.95950000  0.12760000  0.36380000  1.0 0.1097591422
H  H226  1  0.54050000  0.87240000  0.86380000  1.0 0.1097591422
H  H227  1  0.45950000  0.37240000  0.63620000  1.0 0.1097591422
H  H228  1  0.04050000  0.62760000  0.13620000  1.0 0.1097591422
H  H229  1  0.01920000  0.09910000  0.32250000  1.0 0.1008916908
H  H230  1  0.48080000  0.90090000  0.82250000  1.0 0.1008916908
H  H231  1  0.51920000  0.40090000  0.67750000  1.0 0.1008916908
H  H232  1  0.98080000  0.59910000  0.17750000  1.0 0.1008916908
H  H233  1  0.97060000  0.19740000  0.32730000  1.0 0.1097591422
H  H234  1  0.52940000  0.80260000  0.82730000  1.0 0.1097591422
H  H235  1  0.47060000  0.30260000  0.67270000  1.0 0.1097591422
H  H236  1  0.02940000  0.69740000  0.17270000  1.0 0.1097591422
H  H237  1  0.06620000  0.17240000  0.30340000  1.0 0.1008916908
H  H238  1  0.43380000  0.82760000  0.80340000  1.0 0.1008916908
H  H239  1  0.56620000  0.32760000  0.69660000  1.0 0.1008916908
H  H240  1  0.93380000  0.67240000  0.19660000  1.0 0.1008916908
H  H241  1  0.81120000  0.58820000  0.83730000  1.0 0.0686881639
H  H242  1  0.68880000  0.41180000  0.33730000  1.0 0.0686881639
H  H243  1  0.31120000  0.91180000  0.16270000  1.0 0.0686881639
H  H244  1  0.18880000  0.08820000  0.66270000  1.0 0.0686881639
H  H245  1  0.90000000  0.62650000  0.82740000  1.0 0.0827256914
H  H246  1  0.60000000  0.37350000  0.32740000  1.0 0.0827256914
H  H247  1  0.40000000  0.87350000  0.17260000  1.0 0.0827256914
H  H248  1  0.10000000  0.12650000  0.67260000  1.0 0.0827256914
H  H249  1  0.95710000  0.53650000  0.81780000  1.0 0.0686881639
H  H250  1  0.54290000  0.46350000  0.31780000  1.0 0.0686881639
H  H251  1  0.45710000  0.96350000  0.18220000  1.0 0.0686881639
H  H252  1  0.04290000  0.03650000  0.68220000  1.0 0.0686881639
H  H253  1  0.97730000  0.56810000  0.76980000  1.0 0.0686881639
H  H254  1  0.52270000  0.43190000  0.26980000  1.0 0.0686881639
H  H255  1  0.47730000  0.93190000  0.23020000  1.0 0.0686881639
H  H256  1  0.02270000  0.06810000  0.73020000  1.0 0.0686881639
H  H257  1  0.85950000  0.50450000  0.74270000  1.0 0.0686881639
H  H258  1  0.64050000  0.49550000  0.24270000  1.0 0.0686881639
H  H259  1  0.35950000  0.99550000  0.25730000  1.0 0.0686881639
H  H260  1  0.14050000  0.00450000  0.75730000  1.0 0.0686881639
H  H261  1  0.79050000  0.51320000  0.78920000  1.0 0.0631030064
H  H262  1  0.70950000  0.48680000  0.28920000  1.0 0.0631030064
H  H263  1  0.29050000  0.98680000  0.21080000  1.0 0.0631030064
H  H264  1  0.20950000  0.01320000  0.71080000  1.0 0.0631030064
H  H265  1  0.81530000  0.58080000  0.70870000  1.0 0.0686881639
H  H266  1  0.68470000  0.41920000  0.20870000  1.0 0.0686881639
H  H267  1  0.31530000  0.91920000  0.29130000  1.0 0.0686881639
H  H268  1  0.18470000  0.08080000  0.79130000  1.0 0.0686881639
H  H269  1  0.71490000  0.57230000  0.73860000  1.0 0.0827256914
H  H270  1  0.78510000  0.42770000  0.23860000  1.0 0.0827256914
H  H271  1  0.21490000  0.92770000  0.26140000  1.0 0.0827256914
H  H272  1  0.28510000  0.07230000  0.76140000  1.0 0.0827256914
Pd  Pd1  1  0.06508000  0.36275000  0.00432000  1.0 0.3683366764
Pd  Pd2  1  0.43492000  0.63725000  0.50432000  1.0 0.3683366764
Pd  Pd3  1  0.56508000  0.13725000  0.99568000  1.0 0.3683366764
Pd  Pd4  1  0.93492000  0.86275000  0.49568000  1.0 0.3683366764
Pd  Pd5  1  0.20022000  0.71132000  0.88543000  1.0 0.5128765169
Pd  Pd6  1  0.29978000  0.28868000  0.38543000  1.0 0.5128765169
Pd  Pd7  1  0.70022000  0.78868000  0.11457000  1.0 0.5128765169
Pd  Pd8  1  0.79978000  0.21132000  0.61457000  1.0 0.5128765169
C  C1  1  0.92740000  0.34180000  0.08390000  1.0 0.0512594522
C  C2  1  0.57260000  0.65820000  0.58390000  1.0 0.0512594522
C  C3  1  0.42740000  0.15820000  0.91610000  1.0 0.0512594522
C  C4  1  0.07260000  0.84180000  0.41610000  1.0 0.0512594522
C  C5  1  0.84770000  0.34880000  0.11410000  1.0 -0.0496834956
C  C6  1  0.65230000  0.65120000  0.61410000  1.0 -0.0496834956
C  C7  1  0.34770000  0.15120000  0.88590000  1.0 -0.0496834956
C  C8  1  0.15230000  0.84880000  0.38590000  1.0 -0.0496834956
C  C9  1  0.77400000  0.38170000  0.10050000  1.0 -0.0794301646
C  C10  1  0.72600000  0.61830000  0.60050000  1.0 -0.0794301646
C  C11  1  0.27400000  0.11830000  0.89950000  1.0 -0.0913599335
C  C12  1  0.22600000  0.88170000  0.39950000  1.0 -0.0794301646
C  C13  1  0.78190000  0.40450000  0.05650000  1.0 -0.040583022
C  C14  1  0.71810000  0.59550000  0.55650000  1.0 -0.040583022
C  C15  1  0.28190000  0.09550000  0.94350000  1.0 -0.040583022
C  C16  1  0.21810000  0.90450000  0.44350000  1.0 -0.040583022
C  C17  1  0.86400000  0.39570000  0.02770000  1.0 0.0080403175
C  C18  1  0.63600000  0.60430000  0.52770000  1.0 0.0080403175
C  C19  1  0.36400000  0.10430000  0.97230000  1.0 0.0080403175
C  C20  1  0.13600000  0.89570000  0.47230000  1.0 0.0080403175
C  C21  1  0.84340000  0.32270000  0.16150000  1.0 0.5793096598
C  C22  1  0.65660000  0.67730000  0.66150000  1.0 0.5793096598
C  C23  1  0.34340000  0.17730000  0.83850000  1.0 0.5793096598
C  C24  1  0.15660000  0.82270000  0.33850000  1.0 0.5793096598
C  C25  1  0.70370000  0.44060000  0.03870000  1.0 0.538611925
C  C26  1  0.79630000  0.55940000  0.53870000  1.0 0.538611925
C  C27  1  0.20370000  0.05940000  0.96130000  1.0 0.538611925
C  C28  1  0.29630000  0.94060000  0.46130000  1.0 0.538611925
C  C29  1  0.35330000  0.63650000  0.90060000  1.0 0.0631030064
C  C30  1  0.14670000  0.36350000  0.40060000  1.0 0.0631030064
C  C31  1  0.85330000  0.86350000  0.09940000  1.0 0.0631030064
C  C32  1  0.64670000  0.13650000  0.59940000  1.0 0.0631030064
C  C33  1  0.44360000  0.61200000  0.89410000  1.0 -0.0496834956
C  C34  1  0.05640000  0.38800000  0.39410000  1.0 -0.0496834956
C  C35  1  0.94360000  0.88800000  0.10590000  1.0 -0.0496834956
C  C36  1  0.55640000  0.11200000  0.60590000  1.0 -0.0496834956
C  C37  1  0.50560000  0.62710000  0.85960000  1.0 -0.0913599335
C  C38  1  0.99440000  0.37290000  0.35960000  1.0 -0.0913599335
C  C39  1  0.00560000  0.87290000  0.14040000  1.0 -0.0913599335
C  C40  1  0.49440000  0.12710000  0.64040000  1.0 -0.0913599335
C  C41  1  0.48150000  0.66710000  0.83150000  1.0 -0.040583022
C  C42  1  0.01850000  0.33290000  0.33150000  1.0 -0.040583022
C  C43  1  0.98150000  0.83290000  0.16850000  1.0 -0.040583022
C  C44  1  0.51850000  0.16710000  0.66850000  1.0 -0.040583022
C  C45  1  0.39080000  0.69010000  0.83950000  1.0 0.0382090115
C  C46  1  0.10920000  0.30990000  0.33950000  1.0 0.0382090115
C  C47  1  0.89080000  0.80990000  0.16050000  1.0 0.0382090115
C  C48  1  0.60920000  0.19010000  0.66050000  1.0 0.0382090115
C  C49  1  0.46880000  0.56940000  0.92650000  1.0 0.5793096598
C  C50  1  0.03120000  0.43060000  0.42650000  1.0 0.5793096598
C  C51  1  0.96880000  0.93060000  0.07350000  1.0 0.5793096598
C  C52  1  0.53120000  0.06940000  0.57350000  1.0 0.5793096598
C  C53  1  0.54770000  0.68760000  0.79310000  1.0 0.5793096598
C  C54  1  0.95230000  0.31240000  0.29310000  1.0 0.5793096598
C  C55  1  0.04770000  0.81240000  0.20690000  1.0 0.5793096598
C  C56  1  0.45230000  0.18760000  0.70690000  1.0 0.5793096598
C  C57  1  0.26500000  0.39640000  0.98180000  1.0 0.0382090115
C  C58  1  0.23500000  0.60360000  0.48180000  1.0 0.0382090115
C  C59  1  0.76500000  0.10360000  0.01820000  1.0 0.0382090115
C  C60  1  0.73500000  0.89640000  0.51820000  1.0 0.0382090115
C  C61  1  0.35270000  0.40220000  0.95740000  1.0 -0.0496834956
C  C62  1  0.14730000  0.59780000  0.45740000  1.0 -0.0496834956
C  C63  1  0.85270000  0.09780000  0.04260000  1.0 -0.0496834956
C  C64  1  0.64730000  0.90220000  0.54260000  1.0 -0.0496834956
C  C65  1  0.37040000  0.37480000  0.91700000  1.0 -0.0680258081
C  C66  1  0.12960000  0.62520000  0.41700000  1.0 -0.0680258081
C  C67  1  0.87040000  0.12520000  0.08300000  1.0 -0.0680258081
C  C68  1  0.62960000  0.87480000  0.58300000  1.0 -0.0680258081
C  C69  1  0.29720000  0.34210000  0.90190000  1.0 -0.0496834956
C  C70  1  0.20280000  0.65790000  0.40190000  1.0 -0.0496834956
C  C71  1  0.79720000  0.15790000  0.09810000  1.0 -0.040583022
C  C72  1  0.70280000  0.84210000  0.59810000  1.0 -0.0496834956
C  C73  1  0.21000000  0.33800000  0.92690000  1.0 0.030317011
C  C74  1  0.29000000  0.66200000  0.42690000  1.0 0.030317011
C  C75  1  0.71000000  0.16200000  0.07310000  1.0 0.030317011
C  C76  1  0.79000000  0.83800000  0.57310000  1.0 0.030317011
C  C77  1  0.30930000  0.31300000  0.85630000  1.0 0.5491432908
C  C78  1  0.19070000  0.68700000  0.35630000  1.0 0.5491432908
C  C79  1  0.80930000  0.18700000  0.14370000  1.0 0.5491432908
C  C80  1  0.69070000  0.81300000  0.64370000  1.0 0.5491432908
C  C81  1  0.42430000  0.44070000  0.97540000  1.0 0.5793096598
C  C82  1  0.07570000  0.55930000  0.47540000  1.0 0.5793096598
C  C83  1  0.92430000  0.05930000  0.02460000  1.0 0.5793096598
C  C84  1  0.57570000  0.94070000  0.52460000  1.0 0.5793096598
C  C85  1  0.49310000  0.76350000  0.13130000  1.0 0.0382090115
C  C86  1  0.00690000  0.23650000  0.63130000  1.0 0.0382090115
C  C87  1  0.99310000  0.73650000  0.86870000  1.0 0.0382090115
C  C88  1  0.50690000  0.26350000  0.36870000  1.0 0.0382090115
C  C89  1  0.40810000  0.73400000  0.13240000  1.0 -0.040583022
C  C90  1  0.09190000  0.26600000  0.63240000  1.0 -0.040583022
C  C91  1  0.90810000  0.76600000  0.86760000  1.0 -0.040583022
C  C92  1  0.59190000  0.23400000  0.36760000  1.0 -0.040583022
C  C93  1  0.40760000  0.69120000  0.10650000  1.0 -0.0794301646
C  C94  1  0.09240000  0.30880000  0.60650000  1.0 -0.0794301646
C  C95  1  0.90760000  0.80880000  0.89350000  1.0 -0.0794301646
C  C96  1  0.59240000  0.19120000  0.39350000  1.0 -0.0794301646
C  C97  1  0.48900000  0.67910000  0.07920000  1.0 -0.0496834956
C  C98  1  0.01100000  0.32090000  0.57920000  1.0 -0.0496834956
C  C99  1  0.98900000  0.82090000  0.92080000  1.0 -0.0496834956
C  C100  1  0.51100000  0.17910000  0.42080000  1.0 -0.0496834956
C  C101  1  0.57120000  0.70980000  0.08030000  1.0 0.0512594522
C  C102  1  0.92880000  0.29020000  0.58030000  1.0 0.0512594522
C  C103  1  0.07120000  0.79020000  0.91970000  1.0 0.0512594522
C  C104  1  0.42880000  0.20980000  0.41970000  1.0 0.0512594522
C  C105  1  0.32550000  0.74670000  0.16700000  1.0 0.5348963502
C  C106  1  0.17450000  0.25330000  0.66700000  1.0 0.5348963502
C  C107  1  0.82550000  0.75330000  0.83300000  1.0 0.5348963502
C  C108  1  0.67450000  0.24670000  0.33300000  1.0 0.5348963502
C  C109  1  0.49520000  0.63140000  0.05260000  1.0 0.5491432908
C  C110  1  0.00480000  0.36860000  0.55260000  1.0 0.5491432908
C  C111  1  0.99520000  0.86860000  0.94740000  1.0 0.5491432908
C  C112  1  0.50480000  0.13140000  0.44740000  1.0 0.5491432908
C  C113  1  0.73170000  0.42440000  0.89110000  1.0 0.0080403175
C  C114  1  0.76830000  0.57560000  0.39110000  1.0 0.0080403175
C  C115  1  0.23170000  0.07560000  0.10890000  1.0 0.0080403175
C  C116  1  0.26830000  0.92440000  0.60890000  1.0 0.0080403175
C  C117  1  0.72900000  0.40540000  0.83730000  1.0 -0.1722088661
C  C118  1  0.77100000  0.59460000  0.33730000  1.0 -0.1722088661
C  C119  1  0.22900000  0.09460000  0.16270000  1.0 -0.1722088661
C  C120  1  0.27100000  0.90540000  0.66270000  1.0 -0.1722088661
C  C121  1  0.63460000  0.42460000  0.82010000  1.0 -0.1722088661
C  C122  1  0.86540000  0.57540000  0.32010000  1.0 -0.1722088661
C  C123  1  0.13460000  0.07540000  0.17990000  1.0 -0.1722088661
C  C124  1  0.36540000  0.92460000  0.67990000  1.0 -0.1722088661
C  C125  1  0.60970000  0.46640000  0.85110000  1.0 -0.0221477934
C  C126  1  0.89030000  0.53360000  0.35110000  1.0 -0.0221477934
C  C127  1  0.10970000  0.03360000  0.14890000  1.0 -0.0221477934
C  C128  1  0.39030000  0.96640000  0.64890000  1.0 -0.0221477934
C  C129  1  0.84700000  0.53830000  0.96730000  1.0 -0.0305253881
C  C130  1  0.65300000  0.46170000  0.46730000  1.0 -0.0305253881
C  C131  1  0.34700000  0.96170000  0.03270000  1.0 -0.0305253881
C  C132  1  0.15300000  0.03830000  0.53270000  1.0 -0.0305253881
C  C133  1  0.88400000  0.58650000  0.98800000  1.0 -0.1722088661
C  C134  1  0.61600000  0.41350000  0.48800000  1.0 -0.1722088661
C  C135  1  0.38400000  0.91350000  0.01200000  1.0 -0.1722088661
C  C136  1  0.11600000  0.08650000  0.51200000  1.0 -0.1722088661
C  C137  1  0.82600000  0.62280000  0.95910000  1.0 -0.1722088661
C  C138  1  0.67400000  0.37720000  0.45910000  1.0 -0.1722088661
C  C139  1  0.32600000  0.87720000  0.04090000  1.0 -0.1722088661
C  C140  1  0.17400000  0.12280000  0.54090000  1.0 -0.1722088661
C  C141  1  0.73690000  0.59710000  0.94330000  1.0 -0.0221477934
C  C142  1  0.76310000  0.40290000  0.44330000  1.0 -0.0221477934
C  C143  1  0.23690000  0.90290000  0.05670000  1.0 -0.0221477934
C  C144  1  0.26310000  0.09710000  0.55670000  1.0 -0.0221477934
C  C145  1  0.39990000  0.54760000  0.14140000  1.0 -0.040583022
C  C146  1  0.10010000  0.45240000  0.64140000  1.0 -0.040583022
C  C147  1  0.89990000  0.95240000  0.85860000  1.0 -0.040583022
C  C148  1  0.60010000  0.04760000  0.35860000  1.0 -0.040583022
C  C149  1  0.37600000  0.51910000  0.18470000  1.0 -0.1800664806
C  C150  1  0.12400000  0.48090000  0.68470000  1.0 -0.1800664806
C  C151  1  0.87600000  0.98090000  0.81530000  1.0 -0.1800664806
C  C152  1  0.62400000  0.01910000  0.31530000  1.0 -0.1800664806
C  C153  1  0.43700000  0.47590000  0.17130000  1.0 -0.1986902815
C  C154  1  0.06300000  0.52410000  0.67130000  1.0 -0.1986902815
C  C155  1  0.93700000  0.02410000  0.82870000  1.0 -0.1986902815
C  C156  1  0.56300000  0.97590000  0.32870000  1.0 -0.1986902815
C  C157  1  0.41810000  0.46680000  0.11900000  1.0 0.0022511271
C  C158  1  0.08190000  0.53320000  0.61900000  1.0 0.0022511271
C  C159  1  0.91810000  0.03320000  0.88100000  1.0 0.0022511271
C  C160  1  0.58190000  0.96680000  0.38100000  1.0 0.0022511271
C  C161  1  0.18370000  0.52990000  0.99250000  1.0 -0.0496834956
C  C162  1  0.31630000  0.47010000  0.49250000  1.0 -0.0496834956
C  C163  1  0.68370000  0.97010000  0.00750000  1.0 -0.0496834956
C  C164  1  0.81630000  0.02990000  0.50750000  1.0 -0.0496834956
C  C165  1  0.08690000  0.51380000  0.01120000  1.0 -0.1986902815
C  C166  1  0.41310000  0.48620000  0.51120000  1.0 -0.1986902815
C  C167  1  0.58690000  0.98620000  0.98880000  1.0 -0.1986902815
C  C168  1  0.91310000  0.01380000  0.48880000  1.0 -0.1986902815
C  C169  1  0.08880000  0.53860000  0.05730000  1.0 -0.1869240812
C  C170  1  0.41120000  0.46140000  0.55730000  1.0 -0.1869240812
C  C171  1  0.58880000  0.96140000  0.94270000  1.0 -0.1869240812
C  C172  1  0.91120000  0.03860000  0.44270000  1.0 -0.1869240812
C  C173  1  0.19240000  0.52840000  0.07000000  1.0 -0.0496834956
C  C174  1  0.30760000  0.47160000  0.57000000  1.0 -0.0496834956
C  C175  1  0.69240000  0.97160000  0.93000000  1.0 -0.0496834956
C  C176  1  0.80760000  0.02840000  0.43000000  1.0 -0.0496834956
C  C177  1  0.69600000  0.40600000  0.31620000  1.0 -0.0680258081
C  C178  1  0.80400000  0.59400000  0.81620000  1.0 -0.0680258081
C  C179  1  0.19600000  0.09400000  0.68380000  1.0 -0.0680258081
C  C180  1  0.30400000  0.90600000  0.18380000  1.0 -0.0680258081
C  C181  1  0.64000000  0.45230000  0.31740000  1.0 -0.0794301646
C  C182  1  0.86000000  0.54770000  0.81740000  1.0 -0.0794301646
C  C183  1  0.14000000  0.04770000  0.68260000  1.0 -0.0794301646
C  C184  1  0.36000000  0.95230000  0.18260000  1.0 -0.0794301646
C  C185  1  0.60400000  0.46000000  0.26820000  1.0 -0.0913599335
C  C186  1  0.89600000  0.54000000  0.76820000  1.0 -0.0913599335
C  C187  1  0.10400000  0.04000000  0.73180000  1.0 -0.0913599335
C  C188  1  0.39600000  0.96000000  0.23180000  1.0 -0.0913599335
C  C189  1  0.65300000  0.42140000  0.23920000  1.0 -0.0305253881
C  C190  1  0.84700000  0.57860000  0.73920000  1.0 -0.0305253881
C  C191  1  0.15300000  0.07860000  0.76080000  1.0 -0.0305253881
C  C192  1  0.34700000  0.92140000  0.26080000  1.0 -0.0305253881
C  C193  1  0.88640000  0.12820000  0.25860000  1.0 -0.040583022
C  C194  1  0.61360000  0.87180000  0.75860000  1.0 -0.040583022
C  C195  1  0.38640000  0.37180000  0.74140000  1.0 -0.040583022
C  C196  1  0.11360000  0.62820000  0.24140000  1.0 -0.040583022
C  C197  1  0.87500000  0.11000000  0.30680000  1.0 -0.1800664806
C  C198  1  0.62500000  0.89000000  0.80680000  1.0 -0.1800664806
C  C199  1  0.37500000  0.39000000  0.69320000  1.0 -0.1800664806
C  C200  1  0.12500000  0.61000000  0.19320000  1.0 -0.1800664806
C  C201  1  0.96800000  0.12390000  0.32880000  1.0 -0.1869240812
C  C202  1  0.53200000  0.87610000  0.82880000  1.0 -0.1869240812
C  C203  1  0.46800000  0.37610000  0.67120000  1.0 -0.1869240812
C  C204  1  0.03200000  0.62390000  0.17120000  1.0 -0.1869240812
C  C205  1  0.99350000  0.16990000  0.30710000  1.0 -0.0221477934
C  C206  1  0.50650000  0.83010000  0.80710000  1.0 -0.0221477934
C  C207  1  0.49350000  0.33010000  0.69290000  1.0 -0.0221477934
C  C208  1  0.00650000  0.66990000  0.19290000  1.0 -0.0221477934
C  C209  1  0.85900000  0.60010000  0.81330000  1.0 -0.0305253881
C  C210  1  0.64100000  0.39990000  0.31330000  1.0 -0.0305253881
C  C211  1  0.35900000  0.89990000  0.18670000  1.0 -0.0305253881
C  C212  1  0.14100000  0.10010000  0.68670000  1.0 -0.0305253881
C  C213  1  0.92600000  0.55650000  0.79200000  1.0 -0.1061658322
C  C214  1  0.57400000  0.44350000  0.29200000  1.0 -0.1061658322
C  C215  1  0.42600000  0.94350000  0.20800000  1.0 -0.1061658322
C  C216  1  0.07400000  0.05650000  0.70800000  1.0 -0.1061658322
C  C217  1  0.83600000  0.52890000  0.76620000  1.0 -0.0794301646
C  C218  1  0.66400000  0.47110000  0.26620000  1.0 -0.0794301646
C  C219  1  0.33600000  0.97110000  0.23380000  1.0 -0.0794301646
C  C220  1  0.16400000  0.02890000  0.73380000  1.0 -0.0794301646
C  C221  1  0.78800000  0.57590000  0.74110000  1.0 -0.0496834956
C  C222  1  0.71200000  0.42410000  0.24110000  1.0 -0.0496834956
C  C223  1  0.28800000  0.92410000  0.25890000  1.0 -0.0496834956
C  C224  1  0.21200000  0.07590000  0.75890000  1.0 -0.0496834956
N  N1  1  0.93830000  0.36550000  0.04240000  1.0 -0.0999521904
N  N2  1  0.56170000  0.63450000  0.54240000  1.0 -0.0999521904
N  N3  1  0.43830000  0.13450000  0.95760000  1.0 -0.0999521904
N  N4  1  0.06170000  0.86550000  0.45760000  1.0 -0.0999521904
N  N5  1  0.19420000  0.36500000  0.96790000  1.0 -0.1061658322
N  N6  1  0.30580000  0.63500000  0.46790000  1.0 -0.1061658322
N  N7  1  0.69420000  0.13500000  0.03210000  1.0 -0.1061658322
N  N8  1  0.80580000  0.86500000  0.53210000  1.0 -0.1061658322
N  N9  1  0.32910000  0.67440000  0.87400000  1.0 -0.0999521904
N  N10  1  0.17090000  0.32560000  0.37400000  1.0 -0.0999521904
N  N11  1  0.82910000  0.82560000  0.12600000  1.0 -0.0999521904
N  N12  1  0.67090000  0.17440000  0.62600000  1.0 -0.0999521904
N  N13  1  0.57250000  0.75030000  0.10560000  1.0 -0.1192757872
N  N14  1  0.92750000  0.24970000  0.60560000  1.0 -0.1192757872
N  N15  1  0.07250000  0.74970000  0.89440000  1.0 -0.1192757872
N  N16  1  0.42750000  0.25030000  0.39440000  1.0 -0.1192757872
Cl  Cl1  1  0.15236000  0.36782000  0.07548000  1.0 -0.4050440427
Cl  Cl2  1  0.34764000  0.63218000  0.57548000  1.0 -0.4041552779
Cl  Cl3  1  0.65236000  0.13218000  0.92452000  1.0 -0.4041552779
Cl  Cl4  1  0.84764000  0.86782000  0.42452000  1.0 -0.4041552779
Cl  Cl5  1  0.97827000  0.35961000  0.93409000  1.0 -0.4156666783
Cl  Cl6  1  0.52173000  0.64039000  0.43409000  1.0 -0.4156666783
Cl  Cl7  1  0.47827000  0.14039000  0.06591000  1.0 -0.4156666783
Cl  Cl8  1  0.02173000  0.85961000  0.56591000  1.0 -0.4156666783
Cl  Cl9  1  0.11693000  0.63890000  0.89416000  1.0 -0.5110228744
Cl  Cl10  1  0.38307000  0.36110000  0.39416000  1.0 -0.5110228744
Cl  Cl11  1  0.61693000  0.86110000  0.10584000  1.0 -0.5110228744
Cl  Cl12  1  0.88307000  0.13890000  0.60584000  1.0 -0.5110228744
Cl  Cl13  1  0.28190000  0.78374000  0.87548000  1.0 -0.4283222493
Cl  Cl14  1  0.21810000  0.21626000  0.37548000  1.0 -0.4283222493
Cl  Cl15  1  0.78190000  0.71626000  0.12452000  1.0 -0.4283222493
Cl  Cl16  1  0.71810000  0.28374000  0.62452000  1.0 -0.4283222493
O  O1  1  0.91220000  0.29290000  0.16900000  1.0 -0.5208744791
O  O2  1  0.58780000  0.70710000  0.66900000  1.0 -0.5208744791
O  O3  1  0.41220000  0.20710000  0.83100000  1.0 -0.5208744791
O  O4  1  0.08780000  0.79290000  0.33100000  1.0 -0.5208744791
O  O5  1  0.77480000  0.33520000  0.18889000  1.0 -0.5208744791
O  O6  1  0.72520000  0.66480000  0.68889000  1.0 -0.5208744791
O  O7  1  0.27480000  0.16480000  0.81111000  1.0 -0.5208744791
O  O8  1  0.22520000  0.83520000  0.31111000  1.0 -0.5208744791
O  O9  1  0.70620000  0.45020000  0.99570000  1.0 -0.5208744791
O  O10  1  0.79380000  0.54980000  0.49570000  1.0 -0.5208744791
O  O11  1  0.20620000  0.04980000  0.00430000  1.0 -0.5208744791
O  O12  1  0.29380000  0.95020000  0.50430000  1.0 -0.5208744791
O  O13  1  0.64570000  0.45700000  0.06910000  1.0 -0.4803679746
O  O14  1  0.85430000  0.54300000  0.56910000  1.0 -0.4803679746
O  O15  1  0.14570000  0.04300000  0.93090000  1.0 -0.4803679746
O  O16  1  0.35430000  0.95700000  0.43090000  1.0 -0.4803679746
O  O17  1  0.54900000  0.54910000  0.91934000  1.0 -0.5208744791
O  O18  1  0.95100000  0.45090000  0.41934000  1.0 -0.5208744791
O  O19  1  0.04900000  0.95090000  0.08066000  1.0 -0.5208744791
O  O20  1  0.45100000  0.04910000  0.58066000  1.0 -0.5208744791
O  O21  1  0.40310000  0.55790000  0.95716000  1.0 -0.5471332085
O  O22  1  0.09690000  0.44210000  0.45716000  1.0 -0.5471332085
O  O23  1  0.90310000  0.94210000  0.04284000  1.0 -0.5471332085
O  O24  1  0.59690000  0.05790000  0.54284000  1.0 -0.5471332085
O  O25  1  0.63140000  0.66730000  0.78890000  1.0 -0.5556292471
O  O26  1  0.86860000  0.33270000  0.28890000  1.0 -0.5556292471
O  O27  1  0.13140000  0.83270000  0.21110000  1.0 -0.5556292471
O  O28  1  0.36860000  0.16730000  0.71110000  1.0 -0.5556292471
O  O29  1  0.51510000  0.72310000  0.77030000  1.0 -0.5110228744
O  O30  1  0.98490000  0.27690000  0.27030000  1.0 -0.5110228744
O  O31  1  0.01510000  0.77690000  0.22970000  1.0 -0.5110228744
O  O32  1  0.48490000  0.22310000  0.72970000  1.0 -0.5110228744
O  O33  1  0.39390000  0.31220000  0.83790000  1.0 -0.5413190064
O  O34  1  0.10610000  0.68780000  0.33790000  1.0 -0.5413190064
O  O35  1  0.89390000  0.18780000  0.16210000  1.0 -0.5413190064
O  O36  1  0.60610000  0.81220000  0.66210000  1.0 -0.5413190064
O  O37  1  0.23360000  0.29180000  0.84100000  1.0 -0.4803679746
O  O38  1  0.26640000  0.70820000  0.34100000  1.0 -0.4803679746
O  O39  1  0.73360000  0.20820000  0.15900000  1.0 -0.4803679746
O  O40  1  0.76640000  0.79180000  0.65900000  1.0 -0.4803679746
O  O41  1  0.50210000  0.44620000  0.95300000  1.0 -0.5208744791
O  O42  1  0.99790000  0.55380000  0.45300000  1.0 -0.5208744791
O  O43  1  0.00210000  0.05380000  0.04700000  1.0 -0.5208744791
O  O44  1  0.49790000  0.94620000  0.54700000  1.0 -0.5208744791
O  O45  1  0.39450000  0.46430000  0.01117000  1.0 -0.5283739877
O  O46  1  0.10550000  0.53570000  0.51117000  1.0 -0.5283739877
O  O47  1  0.89450000  0.03570000  0.98883000  1.0 -0.5283739877
O  O48  1  0.60550000  0.96430000  0.48883000  1.0 -0.5283739877
O  O49  1  0.32680000  0.78900000  0.18320000  1.0 -0.5283739877
O  O50  1  0.17320000  0.21100000  0.68320000  1.0 -0.5283739877
O  O51  1  0.82680000  0.71100000  0.81680000  1.0 -0.5283739877
O  O52  1  0.67320000  0.28900000  0.31680000  1.0 -0.5283739877
O  O53  1  0.26930000  0.71260000  0.17750000  1.0 -0.49975633
O  O54  1  0.23070000  0.28740000  0.67750000  1.0 -0.49975633
O  O55  1  0.76930000  0.78740000  0.82250000  1.0 -0.49975633
O  O56  1  0.73070000  0.21260000  0.32250000  1.0 -0.49975633
O  O57  1  0.57830000  0.62060000  0.03460000  1.0 -0.5208744791
O  O58  1  0.92170000  0.37940000  0.53460000  1.0 -0.5208744791
O  O59  1  0.07830000  0.87940000  0.96540000  1.0 -0.5208744791
O  O60  1  0.42170000  0.12060000  0.46540000  1.0 -0.5208744791
O  O61  1  0.41840000  0.60620000  0.05060000  1.0 -0.5471332085
O  O62  1  0.08160000  0.39380000  0.55060000  1.0 -0.5471332085
O  O63  1  0.91840000  0.89380000  0.94940000  1.0 -0.5471332085
O  O64  1  0.58160000  0.10620000  0.44940000  1.0 -0.5471332085
O  O65  1  0.67140000  0.46670000  0.89310000  1.0 -0.2639737588
O  O66  1  0.82860000  0.53330000  0.39310000  1.0 -0.2639737588
O  O67  1  0.17140000  0.03330000  0.10690000  1.0 -0.2639737588
O  O68  1  0.32860000  0.96670000  0.60690000  1.0 -0.2639737588
O  O69  1  0.74240000  0.54780000  0.95990000  1.0 -0.2325359297
O  O70  1  0.75760000  0.45220000  0.45990000  1.0 -0.2325359297
O  O71  1  0.24240000  0.95220000  0.04010000  1.0 -0.2325359297
O  O72  1  0.25760000  0.04780000  0.54010000  1.0 -0.2325359297
O  O73  1  0.40130000  0.51520000  0.10160000  1.0 -0.2169448074
O  O74  1  0.09870000  0.48480000  0.60160000  1.0 -0.2169448074
O  O75  1  0.90130000  0.98480000  0.89840000  1.0 -0.2169448074
O  O76  1  0.59870000  0.01520000  0.39840000  1.0 -0.2169448074
O  O77  1  0.25080000  0.54230000  0.03040000  1.0 -0.2128712472
O  O78  1  0.24920000  0.45770000  0.53040000  1.0 -0.2128712472
O  O79  1  0.75080000  0.95770000  0.96960000  1.0 -0.2128712472
O  O80  1  0.74920000  0.04230000  0.46960000  1.0 -0.2128712472
O  O81  1  0.68760000  0.38500000  0.27110000  1.0 -0.1566238117
O  O82  1  0.81240000  0.61500000  0.77110000  1.0 -0.1566238117
O  O83  1  0.18760000  0.11500000  0.72890000  1.0 -0.1566238117
O  O84  1  0.31240000  0.88500000  0.22890000  1.0 -0.1566238117
O  O85  1  0.59590000  0.29740000  0.22430000  1.0 -0.1722088661
O  O86  1  0.90410000  0.70260000  0.72430000  1.0 -0.1722088661
O  O87  1  0.09590000  0.20260000  0.77570000  1.0 -0.1722088661
O  O88  1  0.40410000  0.79740000  0.27570000  1.0 -0.1722088661
O  O89  1  0.94650000  0.17170000  0.26150000  1.0 -0.1869240812
O  O90  1  0.55350000  0.82830000  0.76150000  1.0 -0.1869240812
O  O91  1  0.44650000  0.32830000  0.73850000  1.0 -0.1869240812
O  O92  1  0.05350000  0.67170000  0.23850000  1.0 -0.1869240812
O  O93  1  0.08050000  0.22480000  0.19510000  1.0 -0.4487723869
O  O94  1  0.41950000  0.77520000  0.69510000  1.0 -0.4487723869
O  O95  1  0.58050000  0.27520000  0.80490000  1.0 -0.4487723869
O  O96  1  0.91950000  0.72480000  0.30490000  1.0 -0.4487723869
O  O97  1  0.56360000  0.52780000  0.02443000  1.0 -0.2774785918
O  O98  1  0.93640000  0.47220000  0.52443000  1.0 -0.2774785918
O  O99  1  0.06360000  0.97220000  0.97557000  1.0 -0.2774785918
O  O100  1  0.43640000  0.02780000  0.47557000  1.0 -0.2774785918
O  O101  1  0.78820000  0.24100000  0.23960000  1.0 -0.3537014561
O  O102  1  0.71180000  0.75900000  0.73960000  1.0 -0.3537014561
O  O103  1  0.28820000  0.25900000  0.76040000  1.0 -0.3558503029
O  O104  1  0.21180000  0.74100000  0.26040000  1.0 -0.3537014561
