# DDEC6 charges by PACMAN v1.1 (https://github.com/mtap-research/PACMAN-charge/)
data_COCMUE_ASR_pacman
_symmetry_space_group_name_H-M   'P 1'
_cell_length_a   31.78750000
_cell_length_b   31.78750000
_cell_length_c   31.78750000
_cell_angle_alpha   109.47100000
_cell_angle_beta   109.47100000
_cell_angle_gamma   109.47100000
_symmetry_Int_Tables_number   1
_chemical_formula_structural   Mn2SiH16(C7N4)4
_chemical_formula_sum   'Mn24 Si12 H192 C336 N192'
_cell_volume   24725.82416058
_cell_formula_units_Z   12
loop_
 _symmetry_equiv_pos_site_id
 _symmetry_equiv_pos_as_xyz
  1  'x, y, z'
loop_
 _atom_site_type_symbol
 _atom_site_label
 _atom_site_symmetry_multiplicity
 _atom_site_fract_x
 _atom_site_fract_y
 _atom_site_fract_z
 _atom_site_occupancy
 _atom_site_charge
Mn  Mn1  1  0.00000000  0.00000000  0.00000000  1.0 0.4770384599
Mn  Mn2  1  0.50000000  0.00000000  0.50000000  1.0 0.4770384599
Mn  Mn3  1  0.00000000  0.50000000  0.50000000  1.0 0.4739907075
Mn  Mn4  1  0.50000000  0.50000000  0.00000000  1.0 0.4770384599
Mn  Mn5  1  0.50000000  0.00000000  0.00000000  1.0 0.4739907075
Mn  Mn6  1  0.50000000  0.50000000  0.50000000  1.0 0.4739907075
Mn  Mn7  1  0.00000000  0.00000000  0.50000000  1.0 0.4770384599
Mn  Mn8  1  0.00000000  0.50000000  0.00000000  1.0 0.4770384599
Mn  Mn9  1  0.12756000  0.12756000  0.12756000  1.0 0.5984643031
Mn  Mn10  1  0.50000000  0.00000000  0.37244000  1.0 0.5924461988
Mn  Mn11  1  0.00000000  0.37244000  0.50000000  1.0 0.5924461988
Mn  Mn12  1  0.37244000  0.50000000  0.00000000  1.0 0.5984643031
Mn  Mn13  1  0.50000000  0.00000000  0.12756000  1.0 0.5924461988
Mn  Mn14  1  0.37244000  0.37244000  0.37244000  1.0 0.5924461988
Mn  Mn15  1  0.00000000  0.12756000  0.50000000  1.0 0.5924461988
Mn  Mn16  1  0.12756000  0.50000000  0.00000000  1.0 0.5984643031
Mn  Mn17  1  0.87244000  0.87244000  0.87244000  1.0 0.5984643031
Mn  Mn18  1  0.50000000  0.00000000  0.62756000  1.0 0.5924461988
Mn  Mn19  1  0.00000000  0.62756000  0.50000000  1.0 0.5924461988
Mn  Mn20  1  0.62756000  0.50000000  0.00000000  1.0 0.5984643031
Mn  Mn21  1  0.50000000  0.00000000  0.87244000  1.0 0.5924461988
Mn  Mn22  1  0.62756000  0.62756000  0.62756000  1.0 0.5924461988
Mn  Mn23  1  0.00000000  0.87244000  0.50000000  1.0 0.5924461988
Mn  Mn24  1  0.87244000  0.50000000  0.00000000  1.0 0.5924461988
Si  Si1  1  0.87500000  0.25000000  0.12500000  1.0 0.6925708288
Si  Si2  1  0.62500000  0.75000000  0.37500000  1.0 0.6925708288
Si  Si3  1  0.12500000  0.87500000  0.25000000  1.0 0.6958385993
Si  Si4  1  0.37500000  0.62500000  0.75000000  1.0 0.6925708288
Si  Si5  1  0.25000000  0.12500000  0.87500000  1.0 0.6925708288
Si  Si6  1  0.75000000  0.37500000  0.62500000  1.0 0.6925708288
Si  Si7  1  0.75000000  0.87500000  0.12500000  1.0 0.6925708288
Si  Si8  1  0.25000000  0.62500000  0.37500000  1.0 0.6925708288
Si  Si9  1  0.62500000  0.37500000  0.25000000  1.0 0.6925708288
Si  Si10  1  0.87500000  0.12500000  0.75000000  1.0 0.6925708288
Si  Si11  1  0.12500000  0.75000000  0.87500000  1.0 0.6925708288
Si  Si12  1  0.37500000  0.25000000  0.62500000  1.0 0.6925708288
H  H1  1  0.02320000  0.23180000  0.15120000  1.0 0.1160517846
H  H2  1  0.58060000  0.87200000  0.34880000  1.0 0.1160517846
H  H3  1  0.91940000  0.26820000  0.29140000  1.0 0.1160517846
H  H4  1  0.47680000  0.62800000  0.20860000  1.0 0.1160517846
H  H5  1  0.15120000  0.02320000  0.23180000  1.0 0.1160517846
H  H6  1  0.34880000  0.58060000  0.87200000  1.0 0.1160517846
H  H7  1  0.29140000  0.91940000  0.26820000  1.0 0.1160517846
H  H8  1  0.20860000  0.47680000  0.62800000  1.0 0.1160517846
H  H9  1  0.23180000  0.15120000  0.02320000  1.0 0.111762695
H  H10  1  0.87200000  0.34880000  0.58060000  1.0 0.1160517846
H  H11  1  0.26820000  0.29140000  0.91940000  1.0 0.1160517846
H  H12  1  0.62800000  0.20860000  0.47680000  1.0 0.1160517846
H  H13  1  0.62800000  0.91940000  0.15120000  1.0 0.1160517846
H  H14  1  0.26820000  0.47680000  0.34880000  1.0 0.1160517846
H  H15  1  0.87200000  0.02320000  0.29140000  1.0 0.1160517846
H  H16  1  0.23180000  0.58060000  0.20860000  1.0 0.1160517846
H  H17  1  0.58060000  0.20860000  0.23180000  1.0 0.1160517846
H  H18  1  0.02320000  0.29140000  0.87200000  1.0 0.1160517846
H  H19  1  0.47680000  0.34880000  0.26820000  1.0 0.111762695
H  H20  1  0.91940000  0.15120000  0.62800000  1.0 0.1160517846
H  H21  1  0.29140000  0.87200000  0.02320000  1.0 0.1160517846
H  H22  1  0.20860000  0.23180000  0.58060000  1.0 0.1160517846
H  H23  1  0.15120000  0.62800000  0.91940000  1.0 0.1160517846
H  H24  1  0.34880000  0.26820000  0.47680000  1.0 0.1160517846
H  H25  1  0.97680000  0.76820000  0.84880000  1.0 0.1160517846
H  H26  1  0.41940000  0.12800000  0.65120000  1.0 0.1160517846
H  H27  1  0.08060000  0.73180000  0.70860000  1.0 0.1160517846
H  H28  1  0.52320000  0.37200000  0.79140000  1.0 0.1160517846
H  H29  1  0.84880000  0.97680000  0.76820000  1.0 0.1160517846
H  H30  1  0.65120000  0.41940000  0.12800000  1.0 0.111762695
H  H31  1  0.70860000  0.08060000  0.73180000  1.0 0.1160517846
H  H32  1  0.79140000  0.52320000  0.37200000  1.0 0.1160517846
H  H33  1  0.76820000  0.84880000  0.97680000  1.0 0.111762695
H  H34  1  0.12800000  0.65120000  0.41940000  1.0 0.1160517846
H  H35  1  0.73180000  0.70860000  0.08060000  1.0 0.111762695
H  H36  1  0.37200000  0.79140000  0.52320000  1.0 0.1160517846
H  H37  1  0.37200000  0.08060000  0.84880000  1.0 0.1160517846
H  H38  1  0.73180000  0.52320000  0.65120000  1.0 0.111762695
H  H39  1  0.12800000  0.97680000  0.70860000  1.0 0.111762695
H  H40  1  0.76820000  0.41940000  0.79140000  1.0 0.1160517846
H  H41  1  0.41940000  0.79140000  0.76820000  1.0 0.1160517846
H  H42  1  0.97680000  0.70860000  0.12800000  1.0 0.111762695
H  H43  1  0.52320000  0.65120000  0.73180000  1.0 0.1160517846
H  H44  1  0.08060000  0.84880000  0.37200000  1.0 0.1160517846
H  H45  1  0.70860000  0.12800000  0.97680000  1.0 0.111762695
H  H46  1  0.79140000  0.76820000  0.41940000  1.0 0.1160517846
H  H47  1  0.84880000  0.37200000  0.08060000  1.0 0.1160517846
H  H48  1  0.65120000  0.73180000  0.52320000  1.0 0.1160517846
H  H49  1  0.88740000  0.09490000  0.04910000  1.0 0.1315968917
H  H50  1  0.54580000  0.83830000  0.45090000  1.0 0.1315968917
H  H51  1  0.95420000  0.40510000  0.29250000  1.0 0.1315968917
H  H52  1  0.61260000  0.66170000  0.20750000  1.0 0.1315968917
H  H53  1  0.04910000  0.88740000  0.09490000  1.0 0.1315968917
H  H54  1  0.45090000  0.54580000  0.83830000  1.0 0.1315968917
H  H55  1  0.29250000  0.95420000  0.40510000  1.0 0.1315968917
H  H56  1  0.20750000  0.61260000  0.66170000  1.0 0.1315968917
H  H57  1  0.09490000  0.04910000  0.88740000  1.0 0.1315968917
H  H58  1  0.83830000  0.45090000  0.54580000  1.0 0.1315968917
H  H59  1  0.40510000  0.29250000  0.95420000  1.0 0.1315968917
H  H60  1  0.66170000  0.20750000  0.61260000  1.0 0.1315968917
H  H61  1  0.66170000  0.95420000  0.04910000  1.0 0.1315968917
H  H62  1  0.40510000  0.61260000  0.45090000  1.0 0.1315968917
H  H63  1  0.83830000  0.88740000  0.29250000  1.0 0.1315968917
H  H64  1  0.09490000  0.54580000  0.20750000  1.0 0.1315968917
H  H65  1  0.54580000  0.20750000  0.09490000  1.0 0.1315968917
H  H66  1  0.88740000  0.29250000  0.83830000  1.0 0.1315968917
H  H67  1  0.61260000  0.45090000  0.40510000  1.0 0.1315968917
H  H68  1  0.95420000  0.04910000  0.66170000  1.0 0.1315968917
H  H69  1  0.29250000  0.83830000  0.88740000  1.0 0.1315968917
H  H70  1  0.20750000  0.09490000  0.54580000  1.0 0.1315968917
H  H71  1  0.04910000  0.66170000  0.95420000  1.0 0.1315968917
H  H72  1  0.45090000  0.40510000  0.61260000  1.0 0.1315968917
H  H73  1  0.11260000  0.90510000  0.95090000  1.0 0.1315968917
H  H74  1  0.45420000  0.16170000  0.54910000  1.0 0.1315968917
H  H75  1  0.04580000  0.59490000  0.70750000  1.0 0.1315968917
H  H76  1  0.38740000  0.33830000  0.79250000  1.0 0.1315968917
H  H77  1  0.95090000  0.11260000  0.90510000  1.0 0.1315968917
H  H78  1  0.54910000  0.45420000  0.16170000  1.0 0.1315968917
H  H79  1  0.70750000  0.04580000  0.59490000  1.0 0.1315968917
H  H80  1  0.79250000  0.38740000  0.33830000  1.0 0.1315968917
H  H81  1  0.90510000  0.95090000  0.11260000  1.0 0.1315968917
H  H82  1  0.16170000  0.54910000  0.45420000  1.0 0.1315968917
H  H83  1  0.59490000  0.70750000  0.04580000  1.0 0.1315968917
H  H84  1  0.33830000  0.79250000  0.38740000  1.0 0.1315968917
H  H85  1  0.33830000  0.04580000  0.95090000  1.0 0.1315968917
H  H86  1  0.59490000  0.38740000  0.54910000  1.0 0.1315968917
H  H87  1  0.16170000  0.11260000  0.70750000  1.0 0.1315968917
H  H88  1  0.90510000  0.45420000  0.79250000  1.0 0.1315968917
H  H89  1  0.45420000  0.79250000  0.90510000  1.0 0.1315968917
H  H90  1  0.11260000  0.70750000  0.16170000  1.0 0.1315968917
H  H91  1  0.38740000  0.54910000  0.59490000  1.0 0.1315968917
H  H92  1  0.04580000  0.95090000  0.33830000  1.0 0.1315968917
H  H93  1  0.70750000  0.16170000  0.11260000  1.0 0.1315968917
H  H94  1  0.79250000  0.90510000  0.45420000  1.0 0.1315968917
H  H95  1  0.95090000  0.33830000  0.04580000  1.0 0.1315968917
H  H96  1  0.54910000  0.59490000  0.38740000  1.0 0.1315968917
H  H97  1  0.97440000  0.27150000  0.15970000  1.0 0.111762695
H  H98  1  0.61180000  0.81470000  0.34030000  1.0 0.111762695
H  H99  1  0.88820000  0.22850000  0.20290000  1.0 0.111762695
H  H100  1  0.52560000  0.68530000  0.29710000  1.0 0.111762695
H  H101  1  0.15970000  0.97440000  0.27150000  1.0 0.111762695
H  H102  1  0.34030000  0.61180000  0.81470000  1.0 0.111762695
H  H103  1  0.20290000  0.88820000  0.22850000  1.0 0.111762695
H  H104  1  0.29710000  0.52560000  0.68530000  1.0 0.111762695
H  H105  1  0.27150000  0.15970000  0.97440000  1.0 0.111762695
H  H106  1  0.81470000  0.34030000  0.61180000  1.0 0.111762695
H  H107  1  0.22850000  0.20290000  0.88820000  1.0 0.111762695
H  H108  1  0.68530000  0.29710000  0.52560000  1.0 0.111762695
H  H109  1  0.68530000  0.88820000  0.15970000  1.0 0.111762695
H  H110  1  0.22850000  0.52560000  0.34030000  1.0 0.111762695
H  H111  1  0.81470000  0.97440000  0.20290000  1.0 0.111762695
H  H112  1  0.27150000  0.61180000  0.29710000  1.0 0.111762695
H  H113  1  0.61180000  0.29710000  0.27150000  1.0 0.111762695
H  H114  1  0.97440000  0.20290000  0.81470000  1.0 0.111762695
H  H115  1  0.52560000  0.34030000  0.22850000  1.0 0.111762695
H  H116  1  0.88820000  0.15970000  0.68530000  1.0 0.111762695
H  H117  1  0.20290000  0.81470000  0.97440000  1.0 0.111762695
H  H118  1  0.29710000  0.27150000  0.61180000  1.0 0.111762695
H  H119  1  0.15970000  0.68530000  0.88820000  1.0 0.111762695
H  H120  1  0.34030000  0.22850000  0.52560000  1.0 0.111762695
H  H121  1  0.02560000  0.72850000  0.84030000  1.0 0.111762695
H  H122  1  0.38820000  0.18530000  0.65970000  1.0 0.111762695
H  H123  1  0.11180000  0.77150000  0.79710000  1.0 0.111762695
H  H124  1  0.47440000  0.31470000  0.70290000  1.0 0.111762695
H  H125  1  0.84030000  0.02560000  0.72850000  1.0 0.111762695
H  H126  1  0.65970000  0.38820000  0.18530000  1.0 0.111762695
H  H127  1  0.79710000  0.11180000  0.77150000  1.0 0.111762695
H  H128  1  0.70290000  0.47440000  0.31470000  1.0 0.111762695
H  H129  1  0.72850000  0.84030000  0.02560000  1.0 0.111762695
H  H130  1  0.18530000  0.65970000  0.38820000  1.0 0.111762695
H  H131  1  0.77150000  0.79710000  0.11180000  1.0 0.111762695
H  H132  1  0.31470000  0.70290000  0.47440000  1.0 0.111762695
H  H133  1  0.31470000  0.11180000  0.84030000  1.0 0.111762695
H  H134  1  0.77150000  0.47440000  0.65970000  1.0 0.111762695
H  H135  1  0.18530000  0.02560000  0.79710000  1.0 0.111762695
H  H136  1  0.72850000  0.38820000  0.70290000  1.0 0.111762695
H  H137  1  0.38820000  0.70290000  0.72850000  1.0 0.111762695
H  H138  1  0.02560000  0.79710000  0.18530000  1.0 0.111762695
H  H139  1  0.47440000  0.65970000  0.77150000  1.0 0.111762695
H  H140  1  0.11180000  0.84030000  0.31470000  1.0 0.111762695
H  H141  1  0.79710000  0.18530000  0.02560000  1.0 0.111762695
H  H142  1  0.70290000  0.72850000  0.38820000  1.0 0.111762695
H  H143  1  0.84030000  0.31470000  0.11180000  1.0 0.111762695
H  H144  1  0.65970000  0.77150000  0.47440000  1.0 0.111762695
H  H145  1  0.84510000  0.13640000  0.06090000  1.0 0.111762695
H  H146  1  0.57550000  0.78420000  0.43910000  1.0 0.111762695
H  H147  1  0.92450000  0.36360000  0.20870000  1.0 0.111762695
H  H148  1  0.65490000  0.71580000  0.29130000  1.0 0.111762695
H  H149  1  0.06090000  0.84510000  0.13640000  1.0 0.111762695
H  H150  1  0.43910000  0.57550000  0.78420000  1.0 0.111762695
H  H151  1  0.20870000  0.92450000  0.36360000  1.0 0.111762695
H  H152  1  0.29130000  0.65490000  0.71580000  1.0 0.111762695
H  H153  1  0.13640000  0.06090000  0.84510000  1.0 0.111762695
H  H154  1  0.78420000  0.43910000  0.57550000  1.0 0.111762695
H  H155  1  0.36360000  0.20870000  0.92450000  1.0 0.111762695
H  H156  1  0.71580000  0.29130000  0.65490000  1.0 0.111762695
H  H157  1  0.71580000  0.92450000  0.06090000  1.0 0.111762695
H  H158  1  0.36360000  0.65490000  0.43910000  1.0 0.111762695
H  H159  1  0.78420000  0.84510000  0.20870000  1.0 0.111762695
H  H160  1  0.13640000  0.57550000  0.29130000  1.0 0.111762695
H  H161  1  0.57550000  0.29130000  0.13640000  1.0 0.111762695
H  H162  1  0.84510000  0.20870000  0.78420000  1.0 0.111762695
H  H163  1  0.65490000  0.43910000  0.36360000  1.0 0.111762695
H  H164  1  0.92450000  0.06090000  0.71580000  1.0 0.111762695
H  H165  1  0.20870000  0.78420000  0.84510000  1.0 0.111762695
H  H166  1  0.29130000  0.13640000  0.57550000  1.0 0.111762695
H  H167  1  0.06090000  0.71580000  0.92450000  1.0 0.111762695
H  H168  1  0.43910000  0.36360000  0.65490000  1.0 0.111762695
H  H169  1  0.15490000  0.86360000  0.93910000  1.0 0.111762695
H  H170  1  0.42450000  0.21580000  0.56090000  1.0 0.111762695
H  H171  1  0.07550000  0.63640000  0.79130000  1.0 0.111762695
H  H172  1  0.34510000  0.28420000  0.70870000  1.0 0.111762695
H  H173  1  0.93910000  0.15490000  0.86360000  1.0 0.111762695
H  H174  1  0.56090000  0.42450000  0.21580000  1.0 0.111762695
H  H175  1  0.79130000  0.07550000  0.63640000  1.0 0.111762695
H  H176  1  0.70870000  0.34510000  0.28420000  1.0 0.111762695
H  H177  1  0.86360000  0.93910000  0.15490000  1.0 0.111762695
H  H178  1  0.21580000  0.56090000  0.42450000  1.0 0.111762695
H  H179  1  0.63640000  0.79130000  0.07550000  1.0 0.111762695
H  H180  1  0.28420000  0.70870000  0.34510000  1.0 0.111762695
H  H181  1  0.28420000  0.07550000  0.93910000  1.0 0.111762695
H  H182  1  0.63640000  0.34510000  0.56090000  1.0 0.111762695
H  H183  1  0.21580000  0.15490000  0.79130000  1.0 0.111762695
H  H184  1  0.86360000  0.42450000  0.70870000  1.0 0.111762695
H  H185  1  0.42450000  0.70870000  0.86360000  1.0 0.111762695
H  H186  1  0.15490000  0.79130000  0.21580000  1.0 0.111762695
H  H187  1  0.34510000  0.56090000  0.63640000  1.0 0.111762695
H  H188  1  0.07550000  0.93910000  0.28420000  1.0 0.111762695
H  H189  1  0.79130000  0.21580000  0.15490000  1.0 0.111762695
H  H190  1  0.70870000  0.86360000  0.42450000  1.0 0.111762695
H  H191  1  0.93910000  0.28420000  0.07550000  1.0 0.111762695
H  H192  1  0.56090000  0.63640000  0.34510000  1.0 0.111762695
C  C1  1  0.98500000  0.12670000  0.08130000  1.0 0.2186665909
C  C2  1  0.54540000  0.90370000  0.41870000  1.0 0.2186665909
C  C3  1  0.95460000  0.37330000  0.35830000  1.0 0.2186665909
C  C4  1  0.51500000  0.59630000  0.14170000  1.0 0.2186665909
C  C5  1  0.08130000  0.98500000  0.12670000  1.0 0.2186665909
C  C6  1  0.41870000  0.54540000  0.90370000  1.0 0.2186665909
C  C7  1  0.35830000  0.95460000  0.37330000  1.0 0.2186665909
C  C8  1  0.14170000  0.51500000  0.59630000  1.0 0.2186665909
C  C9  1  0.12670000  0.08130000  0.98500000  1.0 0.2186665909
C  C10  1  0.90370000  0.41870000  0.54540000  1.0 0.2186665909
C  C11  1  0.37330000  0.35830000  0.95460000  1.0 0.2186665909
C  C12  1  0.59630000  0.14170000  0.51500000  1.0 0.2186665909
C  C13  1  0.59630000  0.95460000  0.08130000  1.0 0.2186665909
C  C14  1  0.37330000  0.51500000  0.41870000  1.0 0.2186665909
C  C15  1  0.90370000  0.98500000  0.35830000  1.0 0.2186665909
C  C16  1  0.12670000  0.54540000  0.14170000  1.0 0.2186665909
C  C17  1  0.54540000  0.14170000  0.12670000  1.0 0.2186665909
C  C18  1  0.98500000  0.35830000  0.90370000  1.0 0.2186665909
C  C19  1  0.51500000  0.41870000  0.37330000  1.0 0.2186665909
C  C20  1  0.95460000  0.08130000  0.59630000  1.0 0.2186665909
C  C21  1  0.35830000  0.90370000  0.98500000  1.0 0.2186665909
C  C22  1  0.14170000  0.12670000  0.54540000  1.0 0.2186665909
C  C23  1  0.08130000  0.59630000  0.95460000  1.0 0.2186665909
C  C24  1  0.41870000  0.37330000  0.51500000  1.0 0.2186665909
C  C25  1  0.01500000  0.87330000  0.91870000  1.0 0.2186665909
C  C26  1  0.45460000  0.09630000  0.58130000  1.0 0.2186665909
C  C27  1  0.04540000  0.62670000  0.64170000  1.0 0.2186665909
C  C28  1  0.48500000  0.40370000  0.85830000  1.0 0.2186665909
C  C29  1  0.91870000  0.01500000  0.87330000  1.0 0.2186665909
C  C30  1  0.58130000  0.45460000  0.09630000  1.0 0.2186665909
C  C31  1  0.64170000  0.04540000  0.62670000  1.0 0.2186665909
C  C32  1  0.85830000  0.48500000  0.40370000  1.0 0.2186665909
C  C33  1  0.87330000  0.91870000  0.01500000  1.0 0.2186665909
C  C34  1  0.09630000  0.58130000  0.45460000  1.0 0.2186665909
C  C35  1  0.62670000  0.64170000  0.04540000  1.0 0.2186665909
C  C36  1  0.40370000  0.85830000  0.48500000  1.0 0.2186665909
C  C37  1  0.40370000  0.04540000  0.91870000  1.0 0.2186665909
C  C38  1  0.62670000  0.48500000  0.58130000  1.0 0.2186665909
C  C39  1  0.09630000  0.01500000  0.64170000  1.0 0.2186665909
C  C40  1  0.87330000  0.45460000  0.85830000  1.0 0.2186665909
C  C41  1  0.45460000  0.85830000  0.87330000  1.0 0.2186665909
C  C42  1  0.01500000  0.64170000  0.09630000  1.0 0.2186665909
C  C43  1  0.48500000  0.58130000  0.62670000  1.0 0.2186665909
C  C44  1  0.04540000  0.91870000  0.40370000  1.0 0.2186665909
C  C45  1  0.64170000  0.09630000  0.01500000  1.0 0.2186665909
C  C46  1  0.85830000  0.87330000  0.45460000  1.0 0.2186665909
C  C47  1  0.91870000  0.40370000  0.04540000  1.0 0.2186665909
C  C48  1  0.58130000  0.62670000  0.48500000  1.0 0.2186665909
C  C49  1  0.95670000  0.15660000  0.09230000  1.0 0.0674133974
C  C50  1  0.56430000  0.86440000  0.40770000  1.0 0.0674133974
C  C51  1  0.93570000  0.34340000  0.30010000  1.0 0.0674133974
C  C52  1  0.54330000  0.63560000  0.19990000  1.0 0.0674133974
C  C53  1  0.09230000  0.95670000  0.15660000  1.0 0.0674133974
C  C54  1  0.40770000  0.56430000  0.86440000  1.0 0.0674133974
C  C55  1  0.30010000  0.93570000  0.34340000  1.0 0.0674133974
C  C56  1  0.19990000  0.54330000  0.63560000  1.0 0.0674133974
C  C57  1  0.15660000  0.09230000  0.95670000  1.0 0.0674133974
C  C58  1  0.86440000  0.40770000  0.56430000  1.0 0.0674133974
C  C59  1  0.34340000  0.30010000  0.93570000  1.0 0.0674133974
C  C60  1  0.63560000  0.19990000  0.54330000  1.0 0.0674133974
C  C61  1  0.63560000  0.93570000  0.09230000  1.0 0.0674133974
C  C62  1  0.34340000  0.54330000  0.40770000  1.0 0.0674133974
C  C63  1  0.86440000  0.95670000  0.30010000  1.0 0.0674133974
C  C64  1  0.15660000  0.56430000  0.19990000  1.0 0.0674133974
C  C65  1  0.56430000  0.19990000  0.15660000  1.0 0.0674133974
C  C66  1  0.95670000  0.30010000  0.86440000  1.0 0.0674133974
C  C67  1  0.54330000  0.40770000  0.34340000  1.0 0.0674133974
C  C68  1  0.93570000  0.09230000  0.63560000  1.0 0.0674133974
C  C69  1  0.30010000  0.86440000  0.95670000  1.0 0.0674133974
C  C70  1  0.19990000  0.15660000  0.56430000  1.0 0.0674133974
C  C71  1  0.09230000  0.63560000  0.93570000  1.0 0.0674133974
C  C72  1  0.40770000  0.34340000  0.54330000  1.0 0.0674133974
C  C73  1  0.04330000  0.84340000  0.90770000  1.0 0.0674133974
C  C74  1  0.43570000  0.13560000  0.59230000  1.0 0.0674133974
C  C75  1  0.06430000  0.65660000  0.69990000  1.0 0.0674133974
C  C76  1  0.45670000  0.36440000  0.80010000  1.0 0.0674133974
C  C77  1  0.90770000  0.04330000  0.84340000  1.0 0.0674133974
C  C78  1  0.59230000  0.43570000  0.13560000  1.0 0.0674133974
C  C79  1  0.69990000  0.06430000  0.65660000  1.0 0.0674133974
C  C80  1  0.80010000  0.45670000  0.36440000  1.0 0.0674133974
C  C81  1  0.84340000  0.90770000  0.04330000  1.0 0.0674133974
C  C82  1  0.13560000  0.59230000  0.43570000  1.0 0.0674133974
C  C83  1  0.65660000  0.69990000  0.06430000  1.0 0.0674133974
C  C84  1  0.36440000  0.80010000  0.45670000  1.0 0.0674133974
C  C85  1  0.36440000  0.06430000  0.90770000  1.0 0.0674133974
C  C86  1  0.65660000  0.45670000  0.59230000  1.0 0.0674133974
C  C87  1  0.13560000  0.04330000  0.69990000  1.0 0.0674133974
C  C88  1  0.84340000  0.43570000  0.80010000  1.0 0.0674133974
C  C89  1  0.43570000  0.80010000  0.84340000  1.0 0.0674133974
C  C90  1  0.04330000  0.69990000  0.13560000  1.0 0.0674133974
C  C91  1  0.45670000  0.59230000  0.65660000  1.0 0.0674133974
C  C92  1  0.06430000  0.90770000  0.36440000  1.0 0.0674133974
C  C93  1  0.69990000  0.13560000  0.04330000  1.0 0.0674133974
C  C94  1  0.80010000  0.84340000  0.43570000  1.0 0.0674133974
C  C95  1  0.90770000  0.36440000  0.06430000  1.0 0.0674133974
C  C96  1  0.59230000  0.65660000  0.45670000  1.0 0.0674133974
C  C97  1  0.98670000  0.21320000  0.13150000  1.0 -0.1218166029
C  C98  1  0.58170000  0.85520000  0.36850000  1.0 -0.1218166029
C  C99  1  0.91830000  0.28680000  0.27350000  1.0 -0.1218166029
C  C100  1  0.51330000  0.64480000  0.22650000  1.0 -0.1218166029
C  C101  1  0.13150000  0.98670000  0.21320000  1.0 -0.1218166029
C  C102  1  0.36850000  0.58170000  0.85520000  1.0 -0.1218166029
C  C103  1  0.27350000  0.91830000  0.28680000  1.0 -0.1218166029
C  C104  1  0.22650000  0.51330000  0.64480000  1.0 -0.1218166029
C  C105  1  0.21320000  0.13150000  0.98670000  1.0 -0.1218166029
C  C106  1  0.85520000  0.36850000  0.58170000  1.0 -0.1218166029
C  C107  1  0.28680000  0.27350000  0.91830000  1.0 -0.1218166029
C  C108  1  0.64480000  0.22650000  0.51330000  1.0 -0.1218166029
C  C109  1  0.64480000  0.91830000  0.13150000  1.0 -0.1218166029
C  C110  1  0.28680000  0.51330000  0.36850000  1.0 -0.1218166029
C  C111  1  0.85520000  0.98670000  0.27350000  1.0 -0.1218166029
C  C112  1  0.21320000  0.58170000  0.22650000  1.0 -0.1218166029
C  C113  1  0.58170000  0.22650000  0.21320000  1.0 -0.1218166029
C  C114  1  0.98670000  0.27350000  0.85520000  1.0 -0.1218166029
C  C115  1  0.51330000  0.36850000  0.28680000  1.0 -0.1218166029
C  C116  1  0.91830000  0.13150000  0.64480000  1.0 -0.1218166029
C  C117  1  0.27350000  0.85520000  0.98670000  1.0 -0.1218166029
C  C118  1  0.22650000  0.21320000  0.58170000  1.0 -0.1218166029
C  C119  1  0.13150000  0.64480000  0.91830000  1.0 -0.1218166029
C  C120  1  0.36850000  0.28680000  0.51330000  1.0 -0.1218166029
C  C121  1  0.01330000  0.78680000  0.86850000  1.0 -0.1218166029
C  C122  1  0.41830000  0.14480000  0.63150000  1.0 -0.1218166029
C  C123  1  0.08170000  0.71320000  0.72650000  1.0 -0.1218166029
C  C124  1  0.48670000  0.35520000  0.77350000  1.0 -0.1218166029
C  C125  1  0.86850000  0.01330000  0.78680000  1.0 -0.1218166029
C  C126  1  0.63150000  0.41830000  0.14480000  1.0 -0.1218166029
C  C127  1  0.72650000  0.08170000  0.71320000  1.0 -0.1218166029
C  C128  1  0.77350000  0.48670000  0.35520000  1.0 -0.1218166029
C  C129  1  0.78680000  0.86850000  0.01330000  1.0 -0.1218166029
C  C130  1  0.14480000  0.63150000  0.41830000  1.0 -0.1218166029
C  C131  1  0.71320000  0.72650000  0.08170000  1.0 -0.1218166029
C  C132  1  0.35520000  0.77350000  0.48670000  1.0 -0.1218166029
C  C133  1  0.35520000  0.08170000  0.86850000  1.0 -0.1218166029
C  C134  1  0.71320000  0.48670000  0.63150000  1.0 -0.1218166029
C  C135  1  0.14480000  0.01330000  0.72650000  1.0 -0.1218166029
C  C136  1  0.78680000  0.41830000  0.77350000  1.0 -0.1218166029
C  C137  1  0.41830000  0.77350000  0.78680000  1.0 -0.1218166029
C  C138  1  0.01330000  0.72650000  0.14480000  1.0 -0.1218166029
C  C139  1  0.48670000  0.63150000  0.71320000  1.0 -0.1218166029
C  C140  1  0.08170000  0.86850000  0.35520000  1.0 -0.1218166029
C  C141  1  0.72650000  0.14480000  0.01330000  1.0 -0.1218166029
C  C142  1  0.77350000  0.78680000  0.41830000  1.0 -0.1218166029
C  C143  1  0.86850000  0.35520000  0.08170000  1.0 -0.1218166029
C  C144  1  0.63150000  0.71320000  0.48670000  1.0 -0.1218166029
C  C145  1  0.90600000  0.13120000  0.07040000  1.0 -0.1218166029
C  C146  1  0.56080000  0.83560000  0.42960000  1.0 -0.1259129143
C  C147  1  0.93920000  0.36880000  0.27480000  1.0 -0.1218166029
C  C148  1  0.59400000  0.66440000  0.22520000  1.0 -0.1218166029
C  C149  1  0.07040000  0.90600000  0.13120000  1.0 -0.1259129143
C  C150  1  0.42960000  0.56080000  0.83560000  1.0 -0.1218166029
C  C151  1  0.27480000  0.93920000  0.36880000  1.0 -0.1218166029
C  C152  1  0.22520000  0.59400000  0.66440000  1.0 -0.1218166029
C  C153  1  0.13120000  0.07040000  0.90600000  1.0 -0.1218166029
C  C154  1  0.83560000  0.42960000  0.56080000  1.0 -0.1218166029
C  C155  1  0.36880000  0.27480000  0.93920000  1.0 -0.1218166029
C  C156  1  0.66440000  0.22520000  0.59400000  1.0 -0.1218166029
C  C157  1  0.66440000  0.93920000  0.07040000  1.0 -0.1218166029
C  C158  1  0.36880000  0.59400000  0.42960000  1.0 -0.1218166029
C  C159  1  0.83560000  0.90600000  0.27480000  1.0 -0.1218166029
C  C160  1  0.13120000  0.56080000  0.22520000  1.0 -0.1218166029
C  C161  1  0.56080000  0.22520000  0.13120000  1.0 -0.1259129143
C  C162  1  0.90600000  0.27480000  0.83560000  1.0 -0.1259129143
C  C163  1  0.59400000  0.42960000  0.36880000  1.0 -0.1218166029
C  C164  1  0.93920000  0.07040000  0.66440000  1.0 -0.1259129143
C  C165  1  0.27480000  0.83560000  0.90600000  1.0 -0.1218166029
C  C166  1  0.22520000  0.13120000  0.56080000  1.0 -0.1218166029
C  C167  1  0.07040000  0.66440000  0.93920000  1.0 -0.1218166029
C  C168  1  0.42960000  0.36880000  0.59400000  1.0 -0.1218166029
C  C169  1  0.09400000  0.86880000  0.92960000  1.0 -0.1218166029
C  C170  1  0.43920000  0.16440000  0.57040000  1.0 -0.1218166029
C  C171  1  0.06080000  0.63120000  0.72520000  1.0 -0.1218166029
C  C172  1  0.40600000  0.33560000  0.77480000  1.0 -0.1218166029
C  C173  1  0.92960000  0.09400000  0.86880000  1.0 -0.1218166029
C  C174  1  0.57040000  0.43920000  0.16440000  1.0 -0.1218166029
C  C175  1  0.72520000  0.06080000  0.63120000  1.0 -0.1259129143
C  C176  1  0.77480000  0.40600000  0.33560000  1.0 -0.1218166029
C  C177  1  0.86880000  0.92960000  0.09400000  1.0 -0.1218166029
C  C178  1  0.16440000  0.57040000  0.43920000  1.0 -0.1218166029
C  C179  1  0.63120000  0.72520000  0.06080000  1.0 -0.1259129143
C  C180  1  0.33560000  0.77480000  0.40600000  1.0 -0.1218166029
C  C181  1  0.33560000  0.06080000  0.92960000  1.0 -0.1218166029
C  C182  1  0.63120000  0.40600000  0.57040000  1.0 -0.1218166029
C  C183  1  0.16440000  0.09400000  0.72520000  1.0 -0.1218166029
C  C184  1  0.86880000  0.43920000  0.77480000  1.0 -0.1218166029
C  C185  1  0.43920000  0.77480000  0.86880000  1.0 -0.1218166029
C  C186  1  0.09400000  0.72520000  0.16440000  1.0 -0.1218166029
C  C187  1  0.40600000  0.57040000  0.63120000  1.0 -0.1218166029
C  C188  1  0.06080000  0.92960000  0.33560000  1.0 -0.1218166029
C  C189  1  0.72520000  0.16440000  0.09400000  1.0 -0.1218166029
C  C190  1  0.77480000  0.86880000  0.43920000  1.0 -0.1218166029
C  C191  1  0.92960000  0.33560000  0.06080000  1.0 -0.1218166029
C  C192  1  0.57040000  0.63120000  0.40600000  1.0 -0.1218166029
C  C193  1  0.95740000  0.23570000  0.13650000  1.0 -0.1068352042
C  C194  1  0.59920000  0.82090000  0.36350000  1.0 -0.1068352042
C  C195  1  0.90080000  0.26430000  0.22170000  1.0 -0.1068352042
C  C196  1  0.54260000  0.67910000  0.27830000  1.0 -0.1068352042
C  C197  1  0.13650000  0.95740000  0.23570000  1.0 -0.1068352042
C  C198  1  0.36350000  0.59920000  0.82090000  1.0 -0.1068352042
C  C199  1  0.22170000  0.90080000  0.26430000  1.0 -0.1068352042
C  C200  1  0.27830000  0.54260000  0.67910000  1.0 -0.1068352042
C  C201  1  0.23570000  0.13650000  0.95740000  1.0 -0.1068352042
C  C202  1  0.82090000  0.36350000  0.59920000  1.0 -0.1068352042
C  C203  1  0.26430000  0.22170000  0.90080000  1.0 -0.1068352042
C  C204  1  0.67910000  0.27830000  0.54260000  1.0 -0.1068352042
C  C205  1  0.67910000  0.90080000  0.13650000  1.0 -0.1068352042
C  C206  1  0.26430000  0.54260000  0.36350000  1.0 -0.1068352042
C  C207  1  0.82090000  0.95740000  0.22170000  1.0 -0.1068352042
C  C208  1  0.23570000  0.59920000  0.27830000  1.0 -0.1068352042
C  C209  1  0.59920000  0.27830000  0.23570000  1.0 -0.1068352042
C  C210  1  0.95740000  0.22170000  0.82090000  1.0 -0.1068352042
C  C211  1  0.54260000  0.36350000  0.26430000  1.0 -0.1068352042
C  C212  1  0.90080000  0.13650000  0.67910000  1.0 -0.1068352042
C  C213  1  0.22170000  0.82090000  0.95740000  1.0 -0.1068352042
C  C214  1  0.27830000  0.23570000  0.59920000  1.0 -0.1068352042
C  C215  1  0.13650000  0.67910000  0.90080000  1.0 -0.1068352042
C  C216  1  0.36350000  0.26430000  0.54260000  1.0 -0.1068352042
C  C217  1  0.04260000  0.76430000  0.86350000  1.0 -0.1068352042
C  C218  1  0.40080000  0.17910000  0.63650000  1.0 -0.1068352042
C  C219  1  0.09920000  0.73570000  0.77830000  1.0 -0.1068352042
C  C220  1  0.45740000  0.32090000  0.72170000  1.0 -0.1068352042
C  C221  1  0.86350000  0.04260000  0.76430000  1.0 -0.1068352042
C  C222  1  0.63650000  0.40080000  0.17910000  1.0 -0.1068352042
C  C223  1  0.77830000  0.09920000  0.73570000  1.0 -0.1068352042
C  C224  1  0.72170000  0.45740000  0.32090000  1.0 -0.1068352042
C  C225  1  0.76430000  0.86350000  0.04260000  1.0 -0.1068352042
C  C226  1  0.17910000  0.63650000  0.40080000  1.0 -0.1068352042
C  C227  1  0.73570000  0.77830000  0.09920000  1.0 -0.1068352042
C  C228  1  0.32090000  0.72170000  0.45740000  1.0 -0.1068352042
C  C229  1  0.32090000  0.09920000  0.86350000  1.0 -0.1068352042
C  C230  1  0.73570000  0.45740000  0.63650000  1.0 -0.1068352042
C  C231  1  0.17910000  0.04260000  0.77830000  1.0 -0.1068352042
C  C232  1  0.76430000  0.40080000  0.72170000  1.0 -0.1068352042
C  C233  1  0.40080000  0.72170000  0.76430000  1.0 -0.1068352042
C  C234  1  0.04260000  0.77830000  0.17910000  1.0 -0.1068352042
C  C235  1  0.45740000  0.63650000  0.73570000  1.0 -0.1068352042
C  C236  1  0.09920000  0.86350000  0.32090000  1.0 -0.1068352042
C  C237  1  0.77830000  0.17910000  0.04260000  1.0 -0.1068352042
C  C238  1  0.72170000  0.76430000  0.40080000  1.0 -0.1068352042
C  C239  1  0.86350000  0.32090000  0.09920000  1.0 -0.1068352042
C  C240  1  0.63650000  0.73570000  0.45740000  1.0 -0.1068352042
C  C241  1  0.88160000  0.15610000  0.07810000  1.0 -0.0868040817
C  C242  1  0.57800000  0.80350000  0.42190000  1.0 -0.0848856132
C  C243  1  0.92200000  0.34390000  0.22550000  1.0 -0.0868040817
C  C244  1  0.61840000  0.69650000  0.27450000  1.0 -0.0868040817
C  C245  1  0.07810000  0.88160000  0.15610000  1.0 -0.0848856132
C  C246  1  0.42190000  0.57800000  0.80350000  1.0 -0.0868040817
C  C247  1  0.22550000  0.92200000  0.34390000  1.0 -0.0868040817
C  C248  1  0.27450000  0.61840000  0.69650000  1.0 -0.0868040817
C  C249  1  0.15610000  0.07810000  0.88160000  1.0 -0.0868040817
C  C250  1  0.80350000  0.42190000  0.57800000  1.0 -0.0868040817
C  C251  1  0.34390000  0.22550000  0.92200000  1.0 -0.0868040817
C  C252  1  0.69650000  0.27450000  0.61840000  1.0 -0.0868040817
C  C253  1  0.69650000  0.92200000  0.07810000  1.0 -0.0868040817
C  C254  1  0.34390000  0.61840000  0.42190000  1.0 -0.0868040817
C  C255  1  0.80350000  0.88160000  0.22550000  1.0 -0.0868040817
C  C256  1  0.15610000  0.57800000  0.27450000  1.0 -0.0868040817
C  C257  1  0.57800000  0.27450000  0.15610000  1.0 -0.0848856132
C  C258  1  0.88160000  0.22550000  0.80350000  1.0 -0.0868040817
C  C259  1  0.61840000  0.42190000  0.34390000  1.0 -0.0868040817
C  C260  1  0.92200000  0.07810000  0.69650000  1.0 -0.0868040817
C  C261  1  0.22550000  0.80350000  0.88160000  1.0 -0.0868040817
C  C262  1  0.27450000  0.15610000  0.57800000  1.0 -0.0868040817
C  C263  1  0.07810000  0.69650000  0.92200000  1.0 -0.0868040817
C  C264  1  0.42190000  0.34390000  0.61840000  1.0 -0.0868040817
C  C265  1  0.11840000  0.84390000  0.92190000  1.0 -0.0868040817
C  C266  1  0.42200000  0.19650000  0.57810000  1.0 -0.0868040817
C  C267  1  0.07800000  0.65610000  0.77450000  1.0 -0.0868040817
C  C268  1  0.38160000  0.30350000  0.72550000  1.0 -0.0868040817
C  C269  1  0.92190000  0.11840000  0.84390000  1.0 -0.0868040817
C  C270  1  0.57810000  0.42200000  0.19650000  1.0 -0.0868040817
C  C271  1  0.77450000  0.07800000  0.65610000  1.0 -0.0868040817
C  C272  1  0.72550000  0.38160000  0.30350000  1.0 -0.0868040817
C  C273  1  0.84390000  0.92190000  0.11840000  1.0 -0.0868040817
C  C274  1  0.19650000  0.57810000  0.42200000  1.0 -0.0868040817
C  C275  1  0.65610000  0.77450000  0.07800000  1.0 -0.0848856132
C  C276  1  0.30350000  0.72550000  0.38160000  1.0 -0.0868040817
C  C277  1  0.30350000  0.07800000  0.92190000  1.0 -0.0868040817
C  C278  1  0.65610000  0.38160000  0.57810000  1.0 -0.0868040817
C  C279  1  0.19650000  0.11840000  0.77450000  1.0 -0.0868040817
C  C280  1  0.84390000  0.42200000  0.72550000  1.0 -0.0868040817
C  C281  1  0.42200000  0.72550000  0.84390000  1.0 -0.0868040817
C  C282  1  0.11840000  0.77450000  0.19650000  1.0 -0.0868040817
C  C283  1  0.38160000  0.57810000  0.65610000  1.0 -0.0868040817
C  C284  1  0.07800000  0.92190000  0.30350000  1.0 -0.0868040817
C  C285  1  0.77450000  0.19650000  0.11840000  1.0 -0.0868040817
C  C286  1  0.72550000  0.84390000  0.42200000  1.0 -0.0868040817
C  C287  1  0.92190000  0.30350000  0.07800000  1.0 -0.0868040817
C  C288  1  0.57810000  0.65610000  0.38160000  1.0 -0.0868040817
C  C289  1  0.90400000  0.20870000  0.10910000  1.0 -0.2207087252
C  C290  1  0.59960000  0.79490000  0.39090000  1.0 -0.2207087252
C  C291  1  0.90040000  0.29130000  0.19530000  1.0 -0.2207087252
C  C292  1  0.59600000  0.70510000  0.30470000  1.0 -0.2207087252
C  C293  1  0.10910000  0.90400000  0.20870000  1.0 -0.2207087252
C  C294  1  0.39090000  0.59960000  0.79490000  1.0 -0.2207087252
C  C295  1  0.19530000  0.90040000  0.29130000  1.0 -0.2207087252
C  C296  1  0.30470000  0.59600000  0.70510000  1.0 -0.2207087252
C  C297  1  0.20870000  0.10910000  0.90400000  1.0 -0.2207087252
C  C298  1  0.79490000  0.39090000  0.59960000  1.0 -0.2207087252
C  C299  1  0.29130000  0.19530000  0.90040000  1.0 -0.2207087252
C  C300  1  0.70510000  0.30470000  0.59600000  1.0 -0.2207087252
C  C301  1  0.70510000  0.90040000  0.10910000  1.0 -0.2207087252
C  C302  1  0.29130000  0.59600000  0.39090000  1.0 -0.2207087252
C  C303  1  0.79490000  0.90400000  0.19530000  1.0 -0.2207087252
C  C304  1  0.20870000  0.59960000  0.30470000  1.0 -0.2207087252
C  C305  1  0.59960000  0.30470000  0.20870000  1.0 -0.2207087252
C  C306  1  0.90400000  0.19530000  0.79490000  1.0 -0.2207087252
C  C307  1  0.59600000  0.39090000  0.29130000  1.0 -0.2207087252
C  C308  1  0.90040000  0.10910000  0.70510000  1.0 -0.2207087252
C  C309  1  0.19530000  0.79490000  0.90400000  1.0 -0.2207087252
C  C310  1  0.30470000  0.20870000  0.59960000  1.0 -0.2207087252
C  C311  1  0.10910000  0.70510000  0.90040000  1.0 -0.2207087252
C  C312  1  0.39090000  0.29130000  0.59600000  1.0 -0.2207087252
C  C313  1  0.09600000  0.79130000  0.89090000  1.0 -0.2207087252
C  C314  1  0.40040000  0.20510000  0.60910000  1.0 -0.2207087252
C  C315  1  0.09960000  0.70870000  0.80470000  1.0 -0.2207087252
C  C316  1  0.40400000  0.29490000  0.69530000  1.0 -0.2207087252
C  C317  1  0.89090000  0.09600000  0.79130000  1.0 -0.2207087252
C  C318  1  0.60910000  0.40040000  0.20510000  1.0 -0.2207087252
C  C319  1  0.80470000  0.09960000  0.70870000  1.0 -0.2207087252
C  C320  1  0.69530000  0.40400000  0.29490000  1.0 -0.2207087252
C  C321  1  0.79130000  0.89090000  0.09600000  1.0 -0.2207087252
C  C322  1  0.20510000  0.60910000  0.40040000  1.0 -0.2207087252
C  C323  1  0.70870000  0.80470000  0.09960000  1.0 -0.2207087252
C  C324  1  0.29490000  0.69530000  0.40400000  1.0 -0.2207087252
C  C325  1  0.29490000  0.09960000  0.89090000  1.0 -0.2207087252
C  C326  1  0.70870000  0.40400000  0.60910000  1.0 -0.2207087252
C  C327  1  0.20510000  0.09600000  0.80470000  1.0 -0.2207087252
C  C328  1  0.79130000  0.40040000  0.69530000  1.0 -0.2207087252
C  C329  1  0.40040000  0.69530000  0.79130000  1.0 -0.2207087252
C  C330  1  0.09600000  0.80470000  0.20510000  1.0 -0.2207087252
C  C331  1  0.40400000  0.60910000  0.70870000  1.0 -0.2207087252
C  C332  1  0.09960000  0.89090000  0.29490000  1.0 -0.2207087252
C  C333  1  0.80470000  0.20510000  0.09600000  1.0 -0.2207087252
C  C334  1  0.69530000  0.79130000  0.40040000  1.0 -0.2207087252
C  C335  1  0.89090000  0.29490000  0.09960000  1.0 -0.2207087252
C  C336  1  0.60910000  0.70870000  0.40400000  1.0 -0.2207087252
N  N1  1  0.00240000  0.06950000  0.04850000  1.0 -0.0233787336
N  N2  1  0.52100000  0.95390000  0.45150000  1.0 -0.0253099063
N  N3  1  0.97900000  0.43050000  0.43290000  1.0 -0.0253099063
N  N4  1  0.49760000  0.54610000  0.06710000  1.0 -0.0233787336
N  N5  1  0.04850000  0.00240000  0.06950000  1.0 -0.0233787336
N  N6  1  0.45150000  0.52100000  0.95390000  1.0 -0.0233787336
N  N7  1  0.43290000  0.97900000  0.43050000  1.0 -0.0253099063
N  N8  1  0.06710000  0.49760000  0.54610000  1.0 -0.0233787336
N  N9  1  0.06950000  0.04850000  0.00240000  1.0 -0.0233787336
N  N10  1  0.95390000  0.45150000  0.52100000  1.0 -0.0233787336
N  N11  1  0.43050000  0.43290000  0.97900000  1.0 -0.0233787336
N  N12  1  0.54610000  0.06710000  0.49760000  1.0 -0.0233787336
N  N13  1  0.54610000  0.97900000  0.04850000  1.0 -0.0233787336
N  N14  1  0.43050000  0.49760000  0.45150000  1.0 -0.0233787336
N  N15  1  0.95390000  0.00240000  0.43290000  1.0 -0.0233787336
N  N16  1  0.06950000  0.52100000  0.06710000  1.0 -0.0233787336
N  N17  1  0.52100000  0.06710000  0.06950000  1.0 -0.0233787336
N  N18  1  0.00240000  0.43290000  0.95390000  1.0 -0.0233787336
N  N19  1  0.49760000  0.45150000  0.43050000  1.0 -0.0253099063
N  N20  1  0.97900000  0.04850000  0.54610000  1.0 -0.0233787336
N  N21  1  0.43290000  0.95390000  0.00240000  1.0 -0.0233787336
N  N22  1  0.06710000  0.06950000  0.52100000  1.0 -0.0253099063
N  N23  1  0.04850000  0.54610000  0.97900000  1.0 -0.0233787336
N  N24  1  0.45150000  0.43050000  0.49760000  1.0 -0.0253099063
N  N25  1  0.99760000  0.93050000  0.95150000  1.0 -0.0253099063
N  N26  1  0.47900000  0.04610000  0.54850000  1.0 -0.0253099063
N  N27  1  0.02100000  0.56950000  0.56710000  1.0 -0.0253099063
N  N28  1  0.50240000  0.45390000  0.93290000  1.0 -0.0233787336
N  N29  1  0.95150000  0.99760000  0.93050000  1.0 -0.0253099063
N  N30  1  0.54850000  0.47900000  0.04610000  1.0 -0.0233787336
N  N31  1  0.56710000  0.02100000  0.56950000  1.0 -0.0253099063
N  N32  1  0.93290000  0.50240000  0.45390000  1.0 -0.0233787336
N  N33  1  0.93050000  0.95150000  0.99760000  1.0 -0.0233787336
N  N34  1  0.04610000  0.54850000  0.47900000  1.0 -0.0253099063
N  N35  1  0.56950000  0.56710000  0.02100000  1.0 -0.0233787336
N  N36  1  0.45390000  0.93290000  0.50240000  1.0 -0.0253099063
N  N37  1  0.45390000  0.02100000  0.95150000  1.0 -0.0233787336
N  N38  1  0.56950000  0.50240000  0.54850000  1.0 -0.0233787336
N  N39  1  0.04610000  0.99760000  0.56710000  1.0 -0.0253099063
N  N40  1  0.93050000  0.47900000  0.93290000  1.0 -0.0233787336
N  N41  1  0.47900000  0.93290000  0.93050000  1.0 -0.0233787336
N  N42  1  0.99760000  0.56710000  0.04610000  1.0 -0.0233787336
N  N43  1  0.50240000  0.54850000  0.56950000  1.0 -0.0233787336
N  N44  1  0.02100000  0.95150000  0.45390000  1.0 -0.0253099063
N  N45  1  0.56710000  0.04610000  0.99760000  1.0 -0.0253099063
N  N46  1  0.93290000  0.93050000  0.47900000  1.0 -0.0253099063
N  N47  1  0.95150000  0.45390000  0.02100000  1.0 -0.0233787336
N  N48  1  0.54850000  0.56950000  0.50240000  1.0 -0.0253099063
N  N49  1  0.04600000  0.11290000  0.09190000  1.0 -0.0027077178
N  N50  1  0.52100000  0.95410000  0.40810000  1.0 -0.0027077178
N  N51  1  0.97900000  0.38710000  0.43310000  1.0 -0.0027077178
N  N52  1  0.45400000  0.54590000  0.06690000  1.0 -0.0027077178
N  N53  1  0.09190000  0.04600000  0.11290000  1.0 -0.0027077178
N  N54  1  0.40810000  0.52100000  0.95410000  1.0 -0.0027077178
N  N55  1  0.43310000  0.97900000  0.38710000  1.0 -0.0076599035
N  N56  1  0.06690000  0.45400000  0.54590000  1.0 -0.0076599035
N  N57  1  0.11290000  0.09190000  0.04600000  1.0 -0.0027077178
N  N58  1  0.95410000  0.40810000  0.52100000  1.0 -0.0076599035
N  N59  1  0.38710000  0.43310000  0.97900000  1.0 -0.0027077178
N  N60  1  0.54590000  0.06690000  0.45400000  1.0 -0.0076599035
N  N61  1  0.54590000  0.97900000  0.09190000  1.0 -0.0076599035
N  N62  1  0.38710000  0.45400000  0.40810000  1.0 -0.0027077178
N  N63  1  0.95410000  0.04600000  0.43310000  1.0 -0.0076599035
N  N64  1  0.11290000  0.52100000  0.06690000  1.0 -0.0027077178
N  N65  1  0.52100000  0.06690000  0.11290000  1.0 -0.0027077178
N  N66  1  0.04600000  0.43310000  0.95410000  1.0 -0.0027077178
N  N67  1  0.45400000  0.40810000  0.38710000  1.0 -0.0027077178
N  N68  1  0.97900000  0.09190000  0.54590000  1.0 -0.0076599035
N  N69  1  0.43310000  0.95410000  0.04600000  1.0 -0.0076599035
N  N70  1  0.06690000  0.11290000  0.52100000  1.0 -0.0076599035
N  N71  1  0.09190000  0.54590000  0.97900000  1.0 -0.0027077178
N  N72  1  0.40810000  0.38710000  0.45400000  1.0 -0.0027077178
N  N73  1  0.95400000  0.88710000  0.90810000  1.0 -0.0076599035
N  N74  1  0.47900000  0.04590000  0.59190000  1.0 -0.0076599035
N  N75  1  0.02100000  0.61290000  0.56690000  1.0 -0.0076599035
N  N76  1  0.54600000  0.45410000  0.93310000  1.0 -0.0027077178
N  N77  1  0.90810000  0.95400000  0.88710000  1.0 -0.0076599035
N  N78  1  0.59190000  0.47900000  0.04590000  1.0 -0.0027077178
N  N79  1  0.56690000  0.02100000  0.61290000  1.0 -0.0076599035
N  N80  1  0.93310000  0.54600000  0.45410000  1.0 -0.0076599035
N  N81  1  0.88710000  0.90810000  0.95400000  1.0 -0.0076599035
N  N82  1  0.04590000  0.59190000  0.47900000  1.0 -0.0076599035
N  N83  1  0.61290000  0.56690000  0.02100000  1.0 0.0007228282
N  N84  1  0.45410000  0.93310000  0.54600000  1.0 -0.0076599035
N  N85  1  0.45410000  0.02100000  0.90810000  1.0 -0.0076599035
N  N86  1  0.61290000  0.54600000  0.59190000  1.0 -0.0027077178
N  N87  1  0.04590000  0.95400000  0.56690000  1.0 -0.0027077178
N  N88  1  0.88710000  0.47900000  0.93310000  1.0 -0.0076599035
N  N89  1  0.47900000  0.93310000  0.88710000  1.0 -0.0076599035
N  N90  1  0.95400000  0.56690000  0.04590000  1.0 -0.0076599035
N  N91  1  0.54600000  0.59190000  0.61290000  1.0 -0.0076599035
N  N92  1  0.02100000  0.90810000  0.45410000  1.0 -0.0076599035
N  N93  1  0.56690000  0.04590000  0.95400000  1.0 -0.0027077178
N  N94  1  0.93310000  0.88710000  0.47900000  1.0 -0.0076599035
N  N95  1  0.90810000  0.45410000  0.02100000  1.0 -0.0027077178
N  N96  1  0.59190000  0.61290000  0.54600000  1.0 -0.0076599035
N  N97  1  0.96330000  0.07790000  0.04180000  1.0 -0.231434089
N  N98  1  0.53610000  0.92150000  0.45820000  1.0 -0.231434089
N  N99  1  0.96390000  0.42210000  0.38540000  1.0 -0.231434089
N  N100  1  0.53670000  0.57850000  0.11460000  1.0 -0.231434089
N  N101  1  0.04180000  0.96330000  0.07790000  1.0 -0.231434089
N  N102  1  0.45820000  0.53610000  0.92150000  1.0 -0.231434089
N  N103  1  0.38540000  0.96390000  0.42210000  1.0 -0.231434089
N  N104  1  0.11460000  0.53670000  0.57850000  1.0 -0.231434089
N  N105  1  0.07790000  0.04180000  0.96330000  1.0 -0.231434089
N  N106  1  0.92150000  0.45820000  0.53610000  1.0 -0.231434089
N  N107  1  0.42210000  0.38540000  0.96390000  1.0 -0.231434089
N  N108  1  0.57850000  0.11460000  0.53670000  1.0 -0.231434089
N  N109  1  0.57850000  0.96390000  0.04180000  1.0 -0.231434089
N  N110  1  0.42210000  0.53670000  0.45820000  1.0 -0.231434089
N  N111  1  0.92150000  0.96330000  0.38540000  1.0 -0.231434089
N  N112  1  0.07790000  0.53610000  0.11460000  1.0 -0.231434089
N  N113  1  0.53610000  0.11460000  0.07790000  1.0 -0.231434089
N  N114  1  0.96330000  0.38540000  0.92150000  1.0 -0.231434089
N  N115  1  0.53670000  0.45820000  0.42210000  1.0 -0.231434089
N  N116  1  0.96390000  0.04180000  0.57850000  1.0 -0.231434089
N  N117  1  0.38540000  0.92150000  0.96330000  1.0 -0.231434089
N  N118  1  0.11460000  0.07790000  0.53610000  1.0 -0.231434089
N  N119  1  0.04180000  0.57850000  0.96390000  1.0 -0.231434089
N  N120  1  0.45820000  0.42210000  0.53670000  1.0 -0.231434089
N  N121  1  0.03670000  0.92210000  0.95820000  1.0 -0.231434089
N  N122  1  0.46390000  0.07850000  0.54180000  1.0 -0.231434089
N  N123  1  0.03610000  0.57790000  0.61460000  1.0 -0.231434089
N  N124  1  0.46330000  0.42150000  0.88540000  1.0 -0.231434089
N  N125  1  0.95820000  0.03670000  0.92210000  1.0 -0.231434089
N  N126  1  0.54180000  0.46390000  0.07850000  1.0 -0.231434089
N  N127  1  0.61460000  0.03610000  0.57790000  1.0 -0.231434089
N  N128  1  0.88540000  0.46330000  0.42150000  1.0 -0.231434089
N  N129  1  0.92210000  0.95820000  0.03670000  1.0 -0.231434089
N  N130  1  0.07850000  0.54180000  0.46390000  1.0 -0.231434089
N  N131  1  0.57790000  0.61460000  0.03610000  1.0 -0.231434089
N  N132  1  0.42150000  0.88540000  0.46330000  1.0 -0.231434089
N  N133  1  0.42150000  0.03610000  0.95820000  1.0 -0.231434089
N  N134  1  0.57790000  0.46330000  0.54180000  1.0 -0.231434089
N  N135  1  0.07850000  0.03670000  0.61460000  1.0 -0.231434089
N  N136  1  0.92210000  0.46390000  0.88540000  1.0 -0.231434089
N  N137  1  0.46390000  0.88540000  0.92210000  1.0 -0.231434089
N  N138  1  0.03670000  0.61460000  0.07850000  1.0 -0.231434089
N  N139  1  0.46330000  0.54180000  0.57790000  1.0 -0.231434089
N  N140  1  0.03610000  0.95820000  0.42150000  1.0 -0.231434089
N  N141  1  0.61460000  0.07850000  0.03670000  1.0 -0.231434089
N  N142  1  0.88540000  0.92210000  0.46390000  1.0 -0.231434089
N  N143  1  0.95820000  0.42150000  0.03610000  1.0 -0.231434089
N  N144  1  0.54180000  0.57790000  0.46330000  1.0 -0.231434089
N  N145  1  0.03630000  0.15010000  0.11380000  1.0 -0.287811096
N  N146  1  0.53630000  0.92250000  0.38620000  1.0 -0.287811096
N  N147  1  0.96370000  0.34990000  0.38620000  1.0 -0.287811096
N  N148  1  0.46370000  0.57750000  0.11380000  1.0 -0.287811096
N  N149  1  0.11380000  0.03630000  0.15010000  1.0 -0.287811096
N  N150  1  0.38620000  0.53630000  0.92250000  1.0 -0.287811096
N  N151  1  0.38620000  0.96370000  0.34990000  1.0 -0.287811096
N  N152  1  0.11380000  0.46370000  0.57750000  1.0 -0.287811096
N  N153  1  0.15010000  0.11380000  0.03630000  1.0 -0.287811096
N  N154  1  0.92250000  0.38620000  0.53630000  1.0 -0.287811096
N  N155  1  0.34990000  0.38620000  0.96370000  1.0 -0.287811096
N  N156  1  0.57750000  0.11380000  0.46370000  1.0 -0.287811096
N  N157  1  0.57750000  0.96370000  0.11380000  1.0 -0.287811096
N  N158  1  0.34990000  0.46370000  0.38620000  1.0 -0.287811096
N  N159  1  0.92250000  0.03630000  0.38620000  1.0 -0.287811096
N  N160  1  0.15010000  0.53630000  0.11380000  1.0 -0.287811096
N  N161  1  0.53630000  0.11380000  0.15010000  1.0 -0.287811096
N  N162  1  0.03630000  0.38620000  0.92250000  1.0 -0.287811096
N  N163  1  0.46370000  0.38620000  0.34990000  1.0 -0.287811096
N  N164  1  0.96370000  0.11380000  0.57750000  1.0 -0.287811096
N  N165  1  0.38620000  0.92250000  0.03630000  1.0 -0.287811096
N  N166  1  0.11380000  0.15010000  0.53630000  1.0 -0.287811096
N  N167  1  0.11380000  0.57750000  0.96370000  1.0 -0.287811096
N  N168  1  0.38620000  0.34990000  0.46370000  1.0 -0.287811096
N  N169  1  0.96370000  0.84990000  0.88620000  1.0 -0.287811096
N  N170  1  0.46370000  0.07750000  0.61380000  1.0 -0.287811096
N  N171  1  0.03630000  0.65010000  0.61380000  1.0 -0.287811096
N  N172  1  0.53630000  0.42250000  0.88620000  1.0 -0.287811096
N  N173  1  0.88620000  0.96370000  0.84990000  1.0 -0.287811096
N  N174  1  0.61380000  0.46370000  0.07750000  1.0 -0.287811096
N  N175  1  0.61380000  0.03630000  0.65010000  1.0 -0.287811096
N  N176  1  0.88620000  0.53630000  0.42250000  1.0 -0.287811096
N  N177  1  0.84990000  0.88620000  0.96370000  1.0 -0.287811096
N  N178  1  0.07750000  0.61380000  0.46370000  1.0 -0.287811096
N  N179  1  0.65010000  0.61380000  0.03630000  1.0 -0.287811096
N  N180  1  0.42250000  0.88620000  0.53630000  1.0 -0.287811096
N  N181  1  0.42250000  0.03630000  0.88620000  1.0 -0.287811096
N  N182  1  0.65010000  0.53630000  0.61380000  1.0 -0.287811096
N  N183  1  0.07750000  0.96370000  0.61380000  1.0 -0.287811096
N  N184  1  0.84990000  0.46370000  0.88620000  1.0 -0.287811096
N  N185  1  0.46370000  0.88620000  0.84990000  1.0 -0.287811096
N  N186  1  0.96370000  0.61380000  0.07750000  1.0 -0.287811096
N  N187  1  0.53630000  0.61380000  0.65010000  1.0 -0.287811096
N  N188  1  0.03630000  0.88620000  0.42250000  1.0 -0.287811096
N  N189  1  0.61380000  0.07750000  0.96370000  1.0 -0.287811096
N  N190  1  0.88620000  0.84990000  0.46370000  1.0 -0.287811096
N  N191  1  0.88620000  0.42250000  0.03630000  1.0 -0.287811096
N  N192  1  0.61380000  0.65010000  0.53630000  1.0 -0.287811096
