# DDEC6 charges by PACMAN v1.1 (https://github.com/mtap-research/PACMAN-charge/)
data_COCNEP_ASR_pacman
_symmetry_space_group_name_H-M   'P 1'
_cell_length_a   31.34200000
_cell_length_b   31.34200000
_cell_length_c   31.34200000
_cell_angle_alpha   109.47100000
_cell_angle_beta   109.47100000
_cell_angle_gamma   109.47100000
_symmetry_Int_Tables_number   1
_chemical_formula_structural   Cu2SiH16(C7N4)4
_chemical_formula_sum   'Cu24 Si12 H192 C336 N192'
_cell_volume   23700.73288543
_cell_formula_units_Z   12
loop_
 _symmetry_equiv_pos_site_id
 _symmetry_equiv_pos_as_xyz
  1  'x, y, z'
loop_
 _atom_site_type_symbol
 _atom_site_label
 _atom_site_symmetry_multiplicity
 _atom_site_fract_x
 _atom_site_fract_y
 _atom_site_fract_z
 _atom_site_occupancy
 _atom_site_charge
Cu  Cu1  1  0.50000000  0.00000000  0.38086000  1.0 0.3731126773
Cu  Cu2  1  0.00000000  0.11914000  0.50000000  1.0 0.3772635969
Cu  Cu3  1  0.11914000  0.11914000  0.11914000  1.0 0.3731126773
Cu  Cu4  1  0.11914000  0.50000000  0.00000000  1.0 0.3772635969
Cu  Cu5  1  0.00000000  0.38086000  0.50000000  1.0 0.3772635969
Cu  Cu6  1  0.38086000  0.38086000  0.38086000  1.0 0.3731126773
Cu  Cu7  1  0.38086000  0.50000000  0.00000000  1.0 0.3772635969
Cu  Cu8  1  0.50000000  0.00000000  0.11914000  1.0 0.3731126773
Cu  Cu9  1  0.50000000  0.00000000  0.61914000  1.0 0.3772635969
Cu  Cu10  1  0.00000000  0.88086000  0.50000000  1.0 0.3731126773
Cu  Cu11  1  0.88086000  0.88086000  0.88086000  1.0 0.3772635969
Cu  Cu12  1  0.88086000  0.50000000  0.00000000  1.0 0.3772635969
Cu  Cu13  1  0.00000000  0.61914000  0.50000000  1.0 0.3731126773
Cu  Cu14  1  0.61914000  0.61914000  0.61914000  1.0 0.3731126773
Cu  Cu15  1  0.61914000  0.50000000  0.00000000  1.0 0.3772635969
Cu  Cu16  1  0.50000000  0.00000000  0.88086000  1.0 0.3731126773
Cu  Cu17  1  0.50000000  0.00000000  0.50000000  1.0 0.3211049723
Cu  Cu18  1  0.00000000  0.00000000  0.50000000  1.0 0.3211049723
Cu  Cu19  1  0.00000000  0.00000000  0.00000000  1.0 0.3331787201
Cu  Cu20  1  0.00000000  0.50000000  0.00000000  1.0 0.3331787201
Cu  Cu21  1  0.00000000  0.50000000  0.50000000  1.0 0.3211049723
Cu  Cu22  1  0.50000000  0.50000000  0.50000000  1.0 0.3211049723
Cu  Cu23  1  0.50000000  0.50000000  0.00000000  1.0 0.3331787201
Cu  Cu24  1  0.50000000  0.00000000  0.00000000  1.0 0.3331787201
Si  Si1  1  0.75000000  0.37500000  0.62500000  1.0 0.6907873141
Si  Si2  1  0.37500000  0.25000000  0.62500000  1.0 0.6907873141
Si  Si3  1  0.25000000  0.12500000  0.87500000  1.0 0.6907873141
Si  Si4  1  0.12500000  0.75000000  0.87500000  1.0 0.6907873141
Si  Si5  1  0.62500000  0.75000000  0.37500000  1.0 0.6907873141
Si  Si6  1  0.75000000  0.87500000  0.12500000  1.0 0.6907873141
Si  Si7  1  0.87500000  0.25000000  0.12500000  1.0 0.6907873141
Si  Si8  1  0.25000000  0.62500000  0.37500000  1.0 0.6907873141
Si  Si9  1  0.37500000  0.62500000  0.75000000  1.0 0.6907873141
Si  Si10  1  0.12500000  0.87500000  0.25000000  1.0 0.6907873141
Si  Si11  1  0.87500000  0.12500000  0.75000000  1.0 0.6907873141
Si  Si12  1  0.62500000  0.37500000  0.25000000  1.0 0.6907873141
H  H1  1  0.63000000  0.20070000  0.47670000  1.0 0.1086043747
H  H2  1  0.20070000  0.22400000  0.57070000  1.0 0.1086043747
H  H3  1  0.22400000  0.15330000  0.02330000  1.0 0.1086043747
H  H4  1  0.15330000  0.63000000  0.92930000  1.0 0.1086043747
H  H5  1  0.87000000  0.34670000  0.57070000  1.0 0.1086043747
H  H6  1  0.34670000  0.27600000  0.47670000  1.0 0.1086043747
H  H7  1  0.27600000  0.29930000  0.92930000  1.0 0.1086043747
H  H8  1  0.29930000  0.87000000  0.02330000  1.0 0.1086043747
H  H9  1  0.47670000  0.63000000  0.20070000  1.0 0.1086043747
H  H10  1  0.63000000  0.92930000  0.15330000  1.0 0.1086043747
H  H11  1  0.92930000  0.27600000  0.29930000  1.0 0.1086043747
H  H12  1  0.27600000  0.47670000  0.34670000  1.0 0.1086043747
H  H13  1  0.02330000  0.22400000  0.15330000  1.0 0.1086043747
H  H14  1  0.22400000  0.57070000  0.20070000  1.0 0.1086043747
H  H15  1  0.57070000  0.87000000  0.34670000  1.0 0.1086043747
H  H16  1  0.87000000  0.02330000  0.29930000  1.0 0.1086043747
H  H17  1  0.20070000  0.47670000  0.63000000  1.0 0.1086043747
H  H18  1  0.29930000  0.92930000  0.27600000  1.0 0.1086043747
H  H19  1  0.92930000  0.15330000  0.63000000  1.0 0.1086043747
H  H20  1  0.15330000  0.02330000  0.22400000  1.0 0.1086043747
H  H21  1  0.02330000  0.29930000  0.87000000  1.0 0.1086043747
H  H22  1  0.34670000  0.57070000  0.87000000  1.0 0.1086043747
H  H23  1  0.57070000  0.20070000  0.22400000  1.0 0.1086043747
H  H24  1  0.47670000  0.34670000  0.27600000  1.0 0.1086043747
H  H25  1  0.37000000  0.79930000  0.52330000  1.0 0.1086043747
H  H26  1  0.79930000  0.77600000  0.42930000  1.0 0.1086043747
H  H27  1  0.77600000  0.84670000  0.97670000  1.0 0.1086043747
H  H28  1  0.84670000  0.37000000  0.07070000  1.0 0.1086043747
H  H29  1  0.13000000  0.65330000  0.42930000  1.0 0.1086043747
H  H30  1  0.65330000  0.72400000  0.52330000  1.0 0.1086043747
H  H31  1  0.72400000  0.70070000  0.07070000  1.0 0.1086043747
H  H32  1  0.70070000  0.13000000  0.97670000  1.0 0.1086043747
H  H33  1  0.52330000  0.37000000  0.79930000  1.0 0.1086043747
H  H34  1  0.37000000  0.07070000  0.84670000  1.0 0.1086043747
H  H35  1  0.07070000  0.72400000  0.70070000  1.0 0.1086043747
H  H36  1  0.72400000  0.52330000  0.65330000  1.0 0.1086043747
H  H37  1  0.97670000  0.77600000  0.84670000  1.0 0.1086043747
H  H38  1  0.77600000  0.42930000  0.79930000  1.0 0.1086043747
H  H39  1  0.42930000  0.13000000  0.65330000  1.0 0.1086043747
H  H40  1  0.13000000  0.97670000  0.70070000  1.0 0.1086043747
H  H41  1  0.79930000  0.52330000  0.37000000  1.0 0.1086043747
H  H42  1  0.70070000  0.07070000  0.72400000  1.0 0.1086043747
H  H43  1  0.07070000  0.84670000  0.37000000  1.0 0.1086043747
H  H44  1  0.84670000  0.97670000  0.77600000  1.0 0.1086043747
H  H45  1  0.97670000  0.70070000  0.13000000  1.0 0.1086043747
H  H46  1  0.65330000  0.42930000  0.13000000  1.0 0.1086043747
H  H47  1  0.42930000  0.79930000  0.77600000  1.0 0.1086043747
H  H48  1  0.52330000  0.65330000  0.72400000  1.0 0.1086043747
H  H49  1  0.68920000  0.29010000  0.51930000  1.0 0.1160317327
H  H50  1  0.29010000  0.27080000  0.60090000  1.0 0.1160317327
H  H51  1  0.27080000  0.16990000  0.98070000  1.0 0.1160317327
H  H52  1  0.16990000  0.68920000  0.89910000  1.0 0.1160317327
H  H53  1  0.81080000  0.33010000  0.60090000  1.0 0.1160317327
H  H54  1  0.33010000  0.22920000  0.51930000  1.0 0.1160317327
H  H55  1  0.22920000  0.20990000  0.89910000  1.0 0.1160317327
H  H56  1  0.20990000  0.81080000  0.98070000  1.0 0.1160317327
H  H57  1  0.51930000  0.68920000  0.29010000  1.0 0.1160317327
H  H58  1  0.68920000  0.89910000  0.16990000  1.0 0.1160317327
H  H59  1  0.89910000  0.22920000  0.20990000  1.0 0.1160317327
H  H60  1  0.22920000  0.51930000  0.33010000  1.0 0.1160317327
H  H61  1  0.98070000  0.27080000  0.16990000  1.0 0.1160317327
H  H62  1  0.27080000  0.60090000  0.29010000  1.0 0.1160317327
H  H63  1  0.60090000  0.81080000  0.33010000  1.0 0.1160317327
H  H64  1  0.81080000  0.98070000  0.20990000  1.0 0.1160317327
H  H65  1  0.29010000  0.51930000  0.68920000  1.0 0.1160317327
H  H66  1  0.20990000  0.89910000  0.22920000  1.0 0.1160317327
H  H67  1  0.89910000  0.16990000  0.68920000  1.0 0.1160317327
H  H68  1  0.16990000  0.98070000  0.27080000  1.0 0.1160317327
H  H69  1  0.98070000  0.20990000  0.81080000  1.0 0.1160317327
H  H70  1  0.33010000  0.60090000  0.81080000  1.0 0.1160317327
H  H71  1  0.60090000  0.29010000  0.27080000  1.0 0.1160317327
H  H72  1  0.51930000  0.33010000  0.22920000  1.0 0.1160317327
H  H73  1  0.31080000  0.70990000  0.48070000  1.0 0.1160317327
H  H74  1  0.70990000  0.72920000  0.39910000  1.0 0.1160317327
H  H75  1  0.72920000  0.83010000  0.01930000  1.0 0.1160317327
H  H76  1  0.83010000  0.31080000  0.10090000  1.0 0.1160317327
H  H77  1  0.18920000  0.66990000  0.39910000  1.0 0.1160317327
H  H78  1  0.66990000  0.77080000  0.48070000  1.0 0.1160317327
H  H79  1  0.77080000  0.79010000  0.10090000  1.0 0.1160317327
H  H80  1  0.79010000  0.18920000  0.01930000  1.0 0.1160317327
H  H81  1  0.48070000  0.31080000  0.70990000  1.0 0.1160317327
H  H82  1  0.31080000  0.10090000  0.83010000  1.0 0.1160317327
H  H83  1  0.10090000  0.77080000  0.79010000  1.0 0.1160317327
H  H84  1  0.77080000  0.48070000  0.66990000  1.0 0.1160317327
H  H85  1  0.01930000  0.72920000  0.83010000  1.0 0.1160317327
H  H86  1  0.72920000  0.39910000  0.70990000  1.0 0.1160317327
H  H87  1  0.39910000  0.18920000  0.66990000  1.0 0.1160317327
H  H88  1  0.18920000  0.01930000  0.79010000  1.0 0.1160317327
H  H89  1  0.70990000  0.48070000  0.31080000  1.0 0.1160317327
H  H90  1  0.79010000  0.10090000  0.77080000  1.0 0.1160317327
H  H91  1  0.10090000  0.83010000  0.31080000  1.0 0.1160317327
H  H92  1  0.83010000  0.01930000  0.72920000  1.0 0.1160317327
H  H93  1  0.01930000  0.79010000  0.18920000  1.0 0.1160317327
H  H94  1  0.66990000  0.39910000  0.18920000  1.0 0.1160317327
H  H95  1  0.39910000  0.70990000  0.72920000  1.0 0.1160317327
H  H96  1  0.48070000  0.66990000  0.77080000  1.0 0.1160317327
H  H97  1  0.71180000  0.30130000  0.65850000  1.0 0.1086043747
H  H98  1  0.30130000  0.14280000  0.58950000  1.0 0.1086043747
H  H99  1  0.14280000  0.05330000  0.84150000  1.0 0.1086043747
H  H100  1  0.05330000  0.71180000  0.91050000  1.0 0.1086043747
H  H101  1  0.78820000  0.44670000  0.58950000  1.0 0.1086043747
H  H102  1  0.44670000  0.35720000  0.65850000  1.0 0.1086043747
H  H103  1  0.35720000  0.19870000  0.91050000  1.0 0.1086043747
H  H104  1  0.19870000  0.78820000  0.84150000  1.0 0.1086043747
H  H105  1  0.65850000  0.71180000  0.30130000  1.0 0.1086043747
H  H106  1  0.71180000  0.91050000  0.05330000  1.0 0.1086043747
H  H107  1  0.91050000  0.35720000  0.19870000  1.0 0.1086043747
H  H108  1  0.35720000  0.65850000  0.44670000  1.0 0.1086043747
H  H109  1  0.84150000  0.14280000  0.05330000  1.0 0.1086043747
H  H110  1  0.14280000  0.58950000  0.30130000  1.0 0.1086043747
H  H111  1  0.58950000  0.78820000  0.44670000  1.0 0.1086043747
H  H112  1  0.78820000  0.84150000  0.19870000  1.0 0.1086043747
H  H113  1  0.30130000  0.65850000  0.71180000  1.0 0.1086043747
H  H114  1  0.19870000  0.91050000  0.35720000  1.0 0.1086043747
H  H115  1  0.91050000  0.05330000  0.71180000  1.0 0.1086043747
H  H116  1  0.05330000  0.84150000  0.14280000  1.0 0.1086043747
H  H117  1  0.84150000  0.19870000  0.78820000  1.0 0.1086043747
H  H118  1  0.44670000  0.58950000  0.78820000  1.0 0.1086043747
H  H119  1  0.58950000  0.30130000  0.14280000  1.0 0.1086043747
H  H120  1  0.65850000  0.44670000  0.35720000  1.0 0.1086043747
H  H121  1  0.28820000  0.69870000  0.34150000  1.0 0.1086043747
H  H122  1  0.69870000  0.85720000  0.41050000  1.0 0.1086043747
H  H123  1  0.85720000  0.94670000  0.15850000  1.0 0.1086043747
H  H124  1  0.94670000  0.28820000  0.08950000  1.0 0.1086043747
H  H125  1  0.21180000  0.55330000  0.41050000  1.0 0.1086043747
H  H126  1  0.55330000  0.64280000  0.34150000  1.0 0.1086043747
H  H127  1  0.64280000  0.80130000  0.08950000  1.0 0.1086043747
H  H128  1  0.80130000  0.21180000  0.15850000  1.0 0.1086043747
H  H129  1  0.34150000  0.28820000  0.69870000  1.0 0.1086043747
H  H130  1  0.28820000  0.08950000  0.94670000  1.0 0.1086043747
H  H131  1  0.08950000  0.64280000  0.80130000  1.0 0.1086043747
H  H132  1  0.64280000  0.34150000  0.55330000  1.0 0.1086043747
H  H133  1  0.15850000  0.85720000  0.94670000  1.0 0.1086043747
H  H134  1  0.85720000  0.41050000  0.69870000  1.0 0.1086043747
H  H135  1  0.41050000  0.21180000  0.55330000  1.0 0.1086043747
H  H136  1  0.21180000  0.15850000  0.80130000  1.0 0.1086043747
H  H137  1  0.69870000  0.34150000  0.28820000  1.0 0.1086043747
H  H138  1  0.80130000  0.08950000  0.64280000  1.0 0.1086043747
H  H139  1  0.08950000  0.94670000  0.28820000  1.0 0.1086043747
H  H140  1  0.94670000  0.15850000  0.85720000  1.0 0.1086043747
H  H141  1  0.15850000  0.80130000  0.21180000  1.0 0.1086043747
H  H142  1  0.55330000  0.41050000  0.21180000  1.0 0.1086043747
H  H143  1  0.41050000  0.69870000  0.85720000  1.0 0.1086043747
H  H144  1  0.34150000  0.55330000  0.64280000  1.0 0.1086043747
H  H145  1  0.65250000  0.21180000  0.61590000  1.0 0.135041474
H  H146  1  0.21180000  0.09590000  0.55930000  1.0 0.135041474
H  H147  1  0.09590000  0.03660000  0.88410000  1.0 0.135041474
H  H148  1  0.03660000  0.65250000  0.94070000  1.0 0.135041474
H  H149  1  0.84750000  0.46340000  0.55930000  1.0 0.135041474
H  H150  1  0.46340000  0.40410000  0.61590000  1.0 0.135041474
H  H151  1  0.40410000  0.28820000  0.94070000  1.0 0.135041474
H  H152  1  0.28820000  0.84750000  0.88410000  1.0 0.135041474
H  H153  1  0.61590000  0.65250000  0.21180000  1.0 0.135041474
H  H154  1  0.65250000  0.94070000  0.03660000  1.0 0.135041474
H  H155  1  0.94070000  0.40410000  0.28820000  1.0 0.135041474
H  H156  1  0.40410000  0.61590000  0.46340000  1.0 0.135041474
H  H157  1  0.88410000  0.09590000  0.03660000  1.0 0.135041474
H  H158  1  0.09590000  0.55930000  0.21180000  1.0 0.135041474
H  H159  1  0.55930000  0.84750000  0.46340000  1.0 0.135041474
H  H160  1  0.84750000  0.88410000  0.28820000  1.0 0.135041474
H  H161  1  0.21180000  0.61590000  0.65250000  1.0 0.135041474
H  H162  1  0.28820000  0.94070000  0.40410000  1.0 0.135041474
H  H163  1  0.94070000  0.03660000  0.65250000  1.0 0.135041474
H  H164  1  0.03660000  0.88410000  0.09590000  1.0 0.135041474
H  H165  1  0.88410000  0.28820000  0.84750000  1.0 0.135041474
H  H166  1  0.46340000  0.55930000  0.84750000  1.0 0.135041474
H  H167  1  0.55930000  0.21180000  0.09590000  1.0 0.135041474
H  H168  1  0.61590000  0.46340000  0.40410000  1.0 0.135041474
H  H169  1  0.34750000  0.78820000  0.38410000  1.0 0.135041474
H  H170  1  0.78820000  0.90410000  0.44070000  1.0 0.1346657263
H  H171  1  0.90410000  0.96340000  0.11590000  1.0 0.135041474
H  H172  1  0.96340000  0.34750000  0.05930000  1.0 0.1346657263
H  H173  1  0.15250000  0.53660000  0.44070000  1.0 0.135041474
H  H174  1  0.53660000  0.59590000  0.38410000  1.0 0.135041474
H  H175  1  0.59590000  0.71180000  0.05930000  1.0 0.135041474
H  H176  1  0.71180000  0.15250000  0.11590000  1.0 0.135041474
H  H177  1  0.38410000  0.34750000  0.78820000  1.0 0.135041474
H  H178  1  0.34750000  0.05930000  0.96340000  1.0 0.135041474
H  H179  1  0.05930000  0.59590000  0.71180000  1.0 0.135041474
H  H180  1  0.59590000  0.38410000  0.53660000  1.0 0.135041474
H  H181  1  0.11590000  0.90410000  0.96340000  1.0 0.135041474
H  H182  1  0.90410000  0.44070000  0.78820000  1.0 0.135041474
H  H183  1  0.44070000  0.15250000  0.53660000  1.0 0.135041474
H  H184  1  0.15250000  0.11590000  0.71180000  1.0 0.135041474
H  H185  1  0.78820000  0.38410000  0.34750000  1.0 0.1346657263
H  H186  1  0.71180000  0.05930000  0.59590000  1.0 0.135041474
H  H187  1  0.05930000  0.96340000  0.34750000  1.0 0.135041474
H  H188  1  0.96340000  0.11590000  0.90410000  1.0 0.135041474
H  H189  1  0.11590000  0.71180000  0.15250000  1.0 0.135041474
H  H190  1  0.53660000  0.44070000  0.15250000  1.0 0.135041474
H  H191  1  0.44070000  0.78820000  0.90410000  1.0 0.135041474
H  H192  1  0.38410000  0.53660000  0.59590000  1.0 0.135041474
C  C1  1  0.59920000  0.14280000  0.51560000  1.0 0.2269180957
C  C2  1  0.14280000  0.12720000  0.54360000  1.0 0.2269180957
C  C3  1  0.12720000  0.08360000  0.98440000  1.0 0.2269180957
C  C4  1  0.08360000  0.59920000  0.95640000  1.0 0.2269180957
C  C5  1  0.90080000  0.41640000  0.54360000  1.0 0.2269180957
C  C6  1  0.41640000  0.37280000  0.51560000  1.0 0.2269180957
C  C7  1  0.37280000  0.35720000  0.95640000  1.0 0.2269180957
C  C8  1  0.35720000  0.90080000  0.98440000  1.0 0.2269180957
C  C9  1  0.51560000  0.59920000  0.14280000  1.0 0.2269180957
C  C10  1  0.59920000  0.95640000  0.08360000  1.0 0.2269180957
C  C11  1  0.95640000  0.37280000  0.35720000  1.0 0.2269180957
C  C12  1  0.37280000  0.51560000  0.41640000  1.0 0.2269180957
C  C13  1  0.98440000  0.12720000  0.08360000  1.0 0.2269180957
C  C14  1  0.12720000  0.54360000  0.14280000  1.0 0.2269180957
C  C15  1  0.54360000  0.90080000  0.41640000  1.0 0.2269180957
C  C16  1  0.90080000  0.98440000  0.35720000  1.0 0.2269180957
C  C17  1  0.14280000  0.51560000  0.59920000  1.0 0.2269180957
C  C18  1  0.35720000  0.95640000  0.37280000  1.0 0.2269180957
C  C19  1  0.95640000  0.08360000  0.59920000  1.0 0.2269180957
C  C20  1  0.08360000  0.98440000  0.12720000  1.0 0.2269180957
C  C21  1  0.98440000  0.35720000  0.90080000  1.0 0.2269180957
C  C22  1  0.41640000  0.54360000  0.90080000  1.0 0.2269180957
C  C23  1  0.54360000  0.14280000  0.12720000  1.0 0.2269180957
C  C24  1  0.51560000  0.41640000  0.37280000  1.0 0.2269180957
C  C25  1  0.40080000  0.85720000  0.48440000  1.0 0.2269180957
C  C26  1  0.85720000  0.87280000  0.45640000  1.0 0.2269180957
C  C27  1  0.87280000  0.91640000  0.01560000  1.0 0.2269180957
C  C28  1  0.91640000  0.40080000  0.04360000  1.0 0.2269180957
C  C29  1  0.09920000  0.58360000  0.45640000  1.0 0.2269180957
C  C30  1  0.58360000  0.62720000  0.48440000  1.0 0.2269180957
C  C31  1  0.62720000  0.64280000  0.04360000  1.0 0.2269180957
C  C32  1  0.64280000  0.09920000  0.01560000  1.0 0.2269180957
C  C33  1  0.48440000  0.40080000  0.85720000  1.0 0.2269180957
C  C34  1  0.40080000  0.04360000  0.91640000  1.0 0.2269180957
C  C35  1  0.04360000  0.62720000  0.64280000  1.0 0.2269180957
C  C36  1  0.62720000  0.48440000  0.58360000  1.0 0.2269180957
C  C37  1  0.01560000  0.87280000  0.91640000  1.0 0.2269180957
C  C38  1  0.87280000  0.45640000  0.85720000  1.0 0.2269180957
C  C39  1  0.45640000  0.09920000  0.58360000  1.0 0.2269180957
C  C40  1  0.09920000  0.01560000  0.64280000  1.0 0.2269180957
C  C41  1  0.85720000  0.48440000  0.40080000  1.0 0.2269180957
C  C42  1  0.64280000  0.04360000  0.62720000  1.0 0.2269180957
C  C43  1  0.04360000  0.91640000  0.40080000  1.0 0.2269180957
C  C44  1  0.91640000  0.01560000  0.87280000  1.0 0.2269180957
C  C45  1  0.01560000  0.64280000  0.09920000  1.0 0.2269180957
C  C46  1  0.58360000  0.45640000  0.09920000  1.0 0.2269180957
C  C47  1  0.45640000  0.85720000  0.87280000  1.0 0.2269180957
C  C48  1  0.48440000  0.58360000  0.62720000  1.0 0.2269180957
C  C49  1  0.63569000  0.19782000  0.54223000  1.0 0.0455937407
C  C50  1  0.19782000  0.15559000  0.56213000  1.0 0.0455937407
C  C51  1  0.15559000  0.09346000  0.95777000  1.0 0.0455937407
C  C52  1  0.09346000  0.63569000  0.93787000  1.0 0.0455937407
C  C53  1  0.86431000  0.40654000  0.56213000  1.0 0.0455937407
C  C54  1  0.40654000  0.34441000  0.54223000  1.0 0.0455937407
C  C55  1  0.34441000  0.30218000  0.93787000  1.0 0.0455937407
C  C56  1  0.30218000  0.86431000  0.95777000  1.0 0.0455937407
C  C57  1  0.54223000  0.63569000  0.19782000  1.0 0.0455937407
C  C58  1  0.63569000  0.93787000  0.09346000  1.0 0.0455937407
C  C59  1  0.93787000  0.34441000  0.30218000  1.0 0.0455937407
C  C60  1  0.34441000  0.54223000  0.40654000  1.0 0.0455937407
C  C61  1  0.95777000  0.15559000  0.09346000  1.0 0.0455937407
C  C62  1  0.15559000  0.56213000  0.19782000  1.0 0.0455937407
C  C63  1  0.56213000  0.86431000  0.40654000  1.0 0.0455937407
C  C64  1  0.86431000  0.95777000  0.30218000  1.0 0.0455937407
C  C65  1  0.19782000  0.54223000  0.63569000  1.0 0.0455937407
C  C66  1  0.30218000  0.93787000  0.34441000  1.0 0.0455937407
C  C67  1  0.93787000  0.09346000  0.63569000  1.0 0.0455937407
C  C68  1  0.09346000  0.95777000  0.15559000  1.0 0.0455937407
C  C69  1  0.95777000  0.30218000  0.86431000  1.0 0.0455937407
C  C70  1  0.40654000  0.56213000  0.86431000  1.0 0.0455937407
C  C71  1  0.56213000  0.19782000  0.15559000  1.0 0.0455937407
C  C72  1  0.54223000  0.40654000  0.34441000  1.0 0.0455937407
C  C73  1  0.36431000  0.80218000  0.45777000  1.0 0.0455937407
C  C74  1  0.80218000  0.84441000  0.43787000  1.0 0.0455937407
C  C75  1  0.84441000  0.90654000  0.04223000  1.0 0.0455937407
C  C76  1  0.90654000  0.36431000  0.06213000  1.0 0.0455937407
C  C77  1  0.13569000  0.59346000  0.43787000  1.0 0.0455937407
C  C78  1  0.59346000  0.65559000  0.45777000  1.0 0.0442849012
C  C79  1  0.65559000  0.69782000  0.06213000  1.0 0.0455937407
C  C80  1  0.69782000  0.13569000  0.04223000  1.0 0.0455937407
C  C81  1  0.45777000  0.36431000  0.80218000  1.0 0.0455937407
C  C82  1  0.36431000  0.06213000  0.90654000  1.0 0.0455937407
C  C83  1  0.06213000  0.65559000  0.69782000  1.0 0.0455937407
C  C84  1  0.65559000  0.45777000  0.59346000  1.0 0.0455937407
C  C85  1  0.04223000  0.84441000  0.90654000  1.0 0.0455937407
C  C86  1  0.84441000  0.43787000  0.80218000  1.0 0.0455937407
C  C87  1  0.43787000  0.13569000  0.59346000  1.0 0.0455937407
C  C88  1  0.13569000  0.04223000  0.69782000  1.0 0.0455937407
C  C89  1  0.80218000  0.45777000  0.36431000  1.0 0.0442849012
C  C90  1  0.69782000  0.06213000  0.65559000  1.0 0.0455937407
C  C91  1  0.06213000  0.90654000  0.36431000  1.0 0.0455937407
C  C92  1  0.90654000  0.04223000  0.84441000  1.0 0.0455937407
C  C93  1  0.04223000  0.69782000  0.13569000  1.0 0.0455937407
C  C94  1  0.59346000  0.43787000  0.13569000  1.0 0.0442849012
C  C95  1  0.43787000  0.80218000  0.84441000  1.0 0.0455937407
C  C96  1  0.45777000  0.59346000  0.65559000  1.0 0.0455937407
C  C97  1  0.64662000  0.22114000  0.51356000  1.0 -0.0909164667
C  C98  1  0.22114000  0.20758000  0.57452000  1.0 -0.0909164667
C  C99  1  0.20758000  0.13306000  0.98644000  1.0 -0.0909164667
C  C100  1  0.13306000  0.64662000  0.92548000  1.0 -0.0909164667
C  C101  1  0.85338000  0.36694000  0.57452000  1.0 -0.0909164667
C  C102  1  0.36694000  0.29242000  0.51356000  1.0 -0.0909164667
C  C103  1  0.29242000  0.27886000  0.92548000  1.0 -0.0909164667
C  C104  1  0.27886000  0.85338000  0.98644000  1.0 -0.0909164667
C  C105  1  0.51356000  0.64662000  0.22114000  1.0 -0.0909164667
C  C106  1  0.64662000  0.92548000  0.13306000  1.0 -0.0909164667
C  C107  1  0.92548000  0.29242000  0.27886000  1.0 -0.0909164667
C  C108  1  0.29242000  0.51356000  0.36694000  1.0 -0.0909164667
C  C109  1  0.98644000  0.20758000  0.13306000  1.0 -0.0909164667
C  C110  1  0.20758000  0.57452000  0.22114000  1.0 -0.0909164667
C  C111  1  0.57452000  0.85338000  0.36694000  1.0 -0.098520465
C  C112  1  0.85338000  0.98644000  0.27886000  1.0 -0.0909164667
C  C113  1  0.22114000  0.51356000  0.64662000  1.0 -0.0909164667
C  C114  1  0.27886000  0.92548000  0.29242000  1.0 -0.0909164667
C  C115  1  0.92548000  0.13306000  0.64662000  1.0 -0.0909164667
C  C116  1  0.13306000  0.98644000  0.20758000  1.0 -0.0909164667
C  C117  1  0.98644000  0.27886000  0.85338000  1.0 -0.0909164667
C  C118  1  0.36694000  0.57452000  0.85338000  1.0 -0.0909164667
C  C119  1  0.57452000  0.22114000  0.20758000  1.0 -0.098520465
C  C120  1  0.51356000  0.36694000  0.29242000  1.0 -0.0909164667
C  C121  1  0.35338000  0.77886000  0.48644000  1.0 -0.0909164667
C  C122  1  0.77886000  0.79242000  0.42548000  1.0 -0.0909164667
C  C123  1  0.79242000  0.86694000  0.01356000  1.0 -0.0909164667
C  C124  1  0.86694000  0.35338000  0.07452000  1.0 -0.0909164667
C  C125  1  0.14662000  0.63306000  0.42548000  1.0 -0.098520465
C  C126  1  0.63306000  0.70758000  0.48644000  1.0 -0.0909164667
C  C127  1  0.70758000  0.72114000  0.07452000  1.0 -0.0909164667
C  C128  1  0.72114000  0.14662000  0.01356000  1.0 -0.0909164667
C  C129  1  0.48644000  0.35338000  0.77886000  1.0 -0.0909164667
C  C130  1  0.35338000  0.07452000  0.86694000  1.0 -0.0909164667
C  C131  1  0.07452000  0.70758000  0.72114000  1.0 -0.0909164667
C  C132  1  0.70758000  0.48644000  0.63306000  1.0 -0.0909164667
C  C133  1  0.01356000  0.79242000  0.86694000  1.0 -0.0909164667
C  C134  1  0.79242000  0.42548000  0.77886000  1.0 -0.0909164667
C  C135  1  0.42548000  0.14662000  0.63306000  1.0 -0.0909164667
C  C136  1  0.14662000  0.01356000  0.72114000  1.0 -0.0909164667
C  C137  1  0.77886000  0.48644000  0.35338000  1.0 -0.0909164667
C  C138  1  0.72114000  0.07452000  0.70758000  1.0 -0.0909164667
C  C139  1  0.07452000  0.86694000  0.35338000  1.0 -0.0909164667
C  C140  1  0.86694000  0.01356000  0.79242000  1.0 -0.0909164667
C  C141  1  0.01356000  0.72114000  0.14662000  1.0 -0.0909164667
C  C142  1  0.63306000  0.42548000  0.14662000  1.0 -0.0909164667
C  C143  1  0.42548000  0.77886000  0.79242000  1.0 -0.0909164667
C  C144  1  0.48644000  0.63306000  0.70758000  1.0 -0.0909164667
C  C145  1  0.68177000  0.27426000  0.53891000  1.0 -0.0909164667
C  C146  1  0.27426000  0.23535000  0.59249000  1.0 -0.0909164667
C  C147  1  0.23535000  0.14286000  0.96109000  1.0 -0.0909164667
C  C148  1  0.14286000  0.68177000  0.90751000  1.0 -0.0909164667
C  C149  1  0.81823000  0.35714000  0.59249000  1.0 -0.0909164667
C  C150  1  0.35714000  0.26465000  0.53891000  1.0 -0.0909164667
C  C151  1  0.26465000  0.22574000  0.90751000  1.0 -0.0909164667
C  C152  1  0.22574000  0.81823000  0.96109000  1.0 -0.0909164667
C  C153  1  0.53891000  0.68177000  0.27426000  1.0 -0.0909164667
C  C154  1  0.68177000  0.90751000  0.14286000  1.0 -0.0909164667
C  C155  1  0.90751000  0.26465000  0.22574000  1.0 -0.0909164667
C  C156  1  0.26465000  0.53891000  0.35714000  1.0 -0.0909164667
C  C157  1  0.96109000  0.23535000  0.14286000  1.0 -0.0909164667
C  C158  1  0.23535000  0.59249000  0.27426000  1.0 -0.0909164667
C  C159  1  0.59249000  0.81823000  0.35714000  1.0 -0.0909164667
C  C160  1  0.81823000  0.96109000  0.22574000  1.0 -0.0909164667
C  C161  1  0.27426000  0.53891000  0.68177000  1.0 -0.0909164667
C  C162  1  0.22574000  0.90751000  0.26465000  1.0 -0.0909164667
C  C163  1  0.90751000  0.14286000  0.68177000  1.0 -0.0909164667
C  C164  1  0.14286000  0.96109000  0.23535000  1.0 -0.0909164667
C  C165  1  0.96109000  0.22574000  0.81823000  1.0 -0.0909164667
C  C166  1  0.35714000  0.59249000  0.81823000  1.0 -0.0909164667
C  C167  1  0.59249000  0.27426000  0.23535000  1.0 -0.0909164667
C  C168  1  0.53891000  0.35714000  0.26465000  1.0 -0.0909164667
C  C169  1  0.31823000  0.72574000  0.46109000  1.0 -0.0909164667
C  C170  1  0.72574000  0.76465000  0.40751000  1.0 -0.0909164667
C  C171  1  0.76465000  0.85714000  0.03891000  1.0 -0.0909164667
C  C172  1  0.85714000  0.31823000  0.09249000  1.0 -0.0909164667
C  C173  1  0.18177000  0.64286000  0.40751000  1.0 -0.0909164667
C  C174  1  0.64286000  0.73535000  0.46109000  1.0 -0.0909164667
C  C175  1  0.73535000  0.77426000  0.09249000  1.0 -0.0909164667
C  C176  1  0.77426000  0.18177000  0.03891000  1.0 -0.0909164667
C  C177  1  0.46109000  0.31823000  0.72574000  1.0 -0.0909164667
C  C178  1  0.31823000  0.09249000  0.85714000  1.0 -0.0909164667
C  C179  1  0.09249000  0.73535000  0.77426000  1.0 -0.0909164667
C  C180  1  0.73535000  0.46109000  0.64286000  1.0 -0.0909164667
C  C181  1  0.03891000  0.76465000  0.85714000  1.0 -0.0909164667
C  C182  1  0.76465000  0.40751000  0.72574000  1.0 -0.0909164667
C  C183  1  0.40751000  0.18177000  0.64286000  1.0 -0.0909164667
C  C184  1  0.18177000  0.03891000  0.77426000  1.0 -0.0909164667
C  C185  1  0.72574000  0.46109000  0.31823000  1.0 -0.0909164667
C  C186  1  0.77426000  0.09249000  0.73535000  1.0 -0.0909164667
C  C187  1  0.09249000  0.85714000  0.31823000  1.0 -0.0909164667
C  C188  1  0.85714000  0.03891000  0.76465000  1.0 -0.0909164667
C  C189  1  0.03891000  0.77426000  0.18177000  1.0 -0.0909164667
C  C190  1  0.64286000  0.40751000  0.18177000  1.0 -0.0909164667
C  C191  1  0.40751000  0.72574000  0.76465000  1.0 -0.0909164667
C  C192  1  0.46109000  0.64286000  0.73535000  1.0 -0.0909164667
C  C193  1  0.70605000  0.30416000  0.59295000  1.0 -0.208754795
C  C194  1  0.30416000  0.21121000  0.59811000  1.0 -0.208754795
C  C195  1  0.21121000  0.11310000  0.90705000  1.0 -0.208754795
C  C196  1  0.11310000  0.70605000  0.90189000  1.0 -0.208754795
C  C197  1  0.79395000  0.38690000  0.59811000  1.0 -0.208754795
C  C198  1  0.38690000  0.28879000  0.59295000  1.0 -0.208754795
C  C199  1  0.28879000  0.19584000  0.90189000  1.0 -0.208754795
C  C200  1  0.19584000  0.79395000  0.90705000  1.0 -0.208754795
C  C201  1  0.59295000  0.70605000  0.30416000  1.0 -0.208754795
C  C202  1  0.70605000  0.90189000  0.11310000  1.0 -0.208754795
C  C203  1  0.90189000  0.28879000  0.19584000  1.0 -0.208754795
C  C204  1  0.28879000  0.59295000  0.38690000  1.0 -0.208754795
C  C205  1  0.90705000  0.21121000  0.11310000  1.0 -0.208754795
C  C206  1  0.21121000  0.59811000  0.30416000  1.0 -0.208754795
C  C207  1  0.59811000  0.79395000  0.38690000  1.0 -0.208754795
C  C208  1  0.79395000  0.90705000  0.19584000  1.0 -0.208754795
C  C209  1  0.30416000  0.59295000  0.70605000  1.0 -0.208754795
C  C210  1  0.19584000  0.90189000  0.28879000  1.0 -0.208754795
C  C211  1  0.90189000  0.11310000  0.70605000  1.0 -0.208754795
C  C212  1  0.11310000  0.90705000  0.21121000  1.0 -0.208754795
C  C213  1  0.90705000  0.19584000  0.79395000  1.0 -0.208754795
C  C214  1  0.38690000  0.59811000  0.79395000  1.0 -0.208754795
C  C215  1  0.59811000  0.30416000  0.21121000  1.0 -0.208754795
C  C216  1  0.59295000  0.38690000  0.28879000  1.0 -0.208754795
C  C217  1  0.29395000  0.69584000  0.40705000  1.0 -0.208754795
C  C218  1  0.69584000  0.78879000  0.40189000  1.0 -0.208754795
C  C219  1  0.78879000  0.88690000  0.09295000  1.0 -0.208754795
C  C220  1  0.88690000  0.29395000  0.09811000  1.0 -0.208754795
C  C221  1  0.20605000  0.61310000  0.40189000  1.0 -0.208754795
C  C222  1  0.61310000  0.71121000  0.40705000  1.0 -0.208754795
C  C223  1  0.71121000  0.80416000  0.09811000  1.0 -0.208754795
C  C224  1  0.80416000  0.20605000  0.09295000  1.0 -0.208754795
C  C225  1  0.40705000  0.29395000  0.69584000  1.0 -0.208754795
C  C226  1  0.29395000  0.09811000  0.88690000  1.0 -0.208754795
C  C227  1  0.09811000  0.71121000  0.80416000  1.0 -0.208754795
C  C228  1  0.71121000  0.40705000  0.61310000  1.0 -0.208754795
C  C229  1  0.09295000  0.78879000  0.88690000  1.0 -0.208754795
C  C230  1  0.78879000  0.40189000  0.69584000  1.0 -0.208754795
C  C231  1  0.40189000  0.20605000  0.61310000  1.0 -0.208754795
C  C232  1  0.20605000  0.09295000  0.80416000  1.0 -0.208754795
C  C233  1  0.69584000  0.40705000  0.29395000  1.0 -0.208754795
C  C234  1  0.80416000  0.09811000  0.71121000  1.0 -0.208754795
C  C235  1  0.09811000  0.88690000  0.29395000  1.0 -0.208754795
C  C236  1  0.88690000  0.09295000  0.78879000  1.0 -0.208754795
C  C237  1  0.09295000  0.80416000  0.20605000  1.0 -0.208754795
C  C238  1  0.61310000  0.40189000  0.20605000  1.0 -0.208754795
C  C239  1  0.40189000  0.69584000  0.78879000  1.0 -0.208754795
C  C240  1  0.40705000  0.61310000  0.71121000  1.0 -0.208754795
C  C241  1  0.69515000  0.28087000  0.62162000  1.0 -0.0909164667
C  C242  1  0.28087000  0.15925000  0.58572000  1.0 -0.0909164667
C  C243  1  0.15925000  0.07353000  0.87838000  1.0 -0.0909164667
C  C244  1  0.07353000  0.69515000  0.91428000  1.0 -0.0849295644
C  C245  1  0.80485000  0.42647000  0.58572000  1.0 -0.0909164667
C  C246  1  0.42647000  0.34075000  0.62162000  1.0 -0.0849295644
C  C247  1  0.34075000  0.21913000  0.91428000  1.0 -0.0909164667
C  C248  1  0.21913000  0.80485000  0.87838000  1.0 -0.0849295644
C  C249  1  0.62162000  0.69515000  0.28087000  1.0 -0.0909164667
C  C250  1  0.69515000  0.91428000  0.07353000  1.0 -0.0909164667
C  C251  1  0.91428000  0.34075000  0.21913000  1.0 -0.0909164667
C  C252  1  0.34075000  0.62162000  0.42647000  1.0 -0.0909164667
C  C253  1  0.87838000  0.15925000  0.07353000  1.0 -0.0909164667
C  C254  1  0.15925000  0.58572000  0.28087000  1.0 -0.0849295644
C  C255  1  0.58572000  0.80485000  0.42647000  1.0 -0.0849295644
C  C256  1  0.80485000  0.87838000  0.21913000  1.0 -0.0849295644
C  C257  1  0.28087000  0.62162000  0.69515000  1.0 -0.0909164667
C  C258  1  0.21913000  0.91428000  0.34075000  1.0 -0.0849295644
C  C259  1  0.91428000  0.07353000  0.69515000  1.0 -0.0849295644
C  C260  1  0.07353000  0.87838000  0.15925000  1.0 -0.0849295644
C  C261  1  0.87838000  0.21913000  0.80485000  1.0 -0.0909164667
C  C262  1  0.42647000  0.58572000  0.80485000  1.0 -0.0909164667
C  C263  1  0.58572000  0.28087000  0.15925000  1.0 -0.0849295644
C  C264  1  0.62162000  0.42647000  0.34075000  1.0 -0.0849295644
C  C265  1  0.30485000  0.71913000  0.37838000  1.0 -0.0849295644
C  C266  1  0.71913000  0.84075000  0.41428000  1.0 -0.0909164667
C  C267  1  0.84075000  0.92647000  0.12162000  1.0 -0.0909164667
C  C268  1  0.92647000  0.30485000  0.08572000  1.0 -0.0849295644
C  C269  1  0.19515000  0.57353000  0.41428000  1.0 -0.0909164667
C  C270  1  0.57353000  0.65925000  0.37838000  1.0 -0.0909164667
C  C271  1  0.65925000  0.78087000  0.08572000  1.0 -0.0849295644
C  C272  1  0.78087000  0.19515000  0.12162000  1.0 -0.0849295644
C  C273  1  0.37838000  0.30485000  0.71913000  1.0 -0.0909164667
C  C274  1  0.30485000  0.08572000  0.92647000  1.0 -0.0909164667
C  C275  1  0.08572000  0.65925000  0.78087000  1.0 -0.0849295644
C  C276  1  0.65925000  0.37838000  0.57353000  1.0 -0.0909164667
C  C277  1  0.12162000  0.84075000  0.92647000  1.0 -0.0849295644
C  C278  1  0.84075000  0.41428000  0.71913000  1.0 -0.0909164667
C  C279  1  0.41428000  0.19515000  0.57353000  1.0 -0.0909164667
C  C280  1  0.19515000  0.12162000  0.78087000  1.0 -0.0909164667
C  C281  1  0.71913000  0.37838000  0.30485000  1.0 -0.0909164667
C  C282  1  0.78087000  0.08572000  0.65925000  1.0 -0.0909164667
C  C283  1  0.08572000  0.92647000  0.30485000  1.0 -0.0849295644
C  C284  1  0.92647000  0.12162000  0.84075000  1.0 -0.0909164667
C  C285  1  0.12162000  0.78087000  0.19515000  1.0 -0.0849295644
C  C286  1  0.57353000  0.41428000  0.19515000  1.0 -0.0909164667
C  C287  1  0.41428000  0.71913000  0.84075000  1.0 -0.0849295644
C  C288  1  0.37838000  0.57353000  0.65925000  1.0 -0.0909164667
C  C289  1  0.65997000  0.22771000  0.59626000  1.0 -0.098520465
C  C290  1  0.22771000  0.13145000  0.56774000  1.0 -0.098520465
C  C291  1  0.13145000  0.06371000  0.90374000  1.0 -0.098520465
C  C292  1  0.06371000  0.65997000  0.93226000  1.0 -0.098520465
C  C293  1  0.84003000  0.43629000  0.56774000  1.0 -0.098520465
C  C294  1  0.43629000  0.36855000  0.59626000  1.0 -0.098520465
C  C295  1  0.36855000  0.27229000  0.93226000  1.0 -0.098520465
C  C296  1  0.27229000  0.84003000  0.90374000  1.0 -0.098520465
C  C297  1  0.59626000  0.65997000  0.22771000  1.0 -0.098520465
C  C298  1  0.65997000  0.93226000  0.06371000  1.0 -0.098520465
C  C299  1  0.93226000  0.36855000  0.27229000  1.0 -0.098520465
C  C300  1  0.36855000  0.59626000  0.43629000  1.0 -0.098520465
C  C301  1  0.90374000  0.13145000  0.06371000  1.0 -0.098520465
C  C302  1  0.13145000  0.56774000  0.22771000  1.0 -0.098520465
C  C303  1  0.56774000  0.84003000  0.43629000  1.0 -0.098520465
C  C304  1  0.84003000  0.90374000  0.27229000  1.0 -0.098520465
C  C305  1  0.22771000  0.59626000  0.65997000  1.0 -0.098520465
C  C306  1  0.27229000  0.93226000  0.36855000  1.0 -0.098520465
C  C307  1  0.93226000  0.06371000  0.65997000  1.0 -0.098520465
C  C308  1  0.06371000  0.90374000  0.13145000  1.0 -0.098520465
C  C309  1  0.90374000  0.27229000  0.84003000  1.0 -0.098520465
C  C310  1  0.43629000  0.56774000  0.84003000  1.0 -0.098520465
C  C311  1  0.56774000  0.22771000  0.13145000  1.0 -0.098520465
C  C312  1  0.59626000  0.43629000  0.36855000  1.0 -0.098520465
C  C313  1  0.34003000  0.77229000  0.40374000  1.0 -0.098520465
C  C314  1  0.77229000  0.86855000  0.43226000  1.0 -0.098520465
C  C315  1  0.86855000  0.93629000  0.09626000  1.0 -0.098520465
C  C316  1  0.93629000  0.34003000  0.06774000  1.0 -0.098520465
C  C317  1  0.15997000  0.56371000  0.43226000  1.0 -0.098520465
C  C318  1  0.56371000  0.63145000  0.40374000  1.0 -0.098520465
C  C319  1  0.63145000  0.72771000  0.06774000  1.0 -0.098520465
C  C320  1  0.72771000  0.15997000  0.09626000  1.0 -0.098520465
C  C321  1  0.40374000  0.34003000  0.77229000  1.0 -0.098520465
C  C322  1  0.34003000  0.06774000  0.93629000  1.0 -0.098520465
C  C323  1  0.06774000  0.63145000  0.72771000  1.0 -0.098520465
C  C324  1  0.63145000  0.40374000  0.56371000  1.0 -0.098520465
C  C325  1  0.09626000  0.86855000  0.93629000  1.0 -0.098520465
C  C326  1  0.86855000  0.43226000  0.77229000  1.0 -0.098520465
C  C327  1  0.43226000  0.15997000  0.56371000  1.0 -0.098520465
C  C328  1  0.15997000  0.09626000  0.72771000  1.0 -0.098520465
C  C329  1  0.77229000  0.40374000  0.34003000  1.0 -0.098520465
C  C330  1  0.72771000  0.06774000  0.63145000  1.0 -0.098520465
C  C331  1  0.06774000  0.93629000  0.34003000  1.0 -0.098520465
C  C332  1  0.93629000  0.09626000  0.86855000  1.0 -0.098520465
C  C333  1  0.09626000  0.72771000  0.15997000  1.0 -0.098520465
C  C334  1  0.56371000  0.43226000  0.15997000  1.0 -0.098520465
C  C335  1  0.43226000  0.77229000  0.86855000  1.0 -0.098520465
C  C336  1  0.40374000  0.56371000  0.63145000  1.0 -0.098520465
N  N1  1  0.54430000  0.06350000  0.45260000  1.0 -0.0246161425
N  N2  1  0.06350000  0.11090000  0.51920000  1.0 -0.0259632848
N  N3  1  0.11090000  0.09170000  0.04740000  1.0 -0.0246161425
N  N4  1  0.09170000  0.54430000  0.98080000  1.0 -0.0246161425
N  N5  1  0.95570000  0.40830000  0.51920000  1.0 -0.0259632848
N  N6  1  0.40830000  0.38910000  0.45260000  1.0 -0.0259632848
N  N7  1  0.38910000  0.43650000  0.98080000  1.0 -0.0259632848
N  N8  1  0.43650000  0.95570000  0.04740000  1.0 -0.0259632848
N  N9  1  0.45260000  0.54430000  0.06350000  1.0 -0.0259632848
N  N10  1  0.54430000  0.98080000  0.09170000  1.0 -0.0259632848
N  N11  1  0.98080000  0.38910000  0.43650000  1.0 -0.0259632848
N  N12  1  0.38910000  0.45260000  0.40830000  1.0 -0.0259632848
N  N13  1  0.04740000  0.11090000  0.09170000  1.0 -0.0259632848
N  N14  1  0.11090000  0.51920000  0.06350000  1.0 -0.0246161425
N  N15  1  0.51920000  0.95570000  0.40830000  1.0 -0.0259632848
N  N16  1  0.95570000  0.04740000  0.43650000  1.0 -0.0259632848
N  N17  1  0.06350000  0.45260000  0.54430000  1.0 -0.0259632848
N  N18  1  0.43650000  0.98080000  0.38910000  1.0 -0.0259632848
N  N19  1  0.98080000  0.09170000  0.54430000  1.0 -0.0259632848
N  N20  1  0.09170000  0.04740000  0.11090000  1.0 -0.0259632848
N  N21  1  0.04740000  0.43650000  0.95570000  1.0 -0.0246161425
N  N22  1  0.40830000  0.51920000  0.95570000  1.0 -0.0259632848
N  N23  1  0.51920000  0.06350000  0.11090000  1.0 -0.0259632848
N  N24  1  0.45260000  0.40830000  0.38910000  1.0 -0.0259632848
N  N25  1  0.45570000  0.93650000  0.54740000  1.0 -0.0246161425
N  N26  1  0.93650000  0.88910000  0.48080000  1.0 -0.0259632848
N  N27  1  0.88910000  0.90830000  0.95260000  1.0 -0.0259632848
N  N28  1  0.90830000  0.45570000  0.01920000  1.0 -0.0246161425
N  N29  1  0.04430000  0.59170000  0.48080000  1.0 -0.0259632848
N  N30  1  0.59170000  0.61090000  0.54740000  1.0 -0.0259632848
N  N31  1  0.61090000  0.56350000  0.01920000  1.0 -0.0246161425
N  N32  1  0.56350000  0.04430000  0.95260000  1.0 -0.0259632848
N  N33  1  0.54740000  0.45570000  0.93650000  1.0 -0.0259632848
N  N34  1  0.45570000  0.01920000  0.90830000  1.0 -0.0246161425
N  N35  1  0.01920000  0.61090000  0.56350000  1.0 -0.0246161425
N  N36  1  0.61090000  0.54740000  0.59170000  1.0 -0.0259632848
N  N37  1  0.95260000  0.88910000  0.90830000  1.0 -0.0259632848
N  N38  1  0.88910000  0.48080000  0.93650000  1.0 -0.0246161425
N  N39  1  0.48080000  0.04430000  0.59170000  1.0 -0.0246161425
N  N40  1  0.04430000  0.95260000  0.56350000  1.0 -0.0246161425
N  N41  1  0.93650000  0.54740000  0.45570000  1.0 -0.0246161425
N  N42  1  0.56350000  0.01920000  0.61090000  1.0 -0.0246161425
N  N43  1  0.01920000  0.90830000  0.45570000  1.0 -0.0259632848
N  N44  1  0.90830000  0.95260000  0.88910000  1.0 -0.0259632848
N  N45  1  0.95260000  0.56350000  0.04430000  1.0 -0.0246161425
N  N46  1  0.59170000  0.48080000  0.04430000  1.0 -0.0259632848
N  N47  1  0.48080000  0.93650000  0.88910000  1.0 -0.0259632848
N  N48  1  0.54740000  0.59170000  0.61090000  1.0 -0.0259632848
N  N49  1  0.54780000  0.06660000  0.49740000  1.0 0.0061056202
N  N50  1  0.06660000  0.06920000  0.51880000  1.0 0.0061056202
N  N51  1  0.06920000  0.05040000  0.00260000  1.0 0.0061056202
N  N52  1  0.05040000  0.54780000  0.98120000  1.0 0.0061056202
N  N53  1  0.95220000  0.44960000  0.51880000  1.0 0.0061056202
N  N54  1  0.44960000  0.43080000  0.49740000  1.0 0.0061056202
N  N55  1  0.43080000  0.43340000  0.98120000  1.0 0.0061056202
N  N56  1  0.43340000  0.95220000  0.00260000  1.0 0.0061056202
N  N57  1  0.49740000  0.54780000  0.06660000  1.0 0.0061056202
N  N58  1  0.54780000  0.98120000  0.05040000  1.0 0.0061056202
N  N59  1  0.98120000  0.43080000  0.43340000  1.0 0.0061056202
N  N60  1  0.43080000  0.49740000  0.44960000  1.0 0.0061056202
N  N61  1  0.00260000  0.06920000  0.05040000  1.0 0.0061056202
N  N62  1  0.06920000  0.51880000  0.06660000  1.0 0.0061056202
N  N63  1  0.51880000  0.95220000  0.44960000  1.0 0.0061056202
N  N64  1  0.95220000  0.00260000  0.43340000  1.0 0.0061056202
N  N65  1  0.06660000  0.49740000  0.54780000  1.0 0.0061056202
N  N66  1  0.43340000  0.98120000  0.43080000  1.0 0.0061056202
N  N67  1  0.98120000  0.05040000  0.54780000  1.0 0.0061056202
N  N68  1  0.05040000  0.00260000  0.06920000  1.0 0.0061056202
N  N69  1  0.00260000  0.43340000  0.95220000  1.0 0.0061056202
N  N70  1  0.44960000  0.51880000  0.95220000  1.0 0.0061056202
N  N71  1  0.51880000  0.06660000  0.06920000  1.0 0.0061056202
N  N72  1  0.49740000  0.44960000  0.43080000  1.0 0.0061056202
N  N73  1  0.45220000  0.93340000  0.50260000  1.0 0.0061056202
N  N74  1  0.93340000  0.93080000  0.48120000  1.0 0.0061056202
N  N75  1  0.93080000  0.94960000  0.99740000  1.0 0.0061056202
N  N76  1  0.94960000  0.45220000  0.01880000  1.0 0.0061056202
N  N77  1  0.04780000  0.55040000  0.48120000  1.0 0.0061056202
N  N78  1  0.55040000  0.56920000  0.50260000  1.0 0.0061056202
N  N79  1  0.56920000  0.56660000  0.01880000  1.0 0.0061056202
N  N80  1  0.56660000  0.04780000  0.99740000  1.0 0.0061056202
N  N81  1  0.50260000  0.45220000  0.93340000  1.0 0.0061056202
N  N82  1  0.45220000  0.01880000  0.94960000  1.0 0.0061056202
N  N83  1  0.01880000  0.56920000  0.56660000  1.0 0.0061056202
N  N84  1  0.56920000  0.50260000  0.55040000  1.0 0.0061056202
N  N85  1  0.99740000  0.93080000  0.94960000  1.0 0.0061056202
N  N86  1  0.93080000  0.48120000  0.93340000  1.0 0.0061056202
N  N87  1  0.48120000  0.04780000  0.55040000  1.0 0.0061056202
N  N88  1  0.04780000  0.99740000  0.56660000  1.0 0.0045019701
N  N89  1  0.93340000  0.50260000  0.45220000  1.0 0.0061056202
N  N90  1  0.56660000  0.01880000  0.56920000  1.0 0.0061056202
N  N91  1  0.01880000  0.94960000  0.45220000  1.0 0.0045019701
N  N92  1  0.94960000  0.99740000  0.93080000  1.0 0.0061056202
N  N93  1  0.99740000  0.56660000  0.04780000  1.0 0.0061056202
N  N94  1  0.55040000  0.48120000  0.04780000  1.0 0.0061056202
N  N95  1  0.48120000  0.93340000  0.93080000  1.0 0.0061056202
N  N96  1  0.50260000  0.55040000  0.56920000  1.0 0.0061056202
N  N97  1  0.58040000  0.11530000  0.53610000  1.0 -0.2341419095
N  N98  1  0.11530000  0.07920000  0.53490000  1.0 -0.2341419095
N  N99  1  0.07920000  0.04430000  0.96390000  1.0 -0.2341419095
N  N100  1  0.04430000  0.58040000  0.96510000  1.0 -0.2341419095
N  N101  1  0.91960000  0.45570000  0.53490000  1.0 -0.2341419095
N  N102  1  0.45570000  0.42080000  0.53610000  1.0 -0.2341419095
N  N103  1  0.42080000  0.38470000  0.96510000  1.0 -0.2341419095
N  N104  1  0.38470000  0.91960000  0.96390000  1.0 -0.2341419095
N  N105  1  0.53610000  0.58040000  0.11530000  1.0 -0.2358657582
N  N106  1  0.58040000  0.96510000  0.04430000  1.0 -0.2358657582
N  N107  1  0.96510000  0.42080000  0.38470000  1.0 -0.2358657582
N  N108  1  0.42080000  0.53610000  0.45570000  1.0 -0.2341419095
N  N109  1  0.96390000  0.07920000  0.04430000  1.0 -0.2341419095
N  N110  1  0.07920000  0.53490000  0.11530000  1.0 -0.2341419095
N  N111  1  0.53490000  0.91960000  0.45570000  1.0 -0.2358657582
N  N112  1  0.91960000  0.96390000  0.38470000  1.0 -0.2341419095
N  N113  1  0.11530000  0.53610000  0.58040000  1.0 -0.2341419095
N  N114  1  0.38470000  0.96510000  0.42080000  1.0 -0.2341419095
N  N115  1  0.96510000  0.04430000  0.58040000  1.0 -0.2341419095
N  N116  1  0.04430000  0.96390000  0.07920000  1.0 -0.2341419095
N  N117  1  0.96390000  0.38470000  0.91960000  1.0 -0.2341419095
N  N118  1  0.45570000  0.53490000  0.91960000  1.0 -0.2341419095
N  N119  1  0.53490000  0.11530000  0.07920000  1.0 -0.2358657582
N  N120  1  0.53610000  0.45570000  0.42080000  1.0 -0.2358657582
N  N121  1  0.41960000  0.88470000  0.46390000  1.0 -0.2341419095
N  N122  1  0.88470000  0.92080000  0.46510000  1.0 -0.2341419095
N  N123  1  0.92080000  0.95570000  0.03610000  1.0 -0.2358657582
N  N124  1  0.95570000  0.41960000  0.03490000  1.0 -0.2341419095
N  N125  1  0.08040000  0.54430000  0.46510000  1.0 -0.2341419095
N  N126  1  0.54430000  0.57920000  0.46390000  1.0 -0.2358657582
N  N127  1  0.57920000  0.61530000  0.03490000  1.0 -0.2341419095
N  N128  1  0.61530000  0.08040000  0.03610000  1.0 -0.2341419095
N  N129  1  0.46390000  0.41960000  0.88470000  1.0 -0.2341419095
N  N130  1  0.41960000  0.03490000  0.95570000  1.0 -0.2341419095
N  N131  1  0.03490000  0.57920000  0.61530000  1.0 -0.2358657582
N  N132  1  0.57920000  0.46390000  0.54430000  1.0 -0.2341419095
N  N133  1  0.03610000  0.92080000  0.95570000  1.0 -0.2341419095
N  N134  1  0.92080000  0.46510000  0.88470000  1.0 -0.2341419095
N  N135  1  0.46510000  0.08040000  0.54430000  1.0 -0.2341419095
N  N136  1  0.08040000  0.03610000  0.61530000  1.0 -0.2341419095
N  N137  1  0.88470000  0.46390000  0.41960000  1.0 -0.2341419095
N  N138  1  0.61530000  0.03490000  0.57920000  1.0 -0.2341419095
N  N139  1  0.03490000  0.95570000  0.41960000  1.0 -0.2341419095
N  N140  1  0.95570000  0.03610000  0.92080000  1.0 -0.2341419095
N  N141  1  0.03610000  0.61530000  0.08040000  1.0 -0.2341419095
N  N142  1  0.54430000  0.46510000  0.08040000  1.0 -0.2358657582
N  N143  1  0.46510000  0.88470000  0.92080000  1.0 -0.2341419095
N  N144  1  0.46390000  0.54430000  0.57920000  1.0 -0.2341419095
N  N145  1  0.57810000  0.11210000  0.46460000  1.0 -0.2609898399
N  N146  1  0.11210000  0.14750000  0.53400000  1.0 -0.2609898399
N  N147  1  0.14750000  0.11350000  0.03540000  1.0 -0.2609898399
N  N148  1  0.11350000  0.57810000  0.96600000  1.0 -0.2609898399
N  N149  1  0.92190000  0.38650000  0.53400000  1.0 -0.2609898399
N  N150  1  0.38650000  0.35250000  0.46460000  1.0 -0.2609898399
N  N151  1  0.35250000  0.38790000  0.96600000  1.0 -0.2609898399
N  N152  1  0.38790000  0.92190000  0.03540000  1.0 -0.2609898399
N  N153  1  0.46460000  0.57810000  0.11210000  1.0 -0.2609898399
N  N154  1  0.57810000  0.96600000  0.11350000  1.0 -0.2609898399
N  N155  1  0.96600000  0.35250000  0.38790000  1.0 -0.2609898399
N  N156  1  0.35250000  0.46460000  0.38650000  1.0 -0.2609898399
N  N157  1  0.03540000  0.14750000  0.11350000  1.0 -0.2609898399
N  N158  1  0.14750000  0.53400000  0.11210000  1.0 -0.2609898399
N  N159  1  0.53400000  0.92190000  0.38650000  1.0 -0.2609898399
N  N160  1  0.92190000  0.03540000  0.38790000  1.0 -0.2609898399
N  N161  1  0.11210000  0.46460000  0.57810000  1.0 -0.2609898399
N  N162  1  0.38790000  0.96600000  0.35250000  1.0 -0.2609898399
N  N163  1  0.96600000  0.11350000  0.57810000  1.0 -0.2609898399
N  N164  1  0.11350000  0.03540000  0.14750000  1.0 -0.2609898399
N  N165  1  0.03540000  0.38790000  0.92190000  1.0 -0.2609898399
N  N166  1  0.38650000  0.53400000  0.92190000  1.0 -0.2609898399
N  N167  1  0.53400000  0.11210000  0.14750000  1.0 -0.2609898399
N  N168  1  0.46460000  0.38650000  0.35250000  1.0 -0.2609898399
N  N169  1  0.42190000  0.88790000  0.53540000  1.0 -0.2609898399
N  N170  1  0.88790000  0.85250000  0.46600000  1.0 -0.2609898399
N  N171  1  0.85250000  0.88650000  0.96460000  1.0 -0.2609898399
N  N172  1  0.88650000  0.42190000  0.03400000  1.0 -0.2609898399
N  N173  1  0.07810000  0.61350000  0.46600000  1.0 -0.2609898399
N  N174  1  0.61350000  0.64750000  0.53540000  1.0 -0.2609898399
N  N175  1  0.64750000  0.61210000  0.03400000  1.0 -0.2609898399
N  N176  1  0.61210000  0.07810000  0.96460000  1.0 -0.2609898399
N  N177  1  0.53540000  0.42190000  0.88790000  1.0 -0.2609898399
N  N178  1  0.42190000  0.03400000  0.88650000  1.0 -0.2609898399
N  N179  1  0.03400000  0.64750000  0.61210000  1.0 -0.2609898399
N  N180  1  0.64750000  0.53540000  0.61350000  1.0 -0.2609898399
N  N181  1  0.96460000  0.85250000  0.88650000  1.0 -0.2609898399
N  N182  1  0.85250000  0.46600000  0.88790000  1.0 -0.2609898399
N  N183  1  0.46600000  0.07810000  0.61350000  1.0 -0.2609898399
N  N184  1  0.07810000  0.96460000  0.61210000  1.0 -0.2609898399
N  N185  1  0.88790000  0.53540000  0.42190000  1.0 -0.2609898399
N  N186  1  0.61210000  0.03400000  0.64750000  1.0 -0.2609898399
N  N187  1  0.03400000  0.88650000  0.42190000  1.0 -0.2609898399
N  N188  1  0.88650000  0.96460000  0.85250000  1.0 -0.2609898399
N  N189  1  0.96460000  0.61210000  0.07810000  1.0 -0.2609898399
N  N190  1  0.61350000  0.46600000  0.07810000  1.0 -0.2609898399
N  N191  1  0.46600000  0.88790000  0.85250000  1.0 -0.2609898399
N  N192  1  0.53540000  0.61350000  0.64750000  1.0 -0.2609898399
