# DDEC6 charges by PACMAN v1.1 (https://github.com/mtap-research/PACMAN-charge/)
data_CODVAU_FSR_pacman
_symmetry_space_group_name_H-M   'P 1'
_cell_length_a   7.15100000
_cell_length_b   24.89880000
_cell_length_c   28.60970000
_cell_angle_alpha   90.00000000
_cell_angle_beta   93.40600000
_cell_angle_gamma   90.00000000
_symmetry_Int_Tables_number   1
_chemical_formula_structural   CdH24C43O5
_chemical_formula_sum   'Cd8 H192 C344 O40'
_cell_volume   5084.99684366
_cell_formula_units_Z   8
loop_
 _symmetry_equiv_pos_site_id
 _symmetry_equiv_pos_as_xyz
  1  'x, y, z'
loop_
 _atom_site_type_symbol
 _atom_site_label
 _atom_site_symmetry_multiplicity
 _atom_site_fract_x
 _atom_site_fract_y
 _atom_site_fract_z
 _atom_site_occupancy
 _atom_site_charge
Cd  Cd1  1  0.80354000  0.42109000  0.25380000  1.0 0.7689063839
Cd  Cd2  1  0.19646000  0.92109000  0.24620000  1.0 0.7689063839
Cd  Cd3  1  0.19646000  0.57891000  0.74620000  1.0 0.7689063839
Cd  Cd4  1  0.80354000  0.07891000  0.75380000  1.0 0.7689063839
Cd  Cd5  1  0.34743000  0.46226000  0.26498000  1.0 0.9182408443
Cd  Cd6  1  0.65257000  0.96226000  0.23502000  1.0 0.9182408443
Cd  Cd7  1  0.65257000  0.53774000  0.73502000  1.0 0.9182408443
Cd  Cd8  1  0.34743000  0.03774000  0.76498000  1.0 0.9182408443
H  H1  1  0.33530000  0.51010000  0.14250000  1.0 0.0899346861
H  H2  1  0.66470000  0.01010000  0.35750000  1.0 0.0899346861
H  H3  1  0.66470000  0.48990000  0.85750000  1.0 0.0899346861
H  H4  1  0.33530000  0.98990000  0.64250000  1.0 0.0899346861
H  H5  1  0.24450000  0.56680000  0.08220000  1.0 0.0710861592
H  H6  1  0.75550000  0.06680000  0.41780000  1.0 0.0710861592
H  H7  1  0.75550000  0.43320000  0.91780000  1.0 0.0710861592
H  H8  1  0.24450000  0.93320000  0.58220000  1.0 0.0710861592
H  H9  1  0.76010000  0.63070000  0.08630000  1.0 0.1098796165
H  H10  1  0.23990000  0.13070000  0.41370000  1.0 0.1152852169
H  H11  1  0.23990000  0.36930000  0.91370000  1.0 0.1152852169
H  H12  1  0.76010000  0.86930000  0.58630000  1.0 0.1098796165
H  H13  1  0.85300000  0.57190000  0.14460000  1.0 0.0899346861
H  H14  1  0.14700000  0.07190000  0.35540000  1.0 0.0899346861
H  H15  1  0.14700000  0.42810000  0.85540000  1.0 0.0899346861
H  H16  1  0.85300000  0.92810000  0.64460000  1.0 0.0899346861
H  H17  1  0.64580000  0.61600000  0.99900000  1.0 0.1007552355
H  H18  1  0.35420000  0.11600000  0.50100000  1.0 0.1007552355
H  H19  1  0.35420000  0.38400000  0.00100000  1.0 0.1007552355
H  H20  1  0.64580000  0.88400000  0.49900000  1.0 0.1007552355
H  H21  1  0.86950000  0.66980000  0.95120000  1.0 0.0899346861
H  H22  1  0.13050000  0.16980000  0.54880000  1.0 0.0899346861
H  H23  1  0.13050000  0.33020000  0.04880000  1.0 0.0899346861
H  H24  1  0.86950000  0.83020000  0.45120000  1.0 0.0899346861
H  H25  1  0.04700000  0.65020000  0.88740000  1.0 0.0710861592
H  H26  1  0.95300000  0.15020000  0.61260000  1.0 0.0710861592
H  H27  1  0.95300000  0.34980000  0.11260000  1.0 0.0710861592
H  H28  1  0.04700000  0.84980000  0.38740000  1.0 0.0710861592
H  H29  1  0.58180000  0.62610000  0.80790000  1.0 0.0899346861
H  H30  1  0.41820000  0.12610000  0.69210000  1.0 0.0899346861
H  H31  1  0.41820000  0.37390000  0.19210000  1.0 0.0899346861
H  H32  1  0.58180000  0.87390000  0.30790000  1.0 0.0899346861
H  H33  1  0.40260000  0.64590000  0.86840000  1.0 0.0810157533
H  H34  1  0.59740000  0.14590000  0.63160000  1.0 0.0810157533
H  H35  1  0.59740000  0.35410000  0.13160000  1.0 0.0810157533
H  H36  1  0.40260000  0.85410000  0.36840000  1.0 0.0810157533
H  H37  1  0.38340000  0.74150000  0.89390000  1.0 0.1007552355
H  H38  1  0.61660000  0.24150000  0.60610000  1.0 0.1007552355
H  H39  1  0.61660000  0.25850000  0.10610000  1.0 0.1007552355
H  H40  1  0.38340000  0.75850000  0.39390000  1.0 0.1007552355
H  H41  1  0.14650000  0.80040000  0.89400000  1.0 0.1007552355
H  H42  1  0.85350000  0.30040000  0.60600000  1.0 0.1007552355
H  H43  1  0.85350000  0.19960000  0.10600000  1.0 0.1007552355
H  H44  1  0.14650000  0.69960000  0.39400000  1.0 0.1007552355
H  H45  1  0.19560000  0.66180000  0.10360000  1.0 0.0899346861
H  H46  1  0.80440000  0.16180000  0.39640000  1.0 0.0899346861
H  H47  1  0.80440000  0.33820000  0.89640000  1.0 0.0899346861
H  H48  1  0.19560000  0.83820000  0.60360000  1.0 0.0899346861
H  H49  1  0.96140000  0.72200000  0.10420000  1.0 0.1098796165
H  H50  1  0.03860000  0.22200000  0.39580000  1.0 0.1098796165
H  H51  1  0.03860000  0.27800000  0.89580000  1.0 0.1098796165
H  H52  1  0.96140000  0.77800000  0.60420000  1.0 0.1098796165
H  H53  1  0.70300000  0.84620000  0.99920000  1.0 0.1007552355
H  H54  1  0.29700000  0.34620000  0.50080000  1.0 0.1007552355
H  H55  1  0.29700000  0.15380000  0.00080000  1.0 0.1007552355
H  H56  1  0.70300000  0.65380000  0.49920000  1.0 0.1007552355
H  H57  1  0.12220000  0.88760000  0.91440000  1.0 0.0810157533
H  H58  1  0.87780000  0.38760000  0.58560000  1.0 0.0810157533
H  H59  1  0.87780000  0.11240000  0.08560000  1.0 0.0810157533
H  H60  1  0.12220000  0.61240000  0.41440000  1.0 0.0810157533
H  H61  1  0.04360000  0.95630000  0.86250000  1.0 0.0899346861
H  H62  1  0.95640000  0.45630000  0.63750000  1.0 0.0899346861
H  H63  1  0.95640000  0.04370000  0.13750000  1.0 0.0899346861
H  H64  1  0.04360000  0.54370000  0.36250000  1.0 0.0899346861
H  H65  1  0.50630000  0.91320000  0.86030000  1.0 0.0899346861
H  H66  1  0.49370000  0.41320000  0.63970000  1.0 0.0899346861
H  H67  1  0.49370000  0.08680000  0.13970000  1.0 0.0899346861
H  H68  1  0.50630000  0.58680000  0.36030000  1.0 0.0899346861
H  H69  1  0.58520000  0.84430000  0.91370000  1.0 0.0899346861
H  H70  1  0.41480000  0.34430000  0.58630000  1.0 0.0899346861
H  H71  1  0.41480000  0.15570000  0.08630000  1.0 0.0899346861
H  H72  1  0.58520000  0.65570000  0.41370000  1.0 0.0899346861
H  H73  1  0.46950000  0.78750000  0.04630000  1.0 0.0810157533
H  H74  1  0.53050000  0.28750000  0.45370000  1.0 0.0810157533
H  H75  1  0.53050000  0.21250000  0.95370000  1.0 0.0810157533
H  H76  1  0.46950000  0.71250000  0.54630000  1.0 0.0810157533
H  H77  1  0.29330000  0.81480000  0.10610000  1.0 0.0810157533
H  H78  1  0.70670000  0.31480000  0.39390000  1.0 0.0810157533
H  H79  1  0.70670000  0.18520000  0.89390000  1.0 0.0810157533
H  H80  1  0.29330000  0.68520000  0.60610000  1.0 0.0810157533
H  H81  1  0.75640000  0.84660000  0.18670000  1.0 0.0899346861
H  H82  1  0.24360000  0.34660000  0.31330000  1.0 0.0899346861
H  H83  1  0.24360000  0.15340000  0.81330000  1.0 0.0899346861
H  H84  1  0.75640000  0.65340000  0.68670000  1.0 0.0899346861
H  H85  1  0.93580000  0.81610000  0.12730000  1.0 0.0810157533
H  H86  1  0.06420000  0.31610000  0.37270000  1.0 0.0810157533
H  H87  1  0.06420000  0.18390000  0.87270000  1.0 0.0810157533
H  H88  1  0.93580000  0.68390000  0.62730000  1.0 0.0810157533
H  H89  1  0.17700000  0.56310000  0.24100000  1.0 0.260287048
H  H90  1  0.82300000  0.06310000  0.25900000  1.0 0.260287048
H  H91  1  0.82300000  0.43690000  0.75900000  1.0 0.260287048
H  H92  1  0.17700000  0.93690000  0.74100000  1.0 0.260287048
H  H93  1  0.05040000  0.52900000  0.23500000  1.0 0.260287048
H  H94  1  0.94960000  0.02900000  0.26500000  1.0 0.260287048
H  H95  1  0.94960000  0.47100000  0.76500000  1.0 0.260287048
H  H96  1  0.05040000  0.97100000  0.73500000  1.0 0.260287048
H  H97  1  0.25210000  0.47260000  0.35320000  1.0 0.3012145898
H  H98  1  0.74790000  0.97260000  0.14680000  1.0 0.3012145898
H  H99  1  0.74790000  0.52740000  0.64680000  1.0 0.3012145898
H  H100  1  0.25210000  0.02740000  0.85320000  1.0 0.3012145898
H  H101  1  0.18840000  0.42220000  0.33900000  1.0 0.3127576104
H  H102  1  0.81160000  0.92220000  0.16100000  1.0 0.3127576104
H  H103  1  0.81160000  0.57780000  0.66100000  1.0 0.3127576104
H  H104  1  0.18840000  0.07780000  0.83900000  1.0 0.3127576104
H  H105  1  0.24330000  0.89070000  0.87350000  1.0 0.0810157533
H  H106  1  0.75670000  0.39070000  0.62650000  1.0 0.0810157533
H  H107  1  0.75670000  0.10930000  0.12650000  1.0 0.0810157533
H  H108  1  0.24330000  0.60930000  0.37350000  1.0 0.0810157533
H  H109  1  0.08640000  0.96250000  0.83730000  1.0 0.1007552355
H  H110  1  0.91360000  0.46250000  0.66270000  1.0 0.1007552355
H  H111  1  0.91360000  0.03750000  0.16270000  1.0 0.1007552355
H  H112  1  0.08640000  0.53750000  0.33730000  1.0 0.1007552355
H  H113  1  0.59750000  0.88480000  0.84640000  1.0 0.0899346861
H  H114  1  0.40250000  0.38480000  0.65360000  1.0 0.0899346861
H  H115  1  0.40250000  0.11520000  0.15360000  1.0 0.0899346861
H  H116  1  0.59750000  0.61520000  0.34640000  1.0 0.0899346861
H  H117  1  0.75440000  0.81300000  0.88260000  1.0 0.0899346861
H  H118  1  0.24560000  0.31300000  0.61740000  1.0 0.0899346861
H  H119  1  0.24560000  0.18700000  0.11740000  1.0 0.0899346861
H  H120  1  0.75440000  0.68700000  0.38260000  1.0 0.0899346861
H  H121  1  0.28930000  0.50490000  0.15840000  1.0 0.0810157533
H  H122  1  0.71070000  0.00490000  0.34160000  1.0 0.0810157533
H  H123  1  0.71070000  0.49510000  0.84160000  1.0 0.0810157533
H  H124  1  0.28930000  0.99510000  0.65840000  1.0 0.0810157533
H  H125  1  0.11790000  0.56990000  0.11700000  1.0 0.0810157533
H  H126  1  0.88210000  0.06990000  0.38300000  1.0 0.0810157533
H  H127  1  0.88210000  0.43010000  0.88300000  1.0 0.0810157533
H  H128  1  0.11790000  0.93010000  0.61700000  1.0 0.0810157533
H  H129  1  0.56620000  0.66770000  0.12740000  1.0 0.1007552355
H  H130  1  0.43380000  0.16770000  0.37260000  1.0 0.1007552355
H  H131  1  0.43380000  0.33230000  0.87260000  1.0 0.1007552355
H  H132  1  0.56620000  0.83230000  0.62740000  1.0 0.1007552355
H  H133  1  0.73560000  0.60170000  0.16770000  1.0 0.0710861592
H  H134  1  0.26440000  0.10170000  0.33230000  1.0 0.0710861592
H  H135  1  0.26440000  0.39830000  0.83230000  1.0 0.0710861592
H  H136  1  0.73560000  0.89830000  0.66770000  1.0 0.0710861592
H  H137  1  0.44990000  0.62900000  0.03810000  1.0 0.0899346861
H  H138  1  0.55010000  0.12900000  0.46190000  1.0 0.0899346861
H  H139  1  0.55010000  0.37100000  0.96190000  1.0 0.0899346861
H  H140  1  0.44990000  0.87100000  0.53810000  1.0 0.0899346861
H  H141  1  0.51840000  0.65340000  0.96360000  1.0 0.1098796165
H  H142  1  0.48160000  0.15340000  0.53640000  1.0 0.1098796165
H  H143  1  0.48160000  0.34660000  0.03640000  1.0 0.1098796165
H  H144  1  0.51840000  0.84660000  0.46360000  1.0 0.1098796165
H  H145  1  0.76210000  0.71900000  0.92750000  1.0 0.0810157533
H  H146  1  0.23790000  0.21900000  0.57250000  1.0 0.0810157533
H  H147  1  0.23790000  0.28100000  0.07250000  1.0 0.0810157533
H  H148  1  0.76210000  0.78100000  0.42750000  1.0 0.0810157533
H  H149  1  0.97680000  0.67980000  0.88080000  1.0 0.0899346861
H  H150  1  0.02320000  0.17980000  0.61920000  1.0 0.0899346861
H  H151  1  0.02320000  0.32020000  0.11920000  1.0 0.0899346861
H  H152  1  0.97680000  0.82020000  0.38080000  1.0 0.0899346861
H  H153  1  0.56270000  0.64300000  0.78480000  1.0 0.0810157533
H  H154  1  0.43730000  0.14300000  0.71520000  1.0 0.0810157533
H  H155  1  0.43730000  0.35700000  0.21520000  1.0 0.0810157533
H  H156  1  0.56270000  0.85700000  0.28480000  1.0 0.0810157533
H  H157  1  0.35780000  0.68810000  0.82990000  1.0 0.1007552355
H  H158  1  0.64220000  0.18810000  0.67010000  1.0 0.1007552355
H  H159  1  0.64220000  0.31190000  0.17010000  1.0 0.1007552355
H  H160  1  0.35780000  0.81190000  0.32990000  1.0 0.1007552355
H  H161  1  0.30240000  0.78590000  0.85930000  1.0 0.0899346861
H  H162  1  0.69760000  0.28590000  0.64070000  1.0 0.0899346861
H  H163  1  0.69760000  0.21410000  0.14070000  1.0 0.0899346861
H  H164  1  0.30240000  0.71410000  0.35930000  1.0 0.0899346861
H  H165  1  0.04260000  0.68380000  0.14340000  1.0 0.0899346861
H  H166  1  0.95740000  0.18380000  0.35660000  1.0 0.0899346861
H  H167  1  0.95740000  0.31620000  0.85660000  1.0 0.0899346861
H  H168  1  0.04260000  0.81620000  0.64340000  1.0 0.0899346861
H  H169  1  0.82360000  0.81220000  0.04090000  1.0 0.1007552355
H  H170  1  0.17640000  0.31220000  0.45910000  1.0 0.1007552355
H  H171  1  0.17640000  0.18780000  0.95910000  1.0 0.1007552355
H  H172  1  0.82360000  0.68780000  0.54090000  1.0 0.1007552355
H  H173  1  0.91670000  0.84490000  0.96940000  1.0 0.1007552355
H  H174  1  0.08330000  0.34490000  0.53060000  1.0 0.1007552355
H  H175  1  0.08330000  0.15510000  0.03060000  1.0 0.1007552355
H  H176  1  0.91670000  0.65510000  0.46940000  1.0 0.1007552355
H  H177  1  0.58520000  0.74610000  0.07340000  1.0 0.0710861592
H  H178  1  0.41480000  0.24610000  0.42660000  1.0 0.0710861592
H  H179  1  0.41480000  0.25390000  0.92660000  1.0 0.0710861592
H  H180  1  0.58520000  0.75390000  0.57340000  1.0 0.0710861592
H  H181  1  0.37090000  0.78470000  0.11950000  1.0 0.0899346861
H  H182  1  0.62910000  0.28470000  0.38050000  1.0 0.0899346861
H  H183  1  0.62910000  0.21530000  0.88050000  1.0 0.0899346861
H  H184  1  0.37090000  0.71530000  0.61950000  1.0 0.0899346861
H  H185  1  0.77300000  0.83000000  0.21310000  1.0 0.0810157533
H  H186  1  0.22700000  0.33000000  0.28690000  1.0 0.0810157533
H  H187  1  0.22700000  0.17000000  0.78690000  1.0 0.0810157533
H  H188  1  0.77300000  0.67000000  0.71310000  1.0 0.0810157533
H  H189  1  0.99220000  0.78870000  0.16850000  1.0 0.0899346861
H  H190  1  0.00780000  0.28870000  0.33150000  1.0 0.0899346861
H  H191  1  0.00780000  0.21130000  0.83150000  1.0 0.0899346861
H  H192  1  0.99220000  0.71130000  0.66850000  1.0 0.0899346861
C  C1  1  0.66200000  0.49540000  0.18860000  1.0 0.3012145898
C  C2  1  0.33800000  0.99540000  0.31140000  1.0 0.3012145898
C  C3  1  0.33800000  0.50460000  0.81140000  1.0 0.3012145898
C  C4  1  0.66200000  0.00460000  0.68860000  1.0 0.3012145898
C  C5  1  0.60490000  0.53500000  0.15050000  1.0 0.0379658727
C  C6  1  0.39510000  0.03500000  0.34950000  1.0 0.0379658727
C  C7  1  0.39510000  0.46500000  0.84950000  1.0 0.0379658727
C  C8  1  0.60490000  0.96500000  0.65050000  1.0 0.0379658727
C  C9  1  0.42130000  0.53410000  0.13110000  1.0 -0.0597234204
C  C10  1  0.57870000  0.03410000  0.36890000  1.0 -0.0597234204
C  C11  1  0.57870000  0.46590000  0.86890000  1.0 -0.0597234204
C  C12  1  0.42130000  0.96590000  0.63110000  1.0 -0.0597234204
C  C13  1  0.36680000  0.56840000  0.09510000  1.0 -0.0491797635
C  C14  1  0.63320000  0.06840000  0.40490000  1.0 -0.0491797635
C  C15  1  0.63320000  0.43160000  0.90490000  1.0 -0.0491797635
C  C16  1  0.36680000  0.93160000  0.59510000  1.0 -0.0491797635
C  C17  1  0.49070000  0.60530000  0.07760000  1.0 -0.0597234204
C  C18  1  0.50930000  0.10530000  0.42240000  1.0 -0.0597234204
C  C19  1  0.50930000  0.39470000  0.92240000  1.0 -0.0597234204
C  C20  1  0.49070000  0.89470000  0.57760000  1.0 -0.0597234204
C  C21  1  0.67460000  0.60620000  0.09720000  1.0 -0.1534565436
C  C22  1  0.32540000  0.10620000  0.40280000  1.0 -0.1534565436
C  C23  1  0.32540000  0.39380000  0.90280000  1.0 -0.1534565436
C  C24  1  0.67460000  0.89380000  0.59720000  1.0 -0.1534565436
C  C25  1  0.72940000  0.57130000  0.13250000  1.0 -0.1319724787
C  C26  1  0.27060000  0.07130000  0.36750000  1.0 -0.1319724787
C  C27  1  0.27060000  0.42870000  0.86750000  1.0 -0.1319724787
C  C28  1  0.72940000  0.92870000  0.63250000  1.0 -0.1319724787
C  C29  1  0.43770000  0.64230000  0.03770000  1.0 0.0710861592
C  C30  1  0.56230000  0.14230000  0.46230000  1.0 0.0710861592
C  C31  1  0.56230000  0.35770000  0.96230000  1.0 0.0710861592
C  C32  1  0.43770000  0.85770000  0.53770000  1.0 0.0710861592
C  C33  1  0.54420000  0.63940000  0.99860000  1.0 -0.1706219921
C  C34  1  0.45580000  0.13940000  0.50140000  1.0 -0.1706219921
C  C35  1  0.45580000  0.36060000  0.00140000  1.0 -0.1706219921
C  C36  1  0.54420000  0.86060000  0.49860000  1.0 -0.1706219921
C  C37  1  0.50300000  0.67010000  0.95950000  1.0 0.0197254872
C  C38  1  0.49700000  0.17010000  0.54050000  1.0 0.0197254872
C  C39  1  0.49700000  0.32990000  0.04050000  1.0 0.0197254872
C  C40  1  0.50300000  0.82990000  0.45950000  1.0 0.0197254872
C  C41  1  0.61450000  0.66000000  0.91710000  1.0 -0.0382136407
C  C42  1  0.38550000  0.16000000  0.58290000  1.0 -0.0382136407
C  C43  1  0.38550000  0.34000000  0.08290000  1.0 -0.0382136407
C  C44  1  0.61450000  0.84000000  0.41710000  1.0 -0.0382136407
C  C45  1  0.81010000  0.66110000  0.92240000  1.0 -0.1087444735
C  C46  1  0.18990000  0.16110000  0.57760000  1.0 -0.1087444735
C  C47  1  0.18990000  0.33890000  0.07760000  1.0 -0.1087444735
C  C48  1  0.81010000  0.83890000  0.42240000  1.0 -0.1087444735
C  C49  1  0.91700000  0.64910000  0.88390000  1.0 -0.1087444735
C  C50  1  0.08300000  0.14910000  0.61610000  1.0 -0.1087444735
C  C51  1  0.08300000  0.35090000  0.11610000  1.0 -0.1087444735
C  C52  1  0.91700000  0.85090000  0.38390000  1.0 -0.1087444735
C  C53  1  0.83290000  0.63590000  0.84180000  1.0 0.0197254872
C  C54  1  0.16710000  0.13590000  0.65820000  1.0 0.0197254872
C  C55  1  0.16710000  0.36410000  0.15820000  1.0 0.0197254872
C  C56  1  0.83290000  0.86410000  0.34180000  1.0 0.0197254872
C  C57  1  0.94500000  0.61750000  0.80250000  1.0 0.241831678
C  C58  1  0.05500000  0.11750000  0.69750000  1.0 0.241831678
C  C59  1  0.05500000  0.38250000  0.19750000  1.0 0.241831678
C  C60  1  0.94500000  0.88250000  0.30250000  1.0 0.241831678
C  C61  1  0.63980000  0.63500000  0.83680000  1.0 -0.0382136407
C  C62  1  0.36020000  0.13500000  0.66320000  1.0 -0.0382136407
C  C63  1  0.36020000  0.36500000  0.16320000  1.0 -0.0382136407
C  C64  1  0.63980000  0.86500000  0.33680000  1.0 -0.0309500248
C  C65  1  0.53240000  0.64670000  0.87300000  1.0 -0.0663841636
C  C66  1  0.46760000  0.14670000  0.62700000  1.0 -0.0663841636
C  C67  1  0.46760000  0.35330000  0.12700000  1.0 -0.0663841636
C  C68  1  0.53240000  0.85330000  0.37300000  1.0 -0.0663841636
C  C69  1  0.35600000  0.70750000  0.95860000  1.0 -0.0491797635
C  C70  1  0.64400000  0.20750000  0.54140000  1.0 -0.0491797635
C  C71  1  0.64400000  0.29250000  0.04140000  1.0 -0.0491797635
C  C72  1  0.35600000  0.79250000  0.45860000  1.0 -0.0491797635
C  C73  1  0.31190000  0.74320000  0.92000000  1.0 -0.0309500248
C  C74  1  0.68810000  0.24320000  0.58000000  1.0 -0.0309500248
C  C75  1  0.68810000  0.25680000  0.08000000  1.0 -0.0309500248
C  C76  1  0.31190000  0.75680000  0.42000000  1.0 -0.0309500248
C  C77  1  0.17160000  0.77880000  0.92020000  1.0 -0.0309500248
C  C78  1  0.82840000  0.27880000  0.57980000  1.0 -0.0309500248
C  C79  1  0.82840000  0.22120000  0.07980000  1.0 -0.0309500248
C  C80  1  0.17160000  0.72120000  0.42020000  1.0 -0.0309500248
C  C81  1  0.05900000  0.78440000  0.95970000  1.0 -0.0309500248
C  C82  1  0.94100000  0.28440000  0.54030000  1.0 -0.0309500248
C  C83  1  0.94100000  0.21560000  0.04030000  1.0 -0.0309500248
C  C84  1  0.05900000  0.71560000  0.45970000  1.0 -0.0309500248
C  C85  1  0.09690000  0.74930000  0.99870000  1.0 0.0379658727
C  C86  1  0.90310000  0.24930000  0.50130000  1.0 0.0379658727
C  C87  1  0.90310000  0.25070000  0.00130000  1.0 0.0379658727
C  C88  1  0.09690000  0.75070000  0.49870000  1.0 0.0379658727
C  C89  1  0.24690000  0.71150000  0.99820000  1.0 0.0130189187
C  C90  1  0.75310000  0.21150000  0.50180000  1.0 0.0130189187
C  C91  1  0.75310000  0.28850000  0.00180000  1.0 0.0130189187
C  C92  1  0.24690000  0.78850000  0.49820000  1.0 0.0130189187
C  C93  1  0.28460000  0.67740000  0.03750000  1.0 -0.0029268399
C  C94  1  0.71540000  0.17740000  0.46250000  1.0 -0.0029268399
C  C95  1  0.71540000  0.32260000  0.96250000  1.0 -0.0029268399
C  C96  1  0.28460000  0.82260000  0.53750000  1.0 -0.0029268399
C  C97  1  0.17110000  0.68350000  0.07750000  1.0 -0.0382136407
C  C98  1  0.82890000  0.18350000  0.42250000  1.0 -0.0382136407
C  C99  1  0.82890000  0.31650000  0.92250000  1.0 -0.0382136407
C  C100  1  0.17110000  0.81650000  0.57750000  1.0 -0.0382136407
C  C101  1  0.03090000  0.71960000  0.07780000  1.0 -0.0309500248
C  C102  1  0.96910000  0.21960000  0.42220000  1.0 -0.0309500248
C  C103  1  0.96910000  0.28040000  0.92220000  1.0 -0.0309500248
C  C104  1  0.03090000  0.78040000  0.57780000  1.0 -0.0309500248
C  C105  1  0.98600000  0.75430000  0.03910000  1.0 -0.0382136407
C  C106  1  0.01400000  0.25430000  0.46090000  1.0 -0.0491797635
C  C107  1  0.01400000  0.24570000  0.96090000  1.0 -0.0382136407
C  C108  1  0.98600000  0.74570000  0.53910000  1.0 -0.0382136407
C  C109  1  0.83670000  0.79070000  0.03790000  1.0 0.0197254872
C  C110  1  0.16330000  0.29070000  0.46210000  1.0 0.0197254872
C  C111  1  0.16330000  0.20930000  0.96210000  1.0 0.0197254872
C  C112  1  0.83670000  0.70930000  0.53790000  1.0 0.0197254872
C  C113  1  0.80190000  0.82200000  0.99940000  1.0 -0.1584725389
C  C114  1  0.19810000  0.32200000  0.50060000  1.0 -0.1584725389
C  C115  1  0.19810000  0.17800000  0.00060000  1.0 -0.1584725389
C  C116  1  0.80190000  0.67800000  0.49940000  1.0 -0.1584725389
C  C117  1  0.90600000  0.81930000  0.96080000  1.0 0.0037510153
C  C118  1  0.09400000  0.31930000  0.53920000  1.0 0.0037510153
C  C119  1  0.09400000  0.18070000  0.03920000  1.0 0.0037510153
C  C120  1  0.90600000  0.68070000  0.46080000  1.0 0.0037510153
C  C121  1  0.86090000  0.86010000  0.92220000  1.0 -0.0597234204
C  C122  1  0.13910000  0.36010000  0.57780000  1.0 -0.0597234204
C  C123  1  0.13910000  0.13990000  0.07780000  1.0 -0.0597234204
C  C124  1  0.86090000  0.63990000  0.42220000  1.0 -0.0597234204
C  C125  1  0.99720000  0.89300000  0.90460000  1.0 -0.0776634784
C  C126  1  0.00280000  0.39300000  0.59540000  1.0 -0.0776634784
C  C127  1  0.00280000  0.10700000  0.09540000  1.0 -0.0776634784
C  C128  1  0.99720000  0.60700000  0.40460000  1.0 -0.0776634784
C  C129  1  0.95070000  0.93380000  0.87270000  1.0 -0.0217612183
C  C130  1  0.04930000  0.43380000  0.62730000  1.0 -0.0217612183
C  C131  1  0.04930000  0.06620000  0.12730000  1.0 -0.0309500248
C  C132  1  0.95070000  0.56620000  0.37270000  1.0 -0.0217612183
C  C133  1  0.76800000  0.94070000  0.85650000  1.0 0.0296924723
C  C134  1  0.23200000  0.44070000  0.64350000  1.0 0.0296924723
C  C135  1  0.23200000  0.05930000  0.14350000  1.0 0.0296924723
C  C136  1  0.76800000  0.55930000  0.35650000  1.0 0.0296924723
C  C137  1  0.71820000  0.98220000  0.81870000  1.0 0.4622472218
C  C138  1  0.28180000  0.48220000  0.68130000  1.0 0.4622472218
C  C139  1  0.28180000  0.01780000  0.18130000  1.0 0.4622472218
C  C140  1  0.71820000  0.51780000  0.31870000  1.0 0.4622472218
C  C141  1  0.63010000  0.90840000  0.87140000  1.0 -0.1189770689
C  C142  1  0.36990000  0.40840000  0.62860000  1.0 -0.1189770689
C  C143  1  0.36990000  0.09160000  0.12860000  1.0 -0.1189770689
C  C144  1  0.63010000  0.59160000  0.37140000  1.0 -0.1189770689
C  C145  1  0.67840000  0.86710000  0.90410000  1.0 -0.091359138
C  C146  1  0.32160000  0.36710000  0.59590000  1.0 -0.091359138
C  C147  1  0.32160000  0.13290000  0.09590000  1.0 -0.091359138
C  C148  1  0.67840000  0.63290000  0.40410000  1.0 -0.091359138
C  C149  1  0.72330000  0.80040000  0.07960000  1.0 -0.0597234204
C  C150  1  0.27670000  0.30040000  0.42040000  1.0 -0.0597234204
C  C151  1  0.27670000  0.19960000  0.92040000  1.0 -0.0597234204
C  C152  1  0.72330000  0.69960000  0.57960000  1.0 -0.0597234204
C  C153  1  0.52820000  0.79960000  0.07420000  1.0 -0.1087444735
C  C154  1  0.47180000  0.29960000  0.42580000  1.0 -0.1087444735
C  C155  1  0.47180000  0.20040000  0.92580000  1.0 -0.1087444735
C  C156  1  0.52820000  0.70040000  0.57420000  1.0 -0.1087444735
C  C157  1  0.42330000  0.81630000  0.10950000  1.0 -0.1087444735
C  C158  1  0.57670000  0.31630000  0.39050000  1.0 -0.1087444735
C  C159  1  0.57670000  0.18370000  0.89050000  1.0 -0.1087444735
C  C160  1  0.42330000  0.68370000  0.60950000  1.0 -0.1087444735
C  C161  1  0.50850000  0.83510000  0.14990000  1.0 0.0197254872
C  C162  1  0.49150000  0.33510000  0.35010000  1.0 0.0197254872
C  C163  1  0.49150000  0.16490000  0.85010000  1.0 0.0197254872
C  C164  1  0.50850000  0.66490000  0.64990000  1.0 0.0197254872
C  C165  1  0.39380000  0.85820000  0.18740000  1.0 0.4362421921
C  C166  1  0.60620000  0.35820000  0.31260000  1.0 0.4362421921
C  C167  1  0.60620000  0.14180000  0.81260000  1.0 0.4362421921
C  C168  1  0.39380000  0.64180000  0.68740000  1.0 0.4362421921
C  C169  1  0.70060000  0.83500000  0.15830000  1.0 -0.0217612183
C  C170  1  0.29940000  0.33500000  0.34170000  1.0 -0.0217612183
C  C171  1  0.29940000  0.16500000  0.84170000  1.0 -0.0217612183
C  C172  1  0.70060000  0.66500000  0.65830000  1.0 -0.0217612183
C  C173  1  0.80600000  0.81710000  0.12260000  1.0 -0.0663841636
C  C174  1  0.19400000  0.31710000  0.37740000  1.0 -0.0663841636
C  C175  1  0.19400000  0.18290000  0.87740000  1.0 -0.0663841636
C  C176  1  0.80600000  0.68290000  0.62260000  1.0 -0.0663841636
C  C177  1  0.01400000  0.84480000  0.88160000  1.0 -0.0491797635
C  C178  1  0.98600000  0.34480000  0.61840000  1.0 -0.0491797635
C  C179  1  0.98600000  0.15520000  0.11840000  1.0 -0.0491797635
C  C180  1  0.01400000  0.65520000  0.38160000  1.0 -0.0491797635
C  C181  1  0.11390000  0.88950000  0.86810000  1.0 -0.1087444735
C  C182  1  0.88610000  0.38950000  0.63190000  1.0 -0.0991648068
C  C183  1  0.88610000  0.11050000  0.13190000  1.0 -0.0991648068
C  C184  1  0.11390000  0.61050000  0.36810000  1.0 -0.1087444735
C  C185  1  0.02000000  0.93250000  0.84640000  1.0 -0.0991648068
C  C186  1  0.98000000  0.43250000  0.65360000  1.0 -0.0991648068
C  C187  1  0.98000000  0.06750000  0.15360000  1.0 -0.0991648068
C  C188  1  0.02000000  0.56750000  0.34640000  1.0 -0.0991648068
C  C189  1  0.82600000  0.93070000  0.83830000  1.0 0.0296924723
C  C190  1  0.17400000  0.43070000  0.66170000  1.0 0.0296924723
C  C191  1  0.17400000  0.06930000  0.16170000  1.0 0.0296924723
C  C192  1  0.82600000  0.56930000  0.33830000  1.0 0.0296924723
C  C193  1  0.72690000  0.88600000  0.85190000  1.0 -0.0073838513
C  C194  1  0.27310000  0.38600000  0.64810000  1.0 -0.0073838513
C  C195  1  0.27310000  0.11400000  0.14810000  1.0 -0.0073838513
C  C196  1  0.72690000  0.61400000  0.35190000  1.0 -0.0073838513
C  C197  1  0.82100000  0.84300000  0.87350000  1.0 -0.1189770689
C  C198  1  0.17900000  0.34300000  0.62650000  1.0 -0.1189770689
C  C199  1  0.17900000  0.15700000  0.12650000  1.0 -0.1189770689
C  C200  1  0.82100000  0.65700000  0.37350000  1.0 -0.1189770689
C  C201  1  0.65700000  0.51030000  0.19730000  1.0 0.260287048
C  C202  1  0.34300000  0.01030000  0.30270000  1.0 0.260287048
C  C203  1  0.34300000  0.48970000  0.80270000  1.0 0.260287048
C  C204  1  0.65700000  0.98970000  0.69730000  1.0 0.260287048
C  C205  1  0.53100000  0.54680000  0.16750000  1.0 0.0296924723
C  C206  1  0.46900000  0.04680000  0.33250000  1.0 0.0296924723
C  C207  1  0.46900000  0.45320000  0.83250000  1.0 0.0296924723
C  C208  1  0.53100000  0.95320000  0.66750000  1.0 0.0296924723
C  C209  1  0.34500000  0.53760000  0.15200000  1.0 -0.0991648068
C  C210  1  0.65500000  0.03760000  0.34800000  1.0 -0.0991648068
C  C211  1  0.65500000  0.46240000  0.84800000  1.0 -0.0991648068
C  C212  1  0.34500000  0.96240000  0.65200000  1.0 -0.0991648068
C  C213  1  0.24200000  0.57640000  0.12730000  1.0 -0.091359138
C  C214  1  0.75800000  0.07640000  0.37270000  1.0 -0.091359138
C  C215  1  0.75800000  0.42360000  0.87270000  1.0 -0.091359138
C  C216  1  0.24200000  0.92360000  0.62730000  1.0 -0.091359138
C  C217  1  0.32500000  0.62510000  0.11810000  1.0 -0.0491797635
C  C218  1  0.67500000  0.12510000  0.38190000  1.0 -0.0491797635
C  C219  1  0.67500000  0.37490000  0.88190000  1.0 -0.0491797635
C  C220  1  0.32500000  0.87490000  0.61810000  1.0 -0.0491797635
C  C221  1  0.51100000  0.63490000  0.13340000  1.0 -0.1793615678
C  C222  1  0.48900000  0.13490000  0.36660000  1.0 -0.1793615678
C  C223  1  0.48900000  0.36510000  0.86660000  1.0 -0.1793615678
C  C224  1  0.51100000  0.86510000  0.63340000  1.0 -0.1793615678
C  C225  1  0.61100000  0.59540000  0.15780000  1.0 -0.0309500248
C  C226  1  0.38900000  0.09540000  0.34220000  1.0 -0.0309500248
C  C227  1  0.38900000  0.40460000  0.84220000  1.0 -0.0309500248
C  C228  1  0.61100000  0.90460000  0.65780000  1.0 -0.0309500248
C  C229  1  0.38500000  0.65740000  0.02360000  1.0 -0.0217612183
C  C230  1  0.61500000  0.15740000  0.47640000  1.0 -0.0217612183
C  C231  1  0.61500000  0.34260000  0.97640000  1.0 -0.0217612183
C  C232  1  0.38500000  0.84260000  0.52360000  1.0 -0.0217612183
C  C233  1  0.42800000  0.67280000  0.97850000  1.0 -0.0029268399
C  C234  1  0.57200000  0.17280000  0.52150000  1.0 -0.0029268399
C  C235  1  0.57200000  0.32720000  0.02150000  1.0 -0.0029268399
C  C236  1  0.42800000  0.82720000  0.47850000  1.0 -0.0029268399
C  C237  1  0.34000000  0.71700000  0.95500000  1.0 -0.0663841636
C  C238  1  0.66000000  0.21700000  0.54500000  1.0 -0.0663841636
C  C239  1  0.66000000  0.28300000  0.04500000  1.0 -0.0663841636
C  C240  1  0.34000000  0.78300000  0.45500000  1.0 -0.0663841636
C  C241  1  0.53600000  0.70610000  0.88380000  1.0 -0.0491797635
C  C242  1  0.46400000  0.20610000  0.61620000  1.0 -0.0491797635
C  C243  1  0.46400000  0.29390000  0.11620000  1.0 -0.0491797635
C  C244  1  0.53600000  0.79390000  0.38380000  1.0 -0.0491797635
C  C245  1  0.72200000  0.70410000  0.89890000  1.0 -0.1367932865
C  C246  1  0.27800000  0.20410000  0.60110000  1.0 -0.1367932865
C  C247  1  0.27800000  0.29590000  0.10110000  1.0 -0.1367932865
C  C248  1  0.72200000  0.79590000  0.39890000  1.0 -0.1367932865
C  C249  1  0.85000000  0.67990000  0.87120000  1.0 -0.0217612183
C  C250  1  0.15000000  0.17990000  0.62880000  1.0 -0.0217612183
C  C251  1  0.15000000  0.32010000  0.12880000  1.0 -0.0217612183
C  C252  1  0.85000000  0.82010000  0.37120000  1.0 -0.0217612183
C  C253  1  0.79000000  0.65570000  0.82930000  1.0 0.0473059556
C  C254  1  0.21000000  0.15570000  0.67070000  1.0 0.0473059556
C  C255  1  0.21000000  0.34430000  0.17070000  1.0 0.0473059556
C  C256  1  0.79000000  0.84430000  0.32930000  1.0 0.0473059556
C  C257  1  0.94800000  0.63300000  0.80400000  1.0 0.1273454568
C  C258  1  0.05200000  0.13300000  0.69600000  1.0 0.1273454568
C  C259  1  0.05200000  0.36700000  0.19600000  1.0 0.1273454568
C  C260  1  0.94800000  0.86700000  0.30400000  1.0 0.1273454568
C  C261  1  0.60400000  0.65840000  0.81320000  1.0 -0.091359138
C  C262  1  0.39600000  0.15840000  0.68680000  1.0 -0.091359138
C  C263  1  0.39600000  0.34160000  0.18680000  1.0 -0.091359138
C  C264  1  0.60400000  0.84160000  0.31320000  1.0 -0.091359138
C  C265  1  0.48200000  0.68470000  0.84080000  1.0 -0.091359138
C  C266  1  0.51800000  0.18470000  0.65920000  1.0 -0.091359138
C  C267  1  0.51800000  0.31530000  0.15920000  1.0 -0.091359138
C  C268  1  0.48200000  0.81530000  0.34080000  1.0 -0.091359138
C  C269  1  0.19600000  0.74160000  0.97830000  1.0 0.0296924723
C  C270  1  0.80400000  0.24160000  0.52170000  1.0 0.0296924723
C  C271  1  0.80400000  0.25840000  0.02170000  1.0 0.0296924723
C  C272  1  0.19600000  0.75840000  0.47830000  1.0 0.0296924723
C  C273  1  0.38100000  0.73370000  0.90960000  1.0 0.0296924723
C  C274  1  0.61900000  0.23370000  0.59040000  1.0 0.0296924723
C  C275  1  0.61900000  0.26630000  0.09040000  1.0 0.0296924723
C  C276  1  0.38100000  0.76630000  0.40960000  1.0 0.0296924723
C  C277  1  0.27300000  0.77480000  0.88900000  1.0 -0.1319724787
C  C278  1  0.72700000  0.27480000  0.61100000  1.0 -0.1319724787
C  C279  1  0.72700000  0.22520000  0.11100000  1.0 -0.1319724787
C  C280  1  0.27300000  0.72520000  0.38900000  1.0 -0.1319724787
C  C281  1  0.09000000  0.78270000  0.95500000  1.0 -0.0382136407
C  C282  1  0.91000000  0.28270000  0.54500000  1.0 -0.0382136407
C  C283  1  0.91000000  0.21730000  0.04500000  1.0 -0.0382136407
C  C284  1  0.09000000  0.71730000  0.45500000  1.0 -0.0382136407
C  C285  1  0.15200000  0.72530000  0.02330000  1.0 0.0130189187
C  C286  1  0.84800000  0.22530000  0.47670000  1.0 0.0130189187
C  C287  1  0.84800000  0.27470000  0.97670000  1.0 0.0130189187
C  C288  1  0.15200000  0.77470000  0.52330000  1.0 0.0130189187
C  C289  1  0.24700000  0.68380000  0.04740000  1.0 -0.0029268399
C  C290  1  0.75300000  0.18380000  0.45260000  1.0 -0.0029268399
C  C291  1  0.75300000  0.31620000  0.95260000  1.0 -0.0029268399
C  C292  1  0.24700000  0.81620000  0.54740000  1.0 -0.0029268399
C  C293  1  0.06900000  0.69400000  0.11330000  1.0 -0.1534565436
C  C294  1  0.93100000  0.19400000  0.38670000  1.0 -0.1534565436
C  C295  1  0.93100000  0.30600000  0.88670000  1.0 -0.1534565436
C  C296  1  0.06900000  0.80600000  0.61330000  1.0 -0.1534565436
C  C297  1  0.21600000  0.66880000  0.09310000  1.0 0.0567716053
C  C298  1  0.78400000  0.16880000  0.40690000  1.0 0.0567716053
C  C299  1  0.78400000  0.33120000  0.90690000  1.0 0.0567716053
C  C300  1  0.21600000  0.83120000  0.59310000  1.0 0.0567716053
C  C301  1  0.95700000  0.73400000  0.09140000  1.0 0.0037510153
C  C302  1  0.04300000  0.23400000  0.40860000  1.0 0.0037510153
C  C303  1  0.04300000  0.26600000  0.90860000  1.0 0.0037510153
C  C304  1  0.95700000  0.76600000  0.59140000  1.0 0.0037510153
C  C305  1  0.00500000  0.74900000  0.04650000  1.0 -0.0382136407
C  C306  1  0.99500000  0.24900000  0.45350000  1.0 -0.0382136407
C  C307  1  0.99500000  0.25100000  0.95350000  1.0 -0.0382136407
C  C308  1  0.00500000  0.75100000  0.54650000  1.0 -0.0382136407
C  C309  1  0.91600000  0.79440000  0.02540000  1.0 -0.0217612183
C  C310  1  0.08400000  0.29440000  0.47460000  1.0 -0.0217612183
C  C311  1  0.08400000  0.20560000  0.97460000  1.0 -0.0217612183
C  C312  1  0.91600000  0.70560000  0.52540000  1.0 -0.0217612183
C  C313  1  0.12300000  0.80110000  0.90910000  1.0 0.0296924723
C  C314  1  0.87700000  0.30110000  0.59090000  1.0 0.0296924723
C  C315  1  0.87700000  0.19890000  0.09090000  1.0 0.0296924723
C  C316  1  0.12300000  0.69890000  0.40910000  1.0 0.0296924723
C  C317  1  0.96600000  0.81270000  0.98130000  1.0 -0.0309500248
C  C318  1  0.03400000  0.31270000  0.51870000  1.0 -0.0309500248
C  C319  1  0.03400000  0.18730000  0.01870000  1.0 -0.0309500248
C  C320  1  0.96600000  0.68730000  0.48130000  1.0 -0.0309500248
C  C321  1  0.81000000  0.76070000  0.11790000  1.0 -0.0597234204
C  C322  1  0.19000000  0.26070000  0.38210000  1.0 -0.0597234204
C  C323  1  0.19000000  0.23930000  0.88210000  1.0 -0.0597234204
C  C324  1  0.81000000  0.73930000  0.61790000  1.0 -0.0597234204
C  C325  1  0.62400000  0.76240000  0.10150000  1.0 -0.1087444735
C  C326  1  0.37600000  0.26240000  0.39850000  1.0 -0.1087444735
C  C327  1  0.37600000  0.23760000  0.89850000  1.0 -0.1087444735
C  C328  1  0.62400000  0.73760000  0.60150000  1.0 -0.1087444735
C  C329  1  0.49700000  0.78900000  0.12810000  1.0 -0.0217612183
C  C330  1  0.50300000  0.28900000  0.37190000  1.0 -0.0217612183
C  C331  1  0.50300000  0.21100000  0.87190000  1.0 -0.0217612183
C  C332  1  0.49700000  0.71100000  0.62810000  1.0 -0.0217612183
C  C333  1  0.54500000  0.82210000  0.16720000  1.0 0.0379658727
C  C334  1  0.45500000  0.32210000  0.33280000  1.0 0.0379658727
C  C335  1  0.45500000  0.17790000  0.83280000  1.0 0.0379658727
C  C336  1  0.54500000  0.67790000  0.66720000  1.0 0.0379658727
C  C337  1  0.73500000  0.81560000  0.18410000  1.0 -0.0991648068
C  C338  1  0.26500000  0.31560000  0.31590000  1.0 -0.0991648068
C  C339  1  0.26500000  0.18440000  0.81590000  1.0 -0.0991648068
C  C340  1  0.73500000  0.68440000  0.68410000  1.0 -0.0991648068
C  C341  1  0.86600000  0.78830000  0.15830000  1.0 -0.0991648068
C  C342  1  0.13400000  0.28830000  0.34170000  1.0 -0.0991648068
C  C343  1  0.13400000  0.21170000  0.84170000  1.0 -0.0991648068
C  C344  1  0.86600000  0.71170000  0.65830000  1.0 -0.0991648068
O  O1  1  0.88110000  0.59296000  0.76787000  1.0 -0.4004988381
O  O2  1  0.11890000  0.09296000  0.73213000  1.0 -0.4004988381
O  O3  1  0.11890000  0.40704000  0.23213000  1.0 -0.4004988381
O  O4  1  0.88110000  0.90704000  0.26787000  1.0 -0.4004988381
O  O5  1  0.11670000  0.63250000  0.80678000  1.0 -0.3559227893
O  O6  1  0.88330000  0.13250000  0.69322000  1.0 -0.3549097487
O  O7  1  0.88330000  0.36750000  0.19322000  1.0 -0.3549097487
O  O8  1  0.11670000  0.86750000  0.30678000  1.0 -0.3559227893
O  O9  1  0.22140000  0.85400000  0.18319000  1.0 -0.4724319288
O  O10  1  0.77860000  0.35400000  0.31681000  1.0 -0.4724319288
O  O11  1  0.77860000  0.14600000  0.81681000  1.0 -0.4724319288
O  O12  1  0.22140000  0.64600000  0.68319000  1.0 -0.4724319288
O  O13  1  0.47240000  0.88700000  0.21986000  1.0 -0.5608005085
O  O14  1  0.52760000  0.38700000  0.28014000  1.0 -0.5608005085
O  O15  1  0.52760000  0.11300000  0.78014000  1.0 -0.5608005085
O  O16  1  0.47240000  0.61300000  0.71986000  1.0 -0.5608005085
O  O17  1  0.19330000  0.45520000  0.33140000  1.0 -0.6560437986
O  O18  1  0.80670000  0.95520000  0.16860000  1.0 -0.6560437986
O  O19  1  0.80670000  0.54480000  0.66860000  1.0 -0.6560437986
O  O20  1  0.19330000  0.04480000  0.83140000  1.0 -0.6560437986
O  O21  1  0.16900000  0.52940000  0.23830000  1.0 -0.6540979156
O  O22  1  0.83100000  0.02940000  0.26170000  1.0 -0.6560437986
O  O23  1  0.83100000  0.47060000  0.76170000  1.0 -0.6540979156
O  O24  1  0.16900000  0.97060000  0.73830000  1.0 -0.6560437986
O  O25  1  0.55020000  0.98090000  0.80300000  1.0 -0.5529952654
O  O26  1  0.44980000  0.48090000  0.69700000  1.0 -0.5529952654
O  O27  1  0.44980000  0.01910000  0.19700000  1.0 -0.5529952654
O  O28  1  0.55020000  0.51910000  0.30300000  1.0 -0.5529952654
O  O29  1  0.82880000  0.49930000  0.20280000  1.0 -0.3685228759
O  O30  1  0.17120000  0.99930000  0.29720000  1.0 -0.3685228759
O  O31  1  0.17120000  0.50070000  0.79720000  1.0 -0.3685228759
O  O32  1  0.82880000  0.00070000  0.70280000  1.0 -0.3685228759
O  O33  1  0.55040000  0.46540000  0.20648000  1.0 -0.412202143
O  O34  1  0.44960000  0.96540000  0.29352000  1.0 -0.412202143
O  O35  1  0.44960000  0.53460000  0.79352000  1.0 -0.412202143
O  O36  1  0.55040000  0.03460000  0.70648000  1.0 -0.412202143
O  O37  1  0.83650000  0.01810000  0.81142000  1.0 -0.4899808252
O  O38  1  0.16350000  0.51810000  0.68858000  1.0 -0.4899808252
O  O39  1  0.16350000  0.98190000  0.18858000  1.0 -0.4899808252
O  O40  1  0.83650000  0.48190000  0.31142000  1.0 -0.4899808252
