# DDEC6 charges by PACMAN v1.1 (https://github.com/mtap-research/PACMAN-charge/)
data_COGKEP_FSR_pacman
_symmetry_space_group_name_H-M   'P 1'
_cell_length_a   9.28720000
_cell_length_b   9.28720000
_cell_length_c   9.28720000
_cell_angle_alpha   93.59230000
_cell_angle_beta   93.59230000
_cell_angle_gamma   93.59230000
_symmetry_Int_Tables_number   1
_chemical_formula_structural   Zn6Co(PO4)6
_chemical_formula_sum   'Zn6 Co1 P6 O24'
_cell_volume   796.11103334
_cell_formula_units_Z   1
loop_
 _symmetry_equiv_pos_site_id
 _symmetry_equiv_pos_as_xyz
  1  'x, y, z'
loop_
 _atom_site_type_symbol
 _atom_site_label
 _atom_site_symmetry_multiplicity
 _atom_site_fract_x
 _atom_site_fract_y
 _atom_site_fract_z
 _atom_site_occupancy
 _atom_site_charge
Zn  Zn1  1  0.62808000  0.16779000  0.44107000  1.0 1.132180679
Zn  Zn2  1  0.16779000  0.44107000  0.62808000  1.0 1.132180679
Zn  Zn3  1  0.44107000  0.62808000  0.16779000  1.0 1.132180679
Zn  Zn4  1  0.37192000  0.83221000  0.55893000  1.0 1.132180679
Zn  Zn5  1  0.83221000  0.55893000  0.37192000  1.0 1.132180679
Zn  Zn6  1  0.55893000  0.37192000  0.83221000  1.0 1.132180679
Co  Co1  1  0.50000000  0.50000000  0.50000000  1.0 1.1940850696
P  P1  1  0.36913000  0.18524000  0.61582000  1.0 1.4878837547
P  P2  1  0.18524000  0.61582000  0.36913000  1.0 1.4878837547
P  P3  1  0.61582000  0.36913000  0.18524000  1.0 1.4878837547
P  P4  1  0.63087000  0.81476000  0.38418000  1.0 1.4878837547
P  P5  1  0.81476000  0.38418000  0.63087000  1.0 1.4878837547
P  P6  1  0.38418000  0.63087000  0.81476000  1.0 1.4878837547
O  O1  1  0.46735000  0.27329000  0.52060000  1.0 -0.789135597
O  O2  1  0.27329000  0.52060000  0.46735000  1.0 -0.789135597
O  O3  1  0.52060000  0.46735000  0.27329000  1.0 -0.789135597
O  O4  1  0.53265000  0.72671000  0.47940000  1.0 -0.789135597
O  O5  1  0.72671000  0.47940000  0.53265000  1.0 -0.789135597
O  O6  1  0.47940000  0.53265000  0.72671000  1.0 -0.789135597
O  O7  1  0.61505000  0.22119000  0.24470000  1.0 -0.659176431
O  O8  1  0.22119000  0.24470000  0.61505000  1.0 -0.659176431
O  O9  1  0.24470000  0.61505000  0.22119000  1.0 -0.659176431
O  O10  1  0.38495000  0.77881000  0.75530000  1.0 -0.659176431
O  O11  1  0.77881000  0.75530000  0.38495000  1.0 -0.659176431
O  O12  1  0.75530000  0.38495000  0.77881000  1.0 -0.659176431
O  O13  1  0.80695000  0.23259000  0.55740000  1.0 -0.6821817278
O  O14  1  0.23259000  0.55740000  0.80695000  1.0 -0.6821817278
O  O15  1  0.55740000  0.80695000  0.23259000  1.0 -0.6821817278
O  O16  1  0.19305000  0.76741000  0.44260000  1.0 -0.6821817278
O  O17  1  0.76741000  0.44260000  0.19305000  1.0 -0.6821817278
O  O18  1  0.44260000  0.19305000  0.76741000  1.0 -0.6821817278
O  O19  1  0.65195000  0.96909000  0.45030000  1.0 -0.6885848561
O  O20  1  0.96909000  0.45030000  0.65195000  1.0 -0.6885848561
O  O21  1  0.45030000  0.65195000  0.96909000  1.0 -0.6885848561
O  O22  1  0.34805000  0.03091000  0.54970000  1.0 -0.6885848561
O  O23  1  0.03091000  0.54970000  0.34805000  1.0 -0.6885848561
O  O24  1  0.54970000  0.34805000  0.03091000  1.0 -0.6885848561
