# DDEC6 charges by PACMAN v1.1 (https://github.com/mtap-research/PACMAN-charge/)
data_COJHIT_FSR_pacman
_symmetry_space_group_name_H-M   'P 1'
_cell_length_a   13.25290000
_cell_length_b   13.25300000
_cell_length_c   13.99500000
_cell_angle_alpha   90.00000000
_cell_angle_beta   90.00000000
_cell_angle_gamma   90.00000000
_symmetry_Int_Tables_number   1
_chemical_formula_structural   CoH6(C3N)4
_chemical_formula_sum   'Co4 H24 C48 N16'
_cell_volume   2458.09136838
_cell_formula_units_Z   4
loop_
 _symmetry_equiv_pos_site_id
 _symmetry_equiv_pos_as_xyz
  1  'x, y, z'
loop_
 _atom_site_type_symbol
 _atom_site_label
 _atom_site_symmetry_multiplicity
 _atom_site_fract_x
 _atom_site_fract_y
 _atom_site_fract_z
 _atom_site_occupancy
 _atom_site_charge
Co  Co1  1  0.02942000  0.99742000  0.12730000  1.0 0.5543804015
Co  Co2  1  0.97058000  0.00258000  0.62730000  1.0 0.557677194
Co  Co3  1  0.97058000  0.99742000  0.37270000  1.0 0.557677194
Co  Co4  1  0.02942000  0.00258000  0.87270000  1.0 0.5543804015
H  H1  1  0.27060000  0.00230000  0.13860000  1.0 0.1175727504
H  H2  1  0.72940000  0.99770000  0.63860000  1.0 0.1175727504
H  H3  1  0.72940000  0.00230000  0.36140000  1.0 0.1175727504
H  H4  1  0.27060000  0.99770000  0.86140000  1.0 0.1175727504
H  H5  1  0.08080000  0.23490000  0.13250000  1.0 0.1256521637
H  H6  1  0.91920000  0.76510000  0.63250000  1.0 0.1256521637
H  H7  1  0.91920000  0.23490000  0.36750000  1.0 0.1256521637
H  H8  1  0.08080000  0.76510000  0.86750000  1.0 0.1256521637
H  H9  1  0.04980000  0.41300000  0.12030000  1.0 0.1103253031
H  H10  1  0.95020000  0.58700000  0.62030000  1.0 0.1103253031
H  H11  1  0.95020000  0.41300000  0.37970000  1.0 0.1103253031
H  H12  1  0.04980000  0.58700000  0.87970000  1.0 0.1103253031
H  H13  1  0.05260000  0.58260000  0.11290000  1.0 0.1175727504
H  H14  1  0.94740000  0.41740000  0.61290000  1.0 0.1175727504
H  H15  1  0.94740000  0.58260000  0.38710000  1.0 0.1175727504
H  H16  1  0.05260000  0.41740000  0.88710000  1.0 0.1175727504
H  H17  1  0.44110000  0.99520000  0.14660000  1.0 0.1103253031
H  H18  1  0.55890000  0.00480000  0.64660000  1.0 0.1103253031
H  H19  1  0.55890000  0.99520000  0.35340000  1.0 0.1103253031
H  H20  1  0.44110000  0.00480000  0.85340000  1.0 0.1103253031
H  H21  1  0.61340000  0.99530000  0.14310000  1.0 0.1175727504
H  H22  1  0.38660000  0.00470000  0.64310000  1.0 0.1175727504
H  H23  1  0.38660000  0.99530000  0.35690000  1.0 0.1175727504
H  H24  1  0.61340000  0.00470000  0.85690000  1.0 0.1175727504
C  C1  1  0.24840000  0.00200000  0.07410000  1.0 -0.0443775826
C  C2  1  0.75160000  0.99800000  0.57410000  1.0 -0.0443775826
C  C3  1  0.75160000  0.00200000  0.42590000  1.0 -0.0443775826
C  C4  1  0.24840000  0.99800000  0.92590000  1.0 -0.0443775826
C  C5  1  0.04240000  0.21470000  0.18650000  1.0 -0.0178739036
C  C6  1  0.95760000  0.78530000  0.68650000  1.0 -0.0178739036
C  C7  1  0.95760000  0.21470000  0.31350000  1.0 -0.0178739036
C  C8  1  0.04240000  0.78530000  0.81350000  1.0 -0.0178739036
C  C9  1  0.00000000  0.27980000  0.25000000  1.0 -0.0694689607
C  C10  1  0.00000000  0.72020000  0.75000000  1.0 -0.0694689607
C  C11  1  0.00000000  0.38000000  0.25000000  1.0 0.0867917532
C  C12  1  0.00000000  0.62000000  0.75000000  1.0 0.0867917532
C  C13  1  0.31210000  0.00000000  0.00000000  1.0 -0.0473178798
C  C14  1  0.68790000  0.00000000  0.50000000  1.0 -0.0473178798
C  C15  1  0.02810000  0.44630000  0.17680000  1.0 -0.1777125546
C  C16  1  0.97190000  0.55370000  0.67680000  1.0 -0.1777125546
C  C17  1  0.97190000  0.44630000  0.32320000  1.0 -0.1777125546
C  C18  1  0.02810000  0.55370000  0.82320000  1.0 -0.1777125546
C  C19  1  0.03080000  0.55030000  0.16990000  1.0 -0.138629735
C  C20  1  0.96920000  0.44970000  0.66990000  1.0 -0.138629735
C  C21  1  0.96920000  0.55030000  0.33010000  1.0 -0.138629735
C  C22  1  0.03080000  0.44970000  0.83010000  1.0 -0.138629735
C  C23  1  0.00000000  0.60680000  0.25000000  1.0 0.1013329806
C  C24  1  0.00000000  0.39320000  0.75000000  1.0 0.1013329806
C  C25  1  0.00000000  0.71200000  0.25000000  1.0 -0.0178739036
C  C26  1  0.00000000  0.28800000  0.75000000  1.0 -0.0178739036
C  C27  1  0.42410000  0.00000000  0.00000000  1.0 0.1013329806
C  C28  1  0.57590000  0.00000000  0.50000000  1.0 0.1013329806
C  C29  1  0.47620000  0.99710000  0.08740000  1.0 -0.1498402455
C  C30  1  0.52380000  0.00290000  0.58740000  1.0 -0.1498402455
C  C31  1  0.52380000  0.99710000  0.41260000  1.0 -0.1498402455
C  C32  1  0.47620000  0.00290000  0.91260000  1.0 -0.1498402455
C  C33  1  0.57770000  0.99720000  0.08430000  1.0 -0.1302280254
C  C34  1  0.42230000  0.00280000  0.58430000  1.0 -0.1302280254
C  C35  1  0.42230000  0.99720000  0.41570000  1.0 -0.1302280254
C  C36  1  0.57770000  0.00280000  0.91570000  1.0 -0.1302280254
C  C37  1  0.63370000  0.00000000  0.00000000  1.0 0.1103253031
C  C38  1  0.36630000  0.00000000  0.50000000  1.0 0.1103253031
C  C39  1  0.74540000  0.00000000  0.00000000  1.0 -0.076100525
C  C40  1  0.25460000  0.00000000  0.50000000  1.0 -0.076100525
C  C41  1  0.81410000  0.97520000  0.07750000  1.0 -0.0031690122
C  C42  1  0.18590000  0.02480000  0.57750000  1.0 -0.0031690122
C  C43  1  0.18590000  0.97520000  0.42250000  1.0 -0.0031690122
C  C44  1  0.81410000  0.02480000  0.92250000  1.0 -0.0031690122
C  C45  1  0.02930000  0.77710000  0.17480000  1.0 -0.0557478858
C  C46  1  0.97070000  0.22290000  0.67480000  1.0 -0.0557478858
C  C47  1  0.97070000  0.77710000  0.32520000  1.0 -0.0557478858
C  C48  1  0.02930000  0.22290000  0.82520000  1.0 -0.0557478858
N  N1  1  0.02390000  0.12290000  0.20870000  1.0 -0.1498402455
N  N2  1  0.97610000  0.87710000  0.70870000  1.0 -0.1498402455
N  N3  1  0.97610000  0.12290000  0.29130000  1.0 -0.1498402455
N  N4  1  0.02390000  0.87710000  0.79130000  1.0 -0.1498402455
N  N5  1  0.15210000  0.00520000  0.05020000  1.0 -0.1777125546
N  N6  1  0.84790000  0.99480000  0.55020000  1.0 -0.1777125546
N  N7  1  0.84790000  0.00520000  0.44980000  1.0 -0.1777125546
N  N8  1  0.15210000  0.99480000  0.94980000  1.0 -0.1777125546
N  N9  1  0.90530000  0.98070000  0.04640000  1.0 -0.1302280254
N  N10  1  0.09470000  0.01930000  0.54640000  1.0 -0.1302280254
N  N11  1  0.09470000  0.98070000  0.45360000  1.0 -0.1302280254
N  N12  1  0.90530000  0.01930000  0.95360000  1.0 -0.1302280254
N  N13  1  0.02270000  0.87870000  0.20690000  1.0 -0.1742009228
N  N14  1  0.97730000  0.12130000  0.70690000  1.0 -0.1742009228
N  N15  1  0.97730000  0.87870000  0.29310000  1.0 -0.1742009228
N  N16  1  0.02270000  0.12130000  0.79310000  1.0 -0.1742009228
