# DDEC6 charges by PACMAN v1.1 (https://github.com/mtap-research/PACMAN-charge/)
data_COJMIZ_FSR_pacman
_symmetry_space_group_name_H-M   'P 1'
_cell_length_a   13.81660000
_cell_length_b   21.78470000
_cell_length_c   20.14140000
_cell_angle_alpha   90.00000000
_cell_angle_beta   103.31200000
_cell_angle_gamma   90.00000000
_symmetry_Int_Tables_number   1
_chemical_formula_structural   Zn2H24C45N3O10
_chemical_formula_sum   'Zn8 H96 C180 N12 O40'
_cell_volume   5899.47796062
_cell_formula_units_Z   4
loop_
 _symmetry_equiv_pos_site_id
 _symmetry_equiv_pos_as_xyz
  1  'x, y, z'
loop_
 _atom_site_type_symbol
 _atom_site_label
 _atom_site_symmetry_multiplicity
 _atom_site_fract_x
 _atom_site_fract_y
 _atom_site_fract_z
 _atom_site_occupancy
 _atom_site_charge
Zn  Zn1  1  0.84190000  0.98440000  0.65870000  1.0 0.7810151224
Zn  Zn2  1  0.84190000  0.51560000  0.15870000  1.0 0.7810151224
Zn  Zn3  1  0.62940000  0.01440000  0.62800000  1.0 0.8398900574
Zn  Zn4  1  0.62940000  0.48560000  0.12800000  1.0 0.8398900574
Zn  Zn5  1  0.15810000  0.48440000  0.84130000  1.0 0.7810151224
Zn  Zn6  1  0.15810000  0.01560000  0.34130000  1.0 0.7810151224
Zn  Zn7  1  0.37060000  0.51440000  0.87200000  1.0 0.8398900574
Zn  Zn8  1  0.37060000  0.98560000  0.37200000  1.0 0.8398900574
H  H1  1  0.93440000  0.10080000  0.83580000  1.0 0.1213822323
H  H2  1  0.93440000  0.39920000  0.33580000  1.0 0.1213822323
H  H3  1  0.96710000  0.17700000  0.91970000  1.0 0.1213822323
H  H4  1  0.96710000  0.32300000  0.41970000  1.0 0.1213822323
H  H5  1  0.96160000  0.27360000  0.00340000  1.0 0.1213822323
H  H6  1  0.96160000  0.22640000  0.50340000  1.0 0.1213822323
H  H7  1  0.91960000  0.35580000  0.06620000  1.0 0.1213822323
H  H8  1  0.91960000  0.14420000  0.56620000  1.0 0.1213822323
H  H9  1  0.62620000  0.33120000  0.98040000  1.0 0.1277610761
H  H10  1  0.62620000  0.16880000  0.48040000  1.0 0.1277610761
H  H11  1  0.64010000  0.14060000  0.79320000  1.0 0.1213822323
H  H12  1  0.64010000  0.35940000  0.29320000  1.0 0.1213822323
H  H13  1  0.53390000  0.87850000  0.47060000  1.0 0.1277610761
H  H14  1  0.53390000  0.62150000  0.97060000  1.0 0.1277610761
H  H15  1  0.50380000  0.80270000  0.38600000  1.0 0.1277610761
H  H16  1  0.50380000  0.69730000  0.88600000  1.0 0.1277610761
H  H17  1  0.51270000  0.71350000  0.29490000  1.0 0.1213822323
H  H18  1  0.51270000  0.78650000  0.79490000  1.0 0.1213822323
H  H19  1  0.56000000  0.63490000  0.22970000  1.0 0.1277610761
H  H20  1  0.56000000  0.86510000  0.72970000  1.0 0.1277610761
H  H21  1  0.85030000  0.68510000  0.28890000  1.0 0.1277610761
H  H22  1  0.85030000  0.81490000  0.78890000  1.0 0.1277610761
H  H23  1  0.83040000  0.87510000  0.47570000  1.0 0.1277610761
H  H24  1  0.83040000  0.62490000  0.97570000  1.0 0.1277610761
H  H25  1  0.44410000  0.95110000  0.55750000  1.0 0.1213822323
H  H26  1  0.44410000  0.54890000  0.05750000  1.0 0.1213822323
H  H27  1  0.27960000  0.94290000  0.56560000  1.0 0.1213822323
H  H28  1  0.27960000  0.55710000  0.06560000  1.0 0.1213822323
H  H29  1  0.33530000  0.06550000  0.72050000  1.0 0.1213822323
H  H30  1  0.33530000  0.43450000  0.22050000  1.0 0.1213822323
H  H31  1  0.49780000  0.07130000  0.70920000  1.0 0.1135444102
H  H32  1  0.49780000  0.42870000  0.20920000  1.0 0.1135444102
H  H33  1  0.00870000  0.07390000  0.69650000  1.0 0.1213822323
H  H34  1  0.00870000  0.42610000  0.19650000  1.0 0.1213822323
H  H35  1  0.17490000  0.08180000  0.68930000  1.0 0.1213822323
H  H36  1  0.17490000  0.41820000  0.18930000  1.0 0.1213822323
H  H37  1  0.16440000  0.90800000  0.61630000  1.0 0.1135444102
H  H38  1  0.16440000  0.59200000  0.11630000  1.0 0.1135444102
H  H39  1  0.99820000  0.90010000  0.62350000  1.0 0.1213822323
H  H40  1  0.99820000  0.59990000  0.12350000  1.0 0.1213822323
H  H41  1  0.04380000  0.00060000  0.75570000  1.0 0.1213822323
H  H42  1  0.04380000  0.49940000  0.25570000  1.0 0.1213822323
H  H43  1  0.20950000  0.01160000  0.74840000  1.0 0.1135444102
H  H44  1  0.20950000  0.48840000  0.24840000  1.0 0.1135444102
H  H45  1  0.12710000  0.98600000  0.54380000  1.0 0.1135444102
H  H46  1  0.12710000  0.51400000  0.04380000  1.0 0.1135444102
H  H47  1  0.96140000  0.97510000  0.55120000  1.0 0.0999610792
H  H48  1  0.96140000  0.52490000  0.05120000  1.0 0.0999610792
H  H49  1  0.06560000  0.60080000  0.66420000  1.0 0.1213822323
H  H50  1  0.06560000  0.89920000  0.16420000  1.0 0.1213822323
H  H51  1  0.03290000  0.67700000  0.58030000  1.0 0.1213822323
H  H52  1  0.03290000  0.82300000  0.08030000  1.0 0.1213822323
H  H53  1  0.03840000  0.77360000  0.49660000  1.0 0.1213822323
H  H54  1  0.03840000  0.72640000  0.99660000  1.0 0.1213822323
H  H55  1  0.08040000  0.85580000  0.43380000  1.0 0.1213822323
H  H56  1  0.08040000  0.64420000  0.93380000  1.0 0.1213822323
H  H57  1  0.37380000  0.83120000  0.51960000  1.0 0.1277610761
H  H58  1  0.37380000  0.66880000  0.01960000  1.0 0.1277610761
H  H59  1  0.35990000  0.64060000  0.70680000  1.0 0.1213822323
H  H60  1  0.35990000  0.85940000  0.20680000  1.0 0.1213822323
H  H61  1  0.46610000  0.37850000  0.02940000  1.0 0.1277610761
H  H62  1  0.46610000  0.12150000  0.52940000  1.0 0.1277610761
H  H63  1  0.49620000  0.30270000  0.11400000  1.0 0.1277610761
H  H64  1  0.49620000  0.19730000  0.61400000  1.0 0.1277610761
H  H65  1  0.48730000  0.21350000  0.20510000  1.0 0.1213822323
H  H66  1  0.48730000  0.28650000  0.70510000  1.0 0.1213822323
H  H67  1  0.44000000  0.13490000  0.27030000  1.0 0.1277610761
H  H68  1  0.44000000  0.36510000  0.77030000  1.0 0.1277610761
H  H69  1  0.14970000  0.18510000  0.21110000  1.0 0.1277610761
H  H70  1  0.14970000  0.31490000  0.71110000  1.0 0.1277610761
H  H71  1  0.16960000  0.37510000  0.02430000  1.0 0.1277610761
H  H72  1  0.16960000  0.12490000  0.52430000  1.0 0.1277610761
H  H73  1  0.55590000  0.45110000  0.94250000  1.0 0.1213822323
H  H74  1  0.55590000  0.04890000  0.44250000  1.0 0.1213822323
H  H75  1  0.72040000  0.44290000  0.93440000  1.0 0.1213822323
H  H76  1  0.72040000  0.05710000  0.43440000  1.0 0.1213822323
H  H77  1  0.66470000  0.56550000  0.77950000  1.0 0.1213822323
H  H78  1  0.66470000  0.93450000  0.27950000  1.0 0.1213822323
H  H79  1  0.50220000  0.57130000  0.79080000  1.0 0.1135444102
H  H80  1  0.50220000  0.92870000  0.29080000  1.0 0.1135444102
H  H81  1  0.99130000  0.57390000  0.80350000  1.0 0.1213822323
H  H82  1  0.99130000  0.92610000  0.30350000  1.0 0.1213822323
H  H83  1  0.82510000  0.58180000  0.81070000  1.0 0.1213822323
H  H84  1  0.82510000  0.91820000  0.31070000  1.0 0.1213822323
H  H85  1  0.83560000  0.40800000  0.88370000  1.0 0.1135444102
H  H86  1  0.83560000  0.09200000  0.38370000  1.0 0.1135444102
H  H87  1  0.00180000  0.40010000  0.87650000  1.0 0.1213822323
H  H88  1  0.00180000  0.09990000  0.37650000  1.0 0.1213822323
H  H89  1  0.95620000  0.50060000  0.74430000  1.0 0.1213822323
H  H90  1  0.95620000  0.99940000  0.24430000  1.0 0.1213822323
H  H91  1  0.79050000  0.51160000  0.75160000  1.0 0.1135444102
H  H92  1  0.79050000  0.98840000  0.25160000  1.0 0.1135444102
H  H93  1  0.87290000  0.48600000  0.95620000  1.0 0.1135444102
H  H94  1  0.87290000  0.01400000  0.45620000  1.0 0.1135444102
H  H95  1  0.03860000  0.47510000  0.94880000  1.0 0.0999610792
H  H96  1  0.03860000  0.02490000  0.44880000  1.0 0.0999610792
C  C1  1  0.76740000  0.06840000  0.74880000  1.0 0.5888663774
C  C2  1  0.76740000  0.43160000  0.24880000  1.0 0.5888663774
C  C3  1  0.78500000  0.11430000  0.80620000  1.0 -0.032109885
C  C4  1  0.78500000  0.38570000  0.30620000  1.0 -0.032109885
C  C5  1  0.88120000  0.12490000  0.84440000  1.0 -0.1108120355
C  C6  1  0.88120000  0.37510000  0.34440000  1.0 -0.1108120355
C  C7  1  0.90120000  0.16950000  0.89440000  1.0 -0.1467259506
C  C8  1  0.90120000  0.33050000  0.39440000  1.0 -0.1467259506
C  C9  1  0.82080000  0.20310000  0.90640000  1.0 0.0501103223
C  C10  1  0.82080000  0.29690000  0.40640000  1.0 0.0501103223
C  C11  1  0.81880000  0.25500000  0.95360000  1.0 0.0312125101
C  C12  1  0.81880000  0.24500000  0.45360000  1.0 0.0312125101
C  C13  1  0.89410000  0.28540000  0.99840000  1.0 -0.1397001852
C  C14  1  0.89410000  0.21460000  0.49840000  1.0 -0.1397001852
C  C15  1  0.86860000  0.33370000  0.03590000  1.0 -0.1108120355
C  C16  1  0.86860000  0.16630000  0.53590000  1.0 -0.1108120355
C  C17  1  0.76970000  0.35070000  0.03010000  1.0 -0.0403270105
C  C18  1  0.76970000  0.14930000  0.53010000  1.0 -0.0403270105
C  C19  1  0.74550000  0.40360000  0.07140000  1.0 0.5678644424
C  C20  1  0.74550000  0.09640000  0.57140000  1.0 0.5678644424
C  C21  1  0.69370000  0.31980000  0.98490000  1.0 -0.1316416639
C  C22  1  0.69370000  0.18020000  0.48490000  1.0 -0.1316416639
C  C23  1  0.71880000  0.27230000  0.94700000  1.0 -0.0483671604
C  C24  1  0.71880000  0.22770000  0.44700000  1.0 -0.0483671604
C  C25  1  0.65440000  0.23350000  0.89340000  1.0 0.3658423072
C  C26  1  0.65440000  0.26650000  0.39340000  1.0 0.3658423072
C  C27  1  0.72510000  0.19150000  0.86940000  1.0 -0.0483671604
C  C28  1  0.72510000  0.30850000  0.36940000  1.0 -0.0483671604
C  C29  1  0.70600000  0.14770000  0.81890000  1.0 -0.1108120355
C  C30  1  0.70600000  0.35230000  0.31890000  1.0 -0.1108120355
C  C31  1  0.70070000  0.93010000  0.53770000  1.0 0.5788896998
C  C32  1  0.70070000  0.56990000  0.03770000  1.0 0.5788896998
C  C33  1  0.68430000  0.88370000  0.48160000  1.0 -0.032109885
C  C34  1  0.68430000  0.61630000  0.98160000  1.0 -0.032109885
C  C35  1  0.58780000  0.86210000  0.45440000  1.0 -0.0897220512
C  C36  1  0.58780000  0.63790000  0.95440000  1.0 -0.0897220512
C  C37  1  0.56950000  0.81700000  0.40430000  1.0 -0.1467259506
C  C38  1  0.56950000  0.68300000  0.90430000  1.0 -0.1467259506
C  C39  1  0.64960000  0.79330000  0.38150000  1.0 0.0312125101
C  C40  1  0.64960000  0.70670000  0.88150000  1.0 0.0312125101
C  C41  1  0.65490000  0.74410000  0.33320000  1.0 0.0312125101
C  C42  1  0.65490000  0.75590000  0.83320000  1.0 0.0312125101
C  C43  1  0.58070000  0.70720000  0.29470000  1.0 -0.1397001852
C  C44  1  0.58070000  0.79280000  0.79470000  1.0 -0.1397001852
C  C45  1  0.60940000  0.66090000  0.25600000  1.0 -0.0897220512
C  C46  1  0.60940000  0.83910000  0.75600000  1.0 -0.0897220512
C  C47  1  0.70930000  0.65130000  0.25460000  1.0 -0.032109885
C  C48  1  0.70930000  0.84870000  0.75460000  1.0 -0.032109885
C  C49  1  0.73540000  0.59810000  0.21530000  1.0 0.5788896998
C  C50  1  0.73540000  0.90190000  0.71530000  1.0 0.5788896998
C  C51  1  0.78270000  0.69010000  0.29090000  1.0 -0.1027996464
C  C52  1  0.78270000  0.80990000  0.79090000  1.0 -0.1027996464
C  C53  1  0.75510000  0.73590000  0.32960000  1.0 -0.0483671604
C  C54  1  0.75510000  0.76410000  0.82960000  1.0 -0.0483671604
C  C55  1  0.81680000  0.78230000  0.37480000  1.0 0.3511335646
C  C56  1  0.81680000  0.71770000  0.87480000  1.0 0.3511335646
C  C57  1  0.74650000  0.81650000  0.40840000  1.0 -0.0483671604
C  C58  1  0.74650000  0.68350000  0.90840000  1.0 -0.0483671604
C  C59  1  0.76480000  0.86050000  0.45780000  1.0 -0.1316416639
C  C60  1  0.76480000  0.63950000  0.95780000  1.0 -0.1316416639
C  C61  1  0.42160000  0.97470000  0.59070000  1.0 0.0999610792
C  C62  1  0.42160000  0.52530000  0.09070000  1.0 0.0999610792
C  C63  1  0.32370000  0.96930000  0.59570000  1.0 -0.223048752
C  C64  1  0.32370000  0.53070000  0.09570000  1.0 -0.223048752
C  C65  1  0.28980000  0.00250000  0.64500000  1.0 0.0999610792
C  C66  1  0.28980000  0.49750000  0.14500000  1.0 0.0999610792
C  C67  1  0.35620000  0.04140000  0.68700000  1.0 -0.223048752
C  C68  1  0.35620000  0.45860000  0.18700000  1.0 -0.223048752
C  C69  1  0.45260000  0.04500000  0.67960000  1.0 0.0937415307
C  C70  1  0.45260000  0.45500000  0.17960000  1.0 0.0937415307
C  C71  1  0.04030000  0.04022000  0.68030000  1.0 0.0501103223
C  C72  1  0.04030000  0.45978000  0.18030000  1.0 0.0501103223
C  C73  1  0.13900000  0.04493000  0.67600000  1.0 -0.0897220512
C  C74  1  0.13900000  0.45507000  0.17600000  1.0 -0.0897220512
C  C75  1  0.18520000  0.99565000  0.65210000  1.0 0.0501103223
C  C76  1  0.18520000  0.50435000  0.15210000  1.0 0.0501103223
C  C77  1  0.13280000  0.94167000  0.63260000  1.0 -0.0897220512
C  C78  1  0.13280000  0.55833000  0.13260000  1.0 -0.0897220512
C  C79  1  0.03410000  0.93696000  0.63690000  1.0 0.0692692102
C  C80  1  0.03410000  0.56304000  0.13690000  1.0 0.0692692102
C  C81  1  0.06070000  0.99770000  0.71270000  1.0 0.0692692102
C  C82  1  0.06070000  0.50230000  0.21270000  1.0 0.0692692102
C  C83  1  0.15910000  0.00420000  0.70840000  1.0 -0.0708234812
C  C84  1  0.15910000  0.49580000  0.20840000  1.0 -0.0708234812
C  C85  1  0.18390000  0.99980000  0.64540000  1.0 0.0577185863
C  C86  1  0.18390000  0.50020000  0.14540000  1.0 0.0577185863
C  C87  1  0.11020000  0.98900000  0.58690000  1.0 -0.1316416639
C  C88  1  0.11020000  0.51100000  0.08690000  1.0 -0.1316416639
C  C89  1  0.01170000  0.98250000  0.59120000  1.0 0.0501103223
C  C90  1  0.01170000  0.51750000  0.09120000  1.0 0.0501103223
C  C91  1  0.23260000  0.56840000  0.75120000  1.0 0.5888663774
C  C92  1  0.23260000  0.93160000  0.25120000  1.0 0.5888663774
C  C93  1  0.21500000  0.61430000  0.69380000  1.0 -0.032109885
C  C94  1  0.21500000  0.88570000  0.19380000  1.0 -0.032109885
C  C95  1  0.11880000  0.62490000  0.65560000  1.0 -0.1108120355
C  C96  1  0.11880000  0.87510000  0.15560000  1.0 -0.1108120355
C  C97  1  0.09880000  0.66950000  0.60560000  1.0 -0.1467259506
C  C98  1  0.09880000  0.83050000  0.10560000  1.0 -0.1467259506
C  C99  1  0.17920000  0.70310000  0.59360000  1.0 0.0501103223
C  C100  1  0.17920000  0.79690000  0.09360000  1.0 0.0449616408
C  C101  1  0.18120000  0.75500000  0.54640000  1.0 0.0312125101
C  C102  1  0.18120000  0.74500000  0.04640000  1.0 0.0312125101
C  C103  1  0.10590000  0.78540000  0.50160000  1.0 -0.1397001852
C  C104  1  0.10590000  0.71460000  0.00160000  1.0 -0.1397001852
C  C105  1  0.13140000  0.83370000  0.46410000  1.0 -0.1108120355
C  C106  1  0.13140000  0.66630000  0.96410000  1.0 -0.1108120355
C  C107  1  0.23030000  0.85070000  0.46990000  1.0 -0.0403270105
C  C108  1  0.23030000  0.64930000  0.96990000  1.0 -0.0403270105
C  C109  1  0.25450000  0.90360000  0.42860000  1.0 0.5678644424
C  C110  1  0.25450000  0.59640000  0.92860000  1.0 0.5678644424
C  C111  1  0.30630000  0.81980000  0.51510000  1.0 -0.1316416639
C  C112  1  0.30630000  0.68020000  0.01510000  1.0 -0.1316416639
C  C113  1  0.28120000  0.77230000  0.55300000  1.0 -0.0483671604
C  C114  1  0.28120000  0.72770000  0.05300000  1.0 -0.0483671604
C  C115  1  0.34560000  0.73350000  0.60660000  1.0 0.3658423072
C  C116  1  0.34560000  0.76650000  0.10660000  1.0 0.3658423072
C  C117  1  0.27490000  0.69150000  0.63060000  1.0 -0.0483671604
C  C118  1  0.27490000  0.80850000  0.13060000  1.0 -0.0483671604
C  C119  1  0.29400000  0.64770000  0.68110000  1.0 -0.1108120355
C  C120  1  0.29400000  0.85230000  0.18110000  1.0 -0.1108120355
C  C121  1  0.29930000  0.43010000  0.96230000  1.0 0.5788896998
C  C122  1  0.29930000  0.06990000  0.46230000  1.0 0.5788896998
C  C123  1  0.31570000  0.38370000  0.01840000  1.0 -0.032109885
C  C124  1  0.31570000  0.11630000  0.51840000  1.0 -0.032109885
C  C125  1  0.41220000  0.36210000  0.04560000  1.0 -0.0897220512
C  C126  1  0.41220000  0.13790000  0.54560000  1.0 -0.0897220512
C  C127  1  0.43050000  0.31700000  0.09570000  1.0 -0.1467259506
C  C128  1  0.43050000  0.18300000  0.59570000  1.0 -0.1467259506
C  C129  1  0.35040000  0.29330000  0.11850000  1.0 0.0312125101
C  C130  1  0.35040000  0.20670000  0.61850000  1.0 0.0312125101
C  C131  1  0.34510000  0.24410000  0.16680000  1.0 0.0312125101
C  C132  1  0.34510000  0.25590000  0.66680000  1.0 0.0312125101
C  C133  1  0.41930000  0.20720000  0.20530000  1.0 -0.1397001852
C  C134  1  0.41930000  0.29280000  0.70530000  1.0 -0.1397001852
C  C135  1  0.39060000  0.16090000  0.24400000  1.0 -0.0897220512
C  C136  1  0.39060000  0.33910000  0.74400000  1.0 -0.0897220512
C  C137  1  0.29070000  0.15130000  0.24540000  1.0 -0.032109885
C  C138  1  0.29070000  0.34870000  0.74540000  1.0 -0.032109885
C  C139  1  0.26460000  0.09810000  0.28470000  1.0 0.5788896998
C  C140  1  0.26460000  0.40190000  0.78470000  1.0 0.5788896998
C  C141  1  0.21730000  0.19010000  0.20910000  1.0 -0.1027996464
C  C142  1  0.21730000  0.30990000  0.70910000  1.0 -0.1027996464
C  C143  1  0.24490000  0.23590000  0.17040000  1.0 -0.0483671604
C  C144  1  0.24490000  0.26410000  0.67040000  1.0 -0.0483671604
C  C145  1  0.18320000  0.28230000  0.12520000  1.0 0.3511335646
C  C146  1  0.18320000  0.21770000  0.62520000  1.0 0.3511335646
C  C147  1  0.25350000  0.31650000  0.09160000  1.0 -0.0483671604
C  C148  1  0.25350000  0.18350000  0.59160000  1.0 -0.0483671604
C  C149  1  0.23520000  0.36050000  0.04220000  1.0 -0.1316416639
C  C150  1  0.23520000  0.13950000  0.54220000  1.0 -0.1316416639
C  C151  1  0.57840000  0.47470000  0.90930000  1.0 0.0999610792
C  C152  1  0.57840000  0.02530000  0.40930000  1.0 0.0999610792
C  C153  1  0.67630000  0.46930000  0.90430000  1.0 -0.223048752
C  C154  1  0.67630000  0.03070000  0.40430000  1.0 -0.223048752
C  C155  1  0.71020000  0.50250000  0.85500000  1.0 0.0999610792
C  C156  1  0.71020000  0.99750000  0.35500000  1.0 0.0999610792
C  C157  1  0.64380000  0.54140000  0.81300000  1.0 -0.223048752
C  C158  1  0.64380000  0.95860000  0.31300000  1.0 -0.223048752
C  C159  1  0.54740000  0.54500000  0.82040000  1.0 0.0937415307
C  C160  1  0.54740000  0.95500000  0.32040000  1.0 0.0937415307
C  C161  1  0.95970000  0.54022000  0.81970000  1.0 0.0501103223
C  C162  1  0.95970000  0.95978000  0.31970000  1.0 0.0501103223
C  C163  1  0.86100000  0.54493000  0.82400000  1.0 -0.0897220512
C  C164  1  0.86100000  0.95507000  0.32400000  1.0 -0.0848690847
C  C165  1  0.81480000  0.49565000  0.84790000  1.0 0.0501103223
C  C166  1  0.81480000  0.00435000  0.34790000  1.0 0.0501103223
C  C167  1  0.86720000  0.44167000  0.86740000  1.0 -0.0897220512
C  C168  1  0.86720000  0.05833000  0.36740000  1.0 -0.0897220512
C  C169  1  0.96590000  0.43696000  0.86310000  1.0 0.0692692102
C  C170  1  0.96590000  0.06304000  0.36310000  1.0 0.0692692102
C  C171  1  0.93930000  0.49770000  0.78730000  1.0 0.0692692102
C  C172  1  0.93930000  0.00230000  0.28730000  1.0 0.0692692102
C  C173  1  0.84090000  0.50420000  0.79160000  1.0 -0.0708234812
C  C174  1  0.84090000  0.99580000  0.29160000  1.0 -0.0708234812
C  C175  1  0.81610000  0.49980000  0.85460000  1.0 0.0577185863
C  C176  1  0.81610000  0.00020000  0.35460000  1.0 0.0577185863
C  C177  1  0.88980000  0.48900000  0.91310000  1.0 -0.1316416639
C  C178  1  0.88980000  0.01100000  0.41310000  1.0 -0.1316416639
C  C179  1  0.98830000  0.48250000  0.90880000  1.0 0.0501103223
C  C180  1  0.98830000  0.01750000  0.40880000  1.0 0.0501103223
N  N1  1  0.48560000  0.01277000  0.63210000  1.0 -0.2303397412
N  N2  1  0.48560000  0.48723000  0.13210000  1.0 -0.2303397412
N  N3  1  0.98780000  0.98623000  0.66070000  1.0 -0.1397001852
N  N4  1  0.98780000  0.51377000  0.16070000  1.0 -0.1397001852
N  N5  1  0.98700000  0.98680000  0.65410000  1.0 -0.1605415883
N  N6  1  0.98700000  0.51320000  0.15410000  1.0 -0.1605415883
N  N7  1  0.51440000  0.51277000  0.86790000  1.0 -0.2303397412
N  N8  1  0.51440000  0.98723000  0.36790000  1.0 -0.2303397412
N  N9  1  0.01220000  0.48623000  0.83930000  1.0 -0.1316416639
N  N10  1  0.01220000  0.01377000  0.33930000  1.0 -0.1397001852
N  N11  1  0.01300000  0.48680000  0.84590000  1.0 -0.1605415883
N  N12  1  0.01300000  0.01320000  0.34590000  1.0 -0.1605415883
O  O1  1  0.83920000  0.03480000  0.74320000  1.0 -0.5503850037
O  O2  1  0.83920000  0.46520000  0.24320000  1.0 -0.5503850037
O  O3  1  0.68210000  0.06840000  0.71020000  1.0 -0.5406621153
O  O4  1  0.68210000  0.43160000  0.21020000  1.0 -0.5406621153
O  O5  1  0.81810000  0.43210000  0.10720000  1.0 -0.5693754906
O  O6  1  0.81810000  0.06790000  0.60720000  1.0 -0.5693754906
O  O7  1  0.65520000  0.41610000  0.06700000  1.0 -0.5406621153
O  O8  1  0.65520000  0.08390000  0.56700000  1.0 -0.5406621153
O  O9  1  0.56560000  0.23550000  0.87410000  1.0 -0.4030018801
O  O10  1  0.56560000  0.26450000  0.37410000  1.0 -0.4058523083
O  O11  1  0.78920000  0.94130000  0.56780000  1.0 -0.5503850037
O  O12  1  0.78920000  0.55870000  0.06780000  1.0 -0.5503850037
O  O13  1  0.62450000  0.95430000  0.55080000  1.0 -0.5406621153
O  O14  1  0.62450000  0.54570000  0.05080000  1.0 -0.5406621153
O  O15  1  0.66720000  0.56030000  0.19190000  1.0 -0.5693754906
O  O16  1  0.66720000  0.93970000  0.69190000  1.0 -0.5693754906
O  O17  1  0.82360000  0.59400000  0.20840000  1.0 -0.5285403485
O  O18  1  0.82360000  0.90600000  0.70840000  1.0 -0.5285403485
O  O19  1  0.90420000  0.79230000  0.38130000  1.0 -0.4030018801
O  O20  1  0.90420000  0.70770000  0.88130000  1.0 -0.4030018801
O  O21  1  0.16080000  0.53480000  0.75680000  1.0 -0.5503850037
O  O22  1  0.16080000  0.96520000  0.25680000  1.0 -0.5503850037
O  O23  1  0.31790000  0.56840000  0.78980000  1.0 -0.5406621153
O  O24  1  0.31790000  0.93160000  0.28980000  1.0 -0.5406621153
O  O25  1  0.18190000  0.93210000  0.39280000  1.0 -0.5693754906
O  O26  1  0.18190000  0.56790000  0.89280000  1.0 -0.5693754906
O  O27  1  0.34480000  0.91610000  0.43300000  1.0 -0.5406621153
O  O28  1  0.34480000  0.58390000  0.93300000  1.0 -0.5406621153
O  O29  1  0.43440000  0.73550000  0.62590000  1.0 -0.4030018801
O  O30  1  0.43440000  0.76450000  0.12590000  1.0 -0.4058523083
O  O31  1  0.21080000  0.44130000  0.93220000  1.0 -0.5503850037
O  O32  1  0.21080000  0.05870000  0.43220000  1.0 -0.5503850037
O  O33  1  0.37550000  0.45430000  0.94920000  1.0 -0.5406621153
O  O34  1  0.37550000  0.04570000  0.44920000  1.0 -0.5406621153
O  O35  1  0.33280000  0.06030000  0.30810000  1.0 -0.5693754906
O  O36  1  0.33280000  0.43970000  0.80810000  1.0 -0.5693754906
O  O37  1  0.17640000  0.09400000  0.29160000  1.0 -0.5285403485
O  O38  1  0.17640000  0.40600000  0.79160000  1.0 -0.5285403485
O  O39  1  0.09580000  0.29230000  0.11870000  1.0 -0.4030018801
O  O40  1  0.09580000  0.20770000  0.61870000  1.0 -0.4030018801
