# DDEC6 charges by PACMAN v1.1 (https://github.com/mtap-research/PACMAN-charge/)
data_COKQAW_FSR_pacman
_symmetry_space_group_name_H-M   'P 1'
_cell_length_a   15.09790000
_cell_length_b   15.09790000
_cell_length_c   15.09790000
_cell_angle_alpha   118.11100000
_cell_angle_beta   118.11100000
_cell_angle_gamma   118.11100000
_symmetry_Int_Tables_number   1
_chemical_formula_structural   CuC4O3
_chemical_formula_sum   'Cu6 C24 O18'
_cell_volume   1215.53798908
_cell_formula_units_Z   6
loop_
 _symmetry_equiv_pos_site_id
 _symmetry_equiv_pos_as_xyz
  1  'x, y, z'
loop_
 _atom_site_type_symbol
 _atom_site_label
 _atom_site_symmetry_multiplicity
 _atom_site_fract_x
 _atom_site_fract_y
 _atom_site_fract_z
 _atom_site_occupancy
 _atom_site_charge
Cu  Cu1  1  0.13686000  0.56250000  0.82594000  1.0 0.9270173058
Cu  Cu2  1  0.56250000  0.82594000  0.13686000  1.0 0.9270173058
Cu  Cu3  1  0.82594000  0.13686000  0.56250000  1.0 0.9270173058
Cu  Cu4  1  0.86314000  0.43750000  0.17406000  1.0 0.9270173058
Cu  Cu5  1  0.43750000  0.17406000  0.86314000  1.0 0.9270173058
Cu  Cu6  1  0.17406000  0.86314000  0.43750000  1.0 0.9270173058
C  C1  1  0.40440000  0.81340000  0.23720000  1.0 0.6516296015
C  C2  1  0.81340000  0.23720000  0.40440000  1.0 0.6516296015
C  C3  1  0.23720000  0.40440000  0.81340000  1.0 0.6516296015
C  C4  1  0.59560000  0.18660000  0.76280000  1.0 0.6516296015
C  C5  1  0.18660000  0.76280000  0.59560000  1.0 0.6516296015
C  C6  1  0.76280000  0.59560000  0.18660000  1.0 0.6516296015
C  C7  1  0.18340000  0.63300000  0.09590000  1.0 -0.0997126542
C  C8  1  0.63300000  0.09590000  0.18340000  1.0 -0.0997126542
C  C9  1  0.09590000  0.18340000  0.63300000  1.0 -0.0997126542
C  C10  1  0.81660000  0.36700000  0.90410000  1.0 -0.0997126542
C  C11  1  0.36700000  0.90410000  0.81660000  1.0 -0.0997126542
C  C12  1  0.90410000  0.81660000  0.36700000  1.0 -0.0997126542
C  C13  1  0.96530000  0.43860000  0.86820000  1.0 0.2622554645
C  C14  1  0.43860000  0.86820000  0.96530000  1.0 0.2622554645
C  C15  1  0.86820000  0.96530000  0.43860000  1.0 0.2622554645
C  C16  1  0.03470000  0.56140000  0.13180000  1.0 0.2622554645
C  C17  1  0.56140000  0.13180000  0.03470000  1.0 0.2622554645
C  C18  1  0.13180000  0.03470000  0.56140000  1.0 0.2622554645
C  C19  1  0.80510000  0.33050000  0.79210000  1.0 -0.0924312303
C  C20  1  0.33050000  0.79210000  0.80510000  1.0 -0.0924312303
C  C21  1  0.79210000  0.80510000  0.33050000  1.0 -0.0924312303
C  C22  1  0.19490000  0.66950000  0.20790000  1.0 -0.0924312303
C  C23  1  0.66950000  0.20790000  0.19490000  1.0 -0.0924312303
C  C24  1  0.20790000  0.19490000  0.66950000  1.0 -0.0924312303
O  O1  1  0.37250000  0.78090000  0.12610000  1.0 -0.5739671841
O  O2  1  0.78090000  0.12610000  0.37250000  1.0 -0.5739671841
O  O3  1  0.12610000  0.37250000  0.78090000  1.0 -0.5739671841
O  O4  1  0.62750000  0.21910000  0.87390000  1.0 -0.5739671841
O  O5  1  0.21910000  0.87390000  0.62750000  1.0 -0.5739671841
O  O6  1  0.87390000  0.62750000  0.21910000  1.0 -0.5739671841
O  O7  1  0.56890000  0.92320000  0.40780000  1.0 -0.4702357307
O  O8  1  0.92320000  0.40780000  0.56890000  1.0 -0.4702357307
O  O9  1  0.40780000  0.56890000  0.92320000  1.0 -0.4702357307
O  O10  1  0.43110000  0.07680000  0.59220000  1.0 -0.4702357307
O  O11  1  0.07680000  0.59220000  0.43110000  1.0 -0.4702357307
O  O12  1  0.59220000  0.43110000  0.07680000  1.0 -0.4702357307
O  O13  1  0.92760000  0.37430000  0.73380000  1.0 -0.6045555726
O  O14  1  0.37430000  0.73380000  0.92760000  1.0 -0.6045555726
O  O15  1  0.73380000  0.92760000  0.37430000  1.0 -0.6045555726
O  O16  1  0.07240000  0.62570000  0.26620000  1.0 -0.6045555726
O  O17  1  0.62570000  0.26620000  0.07240000  1.0 -0.6045555726
O  O18  1  0.26620000  0.07240000  0.62570000  1.0 -0.6045555726
