# DDEC6 charges by PACMAN v1.1 (https://github.com/mtap-research/PACMAN-charge/)
data_COKRUR_FSR_pacman
_symmetry_space_group_name_H-M   'P 1'
_cell_length_a   23.59700000
_cell_length_b   23.59700000
_cell_length_c   43.75500000
_cell_angle_alpha   87.65620000
_cell_angle_beta   92.34380000
_cell_angle_gamma   125.63700000
_symmetry_Int_Tables_number   1
_chemical_formula_structural   In8H160C288N16O39
_chemical_formula_sum   'In16 H320 C576 N32 O78'
_cell_volume   19779.95478195
_cell_formula_units_Z   2
loop_
 _symmetry_equiv_pos_site_id
 _symmetry_equiv_pos_as_xyz
  1  'x, y, z'
loop_
 _atom_site_type_symbol
 _atom_site_label
 _atom_site_symmetry_multiplicity
 _atom_site_fract_x
 _atom_site_fract_y
 _atom_site_fract_z
 _atom_site_occupancy
 _atom_site_charge
In  In1  1  0.86360000  0.22464000  0.93853000  1.0 1.3085465826
In  In2  1  0.77536000  0.13640000  0.43853000  1.0 1.3085465826
In  In3  1  0.33426000  0.20366000  0.68796000  1.0 1.1613002814
In  In4  1  0.79634000  0.66574000  0.18796000  1.0 1.1613002814
In  In5  1  0.98889000  0.46755000  0.84068000  1.0 1.1516496934
In  In6  1  0.53245000  0.01111000  0.34068000  1.0 1.1516496934
In  In7  1  0.55639000  0.54683000  0.08868000  1.0 1.2999107637
In  In8  1  0.45317000  0.44361000  0.58868000  1.0 1.2999107637
In  In9  1  0.99884000  0.91366000  0.36953000  1.0 1.3085465826
In  In10  1  0.08634000  0.00116000  0.86953000  1.0 1.3085465826
In  In11  1  0.54538000  0.96010000  0.61840000  1.0 1.1761319436
In  In12  1  0.03990000  0.45462000  0.11840000  1.0 1.1761319436
In  In13  1  0.24068000  0.65566000  0.49501000  1.0 1.2999107637
In  In14  1  0.34434000  0.75932000  0.99501000  1.0 1.2999107637
In  In15  1  0.79885000  0.71925000  0.74405000  1.0 1.1373345055
In  In16  1  0.28075000  0.20115000  0.24405000  1.0 1.1373345055
H  H1  1  0.54400000  0.20060000  0.65930000  1.0 0.1393654209
H  H2  1  0.79940000  0.45600000  0.15930000  1.0 0.1393654209
H  H3  1  0.54830000  0.20650000  0.71420000  1.0 0.1393654209
H  H4  1  0.79350000  0.45170000  0.21420000  1.0 0.1393654209
H  H5  1  0.13250000  0.21830000  0.71780000  1.0 0.1293515506
H  H6  1  0.78170000  0.86750000  0.21780000  1.0 0.1293515506
H  H7  1  0.02880000  0.12720000  0.84700000  1.0 0.1207175642
H  H8  1  0.87280000  0.97120000  0.34700000  1.0 0.1207175642
H  H9  1  0.95390000  0.12650000  0.88070000  1.0 0.1293515506
H  H10  1  0.87350000  0.04610000  0.38070000  1.0 0.1293515506
H  H11  1  0.06090000  0.33610000  0.87000000  1.0 0.112303287
H  H12  1  0.66390000  0.93910000  0.37000000  1.0 0.112303287
H  H13  1  0.13580000  0.33680000  0.83630000  1.0 0.112303287
H  H14  1  0.66320000  0.86420000  0.33630000  1.0 0.112303287
H  H15  1  0.43010000  0.14990000  0.79360000  1.0 0.1207175642
H  H16  1  0.85010000  0.56990000  0.29360000  1.0 0.1207175642
H  H17  1  0.50570000  0.15030000  0.83010000  1.0 0.1207175642
H  H18  1  0.84970000  0.49430000  0.33010000  1.0 0.1207175642
H  H19  1  0.66960000  0.32680000  0.79090000  1.0 0.112303287
H  H20  1  0.67320000  0.33040000  0.29090000  1.0 0.112303287
H  H21  1  0.59400000  0.32620000  0.75440000  1.0 0.1207175642
H  H22  1  0.67380000  0.40600000  0.25440000  1.0 0.1207175642
H  H23  1  0.42360000  0.26380000  0.79860000  1.0 0.1393654209
H  H24  1  0.73620000  0.57640000  0.29860000  1.0 0.1393654209
H  H25  1  0.32090000  0.26350000  0.79920000  1.0 0.1293515506
H  H26  1  0.73650000  0.67910000  0.29920000  1.0 0.1293515506
H  H27  1  0.25220000  0.16420000  0.57690000  1.0 0.1293515506
H  H28  1  0.83580000  0.74780000  0.07690000  1.0 0.1293515506
H  H29  1  0.14610000  0.31570000  0.78780000  1.0 0.112303287
H  H30  1  0.68430000  0.85390000  0.28780000  1.0 0.112303287
H  H31  1  0.13830000  0.16070000  0.83570000  1.0 0.1293515506
H  H32  1  0.83930000  0.86170000  0.33570000  1.0 0.1293515506
H  H33  1  0.20320000  0.15620000  0.79810000  1.0 0.1293515506
H  H34  1  0.84380000  0.79680000  0.29810000  1.0 0.1293515506
H  H35  1  0.21100000  0.31120000  0.75020000  1.0 0.112303287
H  H36  1  0.68880000  0.78900000  0.25020000  1.0 0.112303287
H  H37  1  0.36760000  0.19040000  0.57170000  1.0 0.1207175642
H  H38  1  0.80960000  0.63240000  0.07170000  1.0 0.1207175642
H  H39  1  0.44690000  0.09710000  0.62280000  1.0 0.112303287
H  H40  1  0.90290000  0.55310000  0.12280000  1.0 0.112303287
H  H41  1  0.51130000  0.08970000  0.58600000  1.0 0.112303287
H  H42  1  0.91030000  0.48870000  0.08600000  1.0 0.112303287
H  H43  1  0.56800000  0.27580000  0.54930000  1.0 0.112303287
H  H44  1  0.72420000  0.43200000  0.04930000  1.0 0.112303287
H  H45  1  0.50350000  0.28330000  0.58610000  1.0 0.1293515506
H  H46  1  0.71670000  0.49650000  0.08610000  1.0 0.1293515506
H  H47  1  0.66666667  0.12590000  0.87160000  1.0 0.1293515506
H  H48  1  0.87410000  0.33333333  0.37160000  1.0 0.1293515506
H  H49  1  0.59050000  0.12790000  0.83640000  1.0 0.112303287
H  H50  1  0.87210000  0.40950000  0.33640000  1.0 0.112303287
H  H51  1  0.70980000  0.33900000  0.83920000  1.0 0.1010341679
H  H52  1  0.66100000  0.29020000  0.33920000  1.0 0.1010341679
H  H53  1  0.78600000  0.33700000  0.87440000  1.0 0.1207175642
H  H54  1  0.66300000  0.21400000  0.37440000  1.0 0.1207175642
H  H55  1  0.01220000  0.07380000  0.58270000  1.0 0.112303287
H  H56  1  0.92620000  0.98780000  0.08270000  1.0 0.112303287
H  H57  1  0.09480000  0.08500000  0.61840000  1.0 0.1293515506
H  H58  1  0.91500000  0.90520000  0.11840000  1.0 0.1293515506
H  H59  1  0.22950000  0.28850000  0.59340000  1.0 0.1393654209
H  H60  1  0.71150000  0.77050000  0.09340000  1.0 0.1393654209
H  H61  1  0.14710000  0.27730000  0.55780000  1.0 0.1207175642
H  H62  1  0.72270000  0.85290000  0.05780000  1.0 0.1207175642
H  H63  1  0.51980000  0.06980000  0.54090000  1.0 0.1010341679
H  H64  1  0.93020000  0.48020000  0.04090000  1.0 0.1010341679
H  H65  1  0.58250000  0.05430000  0.50630000  1.0 0.1207175642
H  H66  1  0.94570000  0.41750000  0.00630000  1.0 0.1207175642
H  H67  1  0.72420000  0.26380000  0.49890000  1.0 0.1207175642
H  H68  1  0.73620000  0.27580000  0.99890000  1.0 0.1207175642
H  H69  1  0.66150000  0.27930000  0.53350000  1.0 0.112303287
H  H70  1  0.72070000  0.33850000  0.03350000  1.0 0.112303287
H  H71  1  0.01370000  0.23650000  0.48030000  1.0 0.1293515506
H  H72  1  0.76350000  0.98630000  0.98030000  1.0 0.1293515506
H  H73  1  0.85130000  0.07090000  0.52560000  1.0 0.1293515506
H  H74  1  0.92910000  0.14870000  0.02560000  1.0 0.1293515506
H  H75  1  0.92870000  0.07710000  0.56280000  1.0 0.1207175642
H  H76  1  0.92290000  0.07130000  0.06280000  1.0 0.1207175642
H  H77  1  0.09110000  0.24270000  0.51750000  1.0 0.112303287
H  H78  1  0.75730000  0.90890000  0.01750000  1.0 0.112303287
H  H79  1  0.10370000  0.16590000  0.66790000  1.0 0.1293515506
H  H80  1  0.83410000  0.89630000  0.16790000  1.0 0.1293515506
H  H81  1  0.66300000  0.54880000  0.64760000  1.0 0.112303287
H  H82  1  0.45120000  0.33700000  0.14760000  1.0 0.112303287
H  H83  1  0.74330000  0.55310000  0.68230000  1.0 0.1010341679
H  H84  1  0.44690000  0.25670000  0.18230000  1.0 0.1010341679
H  H85  1  0.61010000  0.34430000  0.69710000  1.0 0.1010341679
H  H86  1  0.65570000  0.38990000  0.19710000  1.0 0.1010341679
H  H87  1  0.52980000  0.34000000  0.66230000  1.0 0.112303287
H  H88  1  0.66000000  0.47020000  0.16230000  1.0 0.112303287
H  H89  1  0.77300000  0.46460000  0.81060000  1.0 0.1293515506
H  H90  1  0.53540000  0.22700000  0.31060000  1.0 0.1293515506
H  H91  1  0.19830000  0.46810000  0.81220000  1.0 0.1207175642
H  H92  1  0.53190000  0.80170000  0.31220000  1.0 0.1207175642
H  H93  1  0.24780000  0.40920000  0.00250000  1.0 0.1010341679
H  H94  1  0.59080000  0.75220000  0.50250000  1.0 0.1010341679
H  H95  1  0.33200000  0.42380000  0.03800000  1.0 0.1207175642
H  H96  1  0.57620000  0.66800000  0.53800000  1.0 0.1207175642
H  H97  1  0.46240000  0.62700000  0.01180000  1.0 0.1293515506
H  H98  1  0.37300000  0.53760000  0.51180000  1.0 0.1293515506
H  H99  1  0.37820000  0.61240000  0.97630000  1.0 0.1207175642
H  H100  1  0.38760000  0.62180000  0.47630000  1.0 0.1207175642
H  H101  1  0.78360000  0.55380000  0.72850000  1.0 0.112303287
H  H102  1  0.44620000  0.21640000  0.22850000  1.0 0.112303287
H  H103  1  0.86200000  0.55760000  0.76440000  1.0 0.112303287
H  H104  1  0.44240000  0.13800000  0.26440000  1.0 0.112303287
H  H105  1  0.77790000  0.35430000  0.74920000  1.0 0.1293515506
H  H106  1  0.64570000  0.22210000  0.24920000  1.0 0.1293515506
H  H107  1  0.69950000  0.35070000  0.71340000  1.0 0.1207175642
H  H108  1  0.64930000  0.30050000  0.21340000  1.0 0.1207175642
H  H109  1  0.60420000  0.43180000  0.01930000  1.0 0.1293515506
H  H110  1  0.56820000  0.39580000  0.51930000  1.0 0.1293515506
H  H111  1  0.67110000  0.42470000  0.98370000  1.0 0.1207175642
H  H112  1  0.57530000  0.32890000  0.48370000  1.0 0.1207175642
H  H113  1  0.81680000  0.63360000  0.98810000  1.0 0.1207175642
H  H114  1  0.36640000  0.18320000  0.48810000  1.0 0.1207175642
H  H115  1  0.75000000  0.64060000  0.02370000  1.0 0.1293515506
H  H116  1  0.35940000  0.25000000  0.52370000  1.0 0.1293515506
H  H117  1  0.83580000  0.61660000  0.93860000  1.0 0.1207175642
H  H118  1  0.38340000  0.16420000  0.43860000  1.0 0.1207175642
H  H119  1  0.89680000  0.60220000  0.90260000  1.0 0.1207175642
H  H120  1  0.39780000  0.10320000  0.40260000  1.0 0.1207175642
H  H121  1  0.83160000  0.41580000  0.94220000  1.0 0.1293515506
H  H122  1  0.58420000  0.16840000  0.44220000  1.0 0.1293515506
H  H123  1  0.77070000  0.43030000  0.97820000  1.0 0.112303287
H  H124  1  0.56970000  0.22930000  0.47820000  1.0 0.112303287
H  H125  1  0.97350000  0.51590000  0.95420000  1.0 0.1207175642
H  H126  1  0.48410000  0.02650000  0.45420000  1.0 0.1207175642
H  H127  1  0.79600000  0.49520000  0.86570000  1.0 0.1293515506
H  H128  1  0.50480000  0.20400000  0.36570000  1.0 0.1293515506
H  H129  1  0.05930000  0.48350000  0.95530000  1.0 0.1207175642
H  H130  1  0.51650000  0.94070000  0.45530000  1.0 0.1207175642
H  H131  1  0.01030000  0.43250000  0.72580000  1.0 0.1293515506
H  H132  1  0.56750000  0.98970000  0.22580000  1.0 0.1293515506
H  H133  1  0.31500000  0.53820000  0.69460000  1.0 0.112303287
H  H134  1  0.46180000  0.68500000  0.19460000  1.0 0.112303287
H  H135  1  0.38340000  0.53740000  0.65760000  1.0 0.1207175642
H  H136  1  0.46260000  0.61660000  0.15760000  1.0 0.1207175642
H  H137  1  0.23940000  0.32940000  0.64790000  1.0 0.112303287
H  H138  1  0.67060000  0.76060000  0.14790000  1.0 0.112303287
H  H139  1  0.17100000  0.33020000  0.68490000  1.0 0.1010341679
H  H140  1  0.66980000  0.82900000  0.18490000  1.0 0.1010341679
H  H141  1  0.90930000  0.43850000  0.72570000  1.0 0.1293515506
H  H142  1  0.56150000  0.09070000  0.22570000  1.0 0.1293515506
H  H143  1  0.20620000  0.47060000  0.86980000  1.0 0.1207175642
H  H144  1  0.52940000  0.79380000  0.36980000  1.0 0.1207175642
H  H145  1  0.03820000  0.33620000  0.74860000  1.0 0.1293515506
H  H146  1  0.66380000  0.96180000  0.24860000  1.0 0.1293515506
H  H147  1  0.10410000  0.33670000  0.71000000  1.0 0.1207175642
H  H148  1  0.66330000  0.89590000  0.21000000  1.0 0.112303287
H  H149  1  0.26640000  0.53220000  0.73280000  1.0 0.112303287
H  H150  1  0.46780000  0.73360000  0.23280000  1.0 0.112303287
H  H151  1  0.20040000  0.53180000  0.77140000  1.0 0.1207175642
H  H152  1  0.46820000  0.79960000  0.27140000  1.0 0.1207175642
H  H153  1  0.19490000  0.58670000  0.93030000  1.0 0.1293515506
H  H154  1  0.41330000  0.80510000  0.43030000  1.0 0.1293515506
H  H155  1  0.27660000  0.60060000  0.96720000  1.0 0.1293515506
H  H156  1  0.39940000  0.72340000  0.46720000  1.0 0.1293515506
H  H157  1  0.20500000  0.39880000  0.95770000  1.0 0.112303287
H  H158  1  0.60120000  0.79500000  0.45770000  1.0 0.112303287
H  H159  1  0.12340000  0.38500000  0.92080000  1.0 0.1207175642
H  H160  1  0.61500000  0.87660000  0.42080000  1.0 0.1207175642
H  H161  1  0.67520000  0.99620000  0.51030000  1.0 0.1393654209
H  H162  1  0.00380000  0.32480000  0.01030000  1.0 0.1393654209
H  H163  1  0.73650000  0.98510000  0.47320000  1.0 0.1207175642
H  H164  1  0.01490000  0.26350000  0.97320000  1.0 0.1207175642
H  H165  1  0.71980000  0.82760000  0.52320000  1.0 0.1207175642
H  H166  1  0.17240000  0.28020000  0.02320000  1.0 0.1207175642
H  H167  1  0.65840000  0.83880000  0.56030000  1.0 0.1207175642
H  H168  1  0.16120000  0.34160000  0.06030000  1.0 0.1207175642
H  H169  1  0.32580000  0.94520000  0.64940000  1.0 0.1207175642
H  H170  1  0.05480000  0.67420000  0.14940000  1.0 0.1207175642
H  H171  1  0.30860000  0.92500000  0.59340000  1.0 0.1207175642
H  H172  1  0.07500000  0.69140000  0.09340000  1.0 0.1207175642
H  H173  1  0.06290000  0.81550000  0.45040000  1.0 0.1293515506
H  H174  1  0.18450000  0.93710000  0.95040000  1.0 0.1293515506
H  H175  1  0.14120000  0.81780000  0.48580000  1.0 0.1293515506
H  H176  1  0.18220000  0.85880000  0.98580000  1.0 0.1207175642
H  H177  1  0.29150000  0.01650000  0.45920000  1.0 0.112303287
H  H178  1  0.98350000  0.70850000  0.95920000  1.0 0.112303287
H  H179  1  0.21330000  0.01410000  0.42380000  1.0 0.1207175642
H  H180  1  0.98590000  0.78670000  0.92380000  1.0 0.1207175642
H  H181  1  0.76070000  0.95930000  0.64430000  1.0 0.1207175642
H  H182  1  0.04070000  0.23930000  0.14430000  1.0 0.1207175642
H  H183  1  0.44250000  0.89610000  0.50620000  1.0 0.1393654209
H  H184  1  0.10390000  0.55750000  0.00620000  1.0 0.1393654209
H  H185  1  0.53910000  0.88230000  0.50840000  1.0 0.1293515506
H  H186  1  0.11770000  0.46090000  0.00840000  1.0 0.1293515506
H  H187  1  0.92600000  0.08720000  0.76070000  1.0 0.112303287
H  H188  1  0.91280000  0.07400000  0.26070000  1.0 0.112303287
H  H189  1  0.79890000  0.87690000  0.77140000  1.0 0.0891655961
H  H190  1  0.12310000  0.20110000  0.27140000  1.0 0.0891655961
H  H191  1  0.87930000  0.88150000  0.80620000  1.0 0.112303287
H  H192  1  0.11850000  0.12070000  0.30620000  1.0 0.112303287
H  H193  1  0.00640000  0.09180000  0.79550000  1.0 0.112303287
H  H194  1  0.90820000  0.99360000  0.29550000  1.0 0.112303287
H  H195  1  0.72100000  0.80340000  0.46650000  1.0 0.1207175642
H  H196  1  0.19660000  0.27900000  0.96650000  1.0 0.1207175642
H  H197  1  0.79320000  0.80320000  0.43150000  1.0 0.1293515506
H  H198  1  0.19680000  0.20680000  0.93150000  1.0 0.1293515506
H  H199  1  0.92100000  0.01440000  0.43220000  1.0 0.1293515506
H  H200  1  0.98560000  0.07900000  0.93220000  1.0 0.1293515506
H  H201  1  0.84880000  0.01460000  0.46730000  1.0 0.1207175642
H  H202  1  0.98540000  0.15120000  0.96730000  1.0 0.1207175642
H  H203  1  0.23570000  0.81870000  0.49590000  1.0 0.1207175642
H  H204  1  0.18130000  0.76430000  0.99590000  1.0 0.1207175642
H  H205  1  0.31500000  0.82260000  0.53140000  1.0 0.1393654209
H  H206  1  0.17740000  0.68500000  0.03140000  1.0 0.1393654209
H  H207  1  0.40480000  0.02800000  0.54380000  1.0 0.1207175642
H  H208  1  0.97200000  0.59520000  0.04380000  1.0 0.1207175642
H  H209  1  0.32560000  0.02400000  0.50840000  1.0 0.1207175642
H  H210  1  0.97600000  0.67440000  0.00840000  1.0 0.1207175642
H  H211  1  0.36530000  0.07150000  0.72060000  1.0 0.112303287
H  H212  1  0.92850000  0.63470000  0.22060000  1.0 0.112303287
H  H213  1  0.42880000  0.06220000  0.68400000  1.0 0.112303287
H  H214  1  0.93780000  0.57120000  0.18400000  1.0 0.112303287
H  H215  1  0.37890000  0.88130000  0.72430000  1.0 0.1207175642
H  H216  1  0.11870000  0.62110000  0.22430000  1.0 0.1207175642
H  H217  1  0.31530000  0.89050000  0.76090000  1.0 0.112303287
H  H218  1  0.10950000  0.68470000  0.26090000  1.0 0.112303287
H  H219  1  0.74880000  0.94540000  0.58850000  1.0 0.1207175642
H  H220  1  0.05460000  0.25120000  0.08850000  1.0 0.1207175642
H  H221  1  0.61750000  0.97450000  0.73290000  1.0 0.1207175642
H  H222  1  0.02550000  0.38250000  0.23290000  1.0 0.1207175642
H  H223  1  0.34140000  0.09140000  0.76180000  1.0 0.1010341679
H  H224  1  0.90860000  0.65860000  0.26180000  1.0 0.1010341679
H  H225  1  0.27380000  0.09920000  0.79670000  1.0 0.1207175642
H  H226  1  0.90080000  0.72620000  0.29670000  1.0 0.1207175642
H  H227  1  0.15570000  0.88930000  0.80960000  1.0 0.1207175642
H  H228  1  0.11070000  0.84430000  0.30960000  1.0 0.1207175642
H  H229  1  0.22330000  0.88150000  0.77470000  1.0 0.112303287
H  H230  1  0.11850000  0.77670000  0.27470000  1.0 0.112303287
H  H231  1  0.80090000  0.06970000  0.68230000  1.0 0.1293515506
H  H232  1  0.93030000  0.19910000  0.18230000  1.0 0.1293515506
H  H233  1  0.87680000  0.07420000  0.71990000  1.0 0.112303287
H  H234  1  0.92580000  0.12320000  0.21990000  1.0 0.112303287
H  H235  1  0.71830000  0.88710000  0.75430000  1.0 0.112303287
H  H236  1  0.11290000  0.28170000  0.25430000  1.0 0.112303287
H  H237  1  0.64240000  0.88260000  0.71670000  1.0 0.112303287
H  H238  1  0.11740000  0.35760000  0.21670000  1.0 0.112303287
H  H239  1  0.51700000  0.98260000  0.73230000  1.0 0.1293515506
H  H240  1  0.01740000  0.48300000  0.23230000  1.0 0.1293515506
H  H241  1  0.59330000  0.72350000  0.77350000  1.0 0.1293515506
H  H242  1  0.27650000  0.40670000  0.27350000  1.0 0.1293515506
H  H243  1  0.53740000  0.78600000  0.58420000  1.0 0.1010341679
H  H244  1  0.21400000  0.46260000  0.08420000  1.0 0.1010341679
H  H245  1  0.45180000  0.77100000  0.54940000  1.0 0.112303287
H  H246  1  0.22900000  0.54820000  0.04940000  1.0 0.112303287
H  H247  1  0.32190000  0.56850000  0.57670000  1.0 0.1293515506
H  H248  1  0.43150000  0.67810000  0.07670000  1.0 0.1293515506
H  H249  1  0.40750000  0.58350000  0.61140000  1.0 0.112303287
H  H250  1  0.41650000  0.59250000  0.11140000  1.0 0.112303287
H  H251  1  0.92920000  0.62320000  0.81930000  1.0 0.112303287
H  H252  1  0.37680000  0.07080000  0.31930000  1.0 0.112303287
H  H253  1  0.00980000  0.63220000  0.85540000  1.0 0.1207175642
H  H254  1  0.36780000  0.99020000  0.35540000  1.0 0.1207175642
H  H255  1  0.08500000  0.83360000  0.86920000  1.0 0.1207175642
H  H256  1  0.16640000  0.91500000  0.36920000  1.0 0.1207175642
H  H257  1  0.00450000  0.82470000  0.83310000  1.0 0.1393654209
H  H258  1  0.17530000  0.99550000  0.33310000  1.0 0.1393654209
H  H259  1  0.04650000  0.63830000  0.90370000  1.0 0.112303287
H  H260  1  0.36170000  0.95350000  0.40370000  1.0 0.112303287
H  H261  1  0.12810000  0.64550000  0.93870000  1.0 0.112303287
H  H262  1  0.35450000  0.87190000  0.43870000  1.0 0.112303287
H  H263  1  0.26670000  0.84950000  0.91540000  1.0 0.1207175642
H  H264  1  0.15050000  0.73330000  0.41540000  1.0 0.1207175642
H  H265  1  0.18500000  0.84240000  0.88050000  1.0 0.1207175642
H  H266  1  0.15760000  0.81500000  0.38050000  1.0 0.1207175642
H  H267  1  0.99380000  0.69420000  0.71500000  1.0 0.1293515506
H  H268  1  0.30580000  0.00620000  0.21500000  1.0 0.1293515506
H  H269  1  0.00700000  0.70640000  0.77160000  1.0 0.1293515506
H  H270  1  0.29360000  0.99300000  0.27160000  1.0 0.1293515506
H  H271  1  0.72230000  0.69650000  0.63090000  1.0 0.1393654209
H  H272  1  0.30350000  0.27770000  0.13090000  1.0 0.1393654209
H  H273  1  0.87740000  0.58060000  0.67180000  1.0 0.1293515506
H  H274  1  0.41940000  0.12260000  0.17180000  1.0 0.1293515506
H  H275  1  0.93850000  0.57390000  0.63300000  1.0 0.112303287
H  H276  1  0.42610000  0.06150000  0.13300000  1.0 0.112303287
H  H277  1  0.03600000  0.77980000  0.61360000  1.0 0.112303287
H  H278  1  0.22020000  0.96400000  0.11360000  1.0 0.112303287
H  H279  1  0.97500000  0.78660000  0.65250000  1.0 0.1207175642
H  H280  1  0.21340000  0.02500000  0.15250000  1.0 0.1207175642
H  H281  1  0.55350000  0.64790000  0.87440000  1.0 0.1207175642
H  H282  1  0.35210000  0.44650000  0.37440000  1.0 0.1207175642
H  H283  1  0.61640000  0.64120000  0.83660000  1.0 0.1293515506
H  H284  1  0.35880000  0.38360000  0.33660000  1.0 0.1293515506
H  H285  1  0.72120000  0.84900000  0.81960000  1.0 0.1293515506
H  H286  1  0.15100000  0.27880000  0.31960000  1.0 0.1293515506
H  H287  1  0.65830000  0.85570000  0.85750000  1.0 0.1207175642
H  H288  1  0.14430000  0.34170000  0.35750000  1.0 0.1207175642
H  H289  1  0.58730000  0.72270000  0.71540000  1.0 0.1293515506
H  H290  1  0.27730000  0.41270000  0.21540000  1.0 0.1293515506
H  H291  1  0.87070000  0.73750000  0.85840000  1.0 0.1393654209
H  H292  1  0.26250000  0.12930000  0.35840000  1.0 0.1393654209
H  H293  1  0.82650000  0.69390000  0.62970000  1.0 0.1293515506
H  H294  1  0.30610000  0.17350000  0.12970000  1.0 0.1293515506
H  H295  1  0.51050000  0.59750000  0.61950000  1.0 0.1293515506
H  H296  1  0.40250000  0.48950000  0.11950000  1.0 0.1293515506
H  H297  1  0.59370000  0.60890000  0.65470000  1.0 0.1293515506
H  H298  1  0.39110000  0.40630000  0.15470000  1.0 0.1293515506
H  H299  1  0.66340000  0.80840000  0.66950000  1.0 0.112303287
H  H300  1  0.19160000  0.33660000  0.16950000  1.0 0.112303287
H  H301  1  0.58030000  0.79710000  0.63420000  1.0 0.112303287
H  H302  1  0.20290000  0.41970000  0.13420000  1.0 0.112303287
H  H303  1  0.40650000  0.66790000  0.92300000  1.0 0.1293515506
H  H304  1  0.33210000  0.59350000  0.42300000  1.0 0.1293515506
H  H305  1  0.56730000  0.86750000  0.94080000  1.0 0.1293515506
H  H306  1  0.13250000  0.43270000  0.44080000  1.0 0.1293515506
H  H307  1  0.63490000  0.86170000  0.90520000  1.0 0.1207175642
H  H308  1  0.13830000  0.36510000  0.40520000  1.0 0.1207175642
H  H309  1  0.47420000  0.66200000  0.88740000  1.0 0.112303287
H  H310  1  0.33800000  0.52580000  0.38740000  1.0 0.112303287
H  H311  1  0.96300000  0.56000000  0.59050000  1.0 0.112303287
H  H312  1  0.44000000  0.03700000  0.09050000  1.0 0.112303287
H  H313  1  0.10960000  0.76900000  0.59250000  1.0 0.112303287
H  H314  1  0.23100000  0.89040000  0.09250000  1.0 0.112303287
H  H315  1  0.17300000  0.75980000  0.55580000  1.0 0.1293515506
H  H316  1  0.24020000  0.82700000  0.05580000  1.0 0.1293515506
H  H317  1  0.02630000  0.55070000  0.55380000  1.0 0.1293515506
H  H318  1  0.44930000  0.97370000  0.05380000  1.0 0.1293515506
H  H319  1  0.77120000  0.74200000  0.85800000  1.0 0.1293515506
H  H320  1  0.25800000  0.22880000  0.35800000  1.0 0.1293515506
C  C1  1  0.24690000  0.22110000  0.74590000  1.0 -0.0597595615
C  C2  1  0.77890000  0.75310000  0.24590000  1.0 -0.0597595615
C  C3  1  0.37060000  0.19680000  0.62080000  1.0 0.1609793008
C  C4  1  0.80320000  0.62940000  0.12080000  1.0 0.1510040985
C  C5  1  0.30710000  0.22910000  0.75390000  1.0 0.1785123215
C  C6  1  0.77090000  0.69290000  0.25390000  1.0 0.1785123215
C  C7  1  0.95460000  0.23300000  0.89960000  1.0 0.5206555672
C  C8  1  0.76700000  0.04540000  0.39960000  1.0 0.5206555672
C  C9  1  0.22180000  0.21800000  0.71490000  1.0 0.1785123215
C  C10  1  0.78200000  0.77820000  0.21490000  1.0 0.1785123215
C  C11  1  0.40800000  0.24060000  0.75180000  1.0 0.1700368084
C  C12  1  0.75940000  0.59200000  0.25180000  1.0 0.1700368084
C  C13  1  0.51250000  0.20170000  0.67160000  1.0 -0.1704860044
C  C14  1  0.79830000  0.48750000  0.17160000  1.0 -0.1704860044
C  C15  1  0.51480000  0.20760000  0.70200000  1.0 -0.1584393089
C  C16  1  0.79240000  0.48520000  0.20200000  1.0 -0.1584393089
C  C17  1  0.78070000  0.22870000  0.90020000  1.0 0.5382835068
C  C18  1  0.77130000  0.21930000  0.40020000  1.0 0.5382835068
C  C19  1  0.15980000  0.20960000  0.70620000  1.0 -0.1584393089
C  C20  1  0.79040000  0.84020000  0.20620000  1.0 -0.1584393089
C  C21  1  0.08940000  0.23200000  0.83850000  1.0 0.0791646229
C  C22  1  0.76800000  0.91060000  0.33850000  1.0 0.0791646229
C  C23  1  0.03540000  0.16960000  0.85170000  1.0 -0.1404940792
C  C24  1  0.83040000  0.96460000  0.35170000  1.0 -0.1311999866
C  C25  1  0.99080000  0.16920000  0.87170000  1.0 -0.0819085953
C  C26  1  0.83080000  0.00920000  0.37170000  1.0 -0.0819085953
C  C27  1  0.00040000  0.23120000  0.87850000  1.0 -0.0232665889
C  C28  1  0.76880000  0.99960000  0.37850000  1.0 -0.0232665889
C  C29  1  0.05440000  0.29380000  0.86530000  1.0 -0.0986578777
C  C30  1  0.70620000  0.94560000  0.36530000  1.0 -0.0986578777
C  C31  1  0.09890000  0.29410000  0.84530000  1.0 -0.1404940792
C  C32  1  0.70590000  0.90110000  0.34530000  1.0 -0.1404940792
C  C33  1  0.20520000  0.19460000  0.66270000  1.0 0.1863540111
C  C34  1  0.80540000  0.79480000  0.16270000  1.0 0.1863540111
C  C35  1  0.42760000  0.19500000  0.63200000  1.0 -0.0597595615
C  C36  1  0.80500000  0.57240000  0.13200000  1.0 -0.0597595615
C  C37  1  0.27930000  0.19890000  0.62200000  1.0 0.1996304564
C  C38  1  0.80110000  0.72070000  0.12200000  1.0 0.1996304564
C  C39  1  0.50500000  0.23800000  0.77060000  1.0 0.0891655961
C  C40  1  0.76200000  0.49500000  0.27060000  1.0 0.0891655961
C  C41  1  0.47870000  0.18570000  0.79310000  1.0 -0.1495162515
C  C42  1  0.81430000  0.52130000  0.29310000  1.0 -0.1495162515
C  C43  1  0.52360000  0.18600000  0.81470000  1.0 -0.1311999866
C  C44  1  0.81400000  0.47640000  0.31470000  1.0 -0.1311999866
C  C45  1  0.59480000  0.23860000  0.81390000  1.0 0.0638389095
C  C46  1  0.76140000  0.40520000  0.31390000  1.0 0.0638389095
C  C47  1  0.62100000  0.29080000  0.79140000  1.0 -0.1404940792
C  C48  1  0.70920000  0.37900000  0.29140000  1.0 -0.1404940792
C  C49  1  0.57610000  0.29050000  0.76980000  1.0 -0.1404940792
C  C50  1  0.70950000  0.42390000  0.26980000  1.0 -0.1404940792
C  C51  1  0.39390000  0.25410000  0.78130000  1.0 -0.180518166
C  C52  1  0.74590000  0.60610000  0.28130000  1.0 -0.180518166
C  C53  1  0.46750000  0.21530000  0.71520000  1.0 0.1510040985
C  C54  1  0.78470000  0.53250000  0.21520000  1.0 0.1510040985
C  C55  1  0.33710000  0.25210000  0.78270000  1.0 -0.1584393089
C  C56  1  0.74790000  0.66290000  0.28270000  1.0 -0.1584393089
C  C57  1  0.28680000  0.18080000  0.59270000  1.0 -0.1584393089
C  C58  1  0.81920000  0.71320000  0.09270000  1.0 -0.1584393089
C  C59  1  0.45930000  0.22990000  0.74430000  1.0 -0.0986578777
C  C60  1  0.77010000  0.54070000  0.24430000  1.0 -0.0986578777
C  C61  1  0.15770000  0.28330000  0.78990000  1.0 -0.1495162515
C  C62  1  0.71670000  0.84230000  0.28990000  1.0 -0.1495162515
C  C63  1  0.13610000  0.23870000  0.81530000  1.0 0.0638389095
C  C64  1  0.76130000  0.86390000  0.31530000  1.0 0.0638389095
C  C65  1  0.15310000  0.19130000  0.81840000  1.0 -0.0986578777
C  C66  1  0.80870000  0.84690000  0.31840000  1.0 -0.0986578777
C  C67  1  0.19160000  0.18860000  0.79600000  1.0 -0.1311999866
C  C68  1  0.81140000  0.80840000  0.29600000  1.0 -0.1311999866
C  C69  1  0.21320000  0.23340000  0.77060000  1.0 0.0791646229
C  C70  1  0.76660000  0.78680000  0.27060000  1.0 0.0791646229
C  C71  1  0.19630000  0.28070000  0.76760000  1.0 -0.1404940792
C  C72  1  0.71930000  0.80370000  0.26760000  1.0 -0.1404940792
C  C73  1  0.34620000  0.18940000  0.58980000  1.0 -0.1311999866
C  C74  1  0.81060000  0.65380000  0.08980000  1.0 -0.1311999866
C  C75  1  0.22140000  0.19040000  0.63310000  1.0 -0.0904538574
C  C76  1  0.80960000  0.77860000  0.13310000  1.0 -0.0904538574
C  C77  1  0.46910000  0.19090000  0.60790000  1.0 0.0791646229
C  C78  1  0.80910000  0.53090000  0.10790000  1.0 0.0791646229
C  C79  1  0.47140000  0.13340000  0.60790000  1.0 -0.1311999866
C  C80  1  0.86660000  0.52860000  0.10790000  1.0 -0.1404940792
C  C81  1  0.50980000  0.12900000  0.58610000  1.0 -0.1311999866
C  C82  1  0.87100000  0.49020000  0.08610000  1.0 -0.1311999866
C  C83  1  0.54570000  0.18210000  0.56420000  1.0 0.0695904891
C  C84  1  0.81790000  0.45430000  0.06420000  1.0 0.0695904891
C  C85  1  0.54340000  0.23960000  0.56420000  1.0 -0.1404940792
C  C86  1  0.76040000  0.45660000  0.06420000  1.0 -0.1404940792
C  C87  1  0.50520000  0.24400000  0.58610000  1.0 -0.1203461296
C  C88  1  0.75600000  0.49480000  0.08610000  1.0 -0.1203461296
C  C89  1  0.67540000  0.16920000  0.86500000  1.0 -0.0904538574
C  C90  1  0.83080000  0.32460000  0.36500000  1.0 -0.0904538574
C  C91  1  0.63010000  0.17030000  0.84410000  1.0 -0.1495162515
C  C92  1  0.82970000  0.36990000  0.34410000  1.0 -0.1495162515
C  C93  1  0.64290000  0.23370000  0.83450000  1.0 0.0695904891
C  C94  1  0.76630000  0.35710000  0.33450000  1.0 0.0695904891
C  C95  1  0.70110000  0.29570000  0.84580000  1.0 -0.1404940792
C  C96  1  0.70430000  0.29890000  0.34580000  1.0 -0.1404940792
C  C97  1  0.74630000  0.29450000  0.86670000  1.0 -0.0904538574
C  C98  1  0.70550000  0.25370000  0.36670000  1.0 -0.0904538574
C  C99  1  0.73350000  0.23130000  0.87630000  1.0 0.0074452438
C  C100  1  0.76870000  0.26650000  0.37630000  1.0 0.0074452438
C  C101  1  0.45190000  0.19750000  0.66210000  1.0 0.1609793008
C  C102  1  0.80250000  0.54810000  0.16210000  1.0 0.1609793008
C  C103  1  0.07190000  0.17450000  0.56690000  1.0 0.0638389095
C  C104  1  0.82550000  0.92810000  0.06690000  1.0 0.0638389095
C  C105  1  0.05640000  0.11740000  0.58490000  1.0 -0.1404940792
C  C106  1  0.88260000  0.94360000  0.08490000  1.0 -0.1404940792
C  C107  1  0.10540000  0.12400000  0.60610000  1.0 -0.1495162515
C  C108  1  0.87600000  0.89460000  0.10610000  1.0 -0.1495162515
C  C109  1  0.16990000  0.18770000  0.60920000  1.0 0.1010341679
C  C110  1  0.81230000  0.83010000  0.10920000  1.0 0.1010341679
C  C111  1  0.18550000  0.24490000  0.59120000  1.0 -0.1311999866
C  C112  1  0.75510000  0.81450000  0.09120000  1.0 -0.1311999866
C  C113  1  0.13640000  0.23820000  0.57010000  1.0 -0.1495162515
C  C114  1  0.76180000  0.86360000  0.07010000  1.0 -0.1495162515
C  C115  1  0.58480000  0.17600000  0.54040000  1.0 0.0791646229
C  C116  1  0.82400000  0.41520000  0.04040000  1.0 0.0791646229
C  C117  1  0.56140000  0.10920000  0.53240000  1.0 -0.1404940792
C  C118  1  0.89080000  0.43860000  0.03240000  1.0 -0.1404940792
C  C119  1  0.59860000  0.10000000  0.51180000  1.0 -0.0904538574
C  C120  1  0.90000000  0.40140000  0.01180000  1.0 -0.0904538574
C  C121  1  0.65920000  0.15760000  0.49930000  1.0 -0.0126503167
C  C122  1  0.84240000  0.34080000  0.99930000  1.0 -0.0126503167
C  C123  1  0.68270000  0.22450000  0.50740000  1.0 -0.0986578777
C  C124  1  0.77550000  0.31730000  0.00740000  1.0 -0.0986578777
C  C125  1  0.64550000  0.23370000  0.52800000  1.0 -0.1495162515
C  C126  1  0.76630000  0.35450000  0.02800000  1.0 -0.1495162515
C  C127  1  0.87450000  0.14990000  0.47840000  1.0 0.4913569637
C  C128  1  0.85010000  0.12550000  0.97840000  1.0 0.4913569637
C  C129  1  0.70340000  0.15320000  0.47700000  1.0 0.5382835068
C  C130  1  0.84680000  0.29660000  0.97700000  1.0 0.5382835068
C  C131  1  0.99650000  0.20410000  0.49700000  1.0 -0.0904538574
C  C132  1  0.79590000  0.00350000  0.99700000  1.0 -0.0904538574
C  C133  1  0.92520000  0.15300000  0.49940000  1.0 -0.0358119808
C  C134  1  0.84700000  0.07480000  0.99940000  1.0 -0.0358119808
C  C135  1  0.89990000  0.10570000  0.52390000  1.0 -0.0819085953
C  C136  1  0.89430000  0.10010000  0.02390000  1.0 -0.0819085953
C  C137  1  0.94590000  0.10950000  0.54600000  1.0 -0.1404940792
C  C138  1  0.89050000  0.05410000  0.04600000  1.0 -0.1495162515
C  C139  1  0.01710000  0.16050000  0.54360000  1.0 0.0791646229
C  C140  1  0.83950000  0.98290000  0.04360000  1.0 0.0791646229
C  C141  1  0.04240000  0.20780000  0.51910000  1.0 -0.1404940792
C  C142  1  0.79220000  0.95760000  0.01910000  1.0 -0.1404940792
C  C143  1  0.14800000  0.18660000  0.67770000  1.0 -0.1584393089
C  C144  1  0.81340000  0.85200000  0.17770000  1.0 -0.1584393089
C  C145  1  0.00910000  0.43610000  0.77540000  1.0 0.1785123215
C  C146  1  0.56390000  0.99090000  0.27540000  1.0 0.1785123215
C  C147  1  0.58879000  0.44401000  0.65168000  1.0 -0.0284782654
C  C148  1  0.55599000  0.41121000  0.15168000  1.0 -0.0284782654
C  C149  1  0.65228000  0.50732000  0.65761000  1.0 -0.0904538574
C  C150  1  0.49268000  0.34772000  0.15761000  1.0 -0.0904538574
C  C151  1  0.70000000  0.50980000  0.67830000  1.0 -0.1495162515
C  C152  1  0.49020000  0.30000000  0.17830000  1.0 -0.1495162515
C  C153  1  0.68432000  0.44908000  0.69298000  1.0 0.0791646229
C  C154  1  0.55092000  0.31568000  0.19298000  1.0 0.0791646229
C  C155  1  0.62080000  0.38580000  0.68700000  1.0 -0.1495162515
C  C156  1  0.61420000  0.37920000  0.18700000  1.0 -0.1495162515
C  C157  1  0.57310000  0.38330000  0.66640000  1.0 -0.0819085953
C  C158  1  0.61670000  0.42690000  0.16640000  1.0 -0.0819085953
C  C159  1  0.46150000  0.53610000  0.05110000  1.0 0.5302123003
C  C160  1  0.46390000  0.53850000  0.55110000  1.0 0.5302123003
C  C161  1  0.04610000  0.48370000  0.90520000  1.0 0.2090433188
C  C162  1  0.51630000  0.95390000  0.40520000  1.0 0.2090433188
C  C163  1  0.81040000  0.47220000  0.82330000  1.0 -0.1890763957
C  C164  1  0.52780000  0.18960000  0.32330000  1.0 -0.1890763957
C  C165  1  0.96170000  0.49210000  0.90590000  1.0 0.1785123215
C  C166  1  0.50790000  0.03830000  0.40590000  1.0 0.1785123215
C  C167  1  0.92680000  0.45040000  0.77440000  1.0 0.1996304564
C  C168  1  0.54960000  0.07320000  0.27440000  1.0 0.1996304564
C  C169  1  0.16610000  0.46610000  0.82540000  1.0 -0.2007463477
C  C170  1  0.53390000  0.83390000  0.32540000  1.0 -0.2007463477
C  C171  1  0.30510000  0.50950000  0.98606000  1.0 0.0791646229
C  C172  1  0.49050000  0.69490000  0.48606000  1.0 0.0791646229
C  C173  1  0.29140000  0.45340000  0.00440000  1.0 -0.1495162515
C  C174  1  0.54660000  0.70860000  0.50440000  1.0 -0.1495162515
C  C175  1  0.34140000  0.46200000  0.02550000  1.0 -0.0986578777
C  C176  1  0.53800000  0.65860000  0.52550000  1.0 -0.0986578777
C  C177  1  0.40510000  0.52670000  0.02830000  1.0 0.0161392655
C  C178  1  0.47330000  0.59490000  0.52830000  1.0 0.0161392655
C  C179  1  0.41880000  0.58280000  0.00990000  1.0 -0.0904538574
C  C180  1  0.41720000  0.58120000  0.50990000  1.0 -0.0904538574
C  C181  1  0.36890000  0.57410000  0.98883000  1.0 -0.1311999866
C  C182  1  0.42590000  0.63110000  0.48883000  1.0 -0.1311999866
C  C183  1  0.62930000  0.54350000  0.04800000  1.0 0.5206555672
C  C184  1  0.45650000  0.37070000  0.54800000  1.0 0.5206555672
C  C185  1  0.73418000  0.45182000  0.71756000  1.0 0.0695904891
C  C186  1  0.54818000  0.26582000  0.21756000  1.0 0.0695904891
C  C187  1  0.78249000  0.51331000  0.73272000  1.0 -0.1495162515
C  C188  1  0.48669000  0.21751000  0.23272000  1.0 -0.1495162515
C  C189  1  0.82910000  0.51550000  0.75403000  1.0 -0.1311999866
C  C190  1  0.48450000  0.17090000  0.25403000  1.0 -0.1311999866
C  C191  1  0.82731000  0.45629000  0.76019000  1.0 0.0891655961
C  C192  1  0.54371000  0.17269000  0.26019000  1.0 0.0891655961
C  C193  1  0.77901000  0.39479000  0.74500000  1.0 -0.1404940792
C  C194  1  0.60521000  0.22099000  0.24500000  1.0 -0.1404940792
C  C195  1  0.73250000  0.39270000  0.72372000  1.0 -0.1495162515
C  C196  1  0.60730000  0.26750000  0.22372000  1.0 -0.1495162515
C  C197  1  0.67074000  0.53686000  0.02480000  1.0 -0.0023233048
C  C198  1  0.46314000  0.32926000  0.52480000  1.0 -0.0023233048
C  C199  1  0.64740000  0.47280000  0.01290000  1.0 -0.0904538574
C  C200  1  0.52720000  0.35260000  0.51290000  1.0 -0.0904538574
C  C201  1  0.68710000  0.46850000  0.99180000  1.0 -0.1584393089
C  C202  1  0.53150000  0.31290000  0.49180000  1.0 -0.1584393089
C  C203  1  0.75029000  0.52851000  0.98251000  1.0 0.0791646229
C  C204  1  0.47149000  0.24971000  0.48251000  1.0 0.0791646229
C  C205  1  0.77360000  0.59260000  0.99440000  1.0 -0.1495162515
C  C206  1  0.40740000  0.22640000  0.49440000  1.0 -0.1495162515
C  C207  1  0.73400000  0.59680000  0.01550000  1.0 -0.0904538574
C  C208  1  0.40320000  0.26600000  0.51550000  1.0 -0.0904538574
C  C209  1  0.79751000  0.52489000  0.96182000  1.0 0.0695904891
C  C210  1  0.47511000  0.20249000  0.46182000  1.0 0.0695904891
C  C211  1  0.83492000  0.57588000  0.93936000  1.0 -0.1495162515
C  C212  1  0.42412000  0.16508000  0.43936000  1.0 -0.1404940792
C  C213  1  0.87110000  0.56730000  0.91796000  1.0 -0.1404940792
C  C214  1  0.43270000  0.12890000  0.41796000  1.0 -0.1404940792
C  C215  1  0.86995000  0.50765000  0.91903000  1.0 0.0891655961
C  C216  1  0.49235000  0.13005000  0.41903000  1.0 0.0891655961
C  C217  1  0.83244000  0.45656000  0.94150000  1.0 -0.1203461296
C  C218  1  0.54344000  0.16756000  0.44150000  1.0 -0.1203461296
C  C219  1  0.79620000  0.46520000  0.96289000  1.0 -0.1311999866
C  C220  1  0.53480000  0.20380000  0.46289000  1.0 -0.1311999866
C  C221  1  0.86640000  0.47100000  0.81560000  1.0 0.1785123215
C  C222  1  0.52900000  0.13360000  0.31560000  1.0 0.1785123215
C  C223  1  0.10390000  0.45950000  0.81570000  1.0 0.1863540111
C  C224  1  0.54050000  0.89610000  0.31570000  1.0 0.1863540111
C  C225  1  0.98760000  0.50240000  0.93750000  1.0 -0.180518166
C  C226  1  0.49760000  0.01240000  0.43750000  1.0 -0.180518166
C  C227  1  0.82280000  0.48680000  0.85360000  1.0 -0.180518166
C  C228  1  0.51320000  0.17720000  0.35360000  1.0 -0.180518166
C  C229  1  0.87770000  0.45930000  0.78450000  1.0 -0.1111092619
C  C230  1  0.54070000  0.12230000  0.28450000  1.0 -0.1111092619
C  C231  1  0.03670000  0.48870000  0.93800000  1.0 -0.1495162515
C  C232  1  0.51130000  0.96330000  0.43800000  1.0 -0.1495162515
C  C233  1  0.09600000  0.47040000  0.89740000  1.0 -0.0715569738
C  C234  1  0.52960000  0.90400000  0.39740000  1.0 -0.0715569738
C  C235  1  0.87970000  0.48770000  0.86460000  1.0 0.1700368084
C  C236  1  0.51230000  0.12030000  0.36460000  1.0 0.1700368084
C  C237  1  0.11360000  0.46900000  0.86540000  1.0 0.1609793008
C  C238  1  0.53100000  0.88640000  0.36540000  1.0 0.1609793008
C  C239  1  0.90670000  0.49770000  0.89530000  1.0 -0.0986578777
C  C240  1  0.50230000  0.09330000  0.39530000  1.0 -0.0986578777
C  C241  1  0.98930000  0.43570000  0.74310000  1.0 -0.180518166
C  C242  1  0.56430000  0.01070000  0.24310000  1.0 -0.1704860044
C  C243  1  0.23660000  0.43420000  0.69320000  1.0 0.0695904891
C  C244  1  0.56580000  0.76340000  0.19320000  1.0 0.0695904891
C  C245  1  0.29960000  0.49580000  0.68510000  1.0 -0.1495162515
C  C246  1  0.50420000  0.70040000  0.18510000  1.0 -0.1495162515
C  C247  1  0.34030000  0.49530000  0.66312000  1.0 -0.0986578777
C  C248  1  0.50470000  0.65970000  0.16312000  1.0 -0.0986578777
C  C249  1  0.31790000  0.43330000  0.64930000  1.0 0.0074452438
C  C250  1  0.56670000  0.68210000  0.14930000  1.0 0.0074452438
C  C251  1  0.25480000  0.37180000  0.65740000  1.0 -0.0904538574
C  C252  1  0.62820000  0.74520000  0.15740000  1.0 -0.0904538574
C  C253  1  0.21410000  0.37230000  0.67930000  1.0 -0.1495162515
C  C254  1  0.62770000  0.78590000  0.17930000  1.0 -0.1495162515
C  C255  1  0.93610000  0.44070000  0.74300000  1.0 -0.1890763957
C  C256  1  0.55930000  0.06390000  0.24300000  1.0 -0.1890763957
C  C257  1  0.07000000  0.43940000  0.78710000  1.0 -0.0819085953
C  C258  1  0.56060000  0.93000000  0.28710000  1.0 -0.0819085953
C  C259  1  0.53800000  0.43980000  0.62980000  1.0 0.5206555672
C  C260  1  0.56020000  0.46200000  0.12980000  1.0 0.5206555672
C  C261  1  0.17200000  0.46900000  0.85690000  1.0 -0.1495162515
C  C262  1  0.53100000  0.82800000  0.35690000  1.0 -0.1495162515
C  C263  1  0.36290000  0.43110000  0.62570000  1.0 0.5068645873
C  C264  1  0.56890000  0.63710000  0.12570000  1.0 0.5068645873
C  C265  1  0.11305000  0.43395000  0.76365000  1.0 0.0791646229
C  C266  1  0.56605000  0.88695000  0.26365000  1.0 0.0891655961
C  C267  1  0.08450000  0.37610000  0.74540000  1.0 -0.1311999866
C  C268  1  0.62390000  0.91550000  0.24540000  1.0 -0.1311999866
C  C269  1  0.12370000  0.37630000  0.72247000  1.0 -0.1495162515
C  C270  1  0.62370000  0.87630000  0.22247000  1.0 -0.1495162515
C  C271  1  0.19150000  0.43450000  0.71775000  1.0 0.0695904891
C  C272  1  0.56550000  0.80850000  0.21775000  1.0 0.0695904891
C  C273  1  0.22010000  0.49250000  0.73600000  1.0 -0.1404940792
C  C274  1  0.50750000  0.77990000  0.23600000  1.0 -0.1404940792
C  C275  1  0.18080000  0.49220000  0.75893000  1.0 -0.1404940792
C  C276  1  0.50780000  0.81920000  0.25893000  1.0 -0.1404940792
C  C277  1  0.15150000  0.48450000  0.92205000  1.0 0.0791646229
C  C278  1  0.51550000  0.84850000  0.42205000  1.0 0.0791646229
C  C279  1  0.19702000  0.54858000  0.93580000  1.0 -0.1311999866
C  C280  1  0.45142000  0.80298000  0.43580000  1.0 -0.1311999866
C  C281  1  0.24550000  0.55690000  0.95780000  1.0 -0.1111092619
C  C282  1  0.44310000  0.75450000  0.45780000  1.0 -0.1111092619
C  C283  1  0.24850000  0.50110000  0.96592000  1.0 0.0695904891
C  C284  1  0.49890000  0.75150000  0.46592000  1.0 0.0695904891
C  C285  1  0.20298000  0.43702000  0.95210000  1.0 -0.1495162515
C  C286  1  0.56298000  0.79702000  0.45210000  1.0 -0.1495162515
C  C287  1  0.15450000  0.42870000  0.93020000  1.0 -0.1311999866
C  C288  1  0.57130000  0.84550000  0.43020000  1.0 -0.1311999866
C  C289  1  0.46800000  0.92180000  0.55430000  1.0 0.1996304564
C  C290  1  0.07820000  0.53200000  0.05430000  1.0 0.1996304564
C  C291  1  0.50930000  0.96930000  0.68480000  1.0 0.1609793008
C  C292  1  0.03070000  0.49070000  0.18480000  1.0 0.1609793008
C  C293  1  0.66095000  0.91845000  0.53879000  1.0 0.0791646229
C  C294  1  0.08155000  0.33905000  0.03879000  1.0 0.0791646229
C  C295  1  0.68422000  0.96198000  0.51290000  1.0 -0.1203461296
C  C296  1  0.03802000  0.31578000  0.01290000  1.0 -0.1203461296
C  C297  1  0.72070000  0.95530000  0.49091000  1.0 -0.1203461296
C  C298  1  0.04470000  0.27930000  0.99091000  1.0 -0.1203461296
C  C299  1  0.73400000  0.90540000  0.49472000  1.0 0.0638389095
C  C300  1  0.09460000  0.26600000  0.99472000  1.0 0.0638389095
C  C301  1  0.71076000  0.86184000  0.52060000  1.0 -0.1495162515
C  C302  1  0.13816000  0.28924000  0.02060000  1.0 -0.1495162515
C  C303  1  0.67430000  0.86850000  0.54260000  1.0 -0.1495162515
C  C304  1  0.13150000  0.32570000  0.04260000  1.0 -0.1495162515
C  C305  1  0.56220000  0.92260000  0.55310000  1.0 0.1609793008
C  C306  1  0.07740000  0.43780000  0.05310000  1.0 0.1609793008
C  C307  1  0.99460000  0.98520000  0.82790000  1.0 0.5206555672
C  C308  1  0.01480000  0.00540000  0.32790000  1.0 0.5206555672
C  C309  1  0.62210000  0.92450000  0.56310000  1.0 -0.0904538574
C  C310  1  0.07550000  0.37790000  0.06310000  1.0 -0.0904538574
C  C311  1  0.40810000  0.94190000  0.59490000  1.0 0.1609793008
C  C312  1  0.05810000  0.59190000  0.09490000  1.0 0.1609793008
C  C313  1  0.35580000  0.94360000  0.63620000  1.0 -0.1704860044
C  C314  1  0.05640000  0.64420000  0.13620000  1.0 -0.1704860044
C  C315  1  0.34740000  0.93460000  0.60550000  1.0 -0.1704860044
C  C316  1  0.06540000  0.65260000  0.10550000  1.0 -0.1704860044
C  C317  1  0.65540000  0.94020000  0.59290000  1.0 0.1609793008
C  C318  1  0.05980000  0.34460000  0.09290000  1.0 0.1609793008
C  C319  1  0.41860000  0.95040000  0.64510000  1.0 0.1700368084
C  C320  1  0.04960000  0.58140000  0.14510000  1.0 0.1700368084
C  C321  1  0.10930000  0.85630000  0.45220000  1.0 -0.0715569738
C  C322  1  0.14370000  0.89070000  0.95220000  1.0 -0.0715569738
C  C323  1  0.15580000  0.85760000  0.47320000  1.0 -0.1404940792
C  C324  1  0.14240000  0.84420000  0.97320000  1.0 -0.1404940792
C  C325  1  0.22370000  0.91730000  0.47587000  1.0 0.0891655961
C  C326  1  0.08270000  0.77630000  0.97587000  1.0 0.0891655961
C  C327  1  0.24510000  0.97570000  0.45740000  1.0 -0.1495162515
C  C328  1  0.02430000  0.75490000  0.95740000  1.0 -0.1495162515
C  C329  1  0.19870000  0.97430000  0.43637000  1.0 -0.0904538574
C  C330  1  0.02570000  0.80130000  0.93637000  1.0 -0.0904538574
C  C331  1  0.13077000  0.91463000  0.43373000  1.0 -0.0284782654
C  C332  1  0.08537000  0.86923000  0.93373000  1.0 -0.0284782654
C  C333  1  0.72440000  0.95480000  0.63180000  1.0 -0.180518166
C  C334  1  0.04520000  0.27560000  0.13180000  1.0 -0.180518166
C  C335  1  0.41980000  0.93220000  0.56470000  1.0 -0.0986578777
C  C336  1  0.06780000  0.58020000  0.06470000  1.0 -0.0986578777
C  C337  1  0.66800000  0.95560000  0.64290000  1.0 0.1609793008
C  C338  1  0.04440000  0.33200000  0.14290000  1.0 0.1609793008
C  C339  1  0.47190000  0.90330000  0.52330000  1.0 -0.180518166
C  C340  1  0.09670000  0.52810000  0.02330000  1.0 -0.180518166
C  C341  1  0.52660000  0.89880000  0.52440000  1.0 -0.180518166
C  C342  1  0.10120000  0.47340000  0.02440000  1.0 -0.180518166
C  C343  1  0.91650000  0.04550000  0.76990000  1.0 -0.1495162515
C  C344  1  0.95450000  0.08350000  0.26990000  1.0 -0.1495162515
C  C345  1  0.85480000  0.98160000  0.76280000  1.0 0.0695904891
C  C346  1  0.01840000  0.14520000  0.26280000  1.0 0.0695904891
C  C347  1  0.84110000  0.92050000  0.77630000  1.0 -0.1404940792
C  C348  1  0.07950000  0.15890000  0.27630000  1.0 -0.1404940792
C  C349  1  0.88880000  0.92320000  0.79690000  1.0 -0.0904538574
C  C350  1  0.07680000  0.11120000  0.29690000  1.0 -0.0904538574
C  C351  1  0.95050000  0.98710000  0.80410000  1.0 -0.0284782654
C  C352  1  0.01290000  0.04950000  0.30410000  1.0 -0.0284782654
C  C353  1  0.96440000  0.04820000  0.79060000  1.0 -0.0904538574
C  C354  1  0.95180000  0.03560000  0.29060000  1.0 -0.0904538574
C  C355  1  0.77810000  0.90910000  0.47019000  1.0 0.0791646229
C  C356  1  0.09090000  0.22190000  0.97019000  1.0 0.0791646229
C  C357  1  0.76160000  0.84620000  0.45960000  1.0 -0.1495162515
C  C358  1  0.15380000  0.23840000  0.95960000  1.0 -0.1495162515
C  C359  1  0.80446000  0.84614000  0.43870000  1.0 -0.0904538574
C  C360  1  0.15386000  0.19554000  0.93870000  1.0 -0.0904538574
C  C361  1  0.86380000  0.90880000  0.42856000  1.0 0.0074452438
C  C362  1  0.09120000  0.13620000  0.92856000  1.0 0.0074452438
C  C363  1  0.88040000  0.97160000  0.43920000  1.0 -0.0904538574
C  C364  1  0.02840000  0.11960000  0.93920000  1.0 -0.0904538574
C  C365  1  0.83750000  0.97170000  0.46000000  1.0 -0.1404940792
C  C366  1  0.02830000  0.16250000  0.96000000  1.0 -0.1404940792
C  C367  1  0.60010000  0.96310000  0.68470000  1.0 0.1510040985
C  C368  1  0.03690000  0.39990000  0.18470000  1.0 0.1510040985
C  C369  1  0.45140000  0.96820000  0.67620000  1.0 -0.0478911135
C  C370  1  0.03180000  0.54860000  0.17620000  1.0 -0.0478911135
C  C371  1  0.27322000  0.92098000  0.49884000  1.0 0.0638389095
C  C372  1  0.07902000  0.72678000  0.99884000  1.0 0.0638389095
C  C373  1  0.27010000  0.86110000  0.50566000  1.0 -0.1203461296
C  C374  1  0.13890000  0.72990000  0.00566000  1.0 -0.1203461296
C  C375  1  0.31710000  0.86350000  0.52671000  1.0 -0.1203461296
C  C376  1  0.13650000  0.68290000  0.02671000  1.0 -0.1203461296
C  C377  1  0.36731000  0.92569000  0.54093000  1.0 0.0891655961
C  C378  1  0.07431000  0.63269000  0.04093000  1.0 0.0891655961
C  C379  1  0.37050000  0.98550000  0.53411000  1.0 -0.1495162515
C  C380  1  0.01450000  0.62950000  0.03411000  1.0 -0.1495162515
C  C381  1  0.32343000  0.98317000  0.51310000  1.0 -0.1404940792
C  C382  1  0.01683000  0.67657000  0.01310000  1.0 -0.1404940792
C  C383  1  0.36805000  0.03295000  0.72130000  1.0 -0.1311999866
C  C384  1  0.96705000  0.63195000  0.22130000  1.0 -0.1311999866
C  C385  1  0.40580000  0.02740000  0.69958000  1.0 -0.1311999866
C  C386  1  0.97260000  0.59420000  0.19958000  1.0 -0.1311999866
C  C387  1  0.40990000  0.97090000  0.70067000  1.0 0.0791646229
C  C388  1  0.02910000  0.59010000  0.20067000  1.0 0.0791646229
C  C389  1  0.37610000  0.91990000  0.72350000  1.0 -0.1311999866
C  C390  1  0.08010000  0.62390000  0.22350000  1.0 -0.1311999866
C  C391  1  0.33840000  0.92540000  0.74528000  1.0 -0.1404940792
C  C392  1  0.07460000  0.66160000  0.24528000  1.0 -0.1404940792
C  C393  1  0.33430000  0.98190000  0.74420000  1.0 0.0695904891
C  C394  1  0.01810000  0.66570000  0.24420000  1.0 0.0695904891
C  C395  1  0.71830000  0.94670000  0.60150000  1.0 -0.1584393089
C  C396  1  0.05330000  0.28170000  0.10150000  1.0 -0.1584393089
C  C397  1  0.66030000  0.96830000  0.67440000  1.0 -0.0284782654
C  C398  1  0.03170000  0.33970000  0.17440000  1.0 -0.0284782654
C  C399  1  0.59070000  0.97190000  0.71550000  1.0 -0.1584393089
C  C400  1  0.02810000  0.40930000  0.21550000  1.0 -0.1584393089
C  C401  1  0.28870000  0.98570000  0.76493000  1.0 0.0791646229
C  C402  1  0.01430000  0.71130000  0.26493000  1.0 0.0791646229
C  C403  1  0.30370000  0.05030000  0.77150000  1.0 -0.1404940792
C  C404  1  0.94970000  0.69630000  0.27150000  1.0 -0.1404940792
C  C405  1  0.26360000  0.05500000  0.79220000  1.0 -0.0986578777
C  C406  1  0.94500000  0.73640000  0.29220000  1.0 -0.0986578777
C  C407  1  0.20840000  0.99500000  0.80641000  1.0 0.0161392655
C  C408  1  0.00500000  0.79160000  0.30641000  1.0 0.0161392655
C  C409  1  0.19350000  0.93030000  0.79990000  1.0 -0.0986578777
C  C410  1  0.06970000  0.80650000  0.29990000  1.0 -0.0986578777
C  C411  1  0.23350000  0.92570000  0.77910000  1.0 -0.1404940792
C  C412  1  0.07430000  0.76650000  0.27910000  1.0 -0.1404940792
C  C413  1  0.71450000  0.97570000  0.69600000  1.0 0.0695904891
C  C414  1  0.02430000  0.28550000  0.19600000  1.0 0.0695904891
C  C415  1  0.78400000  0.03260000  0.69690000  1.0 -0.1404940792
C  C416  1  0.96740000  0.21600000  0.19690000  1.0 -0.1404940792
C  C417  1  0.82910000  0.03530000  0.71920000  1.0 -0.1404940792
C  C418  1  0.96470000  0.17090000  0.21920000  1.0 -0.1404940792
C  C419  1  0.80470000  0.98110000  0.74062000  1.0 0.0695904891
C  C420  1  0.01890000  0.19530000  0.24062000  1.0 0.0695904891
C  C421  1  0.73500000  0.92420000  0.73970000  1.0 -0.1404940792
C  C422  1  0.07580000  0.26500000  0.23970000  1.0 -0.1404940792
C  C423  1  0.68990000  0.92150000  0.71740000  1.0 -0.1404940792
C  C424  1  0.07850000  0.31010000  0.21740000  1.0 -0.1404940792
C  C425  1  0.53530000  0.97610000  0.71490000  1.0 -0.1890763957
C  C426  1  0.02390000  0.46470000  0.21490000  1.0 -0.1890763957
C  C427  1  0.16540000  0.99940000  0.83070000  1.0 0.5206555672
C  C428  1  0.00060000  0.83460000  0.33070000  1.0 0.5206555672
C  C429  1  0.08040000  0.91340000  0.41280000  1.0 0.5302123003
C  C430  1  0.08660000  0.91960000  0.91280000  1.0 0.5302123003
C  C431  1  0.91510000  0.91530000  0.40570000  1.0 0.5302123003
C  C432  1  0.08470000  0.08490000  0.90570000  1.0 0.5302123003
C  C433  1  0.43960000  0.77100000  0.96040000  1.0 0.5382835068
C  C434  1  0.22900000  0.56040000  0.46040000  1.0 0.5382835068
C  C435  1  0.69080000  0.73840000  0.77100000  1.0 0.1393654209
C  C436  1  0.26160000  0.30920000  0.27100000  1.0 0.1510040985
C  C437  1  0.15180000  0.64980000  0.53070000  1.0 0.5040161409
C  C438  1  0.35020000  0.84820000  0.03070000  1.0 0.5068645873
C  C439  1  0.62690000  0.72770000  0.76050000  1.0 -0.180518166
C  C440  1  0.27230000  0.37310000  0.26050000  1.0 -0.180518166
C  C441  1  0.91900000  0.71260000  0.76860000  1.0 0.1700368084
C  C442  1  0.28740000  0.08100000  0.26860000  1.0 0.1785123215
C  C443  1  0.76980000  0.74120000  0.80970000  1.0 0.1863540111
C  C444  1  0.25880000  0.23020000  0.30970000  1.0 0.1863540111
C  C445  1  0.91030000  0.71910000  0.79940000  1.0 -0.0904538574
C  C446  1  0.28090000  0.08970000  0.29940000  1.0 -0.0904538574
C  C447  1  0.49370000  0.74190000  0.58270000  1.0 -0.1404940792
C  C448  1  0.25810000  0.50630000  0.08270000  1.0 -0.1404940792
C  C449  1  0.44282000  0.73298000  0.56202000  1.0 -0.0904538574
C  C450  1  0.26702000  0.55718000  0.06202000  1.0 -0.0904538574
C  C451  1  0.37883000  0.66837000  0.55979000  1.0 0.0074452438
C  C452  1  0.33163000  0.62117000  0.05979000  1.0 0.0074452438
C  C453  1  0.36570000  0.61270000  0.57820000  1.0 -0.0904538574
C  C454  1  0.38730000  0.63430000  0.07820000  1.0 -0.0904538574
C  C455  1  0.41650000  0.62150000  0.59885000  1.0 -0.1404940792
C  C456  1  0.37850000  0.58350000  0.09885000  1.0 -0.1404940792
C  C457  1  0.48050000  0.68610000  0.60108000  1.0 0.0791646229
C  C458  1  0.31390000  0.51950000  0.10108000  1.0 0.0791646229
C  C459  1  0.85900000  0.72920000  0.80940000  1.0 0.1700368084
C  C460  1  0.27080000  0.14100000  0.30940000  1.0 0.1700368084
C  C461  1  0.95920000  0.72320000  0.82277000  1.0 0.0695904891
C  C462  1  0.27680000  0.04080000  0.32277000  1.0 0.0695904891
C  C463  1  0.96080000  0.66600000  0.82940000  1.0 -0.1404940792
C  C464  1  0.33400000  0.03920000  0.32940000  1.0 -0.1404940792
C  C465  1  0.00870000  0.67130000  0.85090000  1.0 -0.1311999866
C  C466  1  0.32870000  0.99130000  0.35090000  1.0 -0.1311999866
C  C467  1  0.05490000  0.73370000  0.86572000  1.0 0.0695904891
C  C468  1  0.26630000  0.94510000  0.36572000  1.0 0.0695904891
C  C469  1  0.05340000  0.79100000  0.85910000  1.0 -0.1311999866
C  C470  1  0.20900000  0.94660000  0.35910000  1.0 -0.1311999866
C  C471  1  0.00555000  0.78565000  0.83760000  1.0 -0.1203461296
C  C472  1  0.21435000  0.99445000  0.33760000  1.0 -0.1203461296
C  C473  1  0.10810000  0.73970000  0.88880000  1.0 0.0891655961
C  C474  1  0.26030000  0.89190000  0.38880000  1.0 0.0891655961
C  C475  1  0.09120000  0.68120000  0.90610000  1.0 -0.1404940792
C  C476  1  0.31880000  0.90880000  0.40610000  1.0 -0.1404940792
C  C477  1  0.13960000  0.68540000  0.92680000  1.0 -0.0986578777
C  C478  1  0.31460000  0.86040000  0.42680000  1.0 -0.0986578777
C  C479  1  0.20500000  0.74820000  0.93030000  1.0 -0.0126503167
C  C480  1  0.25180000  0.79500000  0.43030000  1.0 -0.0126503167
C  C481  1  0.22200000  0.80660000  0.91310000  1.0 -0.0904538574
C  C482  1  0.19340000  0.77800000  0.41310000  1.0 -0.0904538574
C  C483  1  0.17350000  0.80250000  0.89230000  1.0 -0.1404940792
C  C484  1  0.19750000  0.82650000  0.39230000  1.0 -0.1404940792
C  C485  1  0.96560000  0.69900000  0.72800000  1.0 -0.1704860044
C  C486  1  0.30100000  0.03440000  0.22800000  1.0 -0.1704860044
C  C487  1  0.73250000  0.69990000  0.68040000  1.0 0.1996304564
C  C488  1  0.30010000  0.26750000  0.18040000  1.0 0.1996304564
C  C489  1  0.32212000  0.65548000  0.53620000  1.0 0.5206555672
C  C490  1  0.34452000  0.67788000  0.03620000  1.0 0.5206555672
C  C491  1  0.97310000  0.70590000  0.75890000  1.0 -0.1704860044
C  C492  1  0.29410000  0.02690000  0.25890000  1.0 -0.1704860044
C  C493  1  0.74820000  0.69740000  0.64830000  1.0 -0.1890763957
C  C494  1  0.30260000  0.25180000  0.14830000  1.0 -0.1890763957
C  C495  1  0.71510000  0.74150000  0.79980000  1.0 -0.0986578777
C  C496  1  0.25850000  0.28490000  0.29980000  1.0 -0.0986578777
C  C497  1  0.82700000  0.69960000  0.67790000  1.0 0.1510040985
C  C498  1  0.30040000  0.17300000  0.17790000  1.0 0.1609793008
C  C499  1  0.92040000  0.68420000  0.66580000  1.0 0.0891655961
C  C500  1  0.31580000  0.07960000  0.16580000  1.0 0.0891655961
C  C501  1  0.90960000  0.62100000  0.66000000  1.0 -0.1495162515
C  C502  1  0.37900000  0.09040000  0.16000000  1.0 -0.1495162515
C  C503  1  0.94590000  0.61710000  0.63690000  1.0 -0.1404940792
C  C504  1  0.38290000  0.05410000  0.13690000  1.0 -0.1404940792
C  C505  1  0.99300000  0.67620000  0.61960000  1.0 0.0695904891
C  C506  1  0.32380000  0.00700000  0.11960000  1.0 0.0695904891
C  C507  1  0.00380000  0.73940000  0.62540000  1.0 -0.1495162515
C  C508  1  0.26060000  0.99620000  0.12540000  1.0 -0.1495162515
C  C509  1  0.96760000  0.74340000  0.64850000  1.0 -0.1495162515
C  C510  1  0.25660000  0.03240000  0.14850000  1.0 -0.1495162515
C  C511  1  0.88100000  0.69620000  0.68890000  1.0 -0.0904538574
C  C512  1  0.30380000  0.11900000  0.18890000  1.0 -0.0904538574
C  C513  1  0.68120000  0.72440000  0.72120000  1.0 0.2284687184
C  C514  1  0.27560000  0.31880000  0.22120000  1.0 0.2284687184
C  C515  1  0.59990000  0.75250000  0.86950000  1.0 0.0638389095
C  C516  1  0.24750000  0.40010000  0.36950000  1.0 0.0638389095
C  C517  1  0.58750000  0.68870000  0.86330000  1.0 -0.1404940792
C  C518  1  0.31130000  0.41250000  0.36330000  1.0 -0.1404940792
C  C519  1  0.62480000  0.68480000  0.84080000  1.0 -0.1495162515
C  C520  1  0.31520000  0.37520000  0.34080000  1.0 -0.1495162515
C  C521  1  0.67470000  0.74450000  0.82450000  1.0 0.0891655961
C  C522  1  0.25550000  0.32530000  0.32450000  1.0 0.0891655961
C  C523  1  0.68720000  0.80820000  0.83070000  1.0 -0.1404940792
C  C524  1  0.19180000  0.31280000  0.33070000  1.0 -0.1404940792
C  C525  1  0.64970000  0.81210000  0.85320000  1.0 -0.1311999866
C  C526  1  0.18790000  0.35030000  0.35320000  1.0 -0.1311999866
C  C527  1  0.62110000  0.72450000  0.72870000  1.0 -0.1704860044
C  C528  1  0.27550000  0.37890000  0.22870000  1.0 -0.1704860044
C  C529  1  0.90550000  0.70010000  0.71820000  1.0 0.1609793008
C  C530  1  0.29990000  0.09450000  0.21820000  1.0 0.1700368084
C  C531  1  0.84530000  0.73610000  0.84070000  1.0 -0.1404940792
C  C532  1  0.26390000  0.15470000  0.34070000  1.0 -0.1404940792
C  C533  1  0.80570000  0.69630000  0.64730000  1.0 -0.1584393089
C  C534  1  0.30370000  0.19430000  0.14730000  1.0 -0.1584393089
C  C535  1  0.53760000  0.69620000  0.62353000  1.0 0.0695904891
C  C536  1  0.30380000  0.46240000  0.12353000  1.0 0.0695904891
C  C537  1  0.54160000  0.64040000  0.62960000  1.0 -0.1111092619
C  C538  1  0.35960000  0.45840000  0.12960000  1.0 -0.1111092619
C  C539  1  0.59091000  0.64709000  0.65060000  1.0 -0.1311999866
C  C540  1  0.35291000  0.40909000  0.15060000  1.0 -0.1311999866
C  C541  1  0.63640000  0.70980000  0.66544000  1.0 0.0791646229
C  C542  1  0.29020000  0.36360000  0.16544000  1.0 0.0791646229
C  C543  1  0.63240000  0.76560000  0.65930000  1.0 -0.1584393089
C  C544  1  0.23440000  0.36760000  0.15930000  1.0 -0.1584393089
C  C545  1  0.58295000  0.75885000  0.63840000  1.0 -0.1404940792
C  C546  1  0.24115000  0.41705000  0.13840000  1.0 -0.1404940792
C  C547  1  0.68780000  0.71720000  0.68950000  1.0 -0.1203461296
C  C548  1  0.28280000  0.31220000  0.18950000  1.0 -0.1111092619
C  C549  1  0.45290000  0.70730000  0.91940000  1.0 -0.0904538574
C  C550  1  0.29270000  0.54710000  0.41940000  1.0 -0.0904538574
C  C551  1  0.48060000  0.76820000  0.93520000  1.0 0.0004281819
C  C552  1  0.23180000  0.51940000  0.43520000  1.0 0.0004281819
C  C553  1  0.54840000  0.82580000  0.92990000  1.0 -0.0904538574
C  C554  1  0.17420000  0.45160000  0.42990000  1.0 -0.0904538574
C  C555  1  0.58860000  0.82240000  0.90880000  1.0 -0.1584393089
C  C556  1  0.17760000  0.41140000  0.40880000  1.0 -0.1584393089
C  C557  1  0.56090000  0.76130000  0.89290000  1.0 0.0791646229
C  C558  1  0.23870000  0.43910000  0.39290000  1.0 0.0791646229
C  C559  1  0.49310000  0.70370000  0.89820000  1.0 -0.1495162515
C  C560  1  0.29630000  0.50690000  0.39820000  1.0 -0.1495162515
C  C561  1  0.00550000  0.60050000  0.58350000  1.0 -0.1495162515
C  C562  1  0.39950000  0.99450000  0.08350000  1.0 -0.1495162515
C  C563  1  0.03030000  0.66530000  0.59500000  1.0 0.0791646229
C  C564  1  0.33470000  0.96970000  0.09500000  1.0 0.0791646229
C  C565  1  0.09270000  0.72470000  0.58470000  1.0 -0.1495162515
C  C566  1  0.27530000  0.90730000  0.08470000  1.0 -0.1495162515
C  C567  1  0.13040000  0.71920000  0.56290000  1.0 -0.0904538574
C  C568  1  0.28080000  0.86960000  0.06290000  1.0 -0.0904538574
C  C569  1  0.10560000  0.65440000  0.55140000  1.0 -0.0023233048
C  C570  1  0.34560000  0.89440000  0.05140000  1.0 -0.0023233048
C  C571  1  0.04320000  0.59500000  0.56170000  1.0 -0.0904538574
C  C572  1  0.40500000  0.95680000  0.06170000  1.0 -0.0904538574
C  C573  1  0.79190000  0.74010000  0.84030000  1.0 -0.180518166
C  C574  1  0.25990000  0.20810000  0.34030000  1.0 -0.180518166
C  C575  1  0.25780000  0.75300000  0.95230000  1.0 0.5302123003
C  C576  1  0.24700000  0.74220000  0.45230000  1.0 0.5302123003
N  N1  1  0.34740000  0.22440000  0.73560000  1.0 -0.3711505648
N  N2  1  0.77560000  0.65260000  0.23560000  1.0 -0.3711505648
N  N3  1  0.32710000  0.20130000  0.64050000  1.0 -0.380248215
N  N4  1  0.79870000  0.67290000  0.14050000  1.0 -0.380248215
N  N5  1  0.25060000  0.21140000  0.68910000  1.0 -0.390471717
N  N6  1  0.78860000  0.74940000  0.18910000  1.0 -0.390471717
N  N7  1  0.42770000  0.20570000  0.68860000  1.0 -0.3711505648
N  N8  1  0.79430000  0.57230000  0.18860000  1.0 -0.3711505648
N  N9  1  0.99960000  0.48220000  0.88750000  1.0 -0.3511560412
N  N10  1  0.51780000  0.00040000  0.38750000  1.0 -0.3511560412
N  N11  1  0.90340000  0.47600000  0.84000000  1.0 -0.3564105086
N  N12  1  0.52400000  0.09660000  0.34000000  1.0 -0.3564105086
N  N13  1  0.07150000  0.46090000  0.84030000  1.0 -0.380248215
N  N14  1  0.53910000  0.92850000  0.34030000  1.0 -0.3711505648
N  N15  1  0.97060000  0.44800000  0.79170000  1.0 -0.3428049884
N  N16  1  0.55200000  0.02940000  0.29170000  1.0 -0.3428049884
N  N17  1  0.62300000  0.94500000  0.61730000  1.0 -0.4201747529
N  N18  1  0.05500000  0.37700000  0.11730000  1.0 -0.4201747529
N  N19  1  0.52050000  0.93150000  0.57090000  1.0 -0.380248215
N  N20  1  0.06850000  0.47950000  0.07090000  1.0 -0.380248215
N  N21  1  0.45280000  0.94920000  0.61940000  1.0 -0.4385864978
N  N22  1  0.05080000  0.54720000  0.11940000  1.0 -0.4385864978
N  N23  1  0.54890000  0.95970000  0.66600000  1.0 -0.3998907037
N  N24  1  0.04030000  0.45110000  0.16600000  1.0 -0.3998907037
N  N25  1  0.80710000  0.73210000  0.79050000  1.0 -0.4201747529
N  N26  1  0.26790000  0.19290000  0.29050000  1.0 -0.4201747529
N  N27  1  0.78610000  0.70610000  0.69690000  1.0 -0.3998907037
N  N28  1  0.29390000  0.21390000  0.19690000  1.0 -0.3998907037
N  N29  1  0.87920000  0.70800000  0.74420000  1.0 -0.4106137358
N  N30  1  0.29200000  0.12080000  0.24420000  1.0 -0.4106137358
N  N31  1  0.72160000  0.73340000  0.74340000  1.0 -0.390471717
N  N32  1  0.26660000  0.27840000  0.24340000  1.0 -0.390471717
O  O1  1  0.76330000  0.17130000  0.91190000  1.0 -0.5187526963
O  O2  1  0.82870000  0.23670000  0.41190000  1.0 -0.5116675846
O  O3  1  0.89450000  0.17750000  0.90440000  1.0 -0.4509398468
O  O4  1  0.82250000  0.10550000  0.40440000  1.0 -0.4509398468
O  O5  1  0.96530000  0.27490000  0.91840000  1.0 -0.4300110422
O  O6  1  0.72510000  0.03470000  0.41840000  1.0 -0.4300110422
O  O7  1  0.84220000  0.28500000  0.90420000  1.0 -0.5116675846
O  O8  1  0.71500000  0.15780000  0.40420000  1.0 -0.5116675846
O  O9  1  0.40500000  0.32500000  0.67910000  1.0 -0.206396421
O  O10  1  0.67500000  0.59500000  0.17910000  1.0 -0.206396421
O  O11  1  0.81350000  0.10290000  0.47670000  1.0 -0.390471717
O  O12  1  0.89710000  0.18650000  0.97670000  1.0 -0.390471717
O  O13  1  0.76400000  0.20860000  0.46940000  1.0 -0.5369374059
O  O14  1  0.79140000  0.23600000  0.96940000  1.0 -0.5369374059
O  O15  1  0.88620000  0.18780000  0.45810000  1.0 -0.3110604785
O  O16  1  0.81220000  0.11380000  0.95810000  1.0 -0.3110604785
O  O17  1  0.68630000  0.09310000  0.46780000  1.0 -0.5481524271
O  O18  1  0.90690000  0.31370000  0.96780000  1.0 -0.5569066129
O  O19  1  0.25360000  0.07280000  0.69390000  1.0 -0.3511560412
O  O20  1  0.92720000  0.74640000  0.19390000  1.0 -0.3511560412
O  O21  1  0.51870000  0.59370000  0.05280000  1.0 -0.5187526963
O  O22  1  0.40630000  0.48130000  0.55280000  1.0 -0.5116675846
O  O23  1  0.55970000  0.50090000  0.61470000  1.0 -0.5671154462
O  O24  1  0.49910000  0.44030000  0.11470000  1.0 -0.5671154462
O  O25  1  0.34410000  0.38030000  0.61150000  1.0 -0.4509398468
O  O26  1  0.61970000  0.65590000  0.11150000  1.0 -0.4509398468
O  O27  1  0.65370000  0.59990000  0.05970000  1.0 -0.4888109766
O  O28  1  0.40010000  0.34630000  0.55970000  1.0 -0.4888109766
O  O29  1  0.57340000  0.48620000  0.05550000  1.0 -0.5116675846
O  O30  1  0.51380000  0.42660000  0.55550000  1.0 -0.5116675846
O  O31  1  0.44330000  0.48190000  0.06740000  1.0 -0.5187526963
O  O32  1  0.51810000  0.55670000  0.56740000  1.0 -0.5187526963
O  O33  1  0.48120000  0.38820000  0.62433000  1.0 -0.4300110422
O  O34  1  0.61180000  0.51880000  0.12433000  1.0 -0.4300110422
O  O35  1  0.91630000  0.34970000  0.85130000  1.0 -0.2607977144
O  O36  1  0.65030000  0.08370000  0.35130000  1.0 -0.2607977144
O  O37  1  0.06990000  0.58230000  0.82950000  1.0 -0.4385864978
O  O38  1  0.41770000  0.93010000  0.32950000  1.0 -0.4385864978
O  O39  1  0.42320000  0.48380000  0.62470000  1.0 -0.4684096552
O  O40  1  0.51620000  0.57680000  0.12470000  1.0 -0.4684096552
O  O41  1  0.02230000  0.85850000  0.40870000  1.0 -0.4888109766
O  O42  1  0.14150000  0.97770000  0.90870000  1.0 -0.4888109766
O  O43  1  0.97200000  0.96720000  0.40210000  1.0 -0.4684096552
O  O44  1  0.03280000  0.02800000  0.90210000  1.0 -0.4684096552
O  O45  1  0.11100000  0.94820000  0.83770000  1.0 -0.4612543834
O  O46  1  0.05180000  0.88900000  0.33770000  1.0 -0.4612543834
O  O47  1  0.97770000  0.93430000  0.84310000  1.0 -0.4612543834
O  O48  1  0.06570000  0.02230000  0.34310000  1.0 -0.4612543834
O  O49  1  0.09730000  0.96490000  0.39620000  1.0 -0.4806003921
O  O50  1  0.03510000  0.90270000  0.89620000  1.0 -0.4806003921
O  O51  1  0.89400000  0.85860000  0.39240000  1.0 -0.5116675846
O  O52  1  0.14140000  0.10600000  0.89240000  1.0 -0.5116675846
O  O53  1  0.05400000  0.04260000  0.83110000  1.0 -0.5187526963
O  O54  1  0.95740000  0.94600000  0.33110000  1.0 -0.5187526963
O  O55  1  0.19520000  0.06360000  0.84100000  1.0 -0.5569066129
O  O56  1  0.93640000  0.80480000  0.34100000  1.0 -0.5569066129
O  O57  1  0.62983000  0.08817000  0.61084000  1.0 -0.3511560412
O  O58  1  0.91183000  0.37017000  0.11084000  1.0 -0.3511560412
O  O59  1  0.46220000  0.82980000  0.63150000  1.0 -0.1704860044
O  O60  1  0.17020000  0.53780000  0.13150000  1.0 -0.1704860044
O  O61  1  0.31860000  0.81260000  0.95580000  1.0 -0.5569066129
O  O62  1  0.18740000  0.68140000  0.45580000  1.0 -0.5569066129
O  O63  1  0.37520000  0.71780000  0.96030000  1.0 -0.5481524271
O  O64  1  0.28220000  0.62480000  0.46030000  1.0 -0.5481524271
O  O65  1  0.26650000  0.60230000  0.53390000  1.0 -0.4385864978
O  O66  1  0.39770000  0.73350000  0.03390000  1.0 -0.4385864978
O  O67  1  0.20910000  0.70130000  0.52670000  1.0 -0.4385864978
O  O68  1  0.29870000  0.79090000  0.02670000  1.0 -0.4300110422
O  O69  1  0.46120000  0.82320000  0.97400000  1.0 -0.4612543834
O  O70  1  0.17680000  0.53880000  0.47400000  1.0 -0.4612543834
O  O71  1  0.33990000  0.70890000  0.51890000  1.0 -0.5187526963
O  O72  1  0.29110000  0.66010000  0.01890000  1.0 -0.5187526963
O  O73  1  0.13560000  0.59780000  0.52040000  1.0 -0.3711505648
O  O74  1  0.40220000  0.86440000  0.02040000  1.0 -0.3711505648
O  O75  1  0.23970000  0.69910000  0.96770000  1.0 -0.5187526963
O  O76  1  0.30090000  0.76030000  0.46770000  1.0 -0.5187526963
O  O77  1  0.89080000  0.84920000  0.73110000  1.0 -0.1890763957
O  O78  1  0.15080000  0.10920000  0.23110000  1.0 -0.2007463477
