# DDEC6 charges by PACMAN v1.1 (https://github.com/mtap-research/PACMAN-charge/)
data_COMGUH_FSR_pacman
_symmetry_space_group_name_H-M   'P 1'
_cell_length_a   8.64900000
_cell_length_b   14.76300000
_cell_length_c   16.03300000
_cell_angle_alpha   104.34400000
_cell_angle_beta   97.34900000
_cell_angle_gamma   105.90700000
_symmetry_Int_Tables_number   1
_chemical_formula_structural   Na2Cd3H12C32O23
_chemical_formula_sum   'Na4 Cd6 H24 C64 O46'
_cell_volume   1864.81147426
_cell_formula_units_Z   2
loop_
 _symmetry_equiv_pos_site_id
 _symmetry_equiv_pos_as_xyz
  1  'x, y, z'
loop_
 _atom_site_type_symbol
 _atom_site_label
 _atom_site_symmetry_multiplicity
 _atom_site_fract_x
 _atom_site_fract_y
 _atom_site_fract_z
 _atom_site_occupancy
 _atom_site_charge
Na  Na1  1  0.76870000  0.76470000  0.13170000  1.0 0.8361254612
Na  Na2  1  0.23130000  0.23530000  0.86830000  1.0 0.8342021981
Na  Na3  1  0.60510000  0.87540000  0.35190000  1.0 0.8603712002
Na  Na4  1  0.39490000  0.12460000  0.64810000  1.0 0.8603712002
Cd  Cd1  1  0.76379000  0.46542000  0.99816000  1.0 1.0332075039
Cd  Cd2  1  0.23621000  0.53458000  0.00184000  1.0 1.0332075039
Cd  Cd3  1  0.32799000  0.81269000  0.13929000  1.0 1.0525418201
Cd  Cd4  1  0.67201000  0.18731000  0.86071000  1.0 1.0525418201
Cd  Cd5  1  0.74416000  0.04198000  0.56738000  1.0 1.0062263885
Cd  Cd6  1  0.25584000  0.95802000  0.43262000  1.0 1.0062263885
H  H1  1  0.64800000  0.43120000  0.24900000  1.0 0.1316183226
H  H2  1  0.35200000  0.56880000  0.75100000  1.0 0.1316183226
H  H3  1  0.45470000  0.56190000  0.44030000  1.0 0.1316183226
H  H4  1  0.54530000  0.43810000  0.55970000  1.0 0.1316183226
H  H5  1  0.40350000  0.66280000  0.35880000  1.0 0.1228616776
H  H6  1  0.59650000  0.33720000  0.64120000  1.0 0.1228616776
H  H7  1  0.64940000  0.30970000  0.47660000  1.0 0.1377809027
H  H8  1  0.35060000  0.69030000  0.52340000  1.0 0.1377809027
H  H9  1  0.38290000  0.30720000  0.24960000  1.0 0.1316183226
H  H10  1  0.61710000  0.69280000  0.75040000  1.0 0.1316183226
H  H11  1  0.31600000  0.13720000  0.19970000  1.0 0.1228616776
H  H12  1  0.68400000  0.86280000  0.80030000  1.0 0.1228616776
H  H13  1  0.14360000  0.48350000  0.28210000  1.0 0.1377809027
H  H14  1  0.85640000  0.51650000  0.71790000  1.0 0.1377809027
H  H15  1  0.84290000  0.23850000  0.31610000  1.0 0.1316183226
H  H16  1  0.15710000  0.76150000  0.68390000  1.0 0.1316183226
H  H17  1  0.72640000  0.18510000  0.16680000  1.0 0.1228616776
H  H18  1  0.27360000  0.81490000  0.83320000  1.0 0.1228616776
H  H19  1  0.13320000  0.23880000  0.38400000  1.0 0.1316183226
H  H20  1  0.86680000  0.76120000  0.61600000  1.0 0.1316183226
H  H21  1  0.02290000  0.44670000  0.55220000  1.0 0.1316183226
H  H22  1  0.97710000  0.55330000  0.44780000  1.0 0.1316183226
H  H23  1  0.02760000  0.36160000  0.65740000  1.0 0.1228616776
H  H24  1  0.97240000  0.63840000  0.34260000  1.0 0.1228616776
C  C1  1  0.63170000  0.52600000  0.13700000  1.0 0.562130618
C  C2  1  0.36830000  0.47400000  0.86300000  1.0 0.562130618
C  C3  1  0.56770000  0.53760000  0.22220000  1.0 0.006372748
C  C4  1  0.43230000  0.46240000  0.77780000  1.0 0.006372748
C  C5  1  0.59640000  0.47710000  0.27020000  1.0 -0.2287742069
C  C6  1  0.40360000  0.52290000  0.72980000  1.0 -0.2287742069
C  C7  1  0.54830000  0.48400000  0.35180000  1.0 0.2522219697
C  C8  1  0.45170000  0.51600000  0.64820000  1.0 0.2522219697
C  C9  1  0.48100000  0.55470000  0.38510000  1.0 -0.2067826733
C  C10  1  0.51900000  0.44530000  0.61490000  1.0 -0.2067826733
C  C11  1  0.45190000  0.61570000  0.33620000  1.0 -0.0889140329
C  C12  1  0.54810000  0.38430000  0.66380000  1.0 -0.0955632126
C  C13  1  0.49270000  0.60890000  0.25410000  1.0 -0.0604142605
C  C14  1  0.50730000  0.39110000  0.74590000  1.0 -0.0604142605
C  C15  1  0.44300000  0.67090000  0.20070000  1.0 0.5711299856
C  C16  1  0.55700000  0.32910000  0.79930000  1.0 0.5711299856
C  C17  1  0.60110000  0.12470000  0.45480000  1.0 0.562130618
C  C18  1  0.39890000  0.87530000  0.54520000  1.0 0.562130618
C  C19  1  0.53760000  0.17250000  0.39140000  1.0 -0.006861963
C  C20  1  0.46240000  0.82750000  0.60860000  1.0 -0.006861963
C  C21  1  0.58290000  0.27480000  0.42120000  1.0 -0.2287742069
C  C22  1  0.41710000  0.72520000  0.57880000  1.0 -0.2287742069
C  C23  1  0.52600000  0.32430000  0.36560000  1.0 0.259178696
C  C24  1  0.47400000  0.67570000  0.63440000  1.0 0.259178696
C  C25  1  0.42400000  0.27360000  0.28430000  1.0 -0.2382405346
C  C26  1  0.57600000  0.72640000  0.71570000  1.0 -0.2382405346
C  C27  1  0.38350000  0.17180000  0.25490000  1.0 -0.0717129355
C  C28  1  0.61650000  0.82820000  0.74510000  1.0 -0.0717129355
C  C29  1  0.44340000  0.12000000  0.30780000  1.0 -0.0804783474
C  C30  1  0.55660000  0.88000000  0.69220000  1.0 -0.0804783474
C  C31  1  0.39340000  0.00930000  0.27410000  1.0 0.5711299856
C  C32  1  0.60660000  0.99070000  0.72590000  1.0 0.5711299856
C  C33  1  0.06730000  0.44790000  0.11230000  1.0 0.5500092188
C  C34  1  0.93270000  0.55210000  0.88770000  1.0 0.5500092188
C  C35  1  0.99340000  0.38780000  0.16890000  1.0 0.006372748
C  C36  1  0.00660000  0.61220000  0.83110000  1.0 0.006372748
C  C37  1  0.06130000  0.42280000  0.25870000  1.0 -0.2457669249
C  C38  1  0.93870000  0.57720000  0.74130000  1.0 -0.2457669249
C  C39  1  0.00500000  0.36610000  0.31380000  1.0 0.259178696
C  C40  1  0.99500000  0.63390000  0.68620000  1.0 0.259178696
C  C41  1  0.88010000  0.27630000  0.27980000  1.0 -0.2382405346
C  C42  1  0.11990000  0.72370000  0.72020000  1.0 -0.2382405346
C  C43  1  0.81180000  0.24440000  0.18990000  1.0 -0.0804783474
C  C44  1  0.18820000  0.75560000  0.81010000  1.0 -0.0804783474
C  C45  1  0.86620000  0.29750000  0.13420000  1.0 -0.0804783474
C  C46  1  0.13380000  0.70250000  0.86580000  1.0 -0.0804783474
C  C47  1  0.79110000  0.25740000  0.03790000  1.0 0.5711299856
C  C48  1  0.20890000  0.74260000  0.96210000  1.0 0.5711299856
C  C49  1  0.14880000  0.11530000  0.47390000  1.0 0.562130618
C  C50  1  0.85120000  0.88470000  0.52610000  1.0 0.562130618
C  C51  1  0.11420000  0.21010000  0.50010000  1.0 -0.0197993351
C  C52  1  0.88580000  0.78990000  0.49990000  1.0 -0.0197993351
C  C53  1  0.11140000  0.26300000  0.43900000  1.0 -0.2188891491
C  C54  1  0.88860000  0.73700000  0.56100000  1.0 -0.2188891491
C  C55  1  0.07720000  0.34940000  0.45920000  1.0 0.2305158356
C  C56  1  0.92280000  0.65060000  0.54080000  1.0 0.2305158356
C  C57  1  0.04640000  0.38750000  0.53940000  1.0 -0.2067826733
C  C58  1  0.95360000  0.61250000  0.46060000  1.0 -0.2067826733
C  C59  1  0.05050000  0.33660000  0.60280000  1.0 -0.0889140329
C  C60  1  0.94950000  0.66340000  0.39720000  1.0 -0.0889140329
C  C61  1  0.08850000  0.24910000  0.58430000  1.0 -0.0889140329
C  C62  1  0.91150000  0.75090000  0.41570000  1.0 -0.0889140329
C  C63  1  0.08660000  0.20300000  0.65600000  1.0 0.5779925862
C  C64  1  0.91340000  0.79700000  0.34400000  1.0 0.5779925862
O  O1  1  0.58820000  0.43780000  0.08600000  1.0 -0.4927112004
O  O2  1  0.41180000  0.56220000  0.91400000  1.0 -0.4927112004
O  O3  1  0.73090000  0.59510000  0.12290000  1.0 -0.5325301012
O  O4  1  0.26910000  0.40490000  0.87710000  1.0 -0.5325301012
O  O5  1  0.43400000  0.64580000  0.11900000  1.0 -0.5700330755
O  O6  1  0.56600000  0.35420000  0.88100000  1.0 -0.5700330755
O  O7  1  0.41620000  0.74670000  0.24160000  1.0 -0.5783740601
O  O8  1  0.58380000  0.25330000  0.75840000  1.0 -0.5783740601
O  O9  1  0.57840000  0.42540000  0.40180000  1.0 -0.2067826733
O  O10  1  0.42160000  0.57460000  0.59820000  1.0 -0.2067826733
O  O11  1  0.52490000  0.10890000  0.51390000  1.0 -0.612138323
O  O12  1  0.47510000  0.89110000  0.48610000  1.0 -0.6209890764
O  O13  1  0.73450000  0.10800000  0.45020000  1.0 -0.4927112004
O  O14  1  0.26550000  0.89200000  0.54980000  1.0 -0.4927112004
O  O15  1  0.41340000  0.96170000  0.32680000  1.0 -0.612138323
O  O16  1  0.58660000  0.03830000  0.67320000  1.0 -0.612138323
O  O17  1  0.33540000  0.96980000  0.19180000  1.0 -0.5200861862
O  O18  1  0.66460000  0.03020000  0.80820000  1.0 -0.5200861862
O  O19  1  0.02070000  0.51940000  0.10310000  1.0 -0.5525358042
O  O20  1  0.97930000  0.48060000  0.89690000  1.0 -0.5525358042
O  O21  1  0.18030000  0.42630000  0.07870000  1.0 -0.4605935535
O  O22  1  0.81970000  0.57370000  0.92130000  1.0 -0.4605935535
O  O23  1  0.81230000  0.31710000  0.99170000  1.0 -0.5700330755
O  O24  1  0.18770000  0.68290000  0.00830000  1.0 -0.5700330755
O  O25  1  0.71990000  0.16830000  0.00380000  1.0 -0.5072870871
O  O26  1  0.28010000  0.83170000  0.99620000  1.0 -0.5072870871
O  O27  1  0.08040000  0.40770000  0.40140000  1.0 -0.2188891491
O  O28  1  0.91960000  0.59230000  0.59860000  1.0 -0.2188891491
O  O29  1  0.14850000  0.07710000  0.39520000  1.0 -0.4956977984
O  O30  1  0.85150000  0.92290000  0.60480000  1.0 -0.4927112004
O  O31  1  0.17710000  0.07380000  0.53230000  1.0 -0.6209890764
O  O32  1  0.82290000  0.92620000  0.46770000  1.0 -0.6209890764
O  O33  1  0.94090000  0.16000000  0.66890000  1.0 -0.5200861862
O  O34  1  0.05910000  0.84000000  0.33110000  1.0 -0.5200861862
O  O35  1  0.21420000  0.21310000  0.70780000  1.0 -0.5955257734
O  O36  1  0.78580000  0.78690000  0.29220000  1.0 -0.5955257734
O  O37  1  0.06490000  0.75290000  0.16720000  1.0 -0.0604142605
O  O38  1  0.93510000  0.24710000  0.83280000  1.0 -0.0604142605
O  O39  1  0.60990000  0.88290000  0.13800000  1.0 -0.4385742268
O  O40  1  0.39010000  0.11710000  0.86200000  1.0 -0.4385742268
O  O41  1  0.97400000  0.93560000  0.14770000  1.0 0.0983829664
O  O42  1  0.02600000  0.06440000  0.85230000  1.0 0.0983829664
O  O43  1  0.69870000  0.73010000  0.97270000  1.0 -0.0268892434
O  O44  1  0.30130000  0.26990000  0.02730000  1.0 -0.0268892434
O  O45  1  0.79070000  0.00840000  0.29480000  1.0 0.1862571144
O  O46  1  0.20930000  0.99160000  0.70520000  1.0 0.1862571144
