# DDEC6 charges by PACMAN v1.1 (https://github.com/mtap-research/PACMAN-charge/)
data_COMNAU_ASR_pacman
_symmetry_space_group_name_H-M   'P 1'
_cell_length_a   31.20210000
_cell_length_b   31.20210000
_cell_length_c   31.20210000
_cell_angle_alpha   131.72400000
_cell_angle_beta   131.72400000
_cell_angle_gamma   70.66470000
_symmetry_Int_Tables_number   1
_chemical_formula_structural   Zn4H64C59S20O21
_chemical_formula_sum   'Zn32 H512 C472 S160 O168'
_cell_volume   16577.20686661
_cell_formula_units_Z   8
loop_
 _symmetry_equiv_pos_site_id
 _symmetry_equiv_pos_as_xyz
  1  'x, y, z'
loop_
 _atom_site_type_symbol
 _atom_site_label
 _atom_site_symmetry_multiplicity
 _atom_site_fract_x
 _atom_site_fract_y
 _atom_site_fract_z
 _atom_site_occupancy
 _atom_site_charge
Zn  Zn1  1  0.84741000  0.39090000  0.03609000  1.0 0.7424154408
Zn  Zn2  1  0.14090000  0.60481000  0.04349000  1.0 0.7424154408
Zn  Zn3  1  0.56132000  0.09741000  0.95651000  1.0 0.7424154408
Zn  Zn4  1  0.68868000  0.14519000  0.03609000  1.0 0.7424154408
Zn  Zn5  1  0.10910000  0.65259000  0.96391000  1.0 0.7424154408
Zn  Zn6  1  0.35481000  0.81132000  0.96391000  1.0 0.7424154408
Zn  Zn7  1  0.89519000  0.35910000  0.95651000  1.0 0.7424154408
Zn  Zn8  1  0.40259000  0.93868000  0.04349000  1.0 0.7424154408
Zn  Zn9  1  0.90259000  0.85910000  0.46391000  1.0 0.7424154408
Zn  Zn10  1  0.60910000  0.64519000  0.45651000  1.0 0.7424154408
Zn  Zn11  1  0.18868000  0.15259000  0.54349000  1.0 0.7424154408
Zn  Zn12  1  0.06132000  0.10481000  0.46391000  1.0 0.7424154408
Zn  Zn13  1  0.64090000  0.59741000  0.53609000  1.0 0.7424154408
Zn  Zn14  1  0.39519000  0.43868000  0.53609000  1.0 0.7424154408
Zn  Zn15  1  0.85481000  0.89090000  0.54349000  1.0 0.7424154408
Zn  Zn16  1  0.34741000  0.31132000  0.45651000  1.0 0.7424154408
Zn  Zn17  1  0.76777000  0.30323000  0.85882000  1.0 0.7285939954
Zn  Zn18  1  0.05323000  0.69441000  0.03546000  1.0 0.7285939954
Zn  Zn19  1  0.65895000  0.01777000  0.96454000  1.0 0.7285939954
Zn  Zn20  1  0.59105000  0.05559000  0.85882000  1.0 0.7285939954
Zn  Zn21  1  0.19677000  0.73223000  0.14118000  1.0 0.7285939954
Zn  Zn22  1  0.44441000  0.90895000  0.14118000  1.0 0.7285939954
Zn  Zn23  1  0.80559000  0.44677000  0.96454000  1.0 0.7285939954
Zn  Zn24  1  0.48223000  0.84105000  0.03546000  1.0 0.7285939954
Zn  Zn25  1  0.98223000  0.94677000  0.64118000  1.0 0.7285939954
Zn  Zn26  1  0.69677000  0.55559000  0.46454000  1.0 0.7285939954
Zn  Zn27  1  0.09105000  0.23223000  0.53546000  1.0 0.7285939954
Zn  Zn28  1  0.15895000  0.19441000  0.64118000  1.0 0.7285939954
Zn  Zn29  1  0.55323000  0.51777000  0.35882000  1.0 0.7285939954
Zn  Zn30  1  0.30559000  0.34105000  0.35882000  1.0 0.7285939954
Zn  Zn31  1  0.94441000  0.80323000  0.53546000  1.0 0.7285939954
Zn  Zn32  1  0.26777000  0.40895000  0.46454000  1.0 0.7285939954
H  H1  1  0.71050000  0.36070000  0.05640000  1.0 0.1300868131
H  H2  1  0.11070000  0.55430000  0.15020000  1.0 0.1300868131
H  H3  1  0.40410000  0.96050000  0.84980000  1.0 0.1300868131
H  H4  1  0.84590000  0.19570000  0.05640000  1.0 0.1300868131
H  H5  1  0.13930000  0.78950000  0.94360000  1.0 0.1300868131
H  H6  1  0.30430000  0.65410000  0.94360000  1.0 0.1300868131
H  H7  1  0.94570000  0.38930000  0.84980000  1.0 0.1300868131
H  H8  1  0.53950000  0.09590000  0.15020000  1.0 0.1300868131
H  H9  1  0.03950000  0.88930000  0.44360000  1.0 0.1300868131
H  H10  1  0.63930000  0.69570000  0.34980000  1.0 0.1300868131
H  H11  1  0.34590000  0.28950000  0.65020000  1.0 0.1300868131
H  H12  1  0.90410000  0.05430000  0.44360000  1.0 0.1300868131
H  H13  1  0.61070000  0.46050000  0.55640000  1.0 0.1300868131
H  H14  1  0.44570000  0.59590000  0.55640000  1.0 0.1300868131
H  H15  1  0.80430000  0.86070000  0.65020000  1.0 0.1300868131
H  H16  1  0.21050000  0.15410000  0.34980000  1.0 0.1300868131
H  H17  1  0.66550000  0.40120000  0.03970000  1.0 0.1300868131
H  H18  1  0.15120000  0.61150000  0.23570000  1.0 0.1300868131
H  H19  1  0.37580000  0.91550000  0.76430000  1.0 0.1300868131
H  H20  1  0.87420000  0.13850000  0.03970000  1.0 0.1300868131
H  H21  1  0.09880000  0.83450000  0.96030000  1.0 0.1300868131
H  H22  1  0.36150000  0.62580000  0.96030000  1.0 0.1300868131
H  H23  1  0.88850000  0.34880000  0.76430000  1.0 0.1300868131
H  H24  1  0.58450000  0.12420000  0.23570000  1.0 0.1300868131
H  H25  1  0.08450000  0.84880000  0.46030000  1.0 0.1300868131
H  H26  1  0.59880000  0.63850000  0.26430000  1.0 0.1300868131
H  H27  1  0.37420000  0.33450000  0.73570000  1.0 0.1300868131
H  H28  1  0.87580000  0.11150000  0.46030000  1.0 0.1300868131
H  H29  1  0.65120000  0.41550000  0.53970000  1.0 0.1300868131
H  H30  1  0.38850000  0.62420000  0.53970000  1.0 0.1300868131
H  H31  1  0.86150000  0.90120000  0.73570000  1.0 0.1300868131
H  H32  1  0.16550000  0.12580000  0.26430000  1.0 0.1300868131
H  H33  1  0.72520000  0.40460000  0.05560000  1.0 0.1300868131
H  H34  1  0.15460000  0.59900000  0.17940000  1.0 0.1300868131
H  H35  1  0.41960000  0.97520000  0.82060000  1.0 0.1300868131
H  H36  1  0.83040000  0.15100000  0.05560000  1.0 0.1300868131
H  H37  1  0.09540000  0.77480000  0.94440000  1.0 0.1300868131
H  H38  1  0.34900000  0.66960000  0.94440000  1.0 0.1300868131
H  H39  1  0.90100000  0.34540000  0.82060000  1.0 0.1300868131
H  H40  1  0.52480000  0.08040000  0.17940000  1.0 0.1300868131
H  H41  1  0.02480000  0.84540000  0.44440000  1.0 0.1300868131
H  H42  1  0.59540000  0.65100000  0.32060000  1.0 0.1300868131
H  H43  1  0.33040000  0.27480000  0.67940000  1.0 0.1300868131
H  H44  1  0.91960000  0.09900000  0.44440000  1.0 0.1300868131
H  H45  1  0.65460000  0.47520000  0.55560000  1.0 0.1300868131
H  H46  1  0.40100000  0.58040000  0.55560000  1.0 0.1300868131
H  H47  1  0.84900000  0.90460000  0.67940000  1.0 0.1300868131
H  H48  1  0.22520000  0.16960000  0.32060000  1.0 0.1300868131
H  H49  1  0.75830000  0.10720000  0.81610000  1.0 0.1300868131
H  H50  1  0.85720000  0.54110000  0.84890000  1.0 0.1300868131
H  H51  1  0.69220000  0.00830000  0.15110000  1.0 0.1300868131
H  H52  1  0.55780000  0.20890000  0.81610000  1.0 0.1300868131
H  H53  1  0.39280000  0.74170000  0.18390000  1.0 0.1300868131
H  H54  1  0.29110000  0.94220000  0.18390000  1.0 0.1300868131
H  H55  1  0.95890000  0.64280000  0.15110000  1.0 0.1300868131
H  H56  1  0.49170000  0.80780000  0.84890000  1.0 0.1300868131
H  H57  1  0.99170000  0.14280000  0.68390000  1.0 0.1300868131
H  H58  1  0.89280000  0.70890000  0.65110000  1.0 0.1300868131
H  H59  1  0.05780000  0.24170000  0.34890000  1.0 0.1300868131
H  H60  1  0.19220000  0.04110000  0.68390000  1.0 0.1300868131
H  H61  1  0.35720000  0.50830000  0.31610000  1.0 0.1300868131
H  H62  1  0.45890000  0.30780000  0.31610000  1.0 0.1300868131
H  H63  1  0.79110000  0.60720000  0.34890000  1.0 0.1300868131
H  H64  1  0.25830000  0.44220000  0.65110000  1.0 0.1300868131
H  H65  1  0.81060000  0.11880000  0.82460000  1.0 0.1103855752
H  H66  1  0.86880000  0.54420000  0.80820000  1.0 0.1103855752
H  H67  1  0.73600000  0.06060000  0.19180000  1.0 0.1103855752
H  H68  1  0.51400000  0.20580000  0.82460000  1.0 0.1103855752
H  H69  1  0.38120000  0.68940000  0.17540000  1.0 0.1103855752
H  H70  1  0.29420000  0.98600000  0.17540000  1.0 0.1103855752
H  H71  1  0.95580000  0.63120000  0.19180000  1.0 0.1103855752
H  H72  1  0.43940000  0.76400000  0.80820000  1.0 0.1103855752
H  H73  1  0.93940000  0.13120000  0.67540000  1.0 0.1103855752
H  H74  1  0.88120000  0.70580000  0.69180000  1.0 0.1103855752
H  H75  1  0.01400000  0.18940000  0.30820000  1.0 0.1103855752
H  H76  1  0.23600000  0.04420000  0.67540000  1.0 0.1103855752
H  H77  1  0.36880000  0.56060000  0.32460000  1.0 0.1103855752
H  H78  1  0.45580000  0.26400000  0.32460000  1.0 0.1103855752
H  H79  1  0.79420000  0.61880000  0.30820000  1.0 0.1103855752
H  H80  1  0.31060000  0.48600000  0.69180000  1.0 0.1103855752
H  H81  1  0.75890000  0.15470000  0.81100000  1.0 0.1375432426
H  H82  1  0.90470000  0.59370000  0.89580000  1.0 0.1375432426
H  H83  1  0.69790000  0.00890000  0.10420000  1.0 0.1375432426
H  H84  1  0.55210000  0.15630000  0.81100000  1.0 0.1375432426
H  H85  1  0.34530000  0.74110000  0.18900000  1.0 0.1375432426
H  H86  1  0.34370000  0.94790000  0.18900000  1.0 0.1375432426
H  H87  1  0.90630000  0.59530000  0.10420000  1.0 0.1375432426
H  H88  1  0.49110000  0.80210000  0.89580000  1.0 0.1375432426
H  H89  1  0.99110000  0.09530000  0.68900000  1.0 0.1375432426
H  H90  1  0.84530000  0.65630000  0.60420000  1.0 0.1375432426
H  H91  1  0.05210000  0.24110000  0.39580000  1.0 0.1375432426
H  H92  1  0.19790000  0.09370000  0.68900000  1.0 0.1375432426
H  H93  1  0.40470000  0.50890000  0.31100000  1.0 0.1375432426
H  H94  1  0.40630000  0.30210000  0.31100000  1.0 0.1375432426
H  H95  1  0.84370000  0.65470000  0.39580000  1.0 0.1375432426
H  H96  1  0.25890000  0.44790000  0.60420000  1.0 0.1375432426
H  H97  1  0.96300000  0.49580000  0.25200000  1.0 0.0783818215
H  H98  1  0.24580000  0.49380000  0.03280000  1.0 0.0783818215
H  H99  1  0.46100000  0.21300000  0.96720000  1.0 0.0783818215
H  H100  1  0.78900000  0.25620000  0.25200000  1.0 0.0783818215
H  H101  1  0.00420000  0.53700000  0.74800000  1.0 0.0783818215
H  H102  1  0.24380000  0.71100000  0.74800000  1.0 0.0783818215
H  H103  1  0.00620000  0.25420000  0.96720000  1.0 0.0783818215
H  H104  1  0.28700000  0.03900000  0.03280000  1.0 0.0783818215
H  H105  1  0.78700000  0.75420000  0.24800000  1.0 0.0783818215
H  H106  1  0.50420000  0.75620000  0.46720000  1.0 0.0783818215
H  H107  1  0.28900000  0.03700000  0.53280000  1.0 0.0783818215
H  H108  1  0.96100000  0.99380000  0.24800000  1.0 0.0783818215
H  H109  1  0.74580000  0.71300000  0.75200000  1.0 0.0783818215
H  H110  1  0.50620000  0.53900000  0.75200000  1.0 0.0783818215
H  H111  1  0.74380000  0.99580000  0.53280000  1.0 0.0783818215
H  H112  1  0.46300000  0.21100000  0.46720000  1.0 0.0783818215
H  H113  1  0.02180000  0.54380000  0.33040000  1.0 0.0783818215
H  H114  1  0.29380000  0.46340000  0.02200000  1.0 0.0783818215
H  H115  1  0.44140000  0.27180000  0.97800000  1.0 0.0783818215
H  H116  1  0.80860000  0.28660000  0.33040000  1.0 0.0783818215
H  H117  1  0.95620000  0.47820000  0.66960000  1.0 0.0783818215
H  H118  1  0.21340000  0.69140000  0.66960000  1.0 0.0783818215
H  H119  1  0.03660000  0.20620000  0.97800000  1.0 0.0783818215
H  H120  1  0.22820000  0.05860000  0.02200000  1.0 0.0783818215
H  H121  1  0.72820000  0.70620000  0.16960000  1.0 0.0783818215
H  H122  1  0.45620000  0.78660000  0.47800000  1.0 0.0783818215
H  H123  1  0.30860000  0.97820000  0.52200000  1.0 0.0783818215
H  H124  1  0.94140000  0.96340000  0.16960000  1.0 0.0783818215
H  H125  1  0.79380000  0.77180000  0.83040000  1.0 0.0783818215
H  H126  1  0.53660000  0.55860000  0.83040000  1.0 0.0783818215
H  H127  1  0.71340000  0.04380000  0.52200000  1.0 0.0783818215
H  H128  1  0.52180000  0.19140000  0.47800000  1.0 0.0783818215
H  H129  1  0.02350000  0.48620000  0.26570000  1.0 0.0783818215
H  H130  1  0.23620000  0.47050000  0.96270000  1.0 0.0783818215
H  H131  1  0.50780000  0.27350000  0.03730000  1.0 0.0783818215
H  H132  1  0.74220000  0.27950000  0.26570000  1.0 0.0783818215
H  H133  1  0.01380000  0.47650000  0.73430000  1.0 0.0783818215
H  H134  1  0.22050000  0.75780000  0.73430000  1.0 0.0783818215
H  H135  1  0.02950000  0.26380000  0.03730000  1.0 0.0783818215
H  H136  1  0.22650000  0.99220000  0.96270000  1.0 0.0783818215
H  H137  1  0.72650000  0.76380000  0.23430000  1.0 0.0783818215
H  H138  1  0.51380000  0.77950000  0.53730000  1.0 0.0783818215
H  H139  1  0.24220000  0.97650000  0.46270000  1.0 0.0783818215
H  H140  1  0.00780000  0.97050000  0.23430000  1.0 0.0783818215
H  H141  1  0.73620000  0.77350000  0.76570000  1.0 0.0783818215
H  H142  1  0.52950000  0.49220000  0.76570000  1.0 0.0783818215
H  H143  1  0.72050000  0.98620000  0.46270000  1.0 0.0783818215
H  H144  1  0.52350000  0.25780000  0.53730000  1.0 0.0783818215
H  H145  1  0.00440000  0.73750000  0.36870000  1.0 0.0710650947
H  H146  1  0.48750000  0.61880000  0.23310000  1.0 0.0710650947
H  H147  1  0.38570000  0.25440000  0.76690000  1.0 0.0710650947
H  H148  1  0.86430000  0.13120000  0.36870000  1.0 0.0710650947
H  H149  1  0.76250000  0.49560000  0.63130000  1.0 0.0710650947
H  H150  1  0.36880000  0.63570000  0.63130000  1.0 0.0710650947
H  H151  1  0.88120000  0.01250000  0.76690000  1.0 0.0710650947
H  H152  1  0.24560000  0.11430000  0.23310000  1.0 0.0710650947
H  H153  1  0.74560000  0.51250000  0.13130000  1.0 0.0710650947
H  H154  1  0.26250000  0.63120000  0.26690000  1.0 0.0710650947
H  H155  1  0.36430000  0.99560000  0.73310000  1.0 0.0710650947
H  H156  1  0.88570000  0.11880000  0.13130000  1.0 0.0710650947
H  H157  1  0.98750000  0.75440000  0.86870000  1.0 0.0710650947
H  H158  1  0.38120000  0.61430000  0.86870000  1.0 0.0710650947
H  H159  1  0.86880000  0.23750000  0.73310000  1.0 0.0710650947
H  H160  1  0.50440000  0.13570000  0.26690000  1.0 0.0710650947
H  H161  1  0.03030000  0.68230000  0.33380000  1.0 0.1103855752
H  H162  1  0.43230000  0.59850000  0.15200000  1.0 0.1103855752
H  H163  1  0.44650000  0.28030000  0.84800000  1.0 0.1103855752
H  H164  1  0.80350000  0.15150000  0.33380000  1.0 0.1103855752
H  H165  1  0.81770000  0.46970000  0.66620000  1.0 0.1103855752
H  H166  1  0.34850000  0.69650000  0.66620000  1.0 0.1103855752
H  H167  1  0.90150000  0.06770000  0.84800000  1.0 0.1103855752
H  H168  1  0.21970000  0.05350000  0.15200000  1.0 0.1103855752
H  H169  1  0.71970000  0.56770000  0.16620000  1.0 0.1103855752
H  H170  1  0.31770000  0.65150000  0.34800000  1.0 0.1103855752
H  H171  1  0.30350000  0.96970000  0.65200000  1.0 0.1103855752
H  H172  1  0.94650000  0.09850000  0.16620000  1.0 0.1103855752
H  H173  1  0.93230000  0.78030000  0.83380000  1.0 0.1103855752
H  H174  1  0.40150000  0.55350000  0.83380000  1.0 0.1103855752
H  H175  1  0.84850000  0.18230000  0.65200000  1.0 0.1103855752
H  H176  1  0.53030000  0.19650000  0.34800000  1.0 0.1103855752
H  H177  1  0.07290000  0.73790000  0.41980000  1.0 0.0965503568
H  H178  1  0.48790000  0.56810000  0.16500000  1.0 0.0965503568
H  H179  1  0.40310000  0.32290000  0.83500000  1.0 0.0965503568
H  H180  1  0.84690000  0.18190000  0.41980000  1.0 0.0965503568
H  H181  1  0.76210000  0.42710000  0.58020000  1.0 0.0965503568
H  H182  1  0.31810000  0.65310000  0.58020000  1.0 0.0965503568
H  H183  1  0.93190000  0.01210000  0.83500000  1.0 0.0965503568
H  H184  1  0.17710000  0.09690000  0.16500000  1.0 0.0965503568
H  H185  1  0.67710000  0.51210000  0.08020000  1.0 0.0965503568
H  H186  1  0.26210000  0.68190000  0.33500000  1.0 0.0965503568
H  H187  1  0.34690000  0.92710000  0.66500000  1.0 0.0965503568
H  H188  1  0.90310000  0.06810000  0.08020000  1.0 0.0965503568
H  H189  1  0.98790000  0.82290000  0.91980000  1.0 0.0965503568
H  H190  1  0.43190000  0.59690000  0.91980000  1.0 0.0965503568
H  H191  1  0.81810000  0.23790000  0.66500000  1.0 0.0965503568
H  H192  1  0.57290000  0.15310000  0.33500000  1.0 0.0965503568
H  H193  1  0.95110000  0.52500000  0.26630000  1.0 0.0882905915
H  H194  1  0.27500000  0.50870000  0.07390000  1.0 0.0882905915
H  H195  1  0.43480000  0.20110000  0.92610000  1.0 0.0882905915
H  H196  1  0.81520000  0.24130000  0.26630000  1.0 0.0882905915
H  H197  1  0.97500000  0.54890000  0.73370000  1.0 0.0882905915
H  H198  1  0.25870000  0.68480000  0.73370000  1.0 0.0882905915
H  H199  1  0.99130000  0.22500000  0.92610000  1.0 0.0882905915
H  H200  1  0.29890000  0.06520000  0.07390000  1.0 0.0882905915
H  H201  1  0.79890000  0.72500000  0.23370000  1.0 0.0882905915
H  H202  1  0.47500000  0.74130000  0.42610000  1.0 0.0882905915
H  H203  1  0.31520000  0.04890000  0.57390000  1.0 0.0882905915
H  H204  1  0.93480000  0.00870000  0.23370000  1.0 0.0882905915
H  H205  1  0.77500000  0.70110000  0.76630000  1.0 0.0882905915
H  H206  1  0.49130000  0.56520000  0.76630000  1.0 0.0882905915
H  H207  1  0.75870000  0.02500000  0.57390000  1.0 0.0882905915
H  H208  1  0.45110000  0.18480000  0.42610000  1.0 0.0882905915
H  H209  1  0.00490000  0.50570000  0.26520000  1.0 0.0295693876
H  H210  1  0.25570000  0.49050000  0.00080000  1.0 0.0295693876
H  H211  1  0.48970000  0.25490000  0.99920000  1.0 0.0295693876
H  H212  1  0.76030000  0.25950000  0.26520000  1.0 0.0295693876
H  H213  1  0.99430000  0.49510000  0.73480000  1.0 0.0295693876
H  H214  1  0.24050000  0.73970000  0.73480000  1.0 0.0295693876
H  H215  1  0.00950000  0.24430000  0.99920000  1.0 0.0295693876
H  H216  1  0.24510000  0.01030000  0.00080000  1.0 0.0295693876
H  H217  1  0.74510000  0.74430000  0.23480000  1.0 0.0295693876
H  H218  1  0.49430000  0.75950000  0.49920000  1.0 0.0295693876
H  H219  1  0.26030000  0.99510000  0.50080000  1.0 0.0295693876
H  H220  1  0.98970000  0.99050000  0.23480000  1.0 0.0295693876
H  H221  1  0.75570000  0.75490000  0.76520000  1.0 0.0295693876
H  H222  1  0.50950000  0.51030000  0.76520000  1.0 0.0295693876
H  H223  1  0.74050000  0.00570000  0.50080000  1.0 0.0295693876
H  H224  1  0.50490000  0.23970000  0.49920000  1.0 0.0295693876
H  H225  1  0.01270000  0.56990000  0.33340000  1.0 0.0710650947
H  H226  1  0.31990000  0.48650000  0.05720000  1.0 0.0710650947
H  H227  1  0.42930000  0.26270000  0.94280000  1.0 0.0710650947
H  H228  1  0.82070000  0.26350000  0.33340000  1.0 0.0710650947
H  H229  1  0.93010000  0.48730000  0.66666667  1.0 0.0710650947
H  H230  1  0.23650000  0.67930000  0.66666667  1.0 0.0710650947
H  H231  1  0.01350000  0.18010000  0.94280000  1.0 0.0710650947
H  H232  1  0.23730000  0.07070000  0.05720000  1.0 0.0710650947
H  H233  1  0.73730000  0.68010000  0.16660000  1.0 0.0710650947
H  H234  1  0.43010000  0.76350000  0.44280000  1.0 0.0710650947
H  H235  1  0.32070000  0.98730000  0.55720000  1.0 0.0710650947
H  H236  1  0.92930000  0.98650000  0.16660000  1.0 0.0710650947
H  H237  1  0.81990000  0.76270000  0.83340000  1.0 0.0710650947
H  H238  1  0.51350000  0.57070000  0.83340000  1.0 0.0710650947
H  H239  1  0.73650000  0.06990000  0.55720000  1.0 0.0710650947
H  H240  1  0.51270000  0.17930000  0.44280000  1.0 0.0710650947
H  H241  1  0.97830000  0.73260000  0.33570000  1.0 0.0965503568
H  H242  1  0.48260000  0.64690000  0.25430000  1.0 0.0965503568
H  H243  1  0.39260000  0.22830000  0.74570000  1.0 0.0965503568
H  H244  1  0.85740000  0.10310000  0.33570000  1.0 0.0965503568
H  H245  1  0.76740000  0.52170000  0.66430000  1.0 0.0965503568
H  H246  1  0.39690000  0.64260000  0.66430000  1.0 0.0965503568
H  H247  1  0.85310000  0.01740000  0.74570000  1.0 0.0965503568
H  H248  1  0.27170000  0.10740000  0.25430000  1.0 0.0965503568
H  H249  1  0.77170000  0.51740000  0.16430000  1.0 0.0965503568
H  H250  1  0.26740000  0.60310000  0.24570000  1.0 0.0965503568
H  H251  1  0.35740000  0.02170000  0.75430000  1.0 0.0965503568
H  H252  1  0.89260000  0.14690000  0.16430000  1.0 0.0965503568
H  H253  1  0.98260000  0.72830000  0.83570000  1.0 0.0965503568
H  H254  1  0.35310000  0.60740000  0.83570000  1.0 0.0965503568
H  H255  1  0.89690000  0.23260000  0.75430000  1.0 0.0965503568
H  H256  1  0.47830000  0.14260000  0.24570000  1.0 0.0965503568
H  H257  1  0.04610000  0.75310000  0.40660000  1.0 0.0783818215
H  H258  1  0.50310000  0.59650000  0.20700000  1.0 0.0783818215
H  H259  1  0.38950000  0.29610000  0.79300000  1.0 0.0783818215
H  H260  1  0.86050000  0.15350000  0.40660000  1.0 0.0783818215
H  H261  1  0.74690000  0.45390000  0.59340000  1.0 0.0783818215
H  H262  1  0.34650000  0.63950000  0.59340000  1.0 0.0783818215
H  H263  1  0.90350000  0.99690000  0.79300000  1.0 0.0783818215
H  H264  1  0.20390000  0.11050000  0.20700000  1.0 0.0783818215
H  H265  1  0.70390000  0.49690000  0.09340000  1.0 0.0783818215
H  H266  1  0.24690000  0.65350000  0.29300000  1.0 0.0783818215
H  H267  1  0.36050000  0.95390000  0.70700000  1.0 0.0783818215
H  H268  1  0.88950000  0.09650000  0.09340000  1.0 0.0783818215
H  H269  1  0.00310000  0.79610000  0.90660000  1.0 0.0783818215
H  H270  1  0.40350000  0.61050000  0.90660000  1.0 0.0783818215
H  H271  1  0.84650000  0.25310000  0.70700000  1.0 0.0783818215
H  H272  1  0.54610000  0.13950000  0.29300000  1.0 0.0783818215
H  H273  1  0.02200000  0.68810000  0.32990000  1.0 0.1170121653
H  H274  1  0.43810000  0.60820000  0.16610000  1.0 0.1170121653
H  H275  1  0.44210000  0.27200000  0.83390000  1.0 0.1170121653
H  H276  1  0.80790000  0.14180000  0.32990000  1.0 0.1170121653
H  H277  1  0.81190000  0.47800000  0.67010000  1.0 0.1170121653
H  H278  1  0.35820000  0.69210000  0.67010000  1.0 0.1170121653
H  H279  1  0.89180000  0.06190000  0.83390000  1.0 0.1170121653
H  H280  1  0.22800000  0.05790000  0.16610000  1.0 0.1170121653
H  H281  1  0.72800000  0.56190000  0.17010000  1.0 0.1170121653
H  H282  1  0.31190000  0.64180000  0.33390000  1.0 0.1170121653
H  H283  1  0.30790000  0.97800000  0.66610000  1.0 0.1170121653
H  H284  1  0.94210000  0.10820000  0.17010000  1.0 0.1170121653
H  H285  1  0.93810000  0.77200000  0.82990000  1.0 0.1170121653
H  H286  1  0.39180000  0.55790000  0.82990000  1.0 0.1170121653
H  H287  1  0.85820000  0.18810000  0.66610000  1.0 0.1170121653
H  H288  1  0.52200000  0.19210000  0.33390000  1.0 0.1170121653
H  H289  1  0.26080000  0.44380000  0.29040000  1.0 0.1300868131
H  H290  1  0.19380000  0.40340000  0.68300000  1.0 0.1300868131
H  H291  1  0.72040000  0.51080000  0.31700000  1.0 0.1300868131
H  H292  1  0.52960000  0.34660000  0.29040000  1.0 0.1300868131
H  H293  1  0.05620000  0.23920000  0.70960000  1.0 0.1300868131
H  H294  1  0.15340000  0.97040000  0.70960000  1.0 0.1300868131
H  H295  1  0.09660000  0.30620000  0.31700000  1.0 0.1300868131
H  H296  1  0.98920000  0.77960000  0.68300000  1.0 0.1300868131
H  H297  1  0.48920000  0.80620000  0.20960000  1.0 0.1300868131
H  H298  1  0.55620000  0.84660000  0.81700000  1.0 0.1300868131
H  H299  1  0.02960000  0.73920000  0.18300000  1.0 0.1300868131
H  H300  1  0.22040000  0.90340000  0.20960000  1.0 0.1300868131
H  H301  1  0.69380000  0.01080000  0.79040000  1.0 0.1300868131
H  H302  1  0.59660000  0.27960000  0.79040000  1.0 0.1300868131
H  H303  1  0.65340000  0.94380000  0.18300000  1.0 0.1300868131
H  H304  1  0.76080000  0.47040000  0.81700000  1.0 0.1300868131
H  H305  1  0.23730000  0.38180000  0.25610000  1.0 0.1170121653
H  H306  1  0.13180000  0.37570000  0.64450000  1.0 0.1170121653
H  H307  1  0.73120000  0.48730000  0.35550000  1.0 0.1170121653
H  H308  1  0.51880000  0.37430000  0.25610000  1.0 0.1170121653
H  H309  1  0.11820000  0.26270000  0.74390000  1.0 0.1170121653
H  H310  1  0.12570000  0.98120000  0.74390000  1.0 0.1170121653
H  H311  1  0.12430000  0.36820000  0.35550000  1.0 0.1170121653
H  H312  1  0.01270000  0.76880000  0.64450000  1.0 0.1170121653
H  H313  1  0.51270000  0.86820000  0.24390000  1.0 0.1170121653
H  H314  1  0.61820000  0.87430000  0.85550000  1.0 0.1170121653
H  H315  1  0.01880000  0.76270000  0.14450000  1.0 0.1170121653
H  H316  1  0.23120000  0.87570000  0.24390000  1.0 0.1170121653
H  H317  1  0.63180000  0.98730000  0.75610000  1.0 0.1170121653
H  H318  1  0.62430000  0.26880000  0.75610000  1.0 0.1170121653
H  H319  1  0.62570000  0.88180000  0.14450000  1.0 0.1170121653
H  H320  1  0.73730000  0.48120000  0.85550000  1.0 0.1170121653
H  H321  1  0.19800000  0.40580000  0.21060000  1.0 0.1375432426
H  H322  1  0.15580000  0.44520000  0.70780000  1.0 0.1375432426
H  H323  1  0.73740000  0.44800000  0.29220000  1.0 0.1375432426
H  H324  1  0.51260000  0.30480000  0.21060000  1.0 0.1375432426
H  H325  1  0.09420000  0.30200000  0.78940000  1.0 0.1375432426
H  H326  1  0.19520000  0.98740000  0.78940000  1.0 0.1375432426
H  H327  1  0.05480000  0.34420000  0.29220000  1.0 0.1375432426
H  H328  1  0.05200000  0.76260000  0.70780000  1.0 0.1375432426
H  H329  1  0.55200000  0.84420000  0.28940000  1.0 0.1375432426
H  H330  1  0.59420000  0.80480000  0.79220000  1.0 0.1375432426
H  H331  1  0.01260000  0.80200000  0.20780000  1.0 0.1375432426
H  H332  1  0.23740000  0.94520000  0.28940000  1.0 0.1375432426
H  H333  1  0.65580000  0.94800000  0.71060000  1.0 0.1375432426
H  H334  1  0.55480000  0.26260000  0.71060000  1.0 0.1375432426
H  H335  1  0.69520000  0.90580000  0.20780000  1.0 0.1375432426
H  H336  1  0.69800000  0.48740000  0.79220000  1.0 0.1375432426
H  H337  1  0.05110000  0.39430000  0.07440000  1.0 0.1103855752
H  H338  1  0.14430000  0.56990000  0.84320000  1.0 0.1103855752
H  H339  1  0.72670000  0.30110000  0.15680000  1.0 0.1103855752
H  H340  1  0.52330000  0.18010000  0.07440000  1.0 0.1103855752
H  H341  1  0.10570000  0.44890000  0.92560000  1.0 0.1103855752
H  H342  1  0.31990000  0.97670000  0.92560000  1.0 0.1103855752
H  H343  1  0.93010000  0.35570000  0.15680000  1.0 0.1103855752
H  H344  1  0.19890000  0.77330000  0.84320000  1.0 0.1103855752
H  H345  1  0.69890000  0.85570000  0.42560000  1.0 0.1103855752
H  H346  1  0.60570000  0.68010000  0.65680000  1.0 0.1103855752
H  H347  1  0.02330000  0.94890000  0.34320000  1.0 0.1103855752
H  H348  1  0.22670000  0.06990000  0.42560000  1.0 0.1103855752
H  H349  1  0.64430000  0.80110000  0.57440000  1.0 0.1103855752
H  H350  1  0.43010000  0.27330000  0.57440000  1.0 0.1103855752
H  H351  1  0.81990000  0.89430000  0.34320000  1.0 0.1103855752
H  H352  1  0.55110000  0.47670000  0.65680000  1.0 0.1103855752
H  H353  1  0.06870000  0.45990000  0.11180000  1.0 0.0965503568
H  H354  1  0.20990000  0.59810000  0.89120000  1.0 0.0965503568
H  H355  1  0.70690000  0.31870000  0.10880000  1.0 0.0965503568
H  H356  1  0.54310000  0.15190000  0.11180000  1.0 0.0965503568
H  H357  1  0.04010000  0.43130000  0.88820000  1.0 0.0965503568
H  H358  1  0.34810000  0.95690000  0.88820000  1.0 0.0965503568
H  H359  1  0.90190000  0.29010000  0.10880000  1.0 0.0965503568
H  H360  1  0.18130000  0.79310000  0.89120000  1.0 0.0965503568
H  H361  1  0.68130000  0.79010000  0.38820000  1.0 0.0965503568
H  H362  1  0.54010000  0.65190000  0.60880000  1.0 0.0965503568
H  H363  1  0.04310000  0.93130000  0.39120000  1.0 0.0965503568
H  H364  1  0.20690000  0.09810000  0.38820000  1.0 0.0965503568
H  H365  1  0.70990000  0.81870000  0.61180000  1.0 0.0965503568
H  H366  1  0.40190000  0.29310000  0.61180000  1.0 0.0965503568
H  H367  1  0.84810000  0.95990000  0.39120000  1.0 0.0965503568
H  H368  1  0.56870000  0.45690000  0.60880000  1.0 0.0965503568
H  H369  1  0.11780000  0.42880000  0.14400000  1.0 0.0620344683
H  H370  1  0.17880000  0.53480000  0.81100000  1.0 0.0620344683
H  H371  1  0.72380000  0.36780000  0.18900000  1.0 0.0620344683
H  H372  1  0.52620000  0.21520000  0.14400000  1.0 0.0620344683
H  H373  1  0.07120000  0.38220000  0.85600000  1.0 0.0620344683
H  H374  1  0.28480000  0.97380000  0.85600000  1.0 0.0620344683
H  H375  1  0.96520000  0.32120000  0.18900000  1.0 0.0620344683
H  H376  1  0.13220000  0.77620000  0.81100000  1.0 0.0620344683
H  H377  1  0.63220000  0.82120000  0.35600000  1.0 0.0620344683
H  H378  1  0.57120000  0.71520000  0.68900000  1.0 0.0620344683
H  H379  1  0.02620000  0.88220000  0.31100000  1.0 0.0620344683
H  H380  1  0.22380000  0.03480000  0.35600000  1.0 0.0620344683
H  H381  1  0.67880000  0.86780000  0.64400000  1.0 0.0620344683
H  H382  1  0.46520000  0.27620000  0.64400000  1.0 0.0620344683
H  H383  1  0.78480000  0.92880000  0.31100000  1.0 0.0620344683
H  H384  1  0.61780000  0.47380000  0.68900000  1.0 0.0620344683
H  H385  1  0.07180000  0.41750000  0.12110000  1.0 0.0620344683
H  H386  1  0.16750000  0.54640000  0.84570000  1.0 0.0620344683
H  H387  1  0.70070000  0.32180000  0.15430000  1.0 0.0620344683
H  H388  1  0.54930000  0.20360000  0.12110000  1.0 0.0620344683
H  H389  1  0.08250000  0.42820000  0.87890000  1.0 0.0620344683
H  H390  1  0.29640000  0.95070000  0.87890000  1.0 0.0620344683
H  H391  1  0.95360000  0.33250000  0.15430000  1.0 0.0620344683
H  H392  1  0.17820000  0.79930000  0.84570000  1.0 0.0620344683
H  H393  1  0.67820000  0.83250000  0.37890000  1.0 0.0620344683
H  H394  1  0.58250000  0.70360000  0.65430000  1.0 0.0620344683
H  H395  1  0.04930000  0.92820000  0.34570000  1.0 0.0620344683
H  H396  1  0.20070000  0.04640000  0.37890000  1.0 0.0620344683
H  H397  1  0.66750000  0.82180000  0.62110000  1.0 0.0620344683
H  H398  1  0.45360000  0.29930000  0.62110000  1.0 0.0620344683
H  H399  1  0.79640000  0.91750000  0.34570000  1.0 0.0620344683
H  H400  1  0.57180000  0.45070000  0.65430000  1.0 0.0620344683
H  H401  1  0.06620000  0.47460000  0.12840000  1.0 0.0882905915
H  H402  1  0.22460000  0.59620000  0.90840000  1.0 0.0882905915
H  H403  1  0.68780000  0.31620000  0.09160000  1.0 0.0882905915
H  H404  1  0.56220000  0.15380000  0.12840000  1.0 0.0882905915
H  H405  1  0.02540000  0.43380000  0.87160000  1.0 0.0882905915
H  H406  1  0.34620000  0.93780000  0.87160000  1.0 0.0882905915
H  H407  1  0.90380000  0.27540000  0.09160000  1.0 0.0882905915
H  H408  1  0.18380000  0.81220000  0.90840000  1.0 0.0882905915
H  H409  1  0.68380000  0.77540000  0.37160000  1.0 0.0882905915
H  H410  1  0.52540000  0.65380000  0.59160000  1.0 0.0882905915
H  H411  1  0.06220000  0.93380000  0.40840000  1.0 0.0882905915
H  H412  1  0.18780000  0.09620000  0.37160000  1.0 0.0882905915
H  H413  1  0.72460000  0.81620000  0.62840000  1.0 0.0882905915
H  H414  1  0.40380000  0.31220000  0.62840000  1.0 0.0882905915
H  H415  1  0.84620000  0.97460000  0.40840000  1.0 0.0882905915
H  H416  1  0.56620000  0.43780000  0.59160000  1.0 0.0882905915
H  H417  1  0.12650000  0.47120000  0.18970000  1.0 0.0783818215
H  H418  1  0.22120000  0.53150000  0.84470000  1.0 0.0783818215
H  H419  1  0.68680000  0.37650000  0.15530000  1.0 0.0783818215
H  H420  1  0.56320000  0.21850000  0.18970000  1.0 0.0783818215
H  H421  1  0.02880000  0.37350000  0.81030000  1.0 0.0783818215
H  H422  1  0.28150000  0.93680000  0.81030000  1.0 0.0783818215
H  H423  1  0.96850000  0.27880000  0.15530000  1.0 0.0783818215
H  H424  1  0.12350000  0.81320000  0.84470000  1.0 0.0783818215
H  H425  1  0.62350000  0.77880000  0.31030000  1.0 0.0783818215
H  H426  1  0.52880000  0.71850000  0.65530000  1.0 0.0783818215
H  H427  1  0.06320000  0.87350000  0.34470000  1.0 0.0783818215
H  H428  1  0.18680000  0.03150000  0.31030000  1.0 0.0783818215
H  H429  1  0.72120000  0.87650000  0.68970000  1.0 0.0783818215
H  H430  1  0.46850000  0.31320000  0.68970000  1.0 0.0783818215
H  H431  1  0.78150000  0.97120000  0.34470000  1.0 0.0783818215
H  H432  1  0.62650000  0.43680000  0.65530000  1.0 0.0783818215
H  H433  1  0.12130000  0.56500000  0.36650000  1.0 0.1170121653
H  H434  1  0.31500000  0.44850000  0.94370000  1.0 0.1170121653
H  H435  1  0.50480000  0.37130000  0.05630000  1.0 0.1170121653
H  H436  1  0.74520000  0.30150000  0.36650000  1.0 0.1170121653
H  H437  1  0.93500000  0.37870000  0.63350000  1.0 0.1170121653
H  H438  1  0.19850000  0.75480000  0.63350000  1.0 0.1170121653
H  H439  1  0.05150000  0.18500000  0.05630000  1.0 0.1170121653
H  H440  1  0.12870000  0.99520000  0.94370000  1.0 0.1170121653
H  H441  1  0.62870000  0.68500000  0.13350000  1.0 0.1170121653
H  H442  1  0.43500000  0.80150000  0.55630000  1.0 0.1170121653
H  H443  1  0.24520000  0.87870000  0.44370000  1.0 0.1170121653
H  H444  1  0.00480000  0.94850000  0.13350000  1.0 0.1170121653
H  H445  1  0.81500000  0.87130000  0.86650000  1.0 0.1170121653
H  H446  1  0.55150000  0.49520000  0.86650000  1.0 0.1170121653
H  H447  1  0.69850000  0.06500000  0.44370000  1.0 0.1170121653
H  H448  1  0.62130000  0.25480000  0.55630000  1.0 0.1170121653
H  H449  1  0.14630000  0.53480000  0.40310000  1.0 0.1170121653
H  H450  1  0.28480000  0.38170000  0.88850000  1.0 0.1170121653
H  H451  1  0.49320000  0.39630000  0.11150000  1.0 0.1170121653
H  H452  1  0.75680000  0.36830000  0.40310000  1.0 0.1170121653
H  H453  1  0.96520000  0.35370000  0.59690000  1.0 0.1170121653
H  H454  1  0.13170000  0.74320000  0.59690000  1.0 0.1170121653
H  H455  1  0.11830000  0.21520000  0.11150000  1.0 0.1170121653
H  H456  1  0.10370000  0.00680000  0.88850000  1.0 0.1170121653
H  H457  1  0.60370000  0.71520000  0.09690000  1.0 0.1170121653
H  H458  1  0.46520000  0.86830000  0.61150000  1.0 0.1170121653
H  H459  1  0.25680000  0.85370000  0.38850000  1.0 0.1170121653
H  H460  1  0.99320000  0.88170000  0.09690000  1.0 0.1170121653
H  H461  1  0.78480000  0.89630000  0.90310000  1.0 0.1170121653
H  H462  1  0.61830000  0.50680000  0.90310000  1.0 0.1170121653
H  H463  1  0.63170000  0.03480000  0.38850000  1.0 0.1170121653
H  H464  1  0.64630000  0.24320000  0.61150000  1.0 0.1170121653
H  H465  1  0.18690000  0.58900000  0.44230000  1.0 0.1375432426
H  H466  1  0.33900000  0.39670000  0.90210000  1.0 0.1375432426
H  H467  1  0.49460000  0.43690000  0.09790000  1.0 0.1375432426
H  H468  1  0.75540000  0.35330000  0.44230000  1.0 0.1375432426
H  H469  1  0.91100000  0.31310000  0.55770000  1.0 0.1375432426
H  H470  1  0.14670000  0.74460000  0.55770000  1.0 0.1375432426
H  H471  1  0.10330000  0.16100000  0.09790000  1.0 0.1375432426
H  H472  1  0.06310000  0.00540000  0.90210000  1.0 0.1375432426
H  H473  1  0.56310000  0.66100000  0.05770000  1.0 0.1375432426
H  H474  1  0.41100000  0.85330000  0.59790000  1.0 0.1375432426
H  H475  1  0.25540000  0.81310000  0.40210000  1.0 0.1375432426
H  H476  1  0.99460000  0.89670000  0.05770000  1.0 0.1375432426
H  H477  1  0.83900000  0.93690000  0.94230000  1.0 0.1375432426
H  H478  1  0.60330000  0.50540000  0.94230000  1.0 0.1375432426
H  H479  1  0.64670000  0.08900000  0.40210000  1.0 0.1375432426
H  H480  1  0.68690000  0.24460000  0.59790000  1.0 0.1375432426
H  H481  1  0.25000000  0.25700000  0.21500000  1.0 0.2136422149
H  H482  1  0.00700000  0.29200000  0.50700000  1.0 0.2136422149
H  H483  1  0.78500000  0.50000000  0.49300000  1.0 0.2136422149
H  H484  1  0.46500000  0.45800000  0.21500000  1.0 0.2136422149
H  H485  1  0.24300000  0.25000000  0.78500000  1.0 0.2136422149
H  H486  1  0.04200000  0.03500000  0.78500000  1.0 0.2136422149
H  H487  1  0.20800000  0.49300000  0.49300000  1.0 0.2136422149
H  H488  1  0.00000000  0.71500000  0.50700000  1.0 0.2136422149
H  H489  1  0.50000000  0.99300000  0.28500000  1.0 0.2136422149
H  H490  1  0.74300000  0.95800000  0.99300000  1.0 0.2136422149
H  H491  1  0.96500000  0.75000000  0.00700000  1.0 0.2136422149
H  H492  1  0.28500000  0.79200000  0.28500000  1.0 0.2136422149
H  H493  1  0.50700000  0.00000000  0.71500000  1.0 0.2136422149
H  H494  1  0.70800000  0.21500000  0.71500000  1.0 0.2136422149
H  H495  1  0.54200000  0.75700000  0.00700000  1.0 0.2136422149
H  H496  1  0.75000000  0.53500000  0.99300000  1.0 0.2136422149
H  H497  1  0.24000000  0.30200000  0.21800000  1.0 0.2613990107
H  H498  1  0.05200000  0.33400000  0.56200000  1.0 0.2613990107
H  H499  1  0.77200000  0.49000000  0.43800000  1.0 0.2613990107
H  H500  1  0.47800000  0.41600000  0.21800000  1.0 0.2613990107
H  H501  1  0.19800000  0.26000000  0.78200000  1.0 0.2613990107
H  H502  1  0.08400000  0.02200000  0.78200000  1.0 0.2613990107
H  H503  1  0.16600000  0.44800000  0.43800000  1.0 0.2613990107
H  H504  1  0.01000000  0.72800000  0.56200000  1.0 0.2613990107
H  H505  1  0.51000000  0.94800000  0.28200000  1.0 0.2613990107
H  H506  1  0.69800000  0.91600000  0.93800000  1.0 0.2613990107
H  H507  1  0.97800000  0.76000000  0.06200000  1.0 0.2613990107
H  H508  1  0.27200000  0.83400000  0.28200000  1.0 0.2613990107
H  H509  1  0.55200000  0.99000000  0.71800000  1.0 0.2613990107
H  H510  1  0.66600000  0.22800000  0.71800000  1.0 0.2613990107
H  H511  1  0.58400000  0.80200000  0.06200000  1.0 0.2613990107
H  H512  1  0.74000000  0.52200000  0.93800000  1.0 0.2613990107
C  C1  1  0.76318000  0.29058000  0.94240000  1.0 0.5316763498
C  C2  1  0.04058000  0.59818000  0.02740000  1.0 0.5316763498
C  C3  1  0.57078000  0.01318000  0.97260000  1.0 0.5316763498
C  C4  1  0.67922000  0.15182000  0.94240000  1.0 0.5316763498
C  C5  1  0.20942000  0.73682000  0.05760000  1.0 0.5316763498
C  C6  1  0.34818000  0.82078000  0.05760000  1.0 0.5316763498
C  C7  1  0.90182000  0.45942000  0.97260000  1.0 0.5316763498
C  C8  1  0.48682000  0.92922000  0.02740000  1.0 0.5316763498
C  C9  1  0.98682000  0.95942000  0.55760000  1.0 0.5316763498
C  C10  1  0.70942000  0.65182000  0.47260000  1.0 0.5316763498
C  C11  1  0.17922000  0.23682000  0.52740000  1.0 0.5316763498
C  C12  1  0.07078000  0.09818000  0.55760000  1.0 0.5316763498
C  C13  1  0.54058000  0.51318000  0.44240000  1.0 0.5316763498
C  C14  1  0.40182000  0.42922000  0.44240000  1.0 0.5316763498
C  C15  1  0.84818000  0.79058000  0.52740000  1.0 0.5316763498
C  C16  1  0.26318000  0.32078000  0.47260000  1.0 0.5316763498
C  C17  1  0.73820000  0.25210000  0.93730000  1.0 -0.0592217804
C  C18  1  0.00210000  0.56480000  0.01390000  1.0 -0.0592217804
C  C19  1  0.55090000  0.98820000  0.98610000  1.0 -0.0592217804
C  C20  1  0.69910000  0.18520000  0.93730000  1.0 -0.0592217804
C  C21  1  0.24790000  0.76180000  0.06270000  1.0 -0.0592217804
C  C22  1  0.31480000  0.80090000  0.06270000  1.0 -0.0592217804
C  C23  1  0.93520000  0.49790000  0.98610000  1.0 -0.0592217804
C  C24  1  0.51180000  0.94910000  0.01390000  1.0 -0.0592217804
C  C25  1  0.01180000  0.99790000  0.56270000  1.0 -0.0592217804
C  C26  1  0.74790000  0.68520000  0.48610000  1.0 -0.0592217804
C  C27  1  0.19910000  0.26180000  0.51390000  1.0 -0.0592217804
C  C28  1  0.05090000  0.06480000  0.56270000  1.0 -0.0592217804
C  C29  1  0.50210000  0.48820000  0.43730000  1.0 -0.0592217804
C  C30  1  0.43520000  0.44910000  0.43730000  1.0 -0.0592217804
C  C31  1  0.81480000  0.75210000  0.51390000  1.0 -0.0592217804
C  C32  1  0.23820000  0.30090000  0.48610000  1.0 -0.0592217804
C  C33  1  0.69063000  0.26373000  0.93590000  1.0 -0.0129181437
C  C34  1  0.01373000  0.57783000  0.07310000  1.0 -0.0129181437
C  C35  1  0.50473000  0.94063000  0.92690000  1.0 -0.0129181437
C  C36  1  0.74527000  0.17217000  0.93590000  1.0 -0.0129181437
C  C37  1  0.23627000  0.80937000  0.06410000  1.0 -0.0129181437
C  C38  1  0.32783000  0.75473000  0.06410000  1.0 -0.0129181437
C  C39  1  0.92217000  0.48627000  0.92690000  1.0 -0.0129181437
C  C40  1  0.55937000  0.99527000  0.07310000  1.0 -0.0129181437
C  C41  1  0.05937000  0.98627000  0.56410000  1.0 -0.0129181437
C  C42  1  0.73627000  0.67217000  0.42690000  1.0 -0.0129181437
C  C43  1  0.24527000  0.30937000  0.57310000  1.0 -0.0129181437
C  C44  1  0.00473000  0.07783000  0.56410000  1.0 -0.0129181437
C  C45  1  0.51373000  0.44063000  0.43590000  1.0 -0.0129181437
C  C46  1  0.42217000  0.49527000  0.43590000  1.0 -0.0129181437
C  C47  1  0.82783000  0.76373000  0.57310000  1.0 -0.0129181437
C  C48  1  0.19063000  0.25473000  0.42690000  1.0 -0.0129181437
C  C49  1  0.76472000  0.20622000  0.93550000  1.0 0.0186279512
C  C50  1  0.95622000  0.52072000  0.94150000  1.0 0.0186279512
C  C51  1  0.57922000  0.01472000  0.05850000  1.0 0.0186279512
C  C52  1  0.67078000  0.22928000  0.93550000  1.0 0.0186279512
C  C53  1  0.29378000  0.73528000  0.06450000  1.0 0.0186279512
C  C54  1  0.27072000  0.82922000  0.06450000  1.0 0.0186279512
C  C55  1  0.97928000  0.54378000  0.05850000  1.0 0.0186279512
C  C56  1  0.48528000  0.92078000  0.94150000  1.0 0.0186279512
C  C57  1  0.98528000  0.04378000  0.56450000  1.0 0.0186279512
C  C58  1  0.79378000  0.72928000  0.55850000  1.0 0.0186279512
C  C59  1  0.17078000  0.23528000  0.44150000  1.0 0.0186279512
C  C60  1  0.07922000  0.02072000  0.56450000  1.0 0.0186279512
C  C61  1  0.45622000  0.51472000  0.43550000  1.0 0.0186279512
C  C62  1  0.47928000  0.42078000  0.43550000  1.0 0.0186279512
C  C63  1  0.77072000  0.70622000  0.44150000  1.0 0.0186279512
C  C64  1  0.26472000  0.32922000  0.55850000  1.0 0.0186279512
C  C65  1  0.69380000  0.37850000  0.03290000  1.0 -0.4765829709
C  C66  1  0.12850000  0.59560000  0.18470000  1.0 -0.4765829709
C  C67  1  0.41090000  0.94380000  0.81530000  1.0 -0.4765829709
C  C68  1  0.83910000  0.15440000  0.03290000  1.0 -0.4765829709
C  C69  1  0.12150000  0.80620000  0.96710000  1.0 -0.4765829709
C  C70  1  0.34560000  0.66090000  0.96710000  1.0 -0.4765829709
C  C71  1  0.90440000  0.37150000  0.81530000  1.0 -0.4765829709
C  C72  1  0.55620000  0.08910000  0.18470000  1.0 -0.4765829709
C  C73  1  0.05620000  0.87150000  0.46710000  1.0 -0.4765829709
C  C74  1  0.62150000  0.65440000  0.31530000  1.0 -0.4765829709
C  C75  1  0.33910000  0.30620000  0.68470000  1.0 -0.4765829709
C  C76  1  0.91090000  0.09560000  0.46710000  1.0 -0.4765829709
C  C77  1  0.62850000  0.44380000  0.53290000  1.0 -0.4765829709
C  C78  1  0.40440000  0.58910000  0.53290000  1.0 -0.4765829709
C  C79  1  0.84560000  0.87850000  0.68470000  1.0 -0.4765829709
C  C80  1  0.19380000  0.16090000  0.31530000  1.0 -0.4765829709
C  C81  1  0.78330000  0.13710000  0.83520000  1.0 -0.4695653193
C  C82  1  0.88710000  0.55190000  0.85380000  1.0 -0.4695653193
C  C83  1  0.69810000  0.03330000  0.14620000  1.0 -0.4695653193
C  C84  1  0.55190000  0.19810000  0.83520000  1.0 -0.4695653193
C  C85  1  0.36290000  0.71670000  0.16480000  1.0 -0.4695653193
C  C86  1  0.30190000  0.94810000  0.16480000  1.0 -0.4695653193
C  C87  1  0.94810000  0.61290000  0.14620000  1.0 -0.4695653193
C  C88  1  0.46670000  0.80190000  0.85380000  1.0 -0.4695653193
C  C89  1  0.96670000  0.11290000  0.66480000  1.0 -0.4695653193
C  C90  1  0.86290000  0.69810000  0.64620000  1.0 -0.4695653193
C  C91  1  0.05190000  0.21670000  0.35380000  1.0 -0.4695653193
C  C92  1  0.19810000  0.05190000  0.66480000  1.0 -0.4695653193
C  C93  1  0.38710000  0.53330000  0.33520000  1.0 -0.4695653193
C  C94  1  0.44810000  0.30190000  0.33520000  1.0 -0.4695653193
C  C95  1  0.80190000  0.63710000  0.35380000  1.0 -0.4695653193
C  C96  1  0.28330000  0.44810000  0.64620000  1.0 -0.4695653193
C  C97  1  0.85660000  0.50530000  0.11810000  1.0 0.2613990107
C  C98  1  0.25530000  0.63720000  0.14870000  1.0 0.2613990107
C  C99  1  0.48850000  0.10660000  0.85130000  1.0 0.2613990107
C  C100  1  0.76150000  0.11280000  0.11810000  1.0 0.2613990107
C  C101  1  0.99470000  0.64340000  0.88190000  1.0 0.2613990107
C  C102  1  0.38720000  0.73850000  0.88190000  1.0 0.2613990107
C  C103  1  0.86280000  0.24470000  0.85130000  1.0 0.2613990107
C  C104  1  0.39340000  0.01150000  0.14870000  1.0 0.2613990107
C  C105  1  0.89340000  0.74470000  0.38190000  1.0 0.2613990107
C  C106  1  0.49470000  0.61280000  0.35130000  1.0 0.2613990107
C  C107  1  0.26150000  0.14340000  0.64870000  1.0 0.2613990107
C  C108  1  0.98850000  0.13720000  0.38190000  1.0 0.2613990107
C  C109  1  0.75530000  0.60660000  0.61810000  1.0 0.2613990107
C  C110  1  0.36280000  0.51150000  0.61810000  1.0 0.2613990107
C  C111  1  0.88720000  0.00530000  0.64870000  1.0 0.2613990107
C  C112  1  0.35660000  0.23850000  0.35130000  1.0 0.2613990107
C  C113  1  0.87218000  0.56418000  0.18960000  1.0 -0.0129181437
C  C114  1  0.31418000  0.62458000  0.19200000  1.0 -0.0197764019
C  C115  1  0.43258000  0.12218000  0.80800000  1.0 -0.0197764019
C  C116  1  0.81742000  0.12542000  0.18960000  1.0 -0.0129181437
C  C117  1  0.93582000  0.62782000  0.81040000  1.0 -0.0197764019
C  C118  1  0.37458000  0.68258000  0.81040000  1.0 -0.0197764019
C  C119  1  0.87542000  0.18582000  0.80800000  1.0 -0.0197764019
C  C120  1  0.37782000  0.06742000  0.19200000  1.0 -0.0197764019
C  C121  1  0.87782000  0.68582000  0.31040000  1.0 -0.0129181437
C  C122  1  0.43582000  0.62542000  0.30800000  1.0 -0.0197764019
C  C123  1  0.31742000  0.12782000  0.69200000  1.0 -0.0197764019
C  C124  1  0.93258000  0.12458000  0.31040000  1.0 -0.0197764019
C  C125  1  0.81418000  0.62218000  0.68960000  1.0 -0.0197764019
C  C126  1  0.37542000  0.56742000  0.68960000  1.0 -0.0197764019
C  C127  1  0.87458000  0.06418000  0.69200000  1.0 -0.0197764019
C  C128  1  0.37218000  0.18258000  0.30800000  1.0 -0.0197764019
C  C129  1  0.93054000  0.59074000  0.25200000  1.0 -0.0197764019
C  C130  1  0.34074000  0.58874000  0.16020000  1.0 -0.0197764019
C  C131  1  0.42854000  0.18054000  0.83980000  1.0 -0.0197764019
C  C132  1  0.82146000  0.16126000  0.25200000  1.0 -0.0197764019
C  C133  1  0.90926000  0.56946000  0.74800000  1.0 -0.0197764019
C  C134  1  0.33874000  0.67854000  0.74800000  1.0 -0.0197764019
C  C135  1  0.91126000  0.15926000  0.83980000  1.0 -0.0197764019
C  C136  1  0.31946000  0.07146000  0.16020000  1.0 -0.0197764019
C  C137  1  0.81946000  0.65926000  0.24800000  1.0 -0.0197764019
C  C138  1  0.40926000  0.66126000  0.33980000  1.0 -0.0197764019
C  C139  1  0.32146000  0.06946000  0.66020000  1.0 -0.0197764019
C  C140  1  0.92854000  0.08874000  0.24800000  1.0 -0.0197764019
C  C141  1  0.84074000  0.68054000  0.75200000  1.0 -0.0197764019
C  C142  1  0.41126000  0.57146000  0.75200000  1.0 -0.0197764019
C  C143  1  0.83874000  0.09074000  0.66020000  1.0 -0.0197764019
C  C144  1  0.43054000  0.17854000  0.33980000  1.0 -0.0197764019
C  C145  1  0.94487000  0.64483000  0.31784000  1.0 -0.0399624236
C  C146  1  0.39483000  0.57699000  0.19996000  1.0 -0.0399624236
C  C147  1  0.37703000  0.19487000  0.80004000  1.0 -0.0399624236
C  C148  1  0.87297000  0.17301000  0.31784000  1.0 -0.0399624236
C  C149  1  0.85517000  0.55513000  0.68216000  1.0 -0.0399624236
C  C150  1  0.32699000  0.62703000  0.68216000  1.0 -0.0399624236
C  C151  1  0.92301000  0.10517000  0.80004000  1.0 -0.0399624236
C  C152  1  0.30513000  0.12297000  0.19996000  1.0 -0.0399624236
C  C153  1  0.80513000  0.60517000  0.18216000  1.0 -0.0399624236
C  C154  1  0.35517000  0.67301000  0.30004000  1.0 -0.0399624236
C  C155  1  0.37297000  0.05513000  0.69996000  1.0 -0.0399624236
C  C156  1  0.87703000  0.07699000  0.18216000  1.0 -0.0399624236
C  C157  1  0.89483000  0.69487000  0.81784000  1.0 -0.0399624236
C  C158  1  0.42301000  0.62297000  0.81784000  1.0 -0.0399624236
C  C159  1  0.82699000  0.14483000  0.69996000  1.0 -0.0399624236
C  C160  1  0.44487000  0.12703000  0.30004000  1.0 -0.0399624236
C  C161  1  0.84924000  0.57764000  0.17880000  1.0 -0.0197764019
C  C162  1  0.32764000  0.64884000  0.22840000  1.0 -0.0197764019
C  C163  1  0.42044000  0.09924000  0.77160000  1.0 -0.0197764019
C  C164  1  0.82956000  0.10116000  0.17880000  1.0 -0.0197764019
C  C165  1  0.92236000  0.65076000  0.82120000  1.0 -0.0197764019
C  C166  1  0.39884000  0.67044000  0.82120000  1.0 -0.0197764019
C  C167  1  0.85116000  0.17236000  0.77160000  1.0 -0.0197764019
C  C168  1  0.40076000  0.07956000  0.22840000  1.0 -0.0197764019
C  C169  1  0.90076000  0.67236000  0.32120000  1.0 -0.0197764019
C  C170  1  0.42236000  0.60116000  0.27160000  1.0 -0.0197764019
C  C171  1  0.32956000  0.15076000  0.72840000  1.0 -0.0197764019
C  C172  1  0.92044000  0.14884000  0.32120000  1.0 -0.0197764019
C  C173  1  0.82764000  0.59924000  0.67880000  1.0 -0.0197764019
C  C174  1  0.35116000  0.57956000  0.67880000  1.0 -0.0197764019
C  C175  1  0.89884000  0.07764000  0.72840000  1.0 -0.0197764019
C  C176  1  0.34924000  0.17044000  0.27160000  1.0 -0.0197764019
C  C177  1  0.90770000  0.60430000  0.24140000  1.0 -0.026630795
C  C178  1  0.35430000  0.61290000  0.19660000  1.0 -0.026630795
C  C179  1  0.41630000  0.15770000  0.80340000  1.0 -0.026630795
C  C180  1  0.83370000  0.13710000  0.24140000  1.0 -0.026630795
C  C181  1  0.89570000  0.59230000  0.75860000  1.0 -0.026630795
C  C182  1  0.36290000  0.66630000  0.75860000  1.0 -0.026630795
C  C183  1  0.88710000  0.14570000  0.80340000  1.0 -0.026630795
C  C184  1  0.34230000  0.08370000  0.19660000  1.0 -0.026630795
C  C185  1  0.84230000  0.64570000  0.25860000  1.0 -0.026630795
C  C186  1  0.39570000  0.63710000  0.30340000  1.0 -0.026630795
C  C187  1  0.33370000  0.09230000  0.69660000  1.0 -0.026630795
C  C188  1  0.91630000  0.11290000  0.25860000  1.0 -0.026630795
C  C189  1  0.85430000  0.65770000  0.74140000  1.0 -0.026630795
C  C190  1  0.38710000  0.58370000  0.74140000  1.0 -0.026630795
C  C191  1  0.86290000  0.10430000  0.69660000  1.0 -0.026630795
C  C192  1  0.40770000  0.16630000  0.30340000  1.0 -0.026630795
C  C193  1  0.92201000  0.65839000  0.30722000  1.0 -0.0197764019
C  C194  1  0.40839000  0.60117000  0.23638000  1.0 -0.0197764019
C  C195  1  0.36479000  0.17201000  0.76362000  1.0 -0.0197764019
C  C196  1  0.88521000  0.14883000  0.30722000  1.0 -0.0197764019
C  C197  1  0.84161000  0.57799000  0.69278000  1.0 -0.0197764019
C  C198  1  0.35117000  0.61479000  0.69278000  1.0 -0.0197764019
C  C199  1  0.89883000  0.09161000  0.76362000  1.0 -0.0197764019
C  C200  1  0.32799000  0.13521000  0.23638000  1.0 -0.0197764019
C  C201  1  0.82799000  0.59161000  0.19278000  1.0 -0.0197764019
C  C202  1  0.34161000  0.64883000  0.26362000  1.0 -0.0197764019
C  C203  1  0.38521000  0.07799000  0.73638000  1.0 -0.0197764019
C  C204  1  0.86479000  0.10117000  0.19278000  1.0 -0.0197764019
C  C205  1  0.90839000  0.67201000  0.80722000  1.0 -0.0197764019
C  C206  1  0.39883000  0.63521000  0.80722000  1.0 -0.0197764019
C  C207  1  0.85117000  0.15839000  0.73638000  1.0 -0.0197764019
C  C208  1  0.42201000  0.11479000  0.26362000  1.0 -0.0197764019
C  C209  1  0.83402000  0.51872000  0.10730000  1.0 0.2499272167
C  C210  1  0.26872000  0.66142000  0.18470000  1.0 0.2499272167
C  C211  1  0.47672000  0.08402000  0.81530000  1.0 0.2499272167
C  C212  1  0.77328000  0.08858000  0.10730000  1.0 0.2499272167
C  C213  1  0.98128000  0.66598000  0.89270000  1.0 0.2499272167
C  C214  1  0.41142000  0.72672000  0.89270000  1.0 0.2499272167
C  C215  1  0.83858000  0.23128000  0.81530000  1.0 0.2499272167
C  C216  1  0.41598000  0.02328000  0.18470000  1.0 0.2499272167
C  C217  1  0.91598000  0.73128000  0.39270000  1.0 0.2499272167
C  C218  1  0.48128000  0.58858000  0.31530000  1.0 0.2499272167
C  C219  1  0.27328000  0.16598000  0.68470000  1.0 0.2499272167
C  C220  1  0.97672000  0.16142000  0.39270000  1.0 0.2499272167
C  C221  1  0.76872000  0.58402000  0.60730000  1.0 0.2499272167
C  C222  1  0.33858000  0.52328000  0.60730000  1.0 0.2499272167
C  C223  1  0.91142000  0.01872000  0.68470000  1.0 0.2499272167
C  C224  1  0.33402000  0.22672000  0.31530000  1.0 0.2499272167
C  C225  1  0.00010000  0.51540000  0.27670000  1.0 -0.2012125314
C  C226  1  0.26540000  0.48870000  0.01530000  1.0 -0.2012125314
C  C227  1  0.47340000  0.25010000  0.98470000  1.0 -0.2012125314
C  C228  1  0.77660000  0.26130000  0.27670000  1.0 -0.2012125314
C  C229  1  0.98460000  0.49990000  0.72330000  1.0 -0.2012125314
C  C230  1  0.23870000  0.72340000  0.72330000  1.0 -0.2012125314
C  C231  1  0.01130000  0.23460000  0.98470000  1.0 -0.2012125314
C  C232  1  0.24990000  0.02660000  0.01530000  1.0 -0.2012125314
C  C233  1  0.74990000  0.73460000  0.22330000  1.0 -0.2012125314
C  C234  1  0.48460000  0.76130000  0.48470000  1.0 -0.2012125314
C  C235  1  0.27660000  0.99990000  0.51530000  1.0 -0.2012125314
C  C236  1  0.97340000  0.98870000  0.22330000  1.0 -0.2012125314
C  C237  1  0.76540000  0.75010000  0.77670000  1.0 -0.2012125314
C  C238  1  0.51130000  0.52660000  0.77670000  1.0 -0.2012125314
C  C239  1  0.73870000  0.01540000  0.51530000  1.0 -0.2012125314
C  C240  1  0.50010000  0.22340000  0.48470000  1.0 -0.2012125314
C  C241  1  0.03340000  0.71340000  0.37800000  1.0 -0.1828434732
C  C242  1  0.46340000  0.58540000  0.18000000  1.0 -0.1828434732
C  C243  1  0.40540000  0.28340000  0.82000000  1.0 -0.1828434732
C  C244  1  0.84460000  0.16460000  0.37800000  1.0 -0.1828434732
C  C245  1  0.78660000  0.46660000  0.62200000  1.0 -0.1828434732
C  C246  1  0.33540000  0.65540000  0.62200000  1.0 -0.1828434732
C  C247  1  0.91460000  0.03660000  0.82000000  1.0 -0.1828434732
C  C248  1  0.21660000  0.09460000  0.18000000  1.0 -0.1828434732
C  C249  1  0.71660000  0.53660000  0.12200000  1.0 -0.1828434732
C  C250  1  0.28660000  0.66460000  0.32000000  1.0 -0.1828434732
C  C251  1  0.34460000  0.96660000  0.68000000  1.0 -0.1828434732
C  C252  1  0.90540000  0.08540000  0.12200000  1.0 -0.1828434732
C  C253  1  0.96340000  0.78340000  0.87800000  1.0 -0.1828434732
C  C254  1  0.41460000  0.59460000  0.87800000  1.0 -0.1828434732
C  C255  1  0.83540000  0.21340000  0.68000000  1.0 -0.1828434732
C  C256  1  0.53340000  0.15540000  0.32000000  1.0 -0.1828434732
C  C257  1  0.98540000  0.53850000  0.27970000  1.0 -0.1718172361
C  C258  1  0.28850000  0.50880000  0.05310000  1.0 -0.1718172361
C  C259  1  0.45570000  0.23540000  0.94690000  1.0 -0.1718172361
C  C260  1  0.79430000  0.24120000  0.27970000  1.0 -0.1718172361
C  C261  1  0.96150000  0.51460000  0.72030000  1.0 -0.1718172361
C  C262  1  0.25880000  0.70570000  0.72030000  1.0 -0.1718172361
C  C263  1  0.99120000  0.21150000  0.94690000  1.0 -0.1718172361
C  C264  1  0.26460000  0.04430000  0.05310000  1.0 -0.1718172361
C  C265  1  0.76460000  0.71150000  0.22030000  1.0 -0.1718172361
C  C266  1  0.46150000  0.74120000  0.44690000  1.0 -0.1718172361
C  C267  1  0.29430000  0.01460000  0.55310000  1.0 -0.1718172361
C  C268  1  0.95570000  0.00880000  0.22030000  1.0 -0.1718172361
C  C269  1  0.78850000  0.73540000  0.77970000  1.0 -0.1718172361
C  C270  1  0.49120000  0.54430000  0.77970000  1.0 -0.1718172361
C  C271  1  0.75880000  0.03850000  0.55310000  1.0 -0.1718172361
C  C272  1  0.48540000  0.20570000  0.44690000  1.0 -0.1718172361
C  C273  1  0.01260000  0.72020000  0.36240000  1.0 -0.1891193701
C  C274  1  0.47020000  0.60780000  0.20760000  1.0 -0.1891193701
C  C275  1  0.40020000  0.26260000  0.79240000  1.0 -0.1891193701
C  C276  1  0.84980000  0.14220000  0.36240000  1.0 -0.1891193701
C  C277  1  0.77980000  0.48740000  0.63760000  1.0 -0.1891193701
C  C278  1  0.35780000  0.65020000  0.63760000  1.0 -0.1891193701
C  C279  1  0.89220000  0.02980000  0.79240000  1.0 -0.1891193701
C  C280  1  0.23740000  0.09980000  0.20760000  1.0 -0.1891193701
C  C281  1  0.73740000  0.52980000  0.13760000  1.0 -0.1891193701
C  C282  1  0.27980000  0.64220000  0.29240000  1.0 -0.1891193701
C  C283  1  0.34980000  0.98740000  0.70760000  1.0 -0.1891193701
C  C284  1  0.90020000  0.10780000  0.13760000  1.0 -0.1891193701
C  C285  1  0.97020000  0.76260000  0.86240000  1.0 -0.1891193701
C  C286  1  0.39220000  0.59980000  0.86240000  1.0 -0.1891193701
C  C287  1  0.85780000  0.22020000  0.70760000  1.0 -0.1891193701
C  C288  1  0.51260000  0.15020000  0.29240000  1.0 -0.1891193701
C  C289  1  0.19400000  0.35030000  0.29310000  1.0 0.2499272167
C  C290  1  0.10030000  0.30720000  0.65630000  1.0 0.2499272167
C  C291  1  0.65090000  0.44400000  0.34370000  1.0 0.2499272167
C  C292  1  0.59910000  0.44280000  0.29310000  1.0 0.2499272167
C  C293  1  0.14970000  0.30600000  0.70690000  1.0 0.2499272167
C  C294  1  0.05720000  0.90090000  0.70690000  1.0 0.2499272167
C  C295  1  0.19280000  0.39970000  0.34370000  1.0 0.2499272167
C  C296  1  0.05600000  0.84910000  0.65630000  1.0 0.2499272167
C  C297  1  0.55600000  0.89970000  0.20690000  1.0 0.2499272167
C  C298  1  0.64970000  0.94280000  0.84370000  1.0 0.2499272167
C  C299  1  0.09910000  0.80600000  0.15630000  1.0 0.2499272167
C  C300  1  0.15090000  0.80720000  0.20690000  1.0 0.2499272167
C  C301  1  0.60030000  0.94400000  0.79310000  1.0 0.2499272167
C  C302  1  0.69280000  0.34910000  0.79310000  1.0 0.2499272167
C  C303  1  0.55720000  0.85030000  0.15630000  1.0 0.2499272167
C  C304  1  0.69400000  0.40090000  0.84370000  1.0 0.2499272167
C  C305  1  0.13400000  0.35182000  0.23638000  1.0 -0.0902089669
C  C306  1  0.10182000  0.36544000  0.71782000  1.0 -0.0902089669
C  C307  1  0.64762000  0.38400000  0.28218000  1.0 -0.0902089669
C  C308  1  0.60238000  0.38456000  0.23638000  1.0 -0.0902089669
C  C309  1  0.14818000  0.36600000  0.76362000  1.0 -0.0902089669
C  C310  1  0.11544000  0.89762000  0.76362000  1.0 -0.0902089669
C  C311  1  0.13456000  0.39818000  0.28218000  1.0 -0.0902089669
C  C312  1  0.11600000  0.85238000  0.71782000  1.0 -0.0902089669
C  C313  1  0.61600000  0.89818000  0.26362000  1.0 -0.0902089669
C  C314  1  0.64818000  0.88456000  0.78218000  1.0 -0.0902089669
C  C315  1  0.10238000  0.86600000  0.21782000  1.0 -0.0902089669
C  C316  1  0.14762000  0.86544000  0.26362000  1.0 -0.0902089669
C  C317  1  0.60182000  0.88400000  0.73638000  1.0 -0.0902089669
C  C318  1  0.63456000  0.35238000  0.73638000  1.0 -0.0902089669
C  C319  1  0.61544000  0.85182000  0.21782000  1.0 -0.0902089669
C  C320  1  0.63400000  0.39762000  0.78218000  1.0 -0.0902089669
C  C321  1  0.12818000  0.39818000  0.23680000  1.0 -0.0129181437
C  C322  1  0.14818000  0.41138000  0.77000000  1.0 -0.0129181437
C  C323  1  0.64138000  0.37818000  0.23000000  1.0 -0.0129181437
C  C324  1  0.60862000  0.33862000  0.23680000  1.0 -0.0129181437
C  C325  1  0.10182000  0.37182000  0.76320000  1.0 -0.0129181437
C  C326  1  0.16138000  0.89138000  0.76320000  1.0 -0.0129181437
C  C327  1  0.08862000  0.35182000  0.23000000  1.0 -0.0129181437
C  C328  1  0.12182000  0.85862000  0.77000000  1.0 -0.0129181437
C  C329  1  0.62182000  0.85182000  0.26320000  1.0 -0.0129181437
C  C330  1  0.60182000  0.83862000  0.73000000  1.0 -0.0129181437
C  C331  1  0.10862000  0.87182000  0.27000000  1.0 -0.0129181437
C  C332  1  0.14138000  0.91138000  0.26320000  1.0 -0.0129181437
C  C333  1  0.64818000  0.87818000  0.73680000  1.0 -0.0129181437
C  C334  1  0.58862000  0.35862000  0.73680000  1.0 -0.0129181437
C  C335  1  0.66138000  0.89818000  0.27000000  1.0 -0.0129181437
C  C336  1  0.62818000  0.39138000  0.73000000  1.0 -0.0129181437
C  C337  1  0.07357000  0.40146000  0.18589000  1.0 -0.0129181437
C  C338  1  0.15146000  0.46557000  0.82789000  1.0 -0.0129181437
C  C339  1  0.63768000  0.32357000  0.17211000  1.0 -0.0129181437
C  C340  1  0.61232000  0.28443000  0.18589000  1.0 -0.0129181437
C  C341  1  0.09854000  0.42643000  0.81411000  1.0 -0.0129181437
C  C342  1  0.21557000  0.88768000  0.81411000  1.0 -0.0129181437
C  C343  1  0.03443000  0.34854000  0.17211000  1.0 -0.0129181437
C  C344  1  0.17643000  0.86232000  0.82789000  1.0 -0.0129181437
C  C345  1  0.67643000  0.84854000  0.31411000  1.0 -0.0129181437
C  C346  1  0.59854000  0.78443000  0.67211000  1.0 -0.0129181437
C  C347  1  0.11232000  0.92643000  0.32789000  1.0 -0.0129181437
C  C348  1  0.13768000  0.96557000  0.31411000  1.0 -0.0129181437
C  C349  1  0.65146000  0.82357000  0.68589000  1.0 -0.0129181437
C  C350  1  0.53443000  0.36232000  0.68589000  1.0 -0.0129181437
C  C351  1  0.71557000  0.90146000  0.32789000  1.0 -0.0129181437
C  C352  1  0.57357000  0.38768000  0.67211000  1.0 -0.0129181437
C  C353  1  0.02486000  0.35830000  0.13456000  1.0 -0.0129181437
C  C354  1  0.10830000  0.47374000  0.83344000  1.0 -0.0129181437
C  C355  1  0.64030000  0.27486000  0.16656000  1.0 -0.0129181437
C  C356  1  0.60970000  0.27626000  0.13456000  1.0 -0.0129181437
C  C357  1  0.14170000  0.47514000  0.86544000  1.0 -0.0129181437
C  C358  1  0.22374000  0.89030000  0.86544000  1.0 -0.0129181437
C  C359  1  0.02626000  0.39170000  0.16656000  1.0 -0.0129181437
C  C360  1  0.22514000  0.85970000  0.83344000  1.0 -0.0129181437
C  C361  1  0.72514000  0.89170000  0.36544000  1.0 -0.0129181437
C  C362  1  0.64170000  0.77626000  0.66656000  1.0 -0.0129181437
C  C363  1  0.10970000  0.97514000  0.33344000  1.0 -0.0129181437
C  C364  1  0.14030000  0.97374000  0.36544000  1.0 -0.0129181437
C  C365  1  0.60830000  0.77486000  0.63456000  1.0 -0.0129181437
C  C366  1  0.52626000  0.35970000  0.63456000  1.0 -0.0129181437
C  C367  1  0.72374000  0.85830000  0.33344000  1.0 -0.0129181437
C  C368  1  0.52486000  0.39030000  0.66656000  1.0 -0.0129181437
C  C369  1  0.07226000  0.43805000  0.21879000  1.0 -0.0129181437
C  C370  1  0.18805000  0.46926000  0.86579000  1.0 -0.0129181437
C  C371  1  0.60347000  0.32226000  0.13421000  1.0 -0.0129181437
C  C372  1  0.64653000  0.28074000  0.21879000  1.0 -0.0129181437
C  C373  1  0.06195000  0.42774000  0.78121000  1.0 -0.0129181437
C  C374  1  0.21926000  0.85347000  0.78121000  1.0 -0.0129181437
C  C375  1  0.03074000  0.31195000  0.13421000  1.0 -0.0129181437
C  C376  1  0.17774000  0.89653000  0.86579000  1.0 -0.0129181437
C  C377  1  0.67774000  0.81195000  0.28121000  1.0 -0.0129181437
C  C378  1  0.56195000  0.78074000  0.63421000  1.0 -0.0129181437
C  C379  1  0.14653000  0.92774000  0.36579000  1.0 -0.0129181437
C  C380  1  0.10347000  0.96926000  0.28121000  1.0 -0.0129181437
C  C381  1  0.68805000  0.82226000  0.71879000  1.0 -0.0129181437
C  C382  1  0.53074000  0.39653000  0.71879000  1.0 -0.0129181437
C  C383  1  0.71926000  0.93805000  0.36579000  1.0 -0.0129181437
C  C384  1  0.57226000  0.35347000  0.63421000  1.0 -0.0129181437
C  C385  1  0.12635000  0.44132000  0.27657000  1.0 -0.0129181437
C  C386  1  0.19132000  0.41475000  0.81497000  1.0 -0.0129181437
C  C387  1  0.59978000  0.37635000  0.18503000  1.0 -0.0129181437
C  C388  1  0.65022000  0.33525000  0.27657000  1.0 -0.0129181437
C  C389  1  0.05868000  0.37365000  0.72343000  1.0 -0.0129181437
C  C390  1  0.16475000  0.84978000  0.72343000  1.0 -0.0129181437
C  C391  1  0.08525000  0.30868000  0.18503000  1.0 -0.0129181437
C  C392  1  0.12365000  0.90022000  0.81497000  1.0 -0.0129181437
C  C393  1  0.62365000  0.80868000  0.22343000  1.0 -0.0129181437
C  C394  1  0.55868000  0.83525000  0.68503000  1.0 -0.0129181437
C  C395  1  0.15022000  0.87365000  0.31497000  1.0 -0.0129181437
C  C396  1  0.09978000  0.91475000  0.22343000  1.0 -0.0129181437
C  C397  1  0.69132000  0.87635000  0.77657000  1.0 -0.0129181437
C  C398  1  0.58525000  0.40022000  0.77657000  1.0 -0.0129181437
C  C399  1  0.66475000  0.94132000  0.31497000  1.0 -0.0129181437
C  C400  1  0.62635000  0.34978000  0.68503000  1.0 -0.0129181437
C  C401  1  0.22600000  0.41700000  0.26020000  1.0 -0.5737487726
C  C402  1  0.16700000  0.40680000  0.69100000  1.0 -0.5737487726
C  C403  1  0.71580000  0.47600000  0.30900000  1.0 -0.5737487726
C  C404  1  0.53420000  0.34320000  0.26020000  1.0 -0.5737487726
C  C405  1  0.08300000  0.27400000  0.73980000  1.0 -0.5737487726
C  C406  1  0.15680000  0.96580000  0.73980000  1.0 -0.5756420665
C  C407  1  0.09320000  0.33300000  0.30900000  1.0 -0.5737487726
C  C408  1  0.02400000  0.78420000  0.69100000  1.0 -0.5737487726
C  C409  1  0.52400000  0.83300000  0.23980000  1.0 -0.5756420665
C  C410  1  0.58300000  0.84320000  0.80900000  1.0 -0.5756420665
C  C411  1  0.03420000  0.77400000  0.19100000  1.0 -0.5756420665
C  C412  1  0.21580000  0.90680000  0.23980000  1.0 -0.5756420665
C  C413  1  0.66700000  0.97600000  0.76020000  1.0 -0.5756420665
C  C414  1  0.59320000  0.28420000  0.76020000  1.0 -0.5737487726
C  C415  1  0.65680000  0.91700000  0.19100000  1.0 -0.5756420665
C  C416  1  0.72600000  0.46580000  0.80900000  1.0 -0.5737487726
C  C417  1  0.07680000  0.43270000  0.12130000  1.0 -0.2105288314
C  C418  1  0.18270000  0.56140000  0.85590000  1.0 -0.2105288314
C  C419  1  0.70550000  0.32680000  0.14410000  1.0 -0.2105288314
C  C420  1  0.54450000  0.18860000  0.12130000  1.0 -0.2105288314
C  C421  1  0.06730000  0.42320000  0.87870000  1.0 -0.2105288314
C  C422  1  0.31140000  0.95550000  0.87870000  1.0 -0.2105288314
C  C423  1  0.93860000  0.31730000  0.14410000  1.0 -0.2105288314
C  C424  1  0.17320000  0.79450000  0.85590000  1.0 -0.2105288314
C  C425  1  0.67320000  0.81730000  0.37870000  1.0 -0.2105288314
C  C426  1  0.56730000  0.68860000  0.64410000  1.0 -0.2105288314
C  C427  1  0.04450000  0.92320000  0.35590000  1.0 -0.2105288314
C  C428  1  0.20550000  0.06140000  0.37870000  1.0 -0.2105288314
C  C429  1  0.68270000  0.82680000  0.62130000  1.0 -0.2105288314
C  C430  1  0.43860000  0.29450000  0.62130000  1.0 -0.2105288314
C  C431  1  0.81140000  0.93270000  0.35590000  1.0 -0.2105288314
C  C432  1  0.57680000  0.45550000  0.64410000  1.0 -0.2105288314
C  C433  1  0.08370000  0.46020000  0.15590000  1.0 -0.1522175078
C  C434  1  0.21020000  0.55430000  0.87650000  1.0 -0.1522175078
C  C435  1  0.67780000  0.33370000  0.12350000  1.0 -0.1522175078
C  C436  1  0.57220000  0.19570000  0.15590000  1.0 -0.1522175078
C  C437  1  0.03980000  0.41630000  0.84410000  1.0 -0.1522175078
C  C438  1  0.30430000  0.92780000  0.84410000  1.0 -0.1522175078
C  C439  1  0.94570000  0.28980000  0.12350000  1.0 -0.1522175078
C  C440  1  0.16630000  0.82220000  0.87650000  1.0 -0.1522175078
C  C441  1  0.66630000  0.78980000  0.34410000  1.0 -0.1522175078
C  C442  1  0.53980000  0.69570000  0.62350000  1.0 -0.1522175078
C  C443  1  0.07220000  0.91630000  0.37650000  1.0 -0.1522175078
C  C444  1  0.17780000  0.05430000  0.34410000  1.0 -0.1522175078
C  C445  1  0.71020000  0.83370000  0.65590000  1.0 -0.1522175078
C  C446  1  0.44570000  0.32220000  0.65590000  1.0 -0.1522175078
C  C447  1  0.80430000  0.96020000  0.37650000  1.0 -0.1522175078
C  C448  1  0.58370000  0.42780000  0.62350000  1.0 -0.1522175078
C  C449  1  0.15630000  0.55390000  0.39460000  1.0 -0.5737487726
C  C450  1  0.30390000  0.40930000  0.89760000  1.0 -0.5737487726
C  C451  1  0.51170000  0.40630000  0.10240000  1.0 -0.5737487726
C  C452  1  0.73830000  0.34070000  0.39460000  1.0 -0.5737487726
C  C453  1  0.94610000  0.34370000  0.60540000  1.0 -0.5737487726
C  C454  1  0.15930000  0.76170000  0.60540000  1.0 -0.5737487726
C  C455  1  0.09070000  0.19610000  0.10240000  1.0 -0.5737487726
C  C456  1  0.09370000  0.98830000  0.89760000  1.0 -0.5737487726
C  C457  1  0.59370000  0.69610000  0.10540000  1.0 -0.5737487726
C  C458  1  0.44610000  0.84070000  0.60240000  1.0 -0.5737487726
C  C459  1  0.23830000  0.84370000  0.39760000  1.0 -0.5737487726
C  C460  1  0.01170000  0.90930000  0.10540000  1.0 -0.5737487726
C  C461  1  0.80390000  0.90630000  0.89460000  1.0 -0.5737487726
C  C462  1  0.59070000  0.48830000  0.89460000  1.0 -0.5737487726
C  C463  1  0.65930000  0.05390000  0.39760000  1.0 -0.5737487726
C  C464  1  0.65630000  0.26170000  0.60240000  1.0 -0.5737487726
C  C465  1  0.96790000  0.37500000  0.09290000  1.0 0.2688528314
C  C466  1  0.12500000  0.53210000  0.90710000  1.0 0.2688528314
C  C467  1  0.62500000  0.21790000  0.09290000  1.0 0.2688528314
C  C468  1  0.28210000  0.87500000  0.90710000  1.0 0.2688528314
C  C469  1  0.78210000  0.87500000  0.40710000  1.0 0.2688528314
C  C470  1  0.62500000  0.71790000  0.59290000  1.0 0.2688528314
C  C471  1  0.12500000  0.03210000  0.40710000  1.0 0.2688528314
C  C472  1  0.46790000  0.37500000  0.59290000  1.0 0.2688528314
S  S1  1  0.98547000  0.55289000  0.24404000  1.0 0.0295693876
S  S2  1  0.30289000  0.55885000  0.06742000  1.0 0.0295693876
S  S3  1  0.49143000  0.23547000  0.93258000  1.0 0.0295693876
S  S4  1  0.75857000  0.19115000  0.24404000  1.0 0.0295693876
S  S5  1  0.94711000  0.51453000  0.75596000  1.0 0.0295693876
S  S6  1  0.30885000  0.74143000  0.75596000  1.0 0.0295693876
S  S7  1  0.94115000  0.19711000  0.93258000  1.0 0.0295693876
S  S8  1  0.26453000  0.00857000  0.06742000  1.0 0.0295693876
S  S9  1  0.76453000  0.69711000  0.25596000  1.0 0.0295693876
S  S10  1  0.44711000  0.69115000  0.43258000  1.0 0.0295693876
S  S11  1  0.25857000  0.01453000  0.56742000  1.0 0.0295693876
S  S12  1  0.99143000  0.05885000  0.25596000  1.0 0.0295693876
S  S13  1  0.80289000  0.73547000  0.74404000  1.0 0.0295693876
S  S14  1  0.44115000  0.50857000  0.74404000  1.0 0.0295693876
S  S15  1  0.80885000  0.05289000  0.56742000  1.0 0.0295693876
S  S16  1  0.48547000  0.24143000  0.43258000  1.0 0.0295693876
S  S17  1  0.01969000  0.68088000  0.40007000  1.0 -0.0197764019
S  S18  1  0.43088000  0.53081000  0.16119000  1.0 -0.0197764019
S  S19  1  0.36962000  0.26969000  0.83881000  1.0 -0.0197764019
S  S20  1  0.88038000  0.21919000  0.40007000  1.0 -0.0197764019
S  S21  1  0.81912000  0.48031000  0.59993000  1.0 -0.0197764019
S  S22  1  0.28081000  0.61962000  0.59993000  1.0 -0.0197764019
S  S23  1  0.96919000  0.06912000  0.83881000  1.0 -0.0197764019
S  S24  1  0.23031000  0.13038000  0.16119000  1.0 -0.0197764019
S  S25  1  0.73031000  0.56912000  0.09993000  1.0 -0.0197764019
S  S26  1  0.31912000  0.71919000  0.33881000  1.0 -0.0197764019
S  S27  1  0.38038000  0.98031000  0.66119000  1.0 -0.0197764019
S  S28  1  0.86962000  0.03081000  0.09993000  1.0 -0.0197764019
S  S29  1  0.93088000  0.76969000  0.90007000  1.0 -0.0197764019
S  S30  1  0.46919000  0.63038000  0.90007000  1.0 -0.0197764019
S  S31  1  0.78081000  0.18088000  0.66119000  1.0 -0.0197764019
S  S32  1  0.51969000  0.11962000  0.33881000  1.0 -0.0197764019
S  S33  1  0.96226000  0.56575000  0.23251000  1.0 0.0400198281
S  S34  1  0.31575000  0.58324000  0.10349000  1.0 0.0400198281
S  S35  1  0.47975000  0.21226000  0.89651000  1.0 0.0400198281
S  S36  1  0.77025000  0.16676000  0.23251000  1.0 0.0400198281
S  S37  1  0.93425000  0.53774000  0.76749000  1.0 0.0400198281
S  S38  1  0.33324000  0.72975000  0.76749000  1.0 0.0400198281
S  S39  1  0.91676000  0.18425000  0.89651000  1.0 0.0400198281
S  S40  1  0.28774000  0.02025000  0.10349000  1.0 0.0400198281
S  S41  1  0.78774000  0.68425000  0.26749000  1.0 0.0400198281
S  S42  1  0.43425000  0.66676000  0.39651000  1.0 0.0400198281
S  S43  1  0.27025000  0.03774000  0.60349000  1.0 0.0400198281
S  S44  1  0.97975000  0.08324000  0.26749000  1.0 0.0400198281
S  S45  1  0.81575000  0.71226000  0.73251000  1.0 0.0400198281
S  S46  1  0.41676000  0.52025000  0.73251000  1.0 0.0400198281
S  S47  1  0.83324000  0.06575000  0.60349000  1.0 0.0400198281
S  S48  1  0.46226000  0.22975000  0.39651000  1.0 0.0400198281
S  S49  1  0.99664000  0.69489000  0.38923000  1.0 0.0710650947
S  S50  1  0.44489000  0.55566000  0.19825000  1.0 0.0710650947
S  S51  1  0.35741000  0.24664000  0.80175000  1.0 0.0710650947
S  S52  1  0.89259000  0.19434000  0.38923000  1.0 0.0710650947
S  S53  1  0.80511000  0.50336000  0.61077000  1.0 0.0710650947
S  S54  1  0.30566000  0.60741000  0.61077000  1.0 0.0710650947
S  S55  1  0.94434000  0.05511000  0.80175000  1.0 0.0710650947
S  S56  1  0.25336000  0.14259000  0.19825000  1.0 0.0620344683
S  S57  1  0.75336000  0.55511000  0.11077000  1.0 0.0710650947
S  S58  1  0.30511000  0.69434000  0.30175000  1.0 0.0710650947
S  S59  1  0.39259000  0.00336000  0.69825000  1.0 0.0710650947
S  S60  1  0.85741000  0.05566000  0.11077000  1.0 0.0710650947
S  S61  1  0.94489000  0.74664000  0.88923000  1.0 0.0710650947
S  S62  1  0.44434000  0.64259000  0.88923000  1.0 0.0710650947
S  S63  1  0.80566000  0.19489000  0.69825000  1.0 0.0710650947
S  S64  1  0.49664000  0.10741000  0.30175000  1.0 0.0710650947
S  S65  1  0.19182000  0.45354000  0.30408000  1.0 0.1103855752
S  S66  1  0.20354000  0.39946000  0.76172000  1.0 0.1103855752
S  S67  1  0.63774000  0.44182000  0.23828000  1.0 0.1103855752
S  S68  1  0.61226000  0.35054000  0.30408000  1.0 0.1103855752
S  S69  1  0.04646000  0.30818000  0.69592000  1.0 0.1103855752
S  S70  1  0.14946000  0.88774000  0.69592000  1.0 0.1103855752
S  S71  1  0.10054000  0.29646000  0.23828000  1.0 0.1103855752
S  S72  1  0.05818000  0.86226000  0.76172000  1.0 0.1103855752
S  S73  1  0.55818000  0.79646000  0.19592000  1.0 0.1103855752
S  S74  1  0.54646000  0.85054000  0.73828000  1.0 0.1103855752
S  S75  1  0.11226000  0.80818000  0.26172000  1.0 0.1103855752
S  S76  1  0.13774000  0.89946000  0.19592000  1.0 0.1103855752
S  S77  1  0.70354000  0.94182000  0.80408000  1.0 0.1103855752
S  S78  1  0.60054000  0.36226000  0.80408000  1.0 0.1103855752
S  S79  1  0.64946000  0.95354000  0.26172000  1.0 0.1103855752
S  S80  1  0.69182000  0.38774000  0.73828000  1.0 0.1103855752
S  S81  1  0.06329000  0.46104000  0.18399000  1.0 0.0783818215
S  S82  1  0.21104000  0.52705000  0.89775000  1.0 0.0783818215
S  S83  1  0.62930000  0.31329000  0.10225000  1.0 0.0783818215
S  S84  1  0.62070000  0.22295000  0.18399000  1.0 0.0783818215
S  S85  1  0.03896000  0.43671000  0.81601000  1.0 0.0783818215
S  S86  1  0.27705000  0.87930000  0.81601000  1.0 0.0783818215
S  S87  1  0.97295000  0.28896000  0.10225000  1.0 0.0783818215
S  S88  1  0.18671000  0.87070000  0.89775000  1.0 0.0783818215
S  S89  1  0.68671000  0.78896000  0.31601000  1.0 0.0783818215
S  S90  1  0.53896000  0.72295000  0.60225000  1.0 0.0783818215
S  S91  1  0.12070000  0.93671000  0.39775000  1.0 0.0783818215
S  S92  1  0.12930000  0.02705000  0.31601000  1.0 0.0783818215
S  S93  1  0.71104000  0.81329000  0.68399000  1.0 0.0783818215
S  S94  1  0.47295000  0.37070000  0.68399000  1.0 0.0783818215
S  S95  1  0.77705000  0.96104000  0.39775000  1.0 0.0783818215
S  S96  1  0.56329000  0.37930000  0.60225000  1.0 0.0783818215
S  S97  1  0.05921000  0.49260000  0.20885000  1.0 -0.0197764019
S  S98  1  0.24260000  0.53375000  0.93339000  1.0 -0.0197764019
S  S99  1  0.60036000  0.30921000  0.06661000  1.0 -0.0197764019
S  S100  1  0.64964000  0.21625000  0.20885000  1.0 -0.0197764019
S  S101  1  0.00740000  0.44079000  0.79115000  1.0 -0.0197764019
S  S102  1  0.28375000  0.85036000  0.79115000  1.0 -0.0197764019
S  S103  1  0.96625000  0.25740000  0.06661000  1.0 -0.0197764019
S  S104  1  0.19079000  0.89964000  0.93339000  1.0 -0.0197764019
S  S105  1  0.69079000  0.75740000  0.29115000  1.0 -0.0197764019
S  S106  1  0.50740000  0.71625000  0.56661000  1.0 -0.0197764019
S  S107  1  0.14964000  0.94079000  0.43339000  1.0 -0.0197764019
S  S108  1  0.10036000  0.03375000  0.29115000  1.0 -0.0197764019
S  S109  1  0.74260000  0.80921000  0.70885000  1.0 -0.0197764019
S  S110  1  0.46625000  0.39964000  0.70885000  1.0 -0.0197764019
S  S111  1  0.78375000  0.99260000  0.43339000  1.0 -0.0197764019
S  S112  1  0.55921000  0.35036000  0.56661000  1.0 -0.0197764019
S  S113  1  0.18251000  0.50318000  0.34207000  1.0 0.0400198281
S  S114  1  0.25318000  0.41111000  0.82067000  1.0 0.0400198281
S  S115  1  0.59044000  0.43251000  0.17933000  1.0 0.0400198281
S  S116  1  0.65956000  0.33889000  0.34207000  1.0 0.0400198281
S  S117  1  0.99682000  0.31749000  0.65793000  1.0 0.0400198281
S  S118  1  0.16111000  0.84044000  0.65793000  1.0 0.0400198281
S  S119  1  0.08889000  0.24682000  0.17933000  1.0 0.0400198281
S  S120  1  0.06749000  0.90956000  0.82067000  1.0 0.0400198281
S  S121  1  0.56749000  0.74682000  0.15793000  1.0 0.0400198281
S  S122  1  0.49682000  0.83889000  0.67933000  1.0 0.0400198281
S  S123  1  0.15956000  0.81749000  0.32067000  1.0 0.0400198281
S  S124  1  0.09044000  0.91111000  0.15793000  1.0 0.0400198281
S  S125  1  0.75318000  0.93251000  0.84207000  1.0 0.0400198281
S  S126  1  0.58889000  0.40956000  0.84207000  1.0 0.0400198281
S  S127  1  0.66111000  0.00318000  0.32067000  1.0 0.0400198281
S  S128  1  0.68251000  0.34044000  0.67933000  1.0 0.0400198281
S  S129  1  0.65719000  0.32164000  0.93503000  1.0 0.0064326363
S  S130  1  0.07164000  0.63661000  0.16445000  1.0 0.0064326363
S  S131  1  0.47216000  0.90719000  0.83555000  1.0 0.0064326363
S  S132  1  0.77784000  0.11339000  0.93503000  1.0 0.0064326363
S  S133  1  0.17836000  0.84281000  0.06497000  1.0 0.0064326363
S  S134  1  0.38661000  0.72216000  0.06497000  1.0 0.0064326363
S  S135  1  0.86339000  0.42836000  0.83555000  1.0 0.0064326363
S  S136  1  0.59281000  0.02784000  0.16445000  1.0 0.0064326363
S  S137  1  0.09281000  0.92836000  0.56497000  1.0 0.0064326363
S  S138  1  0.67836000  0.61339000  0.33555000  1.0 0.0064326363
S  S139  1  0.27784000  0.34281000  0.66445000  1.0 0.0064326363
S  S140  1  0.97216000  0.13661000  0.56497000  1.0 0.0064326363
S  S141  1  0.57164000  0.40719000  0.43503000  1.0 0.0064326363
S  S142  1  0.36339000  0.52784000  0.43503000  1.0 0.0064326363
S  S143  1  0.88661000  0.82164000  0.66445000  1.0 0.0064326363
S  S144  1  0.15719000  0.22216000  0.33555000  1.0 0.0064326363
S  S145  1  0.82421000  0.19330000  0.93425000  1.0 -0.224610968
S  S146  1  0.94330000  0.50905000  0.86909000  1.0 -0.2259225883
S  S147  1  0.63996000  0.07421000  0.13091000  1.0 -0.224610968
S  S148  1  0.61004000  0.24095000  0.93425000  1.0 -0.224610968
S  S149  1  0.30670000  0.67579000  0.06575000  1.0 -0.224610968
S  S150  1  0.25905000  0.88996000  0.06575000  1.0 -0.224610968
S  S151  1  0.99095000  0.55670000  0.13091000  1.0 -0.224610968
S  S152  1  0.42579000  0.86004000  0.86909000  1.0 -0.2259225883
S  S153  1  0.92579000  0.05670000  0.56575000  1.0 -0.224610968
S  S154  1  0.80670000  0.74095000  0.63091000  1.0 -0.224610968
S  S155  1  0.11004000  0.17579000  0.36909000  1.0 -0.224610968
S  S156  1  0.13996000  0.00905000  0.56575000  1.0 -0.2259225883
S  S157  1  0.44330000  0.57421000  0.43425000  1.0 -0.224610968
S  S158  1  0.49095000  0.36004000  0.43425000  1.0 -0.224610968
S  S159  1  0.75905000  0.69330000  0.36909000  1.0 -0.224610968
S  S160  1  0.32421000  0.38996000  0.63091000  1.0 -0.2259225883
O  O1  1  0.85020000  0.50330000  0.07470000  1.0 -0.0847967636
O  O2  1  0.25330000  0.67860000  0.15310000  1.0 -0.0847967636
O  O3  1  0.52550000  0.10020000  0.84690000  1.0 -0.0847967636
O  O4  1  0.72450000  0.07140000  0.07470000  1.0 -0.0847967636
O  O5  1  0.99670000  0.64980000  0.92530000  1.0 -0.0847967636
O  O6  1  0.42860000  0.77550000  0.92530000  1.0 -0.0847967636
O  O7  1  0.82140000  0.24670000  0.84690000  1.0 -0.0847967636
O  O8  1  0.39980000  0.97450000  0.15310000  1.0 -0.0847967636
O  O9  1  0.89980000  0.74670000  0.42530000  1.0 -0.0847967636
O  O10  1  0.49670000  0.57140000  0.34690000  1.0 -0.0847967636
O  O11  1  0.22450000  0.14980000  0.65310000  1.0 -0.0847967636
O  O12  1  0.02550000  0.17860000  0.42530000  1.0 -0.0847967636
O  O13  1  0.75330000  0.60020000  0.57470000  1.0 -0.0847967636
O  O14  1  0.32140000  0.47450000  0.57470000  1.0 -0.0847967636
O  O15  1  0.92860000  0.00330000  0.65310000  1.0 -0.0847967636
O  O16  1  0.35020000  0.27550000  0.34690000  1.0 -0.0847967636
O  O17  1  0.85229000  0.46099000  0.11230000  1.0 -0.2259225883
O  O18  1  0.21099000  0.59869000  0.10870000  1.0 -0.2259225883
O  O19  1  0.48999000  0.10229000  0.89130000  1.0 -0.2259225883
O  O20  1  0.76001000  0.15131000  0.11230000  1.0 -0.2259225883
O  O21  1  0.03901000  0.64771000  0.88770000  1.0 -0.2259225883
O  O22  1  0.34869000  0.73999000  0.88770000  1.0 -0.2259225883
O  O23  1  0.90131000  0.28901000  0.89130000  1.0 -0.2259225883
O  O24  1  0.39771000  0.01001000  0.10870000  1.0 -0.2259225883
O  O25  1  0.89771000  0.78901000  0.38770000  1.0 -0.2259225883
O  O26  1  0.53901000  0.65131000  0.39130000  1.0 -0.2259225883
O  O27  1  0.26001000  0.14771000  0.60870000  1.0 -0.2259225883
O  O28  1  0.98999000  0.09869000  0.38770000  1.0 -0.2259225883
O  O29  1  0.71099000  0.60229000  0.61230000  1.0 -0.2259225883
O  O30  1  0.40131000  0.51001000  0.61230000  1.0 -0.2259225883
O  O31  1  0.84869000  0.96099000  0.60870000  1.0 -0.2259225883
O  O32  1  0.35229000  0.23999000  0.39130000  1.0 -0.2259225883
O  O33  1  0.82820000  0.51890000  0.06490000  1.0 -0.1718172361
O  O34  1  0.26890000  0.70400000  0.19070000  1.0 -0.1718172361
O  O35  1  0.51330000  0.07820000  0.80930000  1.0 -0.1718172361
O  O36  1  0.73670000  0.04600000  0.06490000  1.0 -0.1718172361
O  O37  1  0.98110000  0.67180000  0.93510000  1.0 -0.1718172361
O  O38  1  0.45400000  0.76330000  0.93510000  1.0 -0.1718172361
O  O39  1  0.79600000  0.23110000  0.80930000  1.0 -0.1718172361
O  O40  1  0.42180000  0.98670000  0.19070000  1.0 -0.1718172361
O  O41  1  0.92180000  0.73110000  0.43510000  1.0 -0.1718172361
O  O42  1  0.48110000  0.54600000  0.30930000  1.0 -0.1718172361
O  O43  1  0.23670000  0.17180000  0.69070000  1.0 -0.1718172361
O  O44  1  0.01330000  0.20400000  0.43510000  1.0 -0.1718172361
O  O45  1  0.76890000  0.57820000  0.56490000  1.0 -0.1718172361
O  O46  1  0.29600000  0.48670000  0.56490000  1.0 -0.1718172361
O  O47  1  0.95400000  0.01890000  0.69070000  1.0 -0.1718172361
O  O48  1  0.32820000  0.26330000  0.30930000  1.0 -0.1718172361
O  O49  1  0.83140000  0.47410000  0.09990000  1.0 -0.0902089669
O  O50  1  0.22410000  0.62420000  0.14270000  1.0 -0.0902089669
O  O51  1  0.48150000  0.08140000  0.85730000  1.0 -0.0847967636
O  O52  1  0.76850000  0.12580000  0.09990000  1.0 -0.0847967636
O  O53  1  0.02590000  0.66860000  0.90010000  1.0 -0.0847967636
O  O54  1  0.37420000  0.73150000  0.90010000  1.0 -0.0847967636
O  O55  1  0.87580000  0.27590000  0.85730000  1.0 -0.0847967636
O  O56  1  0.41860000  0.01850000  0.14270000  1.0 -0.0902089669
O  O57  1  0.91860000  0.77590000  0.40010000  1.0 -0.0902089669
O  O58  1  0.52590000  0.62580000  0.35730000  1.0 -0.0902089669
O  O59  1  0.26850000  0.16860000  0.64270000  1.0 -0.0847967636
O  O60  1  0.98150000  0.12420000  0.40010000  1.0 -0.0902089669
O  O61  1  0.72410000  0.58140000  0.59990000  1.0 -0.0847967636
O  O62  1  0.37580000  0.51850000  0.59990000  1.0 -0.0847967636
O  O63  1  0.87420000  0.97410000  0.64270000  1.0 -0.0847967636
O  O64  1  0.33140000  0.23150000  0.35730000  1.0 -0.0902089669
O  O65  1  0.23040000  0.33570000  0.28430000  1.0 -0.0902089669
O  O66  1  0.08570000  0.30140000  0.60530000  1.0 -0.0902089669
O  O67  1  0.69610000  0.48040000  0.39470000  1.0 -0.0902089669
O  O68  1  0.55390000  0.44860000  0.28430000  1.0 -0.0902089669
O  O69  1  0.16430000  0.26960000  0.71570000  1.0 -0.0902089669
O  O70  1  0.05140000  0.94610000  0.71570000  1.0 -0.0902089669
O  O71  1  0.19860000  0.41430000  0.39470000  1.0 -0.0902089669
O  O72  1  0.01960000  0.80390000  0.60530000  1.0 -0.0902089669
O  O73  1  0.51960000  0.91430000  0.21570000  1.0 -0.0902089669
O  O74  1  0.66430000  0.94860000  0.89470000  1.0 -0.0902089669
O  O75  1  0.05390000  0.76960000  0.10530000  1.0 -0.0902089669
O  O76  1  0.19610000  0.80140000  0.21570000  1.0 -0.0902089669
O  O77  1  0.58570000  0.98040000  0.78430000  1.0 -0.0902089669
O  O78  1  0.69860000  0.30390000  0.78430000  1.0 -0.0902089669
O  O79  1  0.55140000  0.83570000  0.10530000  1.0 -0.0902089669
O  O80  1  0.73040000  0.44610000  0.89470000  1.0 -0.0902089669
O  O81  1  0.19910000  0.36650000  0.34620000  1.0 0.0064326363
O  O82  1  0.11650000  0.27030000  0.66740000  1.0 0.0064326363
O  O83  1  0.60290000  0.44910000  0.33260000  1.0 0.0064326363
O  O84  1  0.64710000  0.47970000  0.34620000  1.0 0.0064326363
O  O85  1  0.13350000  0.30090000  0.65380000  1.0 0.0064326363
O  O86  1  0.02030000  0.85290000  0.65380000  1.0 0.0064326363
O  O87  1  0.22970000  0.38350000  0.33260000  1.0 0.0064326363
O  O88  1  0.05090000  0.89710000  0.66740000  1.0 0.0064326363
O  O89  1  0.55090000  0.88350000  0.15380000  1.0 0.0064326363
O  O90  1  0.63350000  0.97970000  0.83260000  1.0 0.0064326363
O  O91  1  0.14710000  0.80090000  0.16740000  1.0 0.0064326363
O  O92  1  0.10290000  0.77030000  0.15380000  1.0 0.0064326363
O  O93  1  0.61650000  0.94910000  0.84620000  1.0 0.0064326363
O  O94  1  0.72970000  0.39710000  0.84620000  1.0 0.0064326363
O  O95  1  0.52030000  0.86650000  0.16740000  1.0 0.0064326363
O  O96  1  0.69910000  0.35290000  0.83260000  1.0 0.0064326363
O  O97  1  0.25990000  0.29410000  0.24720000  1.0 -0.4121703715
O  O98  1  0.04410000  0.29690000  0.53420000  1.0 -0.4121703715
O  O99  1  0.76270000  0.50990000  0.46580000  1.0 -0.4121703715
O  O100  1  0.48730000  0.45310000  0.24720000  1.0 -0.4121703715
O  O101  1  0.20590000  0.24010000  0.75280000  1.0 -0.4121703715
O  O102  1  0.04690000  0.01270000  0.75280000  1.0 -0.4121703715
O  O103  1  0.20310000  0.45590000  0.46580000  1.0 -0.4121703715
O  O104  1  0.99010000  0.73730000  0.53420000  1.0 -0.4121703715
O  O105  1  0.49010000  0.95590000  0.25280000  1.0 -0.4121703715
O  O106  1  0.70590000  0.95310000  0.96580000  1.0 -0.4121703715
O  O107  1  0.98730000  0.74010000  0.03420000  1.0 -0.4121703715
O  O108  1  0.26270000  0.79690000  0.25280000  1.0 -0.4121703715
O  O109  1  0.54410000  0.00990000  0.74720000  1.0 -0.4121703715
O  O110  1  0.70310000  0.23730000  0.74720000  1.0 -0.4121703715
O  O111  1  0.54690000  0.79410000  0.03420000  1.0 -0.4121703715
O  O112  1  0.75990000  0.51270000  0.96580000  1.0 -0.4121703715
O  O113  1  0.93088000  0.39268000  0.10300000  1.0 -0.4862778861
O  O114  1  0.14268000  0.53968000  0.96180000  1.0 -0.4862778861
O  O115  1  0.57788000  0.18088000  0.03820000  1.0 -0.4862778861
O  O116  1  0.67212000  0.21032000  0.10300000  1.0 -0.4862778861
O  O117  1  0.10732000  0.56912000  0.89700000  1.0 -0.4862778861
O  O118  1  0.28968000  0.82788000  0.89700000  1.0 -0.4862778861
O  O119  1  0.96032000  0.35732000  0.03820000  1.0 -0.4862778861
O  O120  1  0.31912000  0.92212000  0.96180000  1.0 -0.4862778861
O  O121  1  0.81912000  0.85732000  0.39700000  1.0 -0.4862778861
O  O122  1  0.60732000  0.71032000  0.53820000  1.0 -0.4862778861
O  O123  1  0.17212000  0.06912000  0.46180000  1.0 -0.4862778861
O  O124  1  0.07788000  0.03968000  0.39700000  1.0 -0.4862778861
O  O125  1  0.64268000  0.68088000  0.60300000  1.0 -0.4862778861
O  O126  1  0.46032000  0.42212000  0.60300000  1.0 -0.4862778861
O  O127  1  0.78968000  0.89268000  0.46180000  1.0 -0.4862778861
O  O128  1  0.43088000  0.32788000  0.53820000  1.0 -0.4862778861
O  O129  1  0.74276000  0.27696000  0.88360000  1.0 -0.4862778861
O  O130  1  0.02696000  0.64336000  0.03420000  1.0 -0.4862778861
O  O131  1  0.60916000  0.99276000  0.96580000  1.0 -0.4862778861
O  O132  1  0.64084000  0.10664000  0.88360000  1.0 -0.4862778861
O  O133  1  0.22304000  0.75724000  0.11640000  1.0 -0.4862778861
O  O134  1  0.39336000  0.85916000  0.11640000  1.0 -0.4862778861
O  O135  1  0.85664000  0.47304000  0.96580000  1.0 -0.4862778861
O  O136  1  0.50724000  0.89084000  0.03420000  1.0 -0.4862778861
O  O137  1  0.00724000  0.97304000  0.61640000  1.0 -0.4862778861
O  O138  1  0.72304000  0.60664000  0.46580000  1.0 -0.4862778861
O  O139  1  0.14084000  0.25724000  0.53420000  1.0 -0.4862778861
O  O140  1  0.10916000  0.14336000  0.61640000  1.0 -0.4862778861
O  O141  1  0.52696000  0.49276000  0.38360000  1.0 -0.4862778861
O  O142  1  0.35664000  0.39084000  0.38360000  1.0 -0.4862778861
O  O143  1  0.89336000  0.77696000  0.53420000  1.0 -0.4862778861
O  O144  1  0.24276000  0.35916000  0.46580000  1.0 -0.4862778861
O  O145  1  0.80330000  0.33380000  0.00810000  1.0 -0.5093717747
O  O146  1  0.08380000  0.57570000  0.03050000  1.0 -0.5093717747
O  O147  1  0.54520000  0.05330000  0.96950000  1.0 -0.5093717747
O  O148  1  0.70480000  0.17430000  0.00810000  1.0 -0.5093717747
O  O149  1  0.16620000  0.69670000  0.99190000  1.0 -0.5093717747
O  O150  1  0.32570000  0.79520000  0.99190000  1.0 -0.5093717747
O  O151  1  0.92430000  0.41620000  0.96950000  1.0 -0.5093717747
O  O152  1  0.44670000  0.95480000  0.03050000  1.0 -0.5093717747
O  O153  1  0.94670000  0.91620000  0.49190000  1.0 -0.5093717747
O  O154  1  0.66620000  0.67430000  0.46950000  1.0 -0.5093717747
O  O155  1  0.20480000  0.19670000  0.53050000  1.0 -0.5093717747
O  O156  1  0.04520000  0.07570000  0.49190000  1.0 -0.5093717747
O  O157  1  0.58380000  0.55330000  0.50810000  1.0 -0.5093717747
O  O158  1  0.42430000  0.45480000  0.50810000  1.0 -0.5093717747
O  O159  1  0.82570000  0.83380000  0.53050000  1.0 -0.5093717747
O  O160  1  0.30330000  0.29520000  0.46950000  1.0 -0.5093717747
O  O161  1  0.82880000  0.37500000  0.95380000  1.0 -0.7957818084
O  O162  1  0.12500000  0.67120000  0.04620000  1.0 -0.7957818084
O  O163  1  0.62500000  0.07880000  0.95380000  1.0 -0.7957818084
O  O164  1  0.42120000  0.87500000  0.04620000  1.0 -0.7957818084
O  O165  1  0.92120000  0.87500000  0.54620000  1.0 -0.7957818084
O  O166  1  0.62500000  0.57880000  0.45380000  1.0 -0.7957818084
O  O167  1  0.12500000  0.17120000  0.54620000  1.0 -0.7957818084
O  O168  1  0.32880000  0.37500000  0.45380000  1.0 -0.7957818084
