# DDEC6 charges by PACMAN v1.1 (https://github.com/mtap-research/PACMAN-charge/)
data_COMZIP_ASR_pacman
_symmetry_space_group_name_H-M   'P 1'
_cell_length_a   9.62170000
_cell_length_b   28.62850000
_cell_length_c   10.48010000
_cell_angle_alpha   90.00000000
_cell_angle_beta   111.37600000
_cell_angle_gamma   90.00000000
_symmetry_Int_Tables_number   1
_chemical_formula_structural   ZnH16C25N3O5
_chemical_formula_sum   'Zn4 H64 C100 N12 O20'
_cell_volume   2688.20755753
_cell_formula_units_Z   4
loop_
 _symmetry_equiv_pos_site_id
 _symmetry_equiv_pos_as_xyz
  1  'x, y, z'
loop_
 _atom_site_type_symbol
 _atom_site_label
 _atom_site_symmetry_multiplicity
 _atom_site_fract_x
 _atom_site_fract_y
 _atom_site_fract_z
 _atom_site_occupancy
 _atom_site_charge
Zn  Zn1  1  0.58251000  0.54133000  0.88660000  1.0 0.8068018526
Zn  Zn2  1  0.41749000  0.45867000  0.11340000  1.0 0.8068018526
Zn  Zn3  1  0.41749000  0.04133000  0.61340000  1.0 0.8068018526
Zn  Zn4  1  0.58251000  0.95867000  0.38660000  1.0 0.8068018526
H  H1  1  0.66723000  0.58650000  0.17163000  1.0 0.1004746683
H  H2  1  0.33277000  0.41350000  0.82837000  1.0 0.1004746683
H  H3  1  0.33277000  0.08650000  0.32837000  1.0 0.1004746683
H  H4  1  0.66723000  0.91350000  0.67163000  1.0 0.1004746683
H  H5  1  0.88010000  0.58708000  0.39303000  1.0 0.1208672438
H  H6  1  0.11990000  0.41292000  0.60697000  1.0 0.1208672438
H  H7  1  0.11990000  0.08708000  0.10697000  1.0 0.1208672438
H  H8  1  0.88010000  0.91292000  0.89303000  1.0 0.1208672438
H  H9  1  0.09744000  0.48471000  0.21920000  1.0 0.1321344495
H  H10  1  0.90256000  0.51529000  0.78080000  1.0 0.1321344495
H  H11  1  0.90256000  0.98471000  0.28080000  1.0 0.1321344495
H  H12  1  0.09744000  0.01529000  0.71920000  1.0 0.1321344495
H  H13  1  0.87112000  0.48678000  0.00854000  1.0 0.0923734743
H  H14  1  0.12888000  0.51322000  0.99146000  1.0 0.0923734743
H  H15  1  0.12888000  0.98678000  0.49146000  1.0 0.0923734743
H  H16  1  0.87112000  0.01322000  0.50854000  1.0 0.0923734743
H  H17  1  0.07592000  0.59782000  0.54048000  1.0 0.1101087823
H  H18  1  0.92408000  0.40218000  0.45952000  1.0 0.1101087823
H  H19  1  0.92408000  0.09782000  0.95952000  1.0 0.1101087823
H  H20  1  0.07592000  0.90218000  0.04048000  1.0 0.1101087823
H  H21  1  0.30373000  0.59834000  0.75420000  1.0 0.1101087823
H  H22  1  0.69627000  0.40166000  0.24580000  1.0 0.1101087823
H  H23  1  0.69627000  0.09834000  0.74580000  1.0 0.1101087823
H  H24  1  0.30373000  0.90166000  0.25420000  1.0 0.1101087823
H  H25  1  0.48058000  0.48346000  0.62384000  1.0 0.1004746683
H  H26  1  0.51942000  0.51654000  0.37616000  1.0 0.1004746683
H  H27  1  0.51942000  0.98346000  0.87616000  1.0 0.1004746683
H  H28  1  0.48058000  0.01654000  0.12384000  1.0 0.1004746683
H  H29  1  0.26328000  0.47799000  0.40387000  1.0 0.1321344495
H  H30  1  0.73672000  0.52201000  0.59613000  1.0 0.1321344495
H  H31  1  0.73672000  0.97799000  0.09613000  1.0 0.1321344495
H  H32  1  0.26328000  0.02201000  0.90387000  1.0 0.1321344495
H  H33  1  0.70484000  0.70253000  0.82761000  1.0 0.1208672438
H  H34  1  0.29516000  0.29747000  0.17239000  1.0 0.1208672438
H  H35  1  0.29516000  0.20253000  0.67239000  1.0 0.1208672438
H  H36  1  0.70484000  0.79747000  0.32761000  1.0 0.1208672438
H  H37  1  0.85730000  0.76016000  0.74828000  1.0 0.1101087823
H  H38  1  0.14270000  0.23984000  0.25172000  1.0 0.1101087823
H  H39  1  0.14270000  0.26016000  0.75172000  1.0 0.1101087823
H  H40  1  0.85730000  0.73984000  0.24828000  1.0 0.1101087823
H  H41  1  0.09683000  0.64706000  0.65641000  1.0 0.0923734743
H  H42  1  0.90317000  0.35294000  0.34359000  1.0 0.0923734743
H  H43  1  0.90317000  0.14706000  0.84359000  1.0 0.0923734743
H  H44  1  0.09683000  0.85294000  0.15641000  1.0 0.0923734743
H  H45  1  0.93546000  0.58832000  0.72495000  1.0 0.0923734743
H  H46  1  0.06454000  0.41168000  0.27505000  1.0 0.0923734743
H  H47  1  0.06454000  0.08832000  0.77505000  1.0 0.0923734743
H  H48  1  0.93546000  0.91168000  0.22495000  1.0 0.0923734743
H  H49  1  0.03687000  0.86731000  0.72200000  1.0 0.1101087823
H  H50  1  0.96313000  0.13269000  0.27800000  1.0 0.1101087823
H  H51  1  0.96313000  0.36731000  0.77800000  1.0 0.1101087823
H  H52  1  0.03687000  0.63269000  0.22200000  1.0 0.1101087823
H  H53  1  0.20341000  0.93388000  0.70433000  1.0 0.0923734743
H  H54  1  0.79659000  0.06612000  0.29567000  1.0 0.0923734743
H  H55  1  0.79659000  0.43388000  0.79567000  1.0 0.0923734743
H  H56  1  0.20341000  0.56612000  0.20433000  1.0 0.0923734743
H  H57  1  0.39418000  0.84573000  0.47716000  1.0 0.1208672438
H  H58  1  0.60582000  0.15427000  0.52284000  1.0 0.1208672438
H  H59  1  0.60582000  0.34573000  0.02284000  1.0 0.1208672438
H  H60  1  0.39418000  0.65427000  0.97716000  1.0 0.1208672438
H  H61  1  0.24534000  0.77719000  0.50869000  1.0 0.1389569536
H  H62  1  0.75466000  0.22281000  0.49131000  1.0 0.1389569536
H  H63  1  0.75466000  0.27719000  0.99131000  1.0 0.1389569536
H  H64  1  0.24534000  0.72281000  0.00869000  1.0 0.1389569536
C  C1  1  0.76393000  0.56380000  0.18742000  1.0 0.1101087823
C  C2  1  0.23607000  0.43620000  0.81258000  1.0 0.1101087823
C  C3  1  0.23607000  0.06380000  0.31258000  1.0 0.1101087823
C  C4  1  0.76393000  0.93620000  0.68742000  1.0 0.1101087823
C  C5  1  0.88553000  0.56429000  0.31107000  1.0 -0.1706350873
C  C6  1  0.11447000  0.43571000  0.68893000  1.0 -0.1706350873
C  C7  1  0.11447000  0.06429000  0.18893000  1.0 -0.1706350873
C  C8  1  0.88553000  0.93571000  0.81107000  1.0 -0.1706350873
C  C9  1  0.01095000  0.53611000  0.32731000  1.0 0.1004746683
C  C10  1  0.98905000  0.46389000  0.67269000  1.0 0.1004746683
C  C11  1  0.98905000  0.03611000  0.17269000  1.0 0.1004746683
C  C12  1  0.01095000  0.96389000  0.82731000  1.0 0.1004746683
C  C13  1  0.00433000  0.50746000  0.21594000  1.0 -0.1706350873
C  C14  1  0.99567000  0.49254000  0.78406000  1.0 -0.1706350873
C  C15  1  0.99567000  0.00746000  0.28406000  1.0 -0.1706350873
C  C16  1  0.00433000  0.99254000  0.71594000  1.0 -0.1706350873
C  C17  1  0.87764000  0.50862000  0.09664000  1.0 0.1101087823
C  C18  1  0.12236000  0.49138000  0.90336000  1.0 0.1101087823
C  C19  1  0.12236000  0.00862000  0.40336000  1.0 0.1101087823
C  C20  1  0.87764000  0.99138000  0.59664000  1.0 0.1101087823
C  C21  1  0.14644000  0.53739000  0.45340000  1.0 0.1004746683
C  C22  1  0.85356000  0.46261000  0.54660000  1.0 0.1004746683
C  C23  1  0.85356000  0.03739000  0.04660000  1.0 0.1004746683
C  C24  1  0.14644000  0.96261000  0.95340000  1.0 0.1004746683
C  C25  1  0.16210000  0.57154000  0.55395000  1.0 -0.1615059406
C  C26  1  0.83790000  0.42846000  0.44605000  1.0 -0.1615059406
C  C27  1  0.83790000  0.07154000  0.94605000  1.0 -0.1615059406
C  C28  1  0.16210000  0.92846000  0.05395000  1.0 -0.1615059406
C  C29  1  0.28928000  0.57245000  0.67312000  1.0 0.1208672438
C  C30  1  0.71072000  0.42755000  0.32688000  1.0 0.1208672438
C  C31  1  0.71072000  0.07245000  0.82688000  1.0 0.1208672438
C  C32  1  0.28928000  0.92755000  0.17312000  1.0 0.1208672438
C  C33  1  0.38814000  0.50846000  0.59960000  1.0 0.1004746683
C  C34  1  0.61186000  0.49154000  0.40040000  1.0 0.1004746683
C  C35  1  0.61186000  0.00846000  0.90040000  1.0 0.1004746683
C  C36  1  0.38814000  0.99154000  0.09960000  1.0 0.1004746683
C  C37  1  0.26465000  0.50547000  0.47735000  1.0 -0.1706350873
C  C38  1  0.73535000  0.49453000  0.52265000  1.0 -0.1706350873
C  C39  1  0.73535000  0.00547000  0.02265000  1.0 -0.1706350873
C  C40  1  0.26465000  0.99453000  0.97735000  1.0 -0.1706350873
C  C41  1  0.71961000  0.60694000  0.81843000  1.0 0.5483383506
C  C42  1  0.28039000  0.39306000  0.18157000  1.0 0.5483383506
C  C43  1  0.28039000  0.10694000  0.68157000  1.0 0.5483383506
C  C44  1  0.71961000  0.89306000  0.31843000  1.0 0.5483383506
C  C45  1  0.80893000  0.64228000  0.77636000  1.0 -0.013680856
C  C46  1  0.19107000  0.35772000  0.22364000  1.0 -0.013680856
C  C47  1  0.19107000  0.14228000  0.72364000  1.0 -0.013680856
C  C48  1  0.80893000  0.85772000  0.27636000  1.0 -0.013680856
C  C49  1  0.78774000  0.69055000  0.78571000  1.0 -0.0871127445
C  C50  1  0.21226000  0.30945000  0.21429000  1.0 -0.0871127445
C  C51  1  0.21226000  0.19055000  0.71429000  1.0 -0.0871127445
C  C52  1  0.78774000  0.80945000  0.28571000  1.0 -0.0871127445
C  C53  1  0.87263000  0.72241000  0.74265000  1.0 -0.0663589642
C  C54  1  0.12737000  0.27759000  0.25735000  1.0 -0.0663589642
C  C55  1  0.12737000  0.22241000  0.75735000  1.0 -0.0663589642
C  C56  1  0.87263000  0.77759000  0.24265000  1.0 -0.0663589642
C  C57  1  0.98290000  0.70609000  0.69398000  1.0 0.0078424077
C  C58  1  0.01710000  0.29391000  0.30602000  1.0 0.0078424077
C  C59  1  0.01710000  0.20609000  0.80602000  1.0 0.0078424077
C  C60  1  0.98290000  0.79391000  0.19398000  1.0 0.0078424077
C  C61  1  0.00566000  0.65775000  0.68894000  1.0 -0.099462147
C  C62  1  0.99434000  0.34225000  0.31106000  1.0 -0.099462147
C  C63  1  0.99434000  0.15775000  0.81106000  1.0 -0.099462147
C  C64  1  0.00566000  0.84225000  0.18894000  1.0 -0.099462147
C  C65  1  0.91896000  0.62611000  0.72780000  1.0 -0.1070095926
C  C66  1  0.08104000  0.37389000  0.27220000  1.0 -0.1070095926
C  C67  1  0.08104000  0.12611000  0.77220000  1.0 -0.1070095926
C  C68  1  0.91896000  0.87389000  0.22780000  1.0 -0.1070095926
C  C69  1  0.13507000  0.81733000  0.62307000  1.0 0.2737834424
C  C70  1  0.86493000  0.18267000  0.37693000  1.0 0.2737834424
C  C71  1  0.86493000  0.31733000  0.87693000  1.0 0.2737834424
C  C72  1  0.13507000  0.68267000  0.12307000  1.0 0.2737834424
C  C73  1  0.11738000  0.86331000  0.67121000  1.0 -0.145703654
C  C74  1  0.88262000  0.13669000  0.32879000  1.0 -0.145703654
C  C75  1  0.88262000  0.36331000  0.82879000  1.0 -0.145703654
C  C76  1  0.11738000  0.63669000  0.17121000  1.0 -0.145703654
C  C77  1  0.20573000  0.89957000  0.65998000  1.0 -0.099462147
C  C78  1  0.79427000  0.10043000  0.34002000  1.0 -0.099462147
C  C79  1  0.79427000  0.39957000  0.84002000  1.0 -0.099462147
C  C80  1  0.20573000  0.60043000  0.15998000  1.0 -0.099462147
C  C81  1  0.30404000  0.89365000  0.58857000  1.0 -0.0409608504
C  C82  1  0.69596000  0.10635000  0.41143000  1.0 -0.0409608504
C  C83  1  0.69596000  0.39365000  0.91143000  1.0 -0.0409608504
C  C84  1  0.30404000  0.60635000  0.08857000  1.0 -0.0409608504
C  C85  1  0.31788000  0.84961000  0.53306000  1.0 -0.0871127445
C  C86  1  0.68212000  0.15039000  0.46694000  1.0 -0.0871127445
C  C87  1  0.68212000  0.34961000  0.96694000  1.0 -0.0871127445
C  C88  1  0.31788000  0.65039000  0.03306000  1.0 -0.0871127445
C  C89  1  0.23626000  0.81166000  0.54972000  1.0 -0.1239426985
C  C90  1  0.76374000  0.18834000  0.45028000  1.0 -0.1239426985
C  C91  1  0.76374000  0.31166000  0.95028000  1.0 -0.1239426985
C  C92  1  0.23626000  0.68834000  0.04972000  1.0 -0.1239426985
C  C93  1  0.38424000  0.93615000  0.56747000  1.0 0.5683103174
C  C94  1  0.61576000  0.06385000  0.43253000  1.0 0.5683103174
C  C95  1  0.61576000  0.43615000  0.93253000  1.0 0.5683103174
C  C96  1  0.38424000  0.56385000  0.06747000  1.0 0.5683103174
C  C97  1  0.08663000  0.73671000  0.65345000  1.0 0.4492816597
C  C98  1  0.91337000  0.26329000  0.34655000  1.0 0.4492816597
C  C99  1  0.91337000  0.23671000  0.84655000  1.0 0.4492816597
C  C100  1  0.08663000  0.76329000  0.15345000  1.0 0.4492816597
N  N1  1  0.75833000  0.53631000  0.08059000  1.0 -0.2337973557
N  N2  1  0.24167000  0.46369000  0.91941000  1.0 -0.2337973557
N  N3  1  0.24167000  0.03631000  0.41941000  1.0 -0.2337973557
N  N4  1  0.75833000  0.96369000  0.58059000  1.0 -0.2337973557
N  N5  1  0.40074000  0.54098000  0.69719000  1.0 -0.2041773826
N  N6  1  0.59926000  0.45902000  0.30281000  1.0 -0.2041773826
N  N7  1  0.59926000  0.04098000  0.80281000  1.0 -0.2041773826
N  N8  1  0.40074000  0.95902000  0.19719000  1.0 -0.2041773826
N  N9  1  0.05500000  0.78442000  0.65885000  1.0 -0.4256575734
N  N10  1  0.94500000  0.21558000  0.34115000  1.0 -0.4256575734
N  N11  1  0.94500000  0.28442000  0.84115000  1.0 -0.4256575734
N  N12  1  0.05500000  0.71558000  0.15885000  1.0 -0.4256575734
O  O1  1  0.19193000  0.71936000  0.62692000  1.0 -0.4576497108
O  O2  1  0.80807000  0.28064000  0.37308000  1.0 -0.4576497108
O  O3  1  0.80807000  0.21936000  0.87308000  1.0 -0.4576497108
O  O4  1  0.19193000  0.78064000  0.12692000  1.0 -0.4576497108
O  O5  1  0.63312000  0.61894000  0.87968000  1.0 -0.5236284167
O  O6  1  0.36688000  0.38106000  0.12032000  1.0 -0.5236284167
O  O7  1  0.36688000  0.11894000  0.62032000  1.0 -0.5236284167
O  O8  1  0.63312000  0.88106000  0.37968000  1.0 -0.5236284167
O  O9  1  0.73451000  0.56345000  0.79041000  1.0 -0.5614815831
O  O10  1  0.26549000  0.43655000  0.20959000  1.0 -0.5614815831
O  O11  1  0.26549000  0.06345000  0.70959000  1.0 -0.5614815831
O  O12  1  0.73451000  0.93655000  0.29041000  1.0 -0.5614815831
O  O13  1  0.42821000  0.93588000  0.46705000  1.0 -0.5614815831
O  O14  1  0.57179000  0.06412000  0.53295000  1.0 -0.5614815831
O  O15  1  0.57179000  0.43588000  0.03295000  1.0 -0.5614815831
O  O16  1  0.42821000  0.56412000  0.96705000  1.0 -0.5614815831
O  O17  1  0.39670000  0.97004000  0.65080000  1.0 -0.5614815831
O  O18  1  0.60330000  0.02996000  0.34920000  1.0 -0.5614815831
O  O19  1  0.60330000  0.47004000  0.84920000  1.0 -0.5614815831
O  O20  1  0.39670000  0.52996000  0.15080000  1.0 -0.5614815831
