# DDEC6 charges by PACMAN v1.1 (https://github.com/mtap-research/PACMAN-charge/)
data_COQJOJ_ASR_pacman
_symmetry_space_group_name_H-M   'P 1'
_cell_length_a   12.35900000
_cell_length_b   33.22900000
_cell_length_c   12.88700000
_cell_angle_alpha   90.00000000
_cell_angle_beta   96.42000000
_cell_angle_gamma   90.00000000
_symmetry_Int_Tables_number   1
_chemical_formula_structural   Mn3H74RhC83(NO)12
_chemical_formula_sum   'Mn6 H148 Rh2 C166 N24 O24'
_cell_volume   5259.20832328
_cell_formula_units_Z   2
loop_
 _symmetry_equiv_pos_site_id
 _symmetry_equiv_pos_as_xyz
  1  'x, y, z'
loop_
 _atom_site_type_symbol
 _atom_site_label
 _atom_site_symmetry_multiplicity
 _atom_site_fract_x
 _atom_site_fract_y
 _atom_site_fract_z
 _atom_site_occupancy
 _atom_site_charge
Mn  Mn1  1  0.79958000  0.93016000  0.39805000  1.0 0.8671223315
Mn  Mn2  1  0.20042000  0.43016000  0.60195000  1.0 0.8671223315
Mn  Mn3  1  0.20042000  0.06984000  0.60195000  1.0 0.8671223315
Mn  Mn4  1  0.79958000  0.56984000  0.39805000  1.0 0.8671223315
Mn  Mn5  1  0.00000000  0.00000000  0.50000000  1.0 1.0622159931
Mn  Mn6  1  0.00000000  0.50000000  0.50000000  1.0 1.0622159931
H  H1  1  0.57000000  0.02550000  0.27640000  1.0 0.1202339005
H  H2  1  0.43000000  0.52550000  0.72360000  1.0 0.1202339005
H  H3  1  0.43000000  0.97450000  0.72360000  1.0 0.1202339005
H  H4  1  0.57000000  0.47450000  0.27640000  1.0 0.1202339005
H  H5  1  0.46610000  0.08040000  0.22310000  1.0 0.1126957108
H  H6  1  0.53390000  0.58040000  0.77690000  1.0 0.1126957108
H  H7  1  0.53390000  0.91960000  0.77690000  1.0 0.1126957108
H  H8  1  0.46610000  0.41960000  0.22310000  1.0 0.1126957108
H  H9  1  0.70770000  0.15270000  0.33460000  1.0 0.1202339005
H  H10  1  0.29230000  0.65270000  0.66540000  1.0 0.1202339005
H  H11  1  0.29230000  0.84730000  0.66540000  1.0 0.1202339005
H  H12  1  0.70770000  0.34730000  0.33460000  1.0 0.1202339005
H  H13  1  0.81680000  0.09790000  0.37490000  1.0 0.1202339005
H  H14  1  0.18320000  0.59790000  0.62510000  1.0 0.1202339005
H  H15  1  0.18320000  0.90210000  0.62510000  1.0 0.1202339005
H  H16  1  0.81680000  0.40210000  0.37490000  1.0 0.1202339005
H  H17  1  0.54790000  0.97150000  0.43220000  1.0 0.1571131217
H  H18  1  0.45210000  0.47150000  0.56780000  1.0 0.1571131217
H  H19  1  0.45210000  0.02850000  0.56780000  1.0 0.1571131217
H  H20  1  0.54790000  0.52850000  0.43220000  1.0 0.1571131217
H  H21  1  0.46350000  0.94760000  0.49480000  1.0 0.1418887555
H  H22  1  0.53650000  0.44760000  0.50520000  1.0 0.1418887555
H  H23  1  0.53650000  0.05240000  0.50520000  1.0 0.1418887555
H  H24  1  0.46350000  0.55240000  0.49480000  1.0 0.1418887555
H  H25  1  0.59140000  0.94470000  0.53120000  1.0 0.1511773987
H  H26  1  0.40860000  0.44470000  0.46880000  1.0 0.1511773987
H  H27  1  0.40860000  0.05530000  0.46880000  1.0 0.1511773987
H  H28  1  0.59140000  0.55530000  0.53120000  1.0 0.1511773987
H  H29  1  0.47190000  0.79830000  0.27950000  1.0 0.1418887555
H  H30  1  0.52810000  0.29830000  0.72050000  1.0 0.1418887555
H  H31  1  0.52810000  0.20170000  0.72050000  1.0 0.1418887555
H  H32  1  0.47190000  0.70170000  0.27950000  1.0 0.1418887555
H  H33  1  0.38970000  0.82790000  0.21220000  1.0 0.1511773987
H  H34  1  0.61030000  0.32790000  0.78780000  1.0 0.1511773987
H  H35  1  0.61030000  0.17210000  0.78780000  1.0 0.1511773987
H  H36  1  0.38970000  0.67210000  0.21220000  1.0 0.1511773987
H  H37  1  0.50750000  0.81920000  0.17670000  1.0 0.1276525582
H  H38  1  0.49250000  0.31920000  0.82330000  1.0 0.1276525582
H  H39  1  0.49250000  0.18080000  0.82330000  1.0 0.1276525582
H  H40  1  0.50750000  0.68080000  0.17670000  1.0 0.1276525582
H  H41  1  0.33440000  0.94980000  0.32670000  1.0 0.1126957108
H  H42  1  0.66560000  0.44980000  0.67330000  1.0 0.1126957108
H  H43  1  0.66560000  0.05020000  0.67330000  1.0 0.1126957108
H  H44  1  0.33440000  0.55020000  0.32670000  1.0 0.1126957108
H  H45  1  0.31370000  0.83180000  0.40310000  1.0 0.1126957108
H  H46  1  0.68630000  0.33180000  0.59690000  1.0 0.1126957108
H  H47  1  0.68630000  0.16820000  0.59690000  1.0 0.1126957108
H  H48  1  0.31370000  0.66820000  0.40310000  1.0 0.1126957108
H  H49  1  0.68770000  0.82310000  0.23380000  1.0 0.1276525582
H  H50  1  0.31230000  0.32310000  0.76620000  1.0 0.1276525582
H  H51  1  0.31230000  0.17690000  0.76620000  1.0 0.1276525582
H  H52  1  0.68770000  0.67690000  0.23380000  1.0 0.1276525582
H  H53  1  0.77090000  0.84250000  0.32440000  1.0 0.1511773987
H  H54  1  0.22910000  0.34250000  0.67560000  1.0 0.1511773987
H  H55  1  0.22910000  0.15750000  0.67560000  1.0 0.1511773987
H  H56  1  0.77090000  0.65750000  0.32440000  1.0 0.1511773987
H  H57  1  0.92740000  0.97050000  0.22880000  1.0 0.1696159186
H  H58  1  0.07260000  0.47050000  0.77120000  1.0 0.1696159186
H  H59  1  0.07260000  0.02950000  0.77120000  1.0 0.1696159186
H  H60  1  0.92740000  0.52950000  0.22880000  1.0 0.1696159186
H  H61  1  0.94880000  0.96760000  0.10880000  1.0 0.1418887555
H  H62  1  0.05120000  0.46760000  0.89120000  1.0 0.1418887555
H  H63  1  0.05120000  0.03240000  0.89120000  1.0 0.1418887555
H  H64  1  0.94880000  0.53240000  0.10880000  1.0 0.1418887555
H  H65  1  0.84250000  0.99000000  0.14010000  1.0 0.1511773987
H  H66  1  0.15750000  0.49000000  0.85990000  1.0 0.1511773987
H  H67  1  0.15750000  0.01000000  0.85990000  1.0 0.1511773987
H  H68  1  0.84250000  0.51000000  0.14010000  1.0 0.1511773987
H  H69  1  0.61370000  0.83640000  0.05010000  1.0 0.1276525582
H  H70  1  0.38630000  0.33640000  0.94990000  1.0 0.1276525582
H  H71  1  0.38630000  0.16360000  0.94990000  1.0 0.1276525582
H  H72  1  0.61370000  0.66360000  0.05010000  1.0 0.1276525582
H  H73  1  0.68220000  0.84540000  0.95440000  1.0 0.1202339005
H  H74  1  0.31780000  0.34540000  0.04560000  1.0 0.1202339005
H  H75  1  0.31780000  0.15460000  0.04560000  1.0 0.1202339005
H  H76  1  0.68220000  0.65460000  0.95440000  1.0 0.1202339005
H  H77  1  0.72850000  0.81470000  0.04430000  1.0 0.1418887555
H  H78  1  0.27150000  0.31470000  0.95570000  1.0 0.1418887555
H  H79  1  0.27150000  0.18530000  0.95570000  1.0 0.1418887555
H  H80  1  0.72850000  0.68530000  0.04430000  1.0 0.1418887555
H  H81  1  0.15280000  0.95870000  0.35070000  1.0 0.1202339005
H  H82  1  0.84720000  0.45870000  0.64930000  1.0 0.1202339005
H  H83  1  0.84720000  0.04130000  0.64930000  1.0 0.1202339005
H  H84  1  0.15280000  0.54130000  0.35070000  1.0 0.1202339005
H  H85  1  0.13010000  0.84080000  0.42220000  1.0 0.1202339005
H  H86  1  0.86990000  0.34080000  0.57780000  1.0 0.1202339005
H  H87  1  0.86990000  0.15920000  0.57780000  1.0 0.1202339005
H  H88  1  0.13010000  0.65920000  0.42220000  1.0 0.1202339005
H  H89  1  0.30270000  0.16770000  0.40620000  1.0 0.1511773987
H  H90  1  0.69730000  0.66770000  0.59380000  1.0 0.1511773987
H  H91  1  0.69730000  0.83230000  0.59380000  1.0 0.1511773987
H  H92  1  0.30270000  0.33230000  0.40620000  1.0 0.1511773987
H  H93  1  0.36730000  0.12690000  0.38950000  1.0 0.1511773987
H  H94  1  0.63270000  0.62690000  0.61050000  1.0 0.1511773987
H  H95  1  0.63270000  0.87310000  0.61050000  1.0 0.1511773987
H  H96  1  0.36730000  0.37310000  0.38950000  1.0 0.1511773987
H  H97  1  0.42460000  0.16200000  0.46070000  1.0 0.1511773987
H  H98  1  0.57540000  0.66200000  0.53930000  1.0 0.1511773987
H  H99  1  0.57540000  0.83800000  0.53930000  1.0 0.1511773987
H  H100  1  0.42460000  0.33800000  0.46070000  1.0 0.1511773987
H  H101  1  0.65110000  0.20770000  0.12270000  1.0 0.1418887555
H  H102  1  0.34890000  0.70770000  0.87730000  1.0 0.1418887555
H  H103  1  0.34890000  0.79230000  0.87730000  1.0 0.1418887555
H  H104  1  0.65110000  0.29230000  0.12270000  1.0 0.1418887555
H  H105  1  0.63180000  0.16070000  0.10040000  1.0 0.1571131217
H  H106  1  0.36820000  0.66070000  0.89960000  1.0 0.1571131217
H  H107  1  0.36820000  0.83930000  0.89960000  1.0 0.1571131217
H  H108  1  0.63180000  0.33930000  0.10040000  1.0 0.1571131217
H  H109  1  0.56000000  0.19330000  0.03220000  1.0 0.1276525582
H  H110  1  0.44000000  0.69330000  0.96780000  1.0 0.1276525582
H  H111  1  0.44000000  0.80670000  0.96780000  1.0 0.1276525582
H  H112  1  0.56000000  0.30670000  0.03220000  1.0 0.1276525582
H  H113  1  0.34290000  0.25000000  0.07910000  1.0 0.1276525582
H  H114  1  0.65710000  0.75000000  0.92090000  1.0 0.1276525582
H  H115  1  0.46910000  0.25000000  0.06070000  1.0 0.1202339005
H  H116  1  0.53090000  0.75000000  0.93930000  1.0 0.1202339005
H  H117  1  0.77550000  0.97850000  0.95410000  1.0 0.0991021579
H  H118  1  0.22450000  0.47850000  0.04590000  1.0 0.0991021579
H  H119  1  0.22450000  0.02150000  0.04590000  1.0 0.0991021579
H  H120  1  0.77550000  0.52150000  0.95410000  1.0 0.0991021579
H  H121  1  0.82440000  0.86120000  0.89300000  1.0 0.0991021579
H  H122  1  0.17560000  0.36120000  0.10700000  1.0 0.0991021579
H  H123  1  0.17560000  0.13880000  0.10700000  1.0 0.0991021579
H  H124  1  0.82440000  0.63880000  0.89300000  1.0 0.0991021579
H  H125  1  0.80500000  0.99490000  0.78210000  1.0 0.1126957108
H  H126  1  0.19500000  0.49490000  0.21790000  1.0 0.1126957108
H  H127  1  0.19500000  0.00510000  0.21790000  1.0 0.1126957108
H  H128  1  0.80500000  0.50510000  0.78210000  1.0 0.1126957108
H  H129  1  0.83890000  0.87720000  0.71970000  1.0 0.1126957108
H  H130  1  0.16110000  0.37720000  0.28030000  1.0 0.1126957108
H  H131  1  0.16110000  0.12280000  0.28030000  1.0 0.1126957108
H  H132  1  0.83890000  0.62280000  0.71970000  1.0 0.1126957108
H  H133  1  0.97630000  0.93350000  0.97710000  1.0 0.0991021579
H  H134  1  0.02370000  0.43350000  0.02290000  1.0 0.0991021579
H  H135  1  0.02370000  0.06650000  0.02290000  1.0 0.0991021579
H  H136  1  0.97630000  0.56650000  0.97710000  1.0 0.0991021579
H  H137  1  0.99440000  0.95060000  0.80210000  1.0 0.1126957108
H  H138  1  0.00560000  0.45060000  0.19790000  1.0 0.1126957108
H  H139  1  0.00560000  0.04940000  0.19790000  1.0 0.1126957108
H  H140  1  0.99440000  0.54940000  0.80210000  1.0 0.1126957108
H  H141  1  0.68220000  0.91800000  0.72340000  1.0 0.094187701
H  H142  1  0.31780000  0.41800000  0.27660000  1.0 0.094187701
H  H143  1  0.31780000  0.08200000  0.27660000  1.0 0.094187701
H  H144  1  0.68220000  0.58200000  0.72340000  1.0 0.094187701
H  H145  1  0.67640000  0.89250000  0.88840000  1.0 0.0991021579
H  H146  1  0.32360000  0.39250000  0.11160000  1.0 0.0991021579
H  H147  1  0.32360000  0.10750000  0.11160000  1.0 0.0991021579
H  H148  1  0.67640000  0.60750000  0.88840000  1.0 0.0991021579
Rh  Rh1  1  0.27025000  0.25000000  0.29427000  1.0 0.0517476516
Rh  Rh2  1  0.72975000  0.75000000  0.70573000  1.0 0.0557674246
C  C1  1  0.59950000  0.05168000  0.28880000  1.0 -0.0994823041
C  C2  1  0.40050000  0.55168000  0.71120000  1.0 -0.0994823041
C  C3  1  0.40050000  0.94832000  0.71120000  1.0 -0.0994823041
C  C4  1  0.59950000  0.44832000  0.28880000  1.0 -0.0994823041
C  C5  1  0.53670000  0.08447000  0.25910000  1.0 -0.1619094965
C  C6  1  0.46330000  0.58447000  0.74090000  1.0 -0.1619094965
C  C7  1  0.46330000  0.91553000  0.74090000  1.0 -0.1619094965
C  C8  1  0.53670000  0.41553000  0.25910000  1.0 -0.1619094965
C  C9  1  0.67800000  0.12655000  0.32230000  1.0 -0.1507025605
C  C10  1  0.32200000  0.62655000  0.67770000  1.0 -0.1507025605
C  C11  1  0.32200000  0.87345000  0.67770000  1.0 -0.1507025605
C  C12  1  0.67800000  0.37345000  0.32230000  1.0 -0.1507025605
C  C13  1  0.74290000  0.09397000  0.34790000  1.0 -0.0994823041
C  C14  1  0.25710000  0.59397000  0.65210000  1.0 -0.0994823041
C  C15  1  0.25710000  0.90603000  0.65210000  1.0 -0.0994823041
C  C16  1  0.74290000  0.40603000  0.34790000  1.0 -0.0994823041
C  C17  1  0.50250000  0.15925000  0.25410000  1.0 -0.1918262946
C  C18  1  0.49750000  0.65925000  0.74590000  1.0 -0.1918262946
C  C19  1  0.49750000  0.84075000  0.74590000  1.0 -0.1918262946
C  C20  1  0.50250000  0.34075000  0.25410000  1.0 -0.1918262946
C  C21  1  0.51720000  0.18616000  0.17550000  1.0 0.1202339005
C  C22  1  0.48280000  0.68616000  0.82450000  1.0 0.1126957108
C  C23  1  0.48280000  0.81384000  0.82450000  1.0 0.1202339005
C  C24  1  0.51720000  0.31384000  0.17550000  1.0 0.1202339005
C  C25  1  0.41670000  0.17377000  0.30550000  1.0 0.1925722899
C  C26  1  0.58330000  0.67377000  0.69450000  1.0 0.1925722899
C  C27  1  0.58330000  0.82623000  0.69450000  1.0 0.1925722899
C  C28  1  0.41670000  0.32623000  0.30550000  1.0 0.1925722899
C  C29  1  0.57240000  0.12312000  0.27970000  1.0 0.1202339005
C  C30  1  0.42760000  0.62312000  0.72030000  1.0 0.1202339005
C  C31  1  0.42760000  0.87688000  0.72030000  1.0 0.1202339005
C  C32  1  0.57240000  0.37688000  0.27970000  1.0 0.1202339005
C  C33  1  0.51180000  0.85744000  0.30060000  1.0 0.1511773987
C  C34  1  0.48820000  0.35744000  0.69940000  1.0 0.1511773987
C  C35  1  0.48820000  0.14256000  0.69940000  1.0 0.1511773987
C  C36  1  0.51180000  0.64256000  0.30060000  1.0 0.1511773987
C  C37  1  0.46120000  0.88597000  0.35590000  1.0 -0.1918262946
C  C38  1  0.53880000  0.38597000  0.64410000  1.0 -0.1918262946
C  C39  1  0.53880000  0.11403000  0.64410000  1.0 -0.1918262946
C  C40  1  0.46120000  0.61403000  0.35590000  1.0 -0.1918262946
C  C41  1  0.54380000  0.91141000  0.40140000  1.0 0.2238411921
C  C42  1  0.45620000  0.41141000  0.59860000  1.0 0.2238411921
C  C43  1  0.45620000  0.08859000  0.59860000  1.0 0.2238411921
C  C44  1  0.54380000  0.58859000  0.40140000  1.0 0.2238411921
C  C45  1  0.53600000  0.94683000  0.47080000  1.0 -0.4995122262
C  C46  1  0.46400000  0.44683000  0.52920000  1.0 -0.4995122262
C  C47  1  0.46400000  0.05317000  0.52920000  1.0 -0.4995122262
C  C48  1  0.53600000  0.55317000  0.47080000  1.0 -0.4995122262
C  C49  1  0.46630000  0.82273000  0.23680000  1.0 -0.4995122262
C  C50  1  0.53370000  0.32273000  0.76320000  1.0 -0.4995122262
C  C51  1  0.53370000  0.17727000  0.76320000  1.0 -0.4995122262
C  C52  1  0.46630000  0.67727000  0.23680000  1.0 -0.4995122262
C  C53  1  0.34380000  0.89024000  0.36570000  1.0 0.1126957108
C  C54  1  0.65620000  0.39024000  0.63430000  1.0 0.1126957108
C  C55  1  0.65620000  0.10976000  0.63430000  1.0 0.1126957108
C  C56  1  0.34380000  0.60976000  0.36570000  1.0 0.1126957108
C  C57  1  0.29350000  0.92768000  0.34830000  1.0 -0.1507025605
C  C58  1  0.70650000  0.42768000  0.65170000  1.0 -0.1507025605
C  C59  1  0.70650000  0.07232000  0.65170000  1.0 -0.1507025605
C  C60  1  0.29350000  0.57232000  0.34830000  1.0 -0.1507025605
C  C61  1  0.28150000  0.85764000  0.39290000  1.0 -0.1619094965
C  C62  1  0.71850000  0.35764000  0.60710000  1.0 -0.1619094965
C  C63  1  0.71850000  0.14236000  0.60710000  1.0 -0.1619094965
C  C64  1  0.28150000  0.64236000  0.39290000  1.0 -0.1619094965
C  C65  1  0.71110000  0.84861000  0.26900000  1.0 -0.0812601517
C  C66  1  0.28890000  0.34861000  0.73100000  1.0 -0.0812601517
C  C67  1  0.28890000  0.15139000  0.73100000  1.0 -0.0812601517
C  C68  1  0.71110000  0.65139000  0.26900000  1.0 -0.0812601517
C  C69  1  0.74310000  0.87338000  0.08860000  1.0 0.1418887555
C  C70  1  0.25690000  0.37338000  0.91140000  1.0 0.1418887555
C  C71  1  0.25690000  0.12662000  0.91140000  1.0 0.1418887555
C  C72  1  0.74310000  0.62662000  0.08860000  1.0 0.1418887555
C  C73  1  0.79510000  0.90709000  0.05540000  1.0 -0.1733408702
C  C74  1  0.20490000  0.40709000  0.94460000  1.0 -0.1733408702
C  C75  1  0.20490000  0.09291000  0.94460000  1.0 -0.1733408702
C  C76  1  0.79510000  0.59291000  0.05540000  1.0 -0.1733408702
C  C77  1  0.83140000  0.92879000  0.14670000  1.0 0.2238411921
C  C78  1  0.16860000  0.42879000  0.85330000  1.0 0.2238411921
C  C79  1  0.16860000  0.07121000  0.85330000  1.0 0.2238411921
C  C80  1  0.83140000  0.57121000  0.14670000  1.0 0.2238411921
C  C81  1  0.89280000  0.96753000  0.15700000  1.0 -0.5057163147
C  C82  1  0.10720000  0.46753000  0.84300000  1.0 -0.5057163147
C  C83  1  0.10720000  0.03247000  0.84300000  1.0 -0.5057163147
C  C84  1  0.89280000  0.53247000  0.15700000  1.0 -0.5057163147
C  C85  1  0.68710000  0.83961000  0.02930000  1.0 -0.5363497046
C  C86  1  0.31290000  0.33961000  0.97070000  1.0 -0.5363497046
C  C87  1  0.31290000  0.16039000  0.97070000  1.0 -0.5363497046
C  C88  1  0.68710000  0.66039000  0.02930000  1.0 -0.5363497046
C  C89  1  0.00800000  0.90721000  0.40720000  1.0 0.5654799434
C  C90  1  0.99200000  0.40721000  0.59280000  1.0 0.5654799434
C  C91  1  0.99200000  0.09279000  0.59280000  1.0 0.5654799434
C  C92  1  0.00800000  0.59279000  0.40720000  1.0 0.5654799434
C  C93  1  0.12520000  0.90090000  0.39230000  1.0 -0.0281071683
C  C94  1  0.87480000  0.40090000  0.60770000  1.0 -0.0281071683
C  C95  1  0.87480000  0.09910000  0.60770000  1.0 -0.0281071683
C  C96  1  0.12520000  0.59910000  0.39230000  1.0 -0.0281071683
C  C97  1  0.18570000  0.93301000  0.36200000  1.0 -0.1078513844
C  C98  1  0.81430000  0.43301000  0.63800000  1.0 -0.1078513844
C  C99  1  0.81430000  0.06699000  0.63800000  1.0 -0.1078513844
C  C100  1  0.18570000  0.56699000  0.36200000  1.0 -0.1078513844
C  C101  1  0.17280000  0.86311000  0.40500000  1.0 -0.1078513844
C  C102  1  0.82720000  0.36311000  0.59500000  1.0 -0.1078513844
C  C103  1  0.82720000  0.13689000  0.59500000  1.0 -0.1078513844
C  C104  1  0.17280000  0.63689000  0.40500000  1.0 -0.1078513844
C  C105  1  0.70260000  0.05555000  0.33530000  1.0 -0.0404974997
C  C106  1  0.29740000  0.55555000  0.66470000  1.0 -0.0404974997
C  C107  1  0.29740000  0.94445000  0.66470000  1.0 -0.0404974997
C  C108  1  0.70260000  0.44445000  0.33530000  1.0 -0.0404974997
C  C109  1  0.77150000  0.02004000  0.36910000  1.0 0.5783185901
C  C110  1  0.22850000  0.52004000  0.63090000  1.0 0.5783185901
C  C111  1  0.22850000  0.97996000  0.63090000  1.0 0.5783185901
C  C112  1  0.77150000  0.47996000  0.36910000  1.0 0.5783185901
C  C113  1  0.80970000  0.91741000  0.94660000  1.0 0.0768523606
C  C114  1  0.19030000  0.41741000  0.05340000  1.0 0.0768523606
C  C115  1  0.19030000  0.08259000  0.05340000  1.0 0.0768523606
C  C116  1  0.80970000  0.58259000  0.94660000  1.0 0.0768523606
C  C117  1  0.37420000  0.15610000  0.39830000  1.0 -0.5057163147
C  C118  1  0.62580000  0.65610000  0.60170000  1.0 -0.5057163147
C  C119  1  0.62580000  0.84390000  0.60170000  1.0 -0.5057163147
C  C120  1  0.37420000  0.34390000  0.39830000  1.0 -0.5057163147
C  C121  1  0.59630000  0.18705000  0.10180000  1.0 -0.4995122262
C  C122  1  0.40370000  0.68705000  0.89820000  1.0 -0.4995122262
C  C123  1  0.40370000  0.81295000  0.89820000  1.0 -0.4995122262
C  C124  1  0.59630000  0.31295000  0.10180000  1.0 -0.4995122262
C  C125  1  0.83440000  0.93716000  0.73950000  1.0 -0.0078999816
C  C126  1  0.16560000  0.43716000  0.26050000  1.0 -0.0078999816
C  C127  1  0.16560000  0.06284000  0.26050000  1.0 -0.0078999816
C  C128  1  0.83440000  0.56284000  0.73950000  1.0 -0.0078999816
C  C129  1  0.84830000  0.94743000  0.62860000  1.0 0.5634611341
C  C130  1  0.15170000  0.44743000  0.37140000  1.0 0.5634611341
C  C131  1  0.15170000  0.05257000  0.37140000  1.0 0.5634611341
C  C132  1  0.84830000  0.55257000  0.62860000  1.0 0.5634611341
C  C133  1  0.41820000  0.25000000  0.11470000  1.0 -0.0812601517
C  C134  1  0.58180000  0.75000000  0.88530000  1.0 -0.0812601517
C  C135  1  0.79560000  0.95804000  0.90850000  1.0 -0.0994823041
C  C136  1  0.20440000  0.45804000  0.09150000  1.0 -0.0994823041
C  C137  1  0.20440000  0.04196000  0.09150000  1.0 -0.0994823041
C  C138  1  0.79560000  0.54196000  0.90850000  1.0 -0.0994823041
C  C139  1  0.82250000  0.88868000  0.87260000  1.0 -0.0404974997
C  C140  1  0.17750000  0.38868000  0.12740000  1.0 -0.0404974997
C  C141  1  0.17750000  0.11132000  0.12740000  1.0 -0.0404974997
C  C142  1  0.82250000  0.61132000  0.87260000  1.0 -0.0404974997
C  C143  1  0.81070000  0.96785000  0.80580000  1.0 -0.0593904072
C  C144  1  0.18930000  0.46785000  0.19420000  1.0 -0.0593904072
C  C145  1  0.18930000  0.03215000  0.19420000  1.0 -0.0593904072
C  C146  1  0.81070000  0.53215000  0.80580000  1.0 -0.0593904072
C  C147  1  0.83290000  0.89799000  0.76920000  1.0 -0.0524227528
C  C148  1  0.16710000  0.39799000  0.23080000  1.0 -0.0524227528
C  C149  1  0.16710000  0.10201000  0.23080000  1.0 -0.0524227528
C  C150  1  0.83290000  0.60201000  0.76920000  1.0 -0.0524227528
C  C151  1  0.91670000  0.93130000  0.92410000  1.0 -0.0994823041
C  C152  1  0.08330000  0.43130000  0.07590000  1.0 -0.0994823041
C  C153  1  0.08330000  0.06870000  0.07590000  1.0 -0.0994823041
C  C154  1  0.91670000  0.56870000  0.92410000  1.0 -0.0994823041
C  C155  1  0.92650000  0.94110000  0.82050000  1.0 -0.072101256
C  C156  1  0.07350000  0.44110000  0.17950000  1.0 -0.072101256
C  C157  1  0.07350000  0.05890000  0.17950000  1.0 -0.072101256
C  C158  1  0.92650000  0.55890000  0.82050000  1.0 -0.072101256
C  C159  1  0.74470000  0.92090000  0.77290000  1.0 -0.0404974997
C  C160  1  0.25530000  0.42090000  0.22710000  1.0 -0.0404974997
C  C161  1  0.25530000  0.07910000  0.22710000  1.0 -0.0404974997
C  C162  1  0.74470000  0.57910000  0.77290000  1.0 -0.0404974997
C  C163  1  0.73700000  0.90820000  0.87370000  1.0 -0.0593904072
C  C164  1  0.26300000  0.40820000  0.12630000  1.0 -0.0593904072
C  C165  1  0.26300000  0.09180000  0.12630000  1.0 -0.0593904072
C  C166  1  0.73700000  0.59180000  0.87370000  1.0 -0.0593904072
N  N1  1  0.43600000  0.21397000  0.18040000  1.0 0.0306285581
N  N2  1  0.56400000  0.71397000  0.81960000  1.0 0.0306285581
N  N3  1  0.56400000  0.78603000  0.81960000  1.0 0.0306285581
N  N4  1  0.43600000  0.28603000  0.18040000  1.0 0.0306285581
N  N5  1  0.64070000  0.89893000  0.37780000  1.0 -0.2967577187
N  N6  1  0.35930000  0.39893000  0.62220000  1.0 -0.2967577187
N  N7  1  0.35930000  0.10107000  0.62220000  1.0 -0.2967577187
N  N8  1  0.64070000  0.60107000  0.37780000  1.0 -0.2967577187
N  N9  1  0.80280000  0.91006000  0.23010000  1.0 -0.2927926985
N  N10  1  0.19720000  0.41006000  0.76990000  1.0 -0.2927926985
N  N11  1  0.19720000  0.08994000  0.76990000  1.0 -0.2927926985
N  N12  1  0.80280000  0.58994000  0.23010000  1.0 -0.2927926985
N  N13  1  0.62020000  0.86614000  0.31550000  1.0 0.0672243217
N  N14  1  0.37980000  0.36614000  0.68450000  1.0 0.0672243217
N  N15  1  0.37980000  0.13386000  0.68450000  1.0 0.0672243217
N  N16  1  0.62020000  0.63386000  0.31550000  1.0 0.0672243217
N  N17  1  0.74980000  0.87583000  0.19420000  1.0 0.0557674246
N  N18  1  0.25020000  0.37583000  0.80580000  1.0 0.0557674246
N  N19  1  0.25020000  0.12417000  0.80580000  1.0 0.0557674246
N  N20  1  0.74980000  0.62417000  0.19420000  1.0 0.0557674246
N  N21  1  0.37620000  0.20685000  0.26010000  1.0 -0.1918262946
N  N22  1  0.62380000  0.70685000  0.73990000  1.0 -0.1918262946
N  N23  1  0.62380000  0.79315000  0.73990000  1.0 -0.1918262946
N  N24  1  0.37620000  0.29315000  0.26010000  1.0 -0.1918262946
O  O1  1  0.97306000  0.94352000  0.40563000  1.0 -0.5930251388
O  O2  1  0.02694000  0.44352000  0.59437000  1.0 -0.5930251388
O  O3  1  0.02694000  0.05648000  0.59437000  1.0 -0.5930251388
O  O4  1  0.97306000  0.55648000  0.40563000  1.0 -0.5930251388
O  O5  1  0.94530000  0.87826000  0.41760000  1.0 -0.5508131889
O  O6  1  0.05470000  0.37826000  0.58240000  1.0 -0.5508131889
O  O7  1  0.05470000  0.12174000  0.58240000  1.0 -0.5508131889
O  O8  1  0.94530000  0.62174000  0.41760000  1.0 -0.5508131889
O  O9  1  0.73170000  0.98586000  0.35490000  1.0 -0.5344854501
O  O10  1  0.26830000  0.48586000  0.64510000  1.0 -0.5344854501
O  O11  1  0.26830000  0.01414000  0.64510000  1.0 -0.5344854501
O  O12  1  0.73170000  0.51414000  0.35490000  1.0 -0.5344854501
O  O13  1  0.86780000  0.02710000  0.41000000  1.0 -0.5693893341
O  O14  1  0.13220000  0.52710000  0.59000000  1.0 -0.5693893341
O  O15  1  0.13220000  0.97290000  0.59000000  1.0 -0.5693893341
O  O16  1  0.86780000  0.47290000  0.41000000  1.0 -0.5693893341
O  O17  1  0.79870000  0.92561000  0.55990000  1.0 -0.5220270065
O  O18  1  0.20130000  0.42561000  0.44010000  1.0 -0.5220270065
O  O19  1  0.20130000  0.07439000  0.44010000  1.0 -0.5220270065
O  O20  1  0.79870000  0.57439000  0.55990000  1.0 -0.5220270065
O  O21  1  0.90250000  0.97667000  0.61250000  1.0 -0.5057163147
O  O22  1  0.09750000  0.47667000  0.38750000  1.0 -0.5057163147
O  O23  1  0.09750000  0.02333000  0.38750000  1.0 -0.5057163147
O  O24  1  0.90250000  0.52333000  0.61250000  1.0 -0.5057163147
