# DDEC6 charges by PACMAN v1.1 (https://github.com/mtap-research/PACMAN-charge/)
data_CORZIU_ASR_pacman
_symmetry_space_group_name_H-M   'P 1'
_cell_length_a   18.27120000
_cell_length_b   18.27120000
_cell_length_c   18.27120000
_cell_angle_alpha   95.02870000
_cell_angle_beta   95.02870000
_cell_angle_gamma   145.55700000
_symmetry_Int_Tables_number   1
_chemical_formula_structural   InH6C12(NO2)2
_chemical_formula_sum   'In4 H24 C48 N8 O16'
_cell_volume   3295.18416906
_cell_formula_units_Z   4
loop_
 _symmetry_equiv_pos_site_id
 _symmetry_equiv_pos_as_xyz
  1  'x, y, z'
loop_
 _atom_site_type_symbol
 _atom_site_label
 _atom_site_symmetry_multiplicity
 _atom_site_fract_x
 _atom_site_fract_y
 _atom_site_fract_z
 _atom_site_occupancy
 _atom_site_charge
In  In1  1  0.73572000  0.14536000  0.16996000  1.0 0.9773686247
In  In2  1  0.97540000  0.56576000  0.83004000  1.0 0.9773686247
In  In3  1  0.43424000  0.26428000  0.40964000  1.0 0.9480225162
In  In4  1  0.85464000  0.02460000  0.59036000  1.0 0.9480225162
H  H1  1  0.83970000  0.16020000  0.33130000  1.0 0.1098796202
H  H2  1  0.82890000  0.50840000  0.66870000  1.0 0.1098796202
H  H3  1  0.49160000  0.16030000  0.32050000  1.0 0.1098796202
H  H4  1  0.83980000  0.17110000  0.67950000  1.0 0.1098796202
H  H5  1  0.53390000  0.82180000  0.38970000  1.0 0.1313625989
H  H6  1  0.43210000  0.14420000  0.61030000  1.0 0.1313625989
H  H7  1  0.85580000  0.46610000  0.28790000  1.0 0.1313625989
H  H8  1  0.17820000  0.56790000  0.71210000  1.0 0.1313625989
H  H9  1  0.39440000  0.74790000  0.27590000  1.0 0.1313625989
H  H10  1  0.47200000  0.11850000  0.72410000  1.0 0.1313625989
H  H11  1  0.88150000  0.60560000  0.35350000  1.0 0.1313625989
H  H12  1  0.25210000  0.52800000  0.64650000  1.0 0.1313625989
H  H13  1  0.26840000  0.67150000  0.16950000  1.0 0.1420100199
H  H14  1  0.50200000  0.09890000  0.83050000  1.0 0.1420100199
H  H15  1  0.90110000  0.73160000  0.40310000  1.0 0.1420100199
H  H16  1  0.32850000  0.49800000  0.59690000  1.0 0.1420100199
H  H17  1  0.13940000  0.60210000  0.06010000  1.0 0.1313625989
H  H18  1  0.54200000  0.07930000  0.93990000  1.0 0.1313625989
H  H19  1  0.92070000  0.86060000  0.46270000  1.0 0.1313625989
H  H20  1  0.39790000  0.45800000  0.53730000  1.0 0.1313625989
H  H21  1  0.48890000  0.96220000  0.02790000  1.0 0.1098796202
H  H22  1  0.93430000  0.46100000  0.97210000  1.0 0.1098796202
H  H23  1  0.53900000  0.51110000  0.47330000  1.0 0.1098796202
H  H24  1  0.03780000  0.06570000  0.52670000  1.0 0.1098796202
C  C1  1  0.74800000  0.07390000  0.32110000  1.0 0.0868695385
C  C2  1  0.75280000  0.42690000  0.67890000  1.0 0.0868695385
C  C3  1  0.57310000  0.25200000  0.32590000  1.0 0.0846881958
C  C4  1  0.92610000  0.24720000  0.67410000  1.0 0.0868695385
C  C5  1  0.70570000  0.00440000  0.37450000  1.0 -0.1061552188
C  C6  1  0.62990000  0.33120000  0.62550000  1.0 -0.1061552188
C  C7  1  0.66880000  0.29430000  0.29870000  1.0 -0.1061552188
C  C8  1  0.99560000  0.37010000  0.70130000  1.0 -0.1061552188
C  C9  1  0.56980000  0.87660000  0.35760000  1.0 -0.0216083372
C  C10  1  0.51900000  0.21220000  0.64240000  1.0 -0.0216083372
C  C11  1  0.78780000  0.43020000  0.30680000  1.0 -0.0216083372
C  C12  1  0.12340000  0.48100000  0.69320000  1.0 -0.0216083372
C  C13  1  0.48710000  0.83270000  0.28820000  1.0 -0.1864998212
C  C14  1  0.54450000  0.19890000  0.71180000  1.0 -0.1864998212
C  C15  1  0.80110000  0.51290000  0.34560000  1.0 -0.1864998212
C  C16  1  0.16730000  0.45550000  0.65440000  1.0 -0.1864998212
C  C17  1  0.53450000  0.90450000  0.24180000  1.0 0.177534906
C  C18  1  0.66270000  0.29270000  0.75820000  1.0 0.177534906
C  C19  1  0.70730000  0.46550000  0.37000000  1.0 0.177534906
C  C20  1  0.09550000  0.33730000  0.63000000  1.0 0.177534906
C  C21  1  0.44350000  0.85080000  0.16670000  1.0 0.1517878639
C  C22  1  0.68410000  0.27680000  0.83330000  1.0 0.1517878639
C  C23  1  0.72320000  0.55650000  0.40730000  1.0 0.1517878639
C  C24  1  0.14920000  0.31590000  0.59270000  1.0 0.1517878639
C  C25  1  0.31050000  0.73060000  0.13950000  1.0 -0.158997318
C  C26  1  0.59110000  0.17100000  0.86050000  1.0 -0.158997318
C  C27  1  0.82900000  0.68950000  0.42010000  1.0 -0.158997318
C  C28  1  0.26940000  0.40890000  0.57990000  1.0 -0.158997318
C  C29  1  0.23250000  0.68680000  0.07510000  1.0 -0.0461570902
C  C30  1  0.61170000  0.15740000  0.92490000  1.0 -0.0461570902
C  C31  1  0.84260000  0.76750000  0.45430000  1.0 -0.0461570902
C  C32  1  0.31320000  0.38830000  0.54570000  1.0 -0.0461570902
C  C33  1  0.30070000  0.77850000  0.02980000  1.0 -0.0759647658
C  C34  1  0.74870000  0.27090000  0.97020000  1.0 -0.0759647658
C  C35  1  0.72910000  0.69930000  0.47780000  1.0 -0.0759647658
C  C36  1  0.22150000  0.25130000  0.52220000  1.0 -0.0759647658
C  C37  1  0.44190000  0.90280000  0.05790000  1.0 0.0868695385
C  C38  1  0.84490000  0.38400000  0.94210000  1.0 0.0868695385
C  C39  1  0.61600000  0.55810000  0.46090000  1.0 0.0868695385
C  C40  1  0.09720000  0.15510000  0.53910000  1.0 0.0868695385
C  C41  1  0.79940000  0.06100000  0.44480000  1.0 0.562764229
C  C42  1  0.61620000  0.35460000  0.55520000  1.0 0.562764229
C  C43  1  0.64540000  0.20060000  0.26160000  1.0 0.562764229
C  C44  1  0.93900000  0.38380000  0.73840000  1.0 0.562764229
C  C45  1  0.23470000  0.75150000  0.95360000  1.0 0.5711676495
C  C46  1  0.79790000  0.28110000  0.04640000  1.0 0.5711676495
C  C47  1  0.71890000  0.76530000  0.51680000  1.0 0.5711676495
C  C48  1  0.24850000  0.20210000  0.48320000  1.0 0.5711676495
N  N1  1  0.66550000  0.02520000  0.25570000  1.0 -0.3059594317
N  N2  1  0.76950000  0.40980000  0.74430000  1.0 -0.3059594317
N  N3  1  0.59020000  0.33450000  0.35970000  1.0 -0.3059594317
N  N4  1  0.97480000  0.23050000  0.64030000  1.0 -0.3059594317
N  N5  1  0.51030000  0.93840000  0.12490000  1.0 -0.278326316
N  N6  1  0.81350000  0.38540000  0.87510000  1.0 -0.278326316
N  N7  1  0.61460000  0.48970000  0.42810000  1.0 -0.278326316
N  N8  1  0.06160000  0.18650000  0.57190000  1.0 -0.278326316
O  O1  1  0.92080000  0.18210000  0.45950000  1.0 -0.543492395
O  O2  1  0.72260000  0.46130000  0.54050000  1.0 -0.543492395
O  O3  1  0.53870000  0.07920000  0.26130000  1.0 -0.543492395
O  O4  1  0.81790000  0.27740000  0.73870000  1.0 -0.543492395
O  O5  1  0.75410000  0.99000000  0.49070000  1.0 -0.543492395
O  O6  1  0.49930000  0.26340000  0.50930000  1.0 -0.547862548
O  O7  1  0.73660000  0.24590000  0.23590000  1.0 -0.543492395
O  O8  1  0.01000000  0.50070000  0.76410000  1.0 -0.547862548
O  O9  1  0.30280000  0.83960000  0.91960000  1.0 -0.5554176552
O  O10  1  0.92000000  0.38320000  0.08040000  1.0 -0.547862548
O  O11  1  0.61680000  0.69720000  0.53680000  1.0 -0.5554176552
O  O12  1  0.16040000  0.08000000  0.46320000  1.0 -0.5554176552
O  O13  1  0.10890000  0.63690000  0.92980000  1.0 -0.5326339735
O  O14  1  0.70710000  0.17910000  0.07020000  1.0 -0.5326339735
O  O15  1  0.82090000  0.89110000  0.52800000  1.0 -0.5326339735
O  O16  1  0.36310000  0.29290000  0.47200000  1.0 -0.5326339735
