# DDEC6 charges by PACMAN v1.1 (https://github.com/mtap-research/PACMAN-charge/)
data_COWLUW_FSR_pacman
_symmetry_space_group_name_H-M   'P 1'
_cell_length_a   23.39300000
_cell_length_b   15.40900000
_cell_length_c   29.45000000
_cell_angle_alpha   90.00000000
_cell_angle_beta   111.80000000
_cell_angle_gamma   90.00000000
_symmetry_Int_Tables_number   1
_chemical_formula_structural   Co4H60C94N4O18F25
_chemical_formula_sum   'Co16 H240 C376 N16 O72 F100'
_cell_volume   9856.45977436
_cell_formula_units_Z   4
loop_
 _symmetry_equiv_pos_site_id
 _symmetry_equiv_pos_as_xyz
  1  'x, y, z'
loop_
 _atom_site_type_symbol
 _atom_site_label
 _atom_site_symmetry_multiplicity
 _atom_site_fract_x
 _atom_site_fract_y
 _atom_site_fract_z
 _atom_site_occupancy
 _atom_site_charge
Co  Co1  1  0.01330000  0.92871000  0.53217000  1.0 0.8577428465
Co  Co2  1  0.48670000  0.42871000  0.46783000  1.0 0.8577428465
Co  Co3  1  0.98670000  0.07129000  0.46783000  1.0 0.8577428465
Co  Co4  1  0.51330000  0.57129000  0.53217000  1.0 0.8577428465
Co  Co5  1  0.51319000  0.07124000  0.53104000  1.0 0.8577428465
Co  Co6  1  0.98681000  0.57124000  0.46896000  1.0 0.8577428465
Co  Co7  1  0.48681000  0.92876000  0.46896000  1.0 0.8577428465
Co  Co8  1  0.01319000  0.42876000  0.53104000  1.0 0.8577428465
Co  Co9  1  0.44370000  0.47557000  0.88871000  1.0 0.904405808
Co  Co10  1  0.05630000  0.97557000  0.11129000  1.0 0.904405808
Co  Co11  1  0.55630000  0.52443000  0.11129000  1.0 0.904405808
Co  Co12  1  0.94370000  0.02443000  0.88871000  1.0 0.905931071
Co  Co13  1  0.50261000  0.59871000  0.00392000  1.0 1.0827059304
Co  Co14  1  0.99739000  0.09871000  0.99608000  1.0 1.0827059304
Co  Co15  1  0.49739000  0.40129000  0.99608000  1.0 1.0827059304
Co  Co16  1  0.00261000  0.90129000  0.00392000  1.0 1.0827059304
H  H1  1  0.22420000  0.48040000  0.76580000  1.0 0.1392709283
H  H2  1  0.27580000  0.98040000  0.23420000  1.0 0.1392709283
H  H3  1  0.77580000  0.51960000  0.23420000  1.0 0.1392709283
H  H4  1  0.72420000  0.01960000  0.76580000  1.0 0.1392709283
H  H5  1  0.71970000  0.41230000  0.32680000  1.0 0.1123458715
H  H6  1  0.78030000  0.91230000  0.67320000  1.0 0.1123458715
H  H7  1  0.28030000  0.58770000  0.67320000  1.0 0.1123458715
H  H8  1  0.21970000  0.08770000  0.32680000  1.0 0.1123458715
H  H9  1  0.60740000  0.15050000  0.91880000  1.0 0.1204641275
H  H10  1  0.89260000  0.65050000  0.08120000  1.0 0.1204641275
H  H11  1  0.39260000  0.84950000  0.08120000  1.0 0.1204641275
H  H12  1  0.10740000  0.34950000  0.91880000  1.0 0.1204641275
H  H13  1  0.35770000  0.94320000  0.87510000  1.0 0.1011401088
H  H14  1  0.14230000  0.44320000  0.12490000  1.0 0.1011401088
H  H15  1  0.64230000  0.05680000  0.12490000  1.0 0.1011401088
H  H16  1  0.85770000  0.55680000  0.87510000  1.0 0.1011401088
H  H17  1  0.27550000  0.69970000  0.84020000  1.0 0.1392709283
H  H18  1  0.22450000  0.19970000  0.15980000  1.0 0.1392709283
H  H19  1  0.72450000  0.30030000  0.15980000  1.0 0.1392709283
H  H20  1  0.77550000  0.80030000  0.84020000  1.0 0.1392709283
H  H21  1  0.08910000  0.87660000  0.70990000  1.0 0.1392709283
H  H22  1  0.41090000  0.37660000  0.29010000  1.0 0.1392709283
H  H23  1  0.91090000  0.12340000  0.29010000  1.0 0.1392709283
H  H24  1  0.58910000  0.62340000  0.70990000  1.0 0.1392709283
H  H25  1  0.05790000  0.95110000  0.64020000  1.0 0.1123458715
H  H26  1  0.44210000  0.45110000  0.35980000  1.0 0.1123458715
H  H27  1  0.94210000  0.04890000  0.35980000  1.0 0.1123458715
H  H28  1  0.55790000  0.54890000  0.64020000  1.0 0.1123458715
H  H29  1  0.05470000  0.65500000  0.63140000  1.0 0.1392709283
H  H30  1  0.44530000  0.15500000  0.36860000  1.0 0.1392709283
H  H31  1  0.94530000  0.34500000  0.36860000  1.0 0.1392709283
H  H32  1  0.55470000  0.84500000  0.63140000  1.0 0.1392709283
H  H33  1  0.32380000  0.43040000  0.80240000  1.0 0.1011401088
H  H34  1  0.17620000  0.93040000  0.19760000  1.0 0.1011401088
H  H35  1  0.67620000  0.56960000  0.19760000  1.0 0.1011401088
H  H36  1  0.82380000  0.06960000  0.80240000  1.0 0.1011401088
H  H37  1  0.37060000  0.64510000  0.87770000  1.0 0.1123458715
H  H38  1  0.12940000  0.14510000  0.12230000  1.0 0.1123458715
H  H39  1  0.62940000  0.35490000  0.12230000  1.0 0.1123458715
H  H40  1  0.87060000  0.85490000  0.87770000  1.0 0.1123458715
H  H41  1  0.28320000  0.75920000  0.96490000  1.0 0.127577832
H  H42  1  0.21680000  0.25920000  0.03510000  1.0 0.127577832
H  H43  1  0.71680000  0.24080000  0.03510000  1.0 0.127577832
H  H44  1  0.78320000  0.74080000  0.96490000  1.0 0.127577832
H  H45  1  0.42000000  0.83150000  0.92170000  1.0 0.1123458715
H  H46  1  0.08000000  0.33150000  0.07830000  1.0 0.1123458715
H  H47  1  0.58000000  0.16850000  0.07830000  1.0 0.1123458715
H  H48  1  0.92000000  0.66850000  0.92170000  1.0 0.1123458715
H  H49  1  0.80950000  0.47440000  0.37760000  1.0 0.1204641275
H  H50  1  0.69050000  0.97440000  0.62240000  1.0 0.1204641275
H  H51  1  0.19050000  0.52560000  0.62240000  1.0 0.1204641275
H  H52  1  0.30950000  0.02560000  0.37760000  1.0 0.1204641275
H  H53  1  0.76060000  0.19310000  0.40660000  1.0 0.127577832
H  H54  1  0.73940000  0.69310000  0.59340000  1.0 0.127577832
H  H55  1  0.23940000  0.80690000  0.59340000  1.0 0.127577832
H  H56  1  0.26060000  0.30690000  0.40660000  1.0 0.127577832
H  H57  1  0.03330000  0.74280000  0.56320000  1.0 0.1123458715
H  H58  1  0.46670000  0.24280000  0.43680000  1.0 0.1123458715
H  H59  1  0.96670000  0.25720000  0.43680000  1.0 0.1123458715
H  H60  1  0.53330000  0.75720000  0.56320000  1.0 0.1123458715
H  H61  1  0.85330000  0.25490000  0.45710000  1.0 0.127577832
H  H62  1  0.64670000  0.75490000  0.54290000  1.0 0.127577832
H  H63  1  0.14670000  0.74510000  0.54290000  1.0 0.127577832
H  H64  1  0.35330000  0.24510000  0.45710000  1.0 0.127577832
H  H65  1  0.57590000  0.02450000  0.37530000  1.0 0.1204641275
H  H66  1  0.92410000  0.52450000  0.62470000  1.0 0.1204641275
H  H67  1  0.42410000  0.97550000  0.62470000  1.0 0.1204641275
H  H68  1  0.07590000  0.47550000  0.37530000  1.0 0.1204641275
H  H69  1  0.61880000  0.08780000  0.32450000  1.0 0.1204641275
H  H70  1  0.88120000  0.58780000  0.67550000  1.0 0.1204641275
H  H71  1  0.38120000  0.91220000  0.67550000  1.0 0.1123458715
H  H72  1  0.11880000  0.41220000  0.32450000  1.0 0.1204641275
H  H73  1  0.65170000  0.30350000  0.40800000  1.0 0.1204641275
H  H74  1  0.84830000  0.80350000  0.59200000  1.0 0.1204641275
H  H75  1  0.34830000  0.69650000  0.59200000  1.0 0.1204641275
H  H76  1  0.15170000  0.19650000  0.40800000  1.0 0.1204641275
H  H77  1  0.60390000  0.24100000  0.45620000  1.0 0.1204641275
H  H78  1  0.89610000  0.74100000  0.54380000  1.0 0.1204641275
H  H79  1  0.39610000  0.75900000  0.54380000  1.0 0.1204641275
H  H80  1  0.10390000  0.25900000  0.45620000  1.0 0.1204641275
H  H81  1  0.71310000  0.17410000  0.95630000  1.0 0.1204641275
H  H82  1  0.78690000  0.67410000  0.04370000  1.0 0.1204641275
H  H83  1  0.28690000  0.82590000  0.04370000  1.0 0.1204641275
H  H84  1  0.21310000  0.32590000  0.95630000  1.0 0.1204641275
H  H85  1  0.74600000  0.93180000  0.92250000  1.0 0.1204641275
H  H86  1  0.75400000  0.43180000  0.07750000  1.0 0.1204641275
H  H87  1  0.25400000  0.06820000  0.07750000  1.0 0.1204641275
H  H88  1  0.24600000  0.56820000  0.92250000  1.0 0.1204641275
H  H89  1  0.64400000  0.90940000  0.88320000  1.0 0.1123458715
H  H90  1  0.85600000  0.40940000  0.11680000  1.0 0.1123458715
H  H91  1  0.35600000  0.09060000  0.11680000  1.0 0.1123458715
H  H92  1  0.14400000  0.59060000  0.88320000  1.0 0.1123458715
H  H93  1  0.48310000  0.87230000  0.80860000  1.0 0.1123458715
H  H94  1  0.01690000  0.37230000  0.19140000  1.0 0.1123458715
H  H95  1  0.51690000  0.12770000  0.19140000  1.0 0.1123458715
H  H96  1  0.98310000  0.62770000  0.80860000  1.0 0.1123458715
H  H97  1  0.57940000  0.91480000  0.95130000  1.0 0.1204641275
H  H98  1  0.92060000  0.41480000  0.04870000  1.0 0.1204641275
H  H99  1  0.42060000  0.08520000  0.04870000  1.0 0.1204641275
H  H100  1  0.07940000  0.58520000  0.95130000  1.0 0.1204641275
H  H101  1  0.57070000  0.77280000  0.96870000  1.0 0.127577832
H  H102  1  0.92930000  0.27280000  0.03130000  1.0 0.127577832
H  H103  1  0.42930000  0.22720000  0.03130000  1.0 0.127577832
H  H104  1  0.07070000  0.72720000  0.96870000  1.0 0.127577832
H  H105  1  0.47120000  0.72840000  0.82780000  1.0 0.1123458715
H  H106  1  0.02880000  0.22840000  0.17220000  1.0 0.1123458715
H  H107  1  0.52880000  0.27160000  0.17220000  1.0 0.1123458715
H  H108  1  0.97120000  0.77160000  0.82780000  1.0 0.1123458715
H  H109  1  0.21960000  0.86700000  0.91630000  1.0 0.1204641275
H  H110  1  0.28040000  0.36700000  0.08370000  1.0 0.1204641275
H  H111  1  0.78040000  0.13300000  0.08370000  1.0 0.1204641275
H  H112  1  0.71960000  0.63300000  0.91630000  1.0 0.1204641275
H  H113  1  0.26410000  0.12300000  0.80310000  1.0 0.1123458715
H  H114  1  0.23590000  0.62300000  0.19690000  1.0 0.1123458715
H  H115  1  0.73590000  0.87700000  0.19690000  1.0 0.1123458715
H  H116  1  0.76410000  0.37700000  0.80310000  1.0 0.1123458715
H  H117  1  0.31900000  0.05620000  0.94510000  1.0 0.127577832
H  H118  1  0.18100000  0.55620000  0.05490000  1.0 0.127577832
H  H119  1  0.68100000  0.94380000  0.05490000  1.0 0.127577832
H  H120  1  0.81900000  0.44380000  0.94510000  1.0 0.127577832
H  H121  1  0.32760000  0.24510000  0.82610000  1.0 0.1204641275
H  H122  1  0.17240000  0.74510000  0.17390000  1.0 0.1204641275
H  H123  1  0.67240000  0.75490000  0.17390000  1.0 0.1204641275
H  H124  1  0.82760000  0.25490000  0.82610000  1.0 0.1204641275
H  H125  1  0.38230000  0.17490000  0.96570000  1.0 0.1204641275
H  H126  1  0.11770000  0.67490000  0.03430000  1.0 0.1204641275
H  H127  1  0.61770000  0.82510000  0.03430000  1.0 0.1204641275
H  H128  1  0.88230000  0.32510000  0.96570000  1.0 0.1204641275
H  H129  1  0.61730000  0.11160000  0.70960000  1.0 0.1392709283
H  H130  1  0.88270000  0.61160000  0.29040000  1.0 0.1392709283
H  H131  1  0.38270000  0.88840000  0.29040000  1.0 0.1392709283
H  H132  1  0.11730000  0.38840000  0.70960000  1.0 0.1392709283
H  H133  1  0.56560000  0.04230000  0.63780000  1.0 0.1123458715
H  H134  1  0.93440000  0.54230000  0.36220000  1.0 0.1123458715
H  H135  1  0.43440000  0.95770000  0.36220000  1.0 0.1123458715
H  H136  1  0.06560000  0.45770000  0.63780000  1.0 0.1123458715
H  H137  1  0.54130000  0.25640000  0.56430000  1.0 0.1123458715
H  H138  1  0.95870000  0.75640000  0.43570000  1.0 0.1123458715
H  H139  1  0.45870000  0.74360000  0.43570000  1.0 0.1123458715
H  H140  1  0.04130000  0.24360000  0.56430000  1.0 0.1123458715
H  H141  1  0.59900000  0.33140000  0.63500000  1.0 0.1392709283
H  H142  1  0.90100000  0.83140000  0.36500000  1.0 0.1392709283
H  H143  1  0.40100000  0.66860000  0.36500000  1.0 0.1392709283
H  H144  1  0.09900000  0.16860000  0.63500000  1.0 0.1392709283
H  H145  1  0.63760000  0.30810000  0.79060000  1.0 0.0927905017
H  H146  1  0.86240000  0.80810000  0.20940000  1.0 0.0927905017
H  H147  1  0.36240000  0.69190000  0.20940000  1.0 0.0927905017
H  H148  1  0.13760000  0.19190000  0.79060000  1.0 0.0927905017
H  H149  1  0.59550000  0.22860000  0.76200000  1.0 0.0927905017
H  H150  1  0.90450000  0.72860000  0.23800000  1.0 0.0927905017
H  H151  1  0.40450000  0.77140000  0.23800000  1.0 0.0927905017
H  H152  1  0.09550000  0.27140000  0.76200000  1.0 0.0927905017
H  H153  1  0.68890000  0.24300000  0.74560000  1.0 0.1123458715
H  H154  1  0.81110000  0.74300000  0.25440000  1.0 0.1123458715
H  H155  1  0.31110000  0.75700000  0.25440000  1.0 0.1123458715
H  H156  1  0.18890000  0.25700000  0.74560000  1.0 0.1123458715
H  H157  1  0.66360000  0.33420000  0.71960000  1.0 0.1204641275
H  H158  1  0.83640000  0.83420000  0.28040000  1.0 0.1204641275
H  H159  1  0.33640000  0.66580000  0.28040000  1.0 0.1204641275
H  H160  1  0.16360000  0.16580000  0.71960000  1.0 0.1204641275
H  H161  1  0.45400000  0.54060000  0.79060000  1.0 0.1011401088
H  H162  1  0.04600000  0.04060000  0.20940000  1.0 0.1011401088
H  H163  1  0.54600000  0.45940000  0.20940000  1.0 0.1011401088
H  H164  1  0.95400000  0.95940000  0.79060000  1.0 0.1011401088
H  H165  1  0.57320000  0.40080000  0.72150000  1.0 0.1123458715
H  H166  1  0.92680000  0.90080000  0.27850000  1.0 0.1123458715
H  H167  1  0.42680000  0.59920000  0.27850000  1.0 0.1123458715
H  H168  1  0.07320000  0.09920000  0.72150000  1.0 0.1123458715
H  H169  1  0.52690000  0.32040000  0.70470000  1.0 0.1204641275
H  H170  1  0.97310000  0.82040000  0.29530000  1.0 0.1204641275
H  H171  1  0.47310000  0.67960000  0.29530000  1.0 0.1204641275
H  H172  1  0.02690000  0.17960000  0.70470000  1.0 0.1204641275
H  H173  1  0.50120000  0.49950000  0.73830000  1.0 0.127577832
H  H174  1  0.99880000  0.99950000  0.26170000  1.0 0.127577832
H  H175  1  0.49880000  0.50050000  0.26170000  1.0 0.127577832
H  H176  1  0.00120000  0.00050000  0.73830000  1.0 0.127577832
H  H177  1  0.49360000  0.31480000  0.85900000  1.0 0.1123458715
H  H178  1  0.00640000  0.81480000  0.14100000  1.0 0.1123458715
H  H179  1  0.50640000  0.68520000  0.14100000  1.0 0.1123458715
H  H180  1  0.99360000  0.18520000  0.85900000  1.0 0.1123458715
H  H181  1  0.53960000  0.26860000  0.80740000  1.0 0.1204641275
H  H182  1  0.96040000  0.76860000  0.19260000  1.0 0.1204641275
H  H183  1  0.46040000  0.73140000  0.19260000  1.0 0.1204641275
H  H184  1  0.03960000  0.23140000  0.80740000  1.0 0.1204641275
H  H185  1  0.34330000  0.72620000  0.46240000  1.0 0.127577832
H  H186  1  0.15670000  0.22620000  0.53760000  1.0 0.127577832
H  H187  1  0.65670000  0.27380000  0.53760000  1.0 0.127577832
H  H188  1  0.84330000  0.77380000  0.46240000  1.0 0.127577832
H  H189  1  0.30840000  0.51350000  0.37870000  1.0 0.1204641275
H  H190  1  0.19160000  0.01350000  0.62130000  1.0 0.1204641275
H  H191  1  0.69160000  0.48650000  0.62130000  1.0 0.1204641275
H  H192  1  0.80840000  0.98650000  0.37870000  1.0 0.1204641275
H  H193  1  0.21450000  0.57440000  0.32710000  1.0 0.1123458715
H  H194  1  0.28550000  0.07440000  0.67290000  1.0 0.1123458715
H  H195  1  0.78550000  0.42560000  0.67290000  1.0 0.1123458715
H  H196  1  0.71450000  0.92560000  0.32710000  1.0 0.1123458715
H  H197  1  0.25080000  0.78540000  0.41320000  1.0 0.1204641275
H  H198  1  0.24920000  0.28540000  0.58680000  1.0 0.1204641275
H  H199  1  0.74920000  0.21460000  0.58680000  1.0 0.1204641275
H  H200  1  0.75080000  0.71460000  0.41320000  1.0 0.1204641275
H  H201  1  0.13800000  0.67880000  0.40600000  1.0 0.1204641275
H  H202  1  0.36200000  0.17880000  0.59400000  1.0 0.1204641275
H  H203  1  0.86200000  0.32120000  0.59400000  1.0 0.1204641275
H  H204  1  0.63800000  0.82120000  0.40600000  1.0 0.1204641275
H  H205  1  0.11730000  0.89930000  0.32640000  1.0 0.1123458715
H  H206  1  0.38270000  0.39930000  0.67360000  1.0 0.1123458715
H  H207  1  0.88270000  0.10070000  0.67360000  1.0 0.1123458715
H  H208  1  0.61730000  0.60070000  0.32640000  1.0 0.1123458715
H  H209  1  0.07210000  0.96510000  0.37540000  1.0 0.1204641275
H  H210  1  0.42790000  0.46510000  0.62460000  1.0 0.1204641275
H  H211  1  0.92790000  0.03490000  0.62460000  1.0 0.1204641275
H  H212  1  0.57210000  0.53490000  0.37540000  1.0 0.1204641275
H  H213  1  0.09270000  0.74650000  0.45430000  1.0 0.127577832
H  H214  1  0.40730000  0.24650000  0.54570000  1.0 0.127577832
H  H215  1  0.90730000  0.25350000  0.54570000  1.0 0.127577832
H  H216  1  0.59270000  0.75350000  0.45430000  1.0 0.127577832
H  H217  1  0.05910000  0.64220000  0.71550000  1.0 0.1123458715
H  H218  1  0.44090000  0.14220000  0.28450000  1.0 0.1123458715
H  H219  1  0.94090000  0.35780000  0.28450000  1.0 0.1123458715
H  H220  1  0.55910000  0.85780000  0.71550000  1.0 0.1123458715
H  H221  1  0.06890000  0.72710000  0.74900000  1.0 0.127577832
H  H222  1  0.43110000  0.22710000  0.25100000  1.0 0.127577832
H  H223  1  0.93110000  0.27290000  0.25100000  1.0 0.127577832
H  H224  1  0.56890000  0.77290000  0.74900000  1.0 0.1204641275
H  H225  1  0.16620000  0.65990000  0.72130000  1.0 0.1204641275
H  H226  1  0.33380000  0.15990000  0.27870000  1.0 0.1204641275
H  H227  1  0.83380000  0.34010000  0.27870000  1.0 0.1204641275
H  H228  1  0.66620000  0.84010000  0.72130000  1.0 0.1204641275
H  H229  1  0.17390000  0.73370000  0.76070000  1.0 0.1204641275
H  H230  1  0.32610000  0.23370000  0.23930000  1.0 0.1204641275
H  H231  1  0.82610000  0.26630000  0.23930000  1.0 0.1204641275
H  H232  1  0.67390000  0.76630000  0.76070000  1.0 0.1204641275
H  H233  1  0.14760000  0.58030000  0.76690000  1.0 0.127577832
H  H234  1  0.35240000  0.08030000  0.23310000  1.0 0.127577832
H  H235  1  0.85240000  0.41970000  0.23310000  1.0 0.127577832
H  H236  1  0.64760000  0.91970000  0.76690000  1.0 0.127577832
H  H237  1  0.16700000  0.65680000  0.80540000  1.0 0.127577832
H  H238  1  0.33300000  0.15680000  0.19460000  1.0 0.127577832
H  H239  1  0.83300000  0.34320000  0.19460000  1.0 0.127577832
H  H240  1  0.66700000  0.84320000  0.80540000  1.0 0.127577832
C  C1  1  0.25500000  0.51610000  0.78810000  1.0 -0.2251858025
C  C2  1  0.24500000  0.01610000  0.21190000  1.0 -0.2195243149
C  C3  1  0.74500000  0.48390000  0.21190000  1.0 -0.2251858025
C  C4  1  0.75500000  0.98390000  0.78810000  1.0 -0.2251858025
C  C5  1  0.24190000  0.59800000  0.79700000  1.0 0.127577832
C  C6  1  0.25810000  0.09800000  0.20300000  1.0 0.127577832
C  C7  1  0.75810000  0.40200000  0.20300000  1.0 0.127577832
C  C8  1  0.74190000  0.90200000  0.79700000  1.0 0.127577832
C  C9  1  0.74670000  0.38020000  0.35380000  1.0 -0.1610783929
C  C10  1  0.75330000  0.88020000  0.64620000  1.0 -0.1610783929
C  C11  1  0.25330000  0.61980000  0.64620000  1.0 -0.1610783929
C  C12  1  0.24670000  0.11980000  0.35380000  1.0 -0.1610783929
C  C13  1  0.63570000  0.10600000  0.91910000  1.0 -0.165986448
C  C14  1  0.86430000  0.60600000  0.08090000  1.0 -0.165986448
C  C15  1  0.36430000  0.89400000  0.08090000  1.0 -0.165986448
C  C16  1  0.13570000  0.39400000  0.91910000  1.0 -0.165986448
C  C17  1  0.53080000  0.02420000  0.81380000  1.0 0.6621403163
C  C18  1  0.96920000  0.52420000  0.18620000  1.0 0.6621403163
C  C19  1  0.46920000  0.97580000  0.18620000  1.0 0.6621403163
C  C20  1  0.03080000  0.47580000  0.81380000  1.0 0.6621403163
C  C21  1  0.34240000  0.90550000  0.89350000  1.0 -0.165986448
C  C22  1  0.15760000  0.40550000  0.10650000  1.0 -0.165986448
C  C23  1  0.65760000  0.09450000  0.10650000  1.0 -0.165986448
C  C24  1  0.84240000  0.59450000  0.89350000  1.0 -0.165986448
C  C25  1  0.28480000  0.64330000  0.83180000  1.0 -0.2001844288
C  C26  1  0.21520000  0.14330000  0.16820000  1.0 -0.2001844288
C  C27  1  0.71520000  0.35670000  0.16820000  1.0 -0.2001844288
C  C28  1  0.78480000  0.85670000  0.83180000  1.0 -0.2001844288
C  C29  1  0.06810000  0.75540000  0.67900000  1.0 0.1677366631
C  C30  1  0.43190000  0.25540000  0.32100000  1.0 0.1677366631
C  C31  1  0.93190000  0.24460000  0.32100000  1.0 0.1677366631
C  C32  1  0.56810000  0.74460000  0.67900000  1.0 0.1677366631
C  C33  1  0.07370000  0.84640000  0.67960000  1.0 -0.2093259091
C  C34  1  0.42630000  0.34640000  0.32040000  1.0 -0.2093259091
C  C35  1  0.92630000  0.15360000  0.32040000  1.0 -0.2093259091
C  C36  1  0.57370000  0.65360000  0.67960000  1.0 -0.2093259091
C  C37  1  0.05770000  0.88950000  0.63840000  1.0 0.0713166831
C  C38  1  0.44230000  0.38950000  0.36160000  1.0 0.0713166831
C  C39  1  0.94230000  0.11050000  0.36160000  1.0 0.0713166831
C  C40  1  0.55770000  0.61050000  0.63840000  1.0 0.0713166831
C  C41  1  0.05500000  0.71640000  0.63450000  1.0 -0.2093259091
C  C42  1  0.44500000  0.21640000  0.36550000  1.0 -0.2093259091
C  C43  1  0.94500000  0.28360000  0.36550000  1.0 -0.2093259091
C  C44  1  0.55500000  0.78360000  0.63450000  1.0 -0.2093259091
C  C45  1  0.31310000  0.48540000  0.81160000  1.0 0.0800261452
C  C46  1  0.18690000  0.98540000  0.18840000  1.0 0.0800261452
C  C47  1  0.68690000  0.51460000  0.18840000  1.0 0.0800261452
C  C48  1  0.81310000  0.01460000  0.81160000  1.0 0.0800261452
C  C49  1  0.34030000  0.60990000  0.85470000  1.0 0.1011401088
C  C50  1  0.15970000  0.10990000  0.14530000  1.0 0.1011401088
C  C51  1  0.65970000  0.39010000  0.14530000  1.0 0.1011401088
C  C52  1  0.84030000  0.89010000  0.85470000  1.0 0.1011401088
C  C53  1  0.35750000  0.78670000  0.94900000  1.0 -0.0110487157
C  C54  1  0.14250000  0.28670000  0.05100000  1.0 -0.0110487157
C  C55  1  0.64250000  0.21330000  0.05100000  1.0 -0.0110487157
C  C56  1  0.85750000  0.71330000  0.94900000  1.0 -0.0110487157
C  C57  1  0.29870000  0.79700000  0.94660000  1.0 -0.0970576557
C  C58  1  0.20130000  0.29700000  0.05340000  1.0 -0.0970576557
C  C59  1  0.70130000  0.20300000  0.05340000  1.0 -0.0970576557
C  C60  1  0.79870000  0.70300000  0.94660000  1.0 -0.0970576557
C  C61  1  0.37960000  0.83980000  0.92150000  1.0 -0.1086909319
C  C62  1  0.12040000  0.33980000  0.07850000  1.0 -0.1086909319
C  C63  1  0.62040000  0.16020000  0.07850000  1.0 -0.1086909319
C  C64  1  0.87960000  0.66020000  0.92150000  1.0 -0.1086909319
C  C65  1  0.80000000  0.41670000  0.38370000  1.0 -0.0970576557
C  C66  1  0.70000000  0.91670000  0.61630000  1.0 -0.0970576557
C  C67  1  0.20000000  0.58330000  0.61630000  1.0 -0.0970576557
C  C68  1  0.30000000  0.08330000  0.38370000  1.0 -0.0970576557
C  C69  1  0.77060000  0.25060000  0.40040000  1.0 -0.139725458
C  C70  1  0.72940000  0.75060000  0.59960000  1.0 -0.139725458
C  C71  1  0.22940000  0.74940000  0.59960000  1.0 -0.139725458
C  C72  1  0.27060000  0.24940000  0.40040000  1.0 -0.139725458
C  C73  1  0.04220000  0.77010000  0.59400000  1.0 0.0800261452
C  C74  1  0.45780000  0.27010000  0.40600000  1.0 0.0800261452
C  C75  1  0.95780000  0.22990000  0.40600000  1.0 0.0800261452
C  C76  1  0.54220000  0.72990000  0.59400000  1.0 0.0800261452
C  C77  1  0.40090000  0.72050000  0.98300000  1.0 0.5424387013
C  C78  1  0.09910000  0.22050000  0.01700000  1.0 0.5424387013
C  C79  1  0.59910000  0.27950000  0.01700000  1.0 0.5424387013
C  C80  1  0.90090000  0.77950000  0.98300000  1.0 0.5424387013
C  C81  1  0.82560000  0.28750000  0.43070000  1.0 -0.0970576557
C  C82  1  0.67440000  0.78750000  0.56930000  1.0 -0.0970576557
C  C83  1  0.17440000  0.71250000  0.56930000  1.0 -0.0970576557
C  C84  1  0.32560000  0.21250000  0.43070000  1.0 -0.0970576557
C  C85  1  0.84050000  0.37190000  0.42280000  1.0 -0.0225451313
C  C86  1  0.65950000  0.87190000  0.57720000  1.0 -0.0225451313
C  C87  1  0.15950000  0.62810000  0.57720000  1.0 -0.0225451313
C  C88  1  0.34050000  0.12810000  0.42280000  1.0 -0.0225451313
C  C89  1  0.90050000  0.41100000  0.45450000  1.0 0.5616686796
C  C90  1  0.59950000  0.91100000  0.54550000  1.0 0.5616686796
C  C91  1  0.09950000  0.58900000  0.54550000  1.0 0.5616686796
C  C92  1  0.40050000  0.08900000  0.45450000  1.0 0.5616686796
C  C93  1  0.68730000  0.18870000  0.29550000  1.0 0.6621403163
C  C94  1  0.81270000  0.68870000  0.70450000  1.0 0.6621403163
C  C95  1  0.31270000  0.81130000  0.70450000  1.0 0.6621403163
C  C96  1  0.18730000  0.31130000  0.29550000  1.0 0.6621403163
C  C97  1  0.62020000  0.31450000  0.29690000  1.0 0.669457153
C  C98  1  0.87980000  0.81450000  0.70310000  1.0 0.669457153
C  C99  1  0.37980000  0.68550000  0.70310000  1.0 0.669457153
C  C100  1  0.12020000  0.18550000  0.29690000  1.0 0.669457153
C  C101  1  0.73070000  0.29580000  0.36200000  1.0 0.0800261452
C  C102  1  0.76930000  0.79580000  0.63800000  1.0 0.0800261452
C  C103  1  0.26930000  0.70420000  0.63800000  1.0 0.0800261452
C  C104  1  0.23070000  0.20420000  0.36200000  1.0 0.0800261452
C  C105  1  0.67000000  0.25030000  0.32950000  1.0 -0.2762349392
C  C106  1  0.83000000  0.75030000  0.67050000  1.0 -0.2762349392
C  C107  1  0.33000000  0.74970000  0.67050000  1.0 -0.2762349392
C  C108  1  0.17000000  0.24970000  0.32950000  1.0 -0.2762349392
C  C109  1  0.64130000  0.20200000  0.36160000  1.0 0.0800261452
C  C110  1  0.85870000  0.70200000  0.63840000  1.0 0.0800261452
C  C111  1  0.35870000  0.79800000  0.63840000  1.0 0.0800261452
C  C112  1  0.14130000  0.29800000  0.36160000  1.0 0.0800261452
C  C113  1  0.59110000  0.08210000  0.38200000  1.0 -0.0970576557
C  C114  1  0.90890000  0.58210000  0.61800000  1.0 -0.0970576557
C  C115  1  0.40890000  0.91790000  0.61800000  1.0 -0.0970576557
C  C116  1  0.09110000  0.41790000  0.38200000  1.0 -0.0970576557
C  C117  1  0.61720000  0.11900000  0.35190000  1.0 -0.1610783929
C  C118  1  0.88280000  0.61900000  0.64810000  1.0 -0.1610783929
C  C119  1  0.38280000  0.88100000  0.64810000  1.0 -0.1610783929
C  C120  1  0.11720000  0.38100000  0.35190000  1.0 -0.1610783929
C  C121  1  0.63590000  0.24620000  0.40100000  1.0 -0.139725458
C  C122  1  0.86410000  0.74620000  0.59900000  1.0 -0.139725458
C  C123  1  0.36410000  0.75380000  0.59900000  1.0 -0.139725458
C  C124  1  0.13590000  0.25380000  0.40100000  1.0 -0.139725458
C  C125  1  0.60800000  0.20890000  0.43000000  1.0 -0.0918329875
C  C126  1  0.89200000  0.70890000  0.57000000  1.0 -0.0918329875
C  C127  1  0.39200000  0.79110000  0.57000000  1.0 -0.0918329875
C  C128  1  0.10800000  0.29110000  0.43000000  1.0 -0.0918329875
C  C129  1  0.58600000  0.12470000  0.42110000  1.0 -0.0282279741
C  C130  1  0.91400000  0.62470000  0.57890000  1.0 -0.0282279741
C  C131  1  0.41400000  0.87530000  0.57890000  1.0 -0.0282279741
C  C132  1  0.08600000  0.37530000  0.42110000  1.0 -0.0282279741
C  C133  1  0.55580000  0.08250000  0.45180000  1.0 0.5696976339
C  C134  1  0.94420000  0.58250000  0.54820000  1.0 0.5696976339
C  C135  1  0.44420000  0.91750000  0.54820000  1.0 0.5696976339
C  C136  1  0.05580000  0.41750000  0.45180000  1.0 0.5696976339
C  C137  1  0.80820000  0.06120000  0.97580000  1.0 0.5310780859
C  C138  1  0.69180000  0.56120000  0.02420000  1.0 0.5310780859
C  C139  1  0.19180000  0.93880000  0.02420000  1.0 0.5310780859
C  C140  1  0.30820000  0.43880000  0.97580000  1.0 0.5310780859
C  C141  1  0.69840000  0.11900000  0.94240000  1.0 -0.0918329875
C  C142  1  0.80160000  0.61900000  0.05760000  1.0 -0.0918329875
C  C143  1  0.30160000  0.88100000  0.05760000  1.0 -0.0918329875
C  C144  1  0.19840000  0.38100000  0.94240000  1.0 -0.0918329875
C  C145  1  0.74020000  0.05280000  0.94590000  1.0 0.0003932919
C  C146  1  0.75980000  0.55280000  0.05410000  1.0 0.0003932919
C  C147  1  0.25980000  0.94720000  0.05410000  1.0 0.0003932919
C  C148  1  0.24020000  0.44720000  0.94590000  1.0 0.0003932919
C  C149  1  0.71800000  0.97660000  0.92220000  1.0 -0.1086909319
C  C150  1  0.78200000  0.47660000  0.07780000  1.0 -0.1086909319
C  C151  1  0.28200000  0.02340000  0.07780000  1.0 -0.1086909319
C  C152  1  0.21800000  0.52340000  0.92220000  1.0 -0.1086909319
C  C153  1  0.65770000  0.96380000  0.89870000  1.0 -0.1513313261
C  C154  1  0.84230000  0.46380000  0.10130000  1.0 -0.1513313261
C  C155  1  0.34230000  0.03620000  0.10130000  1.0 -0.1513313261
C  C156  1  0.15770000  0.53620000  0.89870000  1.0 -0.1513313261
C  C157  1  0.61430000  0.02690000  0.89590000  1.0 0.0713166831
C  C158  1  0.88570000  0.52690000  0.10410000  1.0 0.0713166831
C  C159  1  0.38570000  0.97310000  0.10410000  1.0 0.0713166831
C  C160  1  0.11430000  0.47310000  0.89590000  1.0 0.0713166831
C  C161  1  0.54520000  0.00510000  0.86950000  1.0 -0.2724163453
C  C162  1  0.95480000  0.50510000  0.13050000  1.0 -0.2724163453
C  C163  1  0.45480000  0.99490000  0.13050000  1.0 -0.2724163453
C  C164  1  0.04520000  0.49490000  0.86950000  1.0 -0.2724163453
C  C165  1  0.53470000  0.90910000  0.87870000  1.0 0.0303802593
C  C166  1  0.96530000  0.40910000  0.12130000  1.0 0.0303802593
C  C167  1  0.46530000  0.09090000  0.12130000  1.0 0.0303802593
C  C168  1  0.03470000  0.59090000  0.87870000  1.0 0.0303802593
C  C169  1  0.50140000  0.85250000  0.84140000  1.0 -0.1891351628
C  C170  1  0.99860000  0.35250000  0.15860000  1.0 -0.1891351628
C  C171  1  0.49860000  0.14750000  0.15860000  1.0 -0.1891351628
C  C172  1  0.00140000  0.64750000  0.84140000  1.0 -0.1891351628
C  C173  1  0.55830000  0.87640000  0.92520000  1.0 -0.139725458
C  C174  1  0.94170000  0.37640000  0.07480000  1.0 -0.139725458
C  C175  1  0.44170000  0.12360000  0.07480000  1.0 -0.139725458
C  C176  1  0.05830000  0.62360000  0.92520000  1.0 -0.139725458
C  C177  1  0.55320000  0.79220000  0.93580000  1.0 -0.073456041
C  C178  1  0.94680000  0.29220000  0.06420000  1.0 -0.073456041
C  C179  1  0.44680000  0.20780000  0.06420000  1.0 -0.073456041
C  C180  1  0.05320000  0.70780000  0.93580000  1.0 -0.073456041
C  C181  1  0.49530000  0.76640000  0.85300000  1.0 -0.1086909319
C  C182  1  0.00470000  0.26640000  0.14700000  1.0 -0.1086909319
C  C183  1  0.50470000  0.23360000  0.14700000  1.0 -0.1086909319
C  C184  1  0.99530000  0.73360000  0.85300000  1.0 -0.1086909319
C  C185  1  0.52270000  0.73450000  0.89940000  1.0 -0.0032486414
C  C186  1  0.97730000  0.23450000  0.10060000  1.0 -0.0032486414
C  C187  1  0.47730000  0.26550000  0.10060000  1.0 -0.0032486414
C  C188  1  0.02270000  0.76550000  0.89940000  1.0 -0.0032486414
C  C189  1  0.51670000  0.63940000  0.91100000  1.0 0.5539797699
C  C190  1  0.98330000  0.13940000  0.08900000  1.0 0.5539797699
C  C191  1  0.48330000  0.36060000  0.08900000  1.0 0.5539797699
C  C192  1  0.01670000  0.86060000  0.91100000  1.0 0.5539797699
C  C193  1  0.26080000  0.86120000  0.91800000  1.0 -0.1513313261
C  C194  1  0.23920000  0.36120000  0.08200000  1.0 -0.1513313261
C  C195  1  0.73920000  0.13880000  0.08200000  1.0 -0.1513313261
C  C196  1  0.76080000  0.63880000  0.91800000  1.0 -0.1513313261
C  C197  1  0.28360000  0.91600000  0.89240000  1.0 0.0713166831
C  C198  1  0.21640000  0.41600000  0.10760000  1.0 0.0713166831
C  C199  1  0.71640000  0.08400000  0.10760000  1.0 0.0713166831
C  C200  1  0.78360000  0.58400000  0.89240000  1.0 0.0713166831
C  C201  1  0.18870000  0.01420000  0.87570000  1.0 0.6621403163
C  C202  1  0.31130000  0.51420000  0.12430000  1.0 0.6621403163
C  C203  1  0.81130000  0.98580000  0.12430000  1.0 0.6621403163
C  C204  1  0.68870000  0.48580000  0.87570000  1.0 0.6621403163
C  C205  1  0.22370000  0.96510000  0.80850000  1.0 0.6621403163
C  C206  1  0.27630000  0.46510000  0.19150000  1.0 0.6621403163
C  C207  1  0.77630000  0.03490000  0.19150000  1.0 0.6621403163
C  C208  1  0.72370000  0.53490000  0.80850000  1.0 0.6621403163
C  C209  1  0.24500000  0.99250000  0.86140000  1.0 -0.2762349392
C  C210  1  0.25500000  0.49250000  0.13860000  1.0 -0.2762349392
C  C211  1  0.75500000  0.00750000  0.13860000  1.0 -0.2762349392
C  C212  1  0.74500000  0.50750000  0.86140000  1.0 -0.2762349392
C  C213  1  0.28820000  0.13380000  0.83650000  1.0 -0.165986448
C  C214  1  0.21180000  0.63380000  0.16350000  1.0 -0.165986448
C  C215  1  0.71180000  0.86620000  0.16350000  1.0 -0.165986448
C  C216  1  0.78820000  0.36620000  0.83650000  1.0 -0.165986448
C  C217  1  0.28680000  0.07660000  0.87360000  1.0 0.0713166831
C  C218  1  0.21320000  0.57660000  0.12640000  1.0 0.0713166831
C  C219  1  0.71320000  0.92340000  0.12640000  1.0 0.0713166831
C  C220  1  0.78680000  0.42340000  0.87360000  1.0 0.0713166831
C  C221  1  0.32060000  0.09400000  0.92010000  1.0 -0.1303471918
C  C222  1  0.17940000  0.59400000  0.07990000  1.0 -0.1303471918
C  C223  1  0.67940000  0.90600000  0.07990000  1.0 -0.1303471918
C  C224  1  0.82060000  0.40600000  0.92010000  1.0 -0.1303471918
C  C225  1  0.32590000  0.20610000  0.85050000  1.0 -0.0970576557
C  C226  1  0.17410000  0.70610000  0.14950000  1.0 -0.0970576557
C  C227  1  0.67410000  0.79390000  0.14950000  1.0 -0.0970576557
C  C228  1  0.82590000  0.29390000  0.85050000  1.0 -0.0970576557
C  C229  1  0.35760000  0.16520000  0.93230000  1.0 -0.0918329875
C  C230  1  0.14240000  0.66520000  0.06770000  1.0 -0.0918329875
C  C231  1  0.64240000  0.83480000  0.06770000  1.0 -0.0918329875
C  C232  1  0.85760000  0.33480000  0.93230000  1.0 -0.0918329875
C  C233  1  0.36040000  0.22310000  0.89820000  1.0 -0.0032486414
C  C234  1  0.13960000  0.72310000  0.10180000  1.0 -0.0032486414
C  C235  1  0.63960000  0.77690000  0.10180000  1.0 -0.0032486414
C  C236  1  0.86040000  0.27690000  0.89820000  1.0 -0.0032486414
C  C237  1  0.40200000  0.30200000  0.91380000  1.0 0.5696976339
C  C238  1  0.09800000  0.80200000  0.08620000  1.0 0.5696976339
C  C239  1  0.59800000  0.69800000  0.08620000  1.0 0.5696976339
C  C240  1  0.90200000  0.19800000  0.91380000  1.0 0.5696976339
C  C241  1  0.61480000  0.22860000  0.67920000  1.0 0.1607048964
C  C242  1  0.88520000  0.72860000  0.32080000  1.0 0.1607048964
C  C243  1  0.38520000  0.77140000  0.32080000  1.0 0.1607048964
C  C244  1  0.11480000  0.27140000  0.67920000  1.0 0.1607048964
C  C245  1  0.60360000  0.14310000  0.67970000  1.0 -0.2001844288
C  C246  1  0.89640000  0.64310000  0.32030000  1.0 -0.2001844288
C  C247  1  0.39640000  0.85690000  0.32030000  1.0 -0.2001844288
C  C248  1  0.10360000  0.35690000  0.67970000  1.0 -0.2001844288
C  C249  1  0.57260000  0.10290000  0.63690000  1.0 0.0507963193
C  C250  1  0.92740000  0.60290000  0.36310000  1.0 0.0507963193
C  C251  1  0.42740000  0.89710000  0.36310000  1.0 0.0507963193
C  C252  1  0.07260000  0.39710000  0.63690000  1.0 0.0507963193
C  C253  1  0.55890000  0.22500000  0.59400000  1.0 0.1011401088
C  C254  1  0.94110000  0.72500000  0.40600000  1.0 0.1011401088
C  C255  1  0.44110000  0.77500000  0.40600000  1.0 0.1011401088
C  C256  1  0.05890000  0.27500000  0.59400000  1.0 0.1011401088
C  C257  1  0.59230000  0.27080000  0.63640000  1.0 -0.2001844288
C  C258  1  0.90770000  0.77080000  0.36360000  1.0 -0.2001844288
C  C259  1  0.40770000  0.72920000  0.36360000  1.0 -0.2001844288
C  C260  1  0.09230000  0.22920000  0.63640000  1.0 -0.2001844288
C  C261  1  0.61190000  0.28600000  0.75780000  1.0 -0.139725458
C  C262  1  0.88810000  0.78600000  0.24220000  1.0 -0.139725458
C  C263  1  0.38810000  0.71400000  0.24220000  1.0 -0.139725458
C  C264  1  0.11190000  0.21400000  0.75780000  1.0 -0.139725458
C  C265  1  0.65110000  0.27620000  0.72700000  1.0 -0.2444132655
C  C266  1  0.84890000  0.77620000  0.27300000  1.0 -0.2444132655
C  C267  1  0.34890000  0.72380000  0.27300000  1.0 -0.2444132655
C  C268  1  0.15110000  0.22380000  0.72700000  1.0 -0.2444132655
C  C269  1  0.47220000  0.48460000  0.79440000  1.0 0.0800261452
C  C270  1  0.02780000  0.98460000  0.20560000  1.0 0.0800261452
C  C271  1  0.52780000  0.51540000  0.20560000  1.0 0.0800261452
C  C272  1  0.97220000  0.01540000  0.79440000  1.0 0.0800261452
C  C273  1  0.55760000  0.34930000  0.73340000  1.0 -0.2490862454
C  C274  1  0.94240000  0.84930000  0.26660000  1.0 -0.2490862454
C  C275  1  0.44240000  0.65070000  0.26660000  1.0 -0.2490862454
C  C276  1  0.05760000  0.15070000  0.73340000  1.0 -0.2490862454
C  C277  1  0.52610000  0.37930000  0.76720000  1.0 0.1677366631
C  C278  1  0.97390000  0.87930000  0.23280000  1.0 0.1677366631
C  C279  1  0.47390000  0.62070000  0.23280000  1.0 0.1677366631
C  C280  1  0.02610000  0.12070000  0.76720000  1.0 0.1677366631
C  C281  1  0.49990000  0.46050000  0.76290000  1.0 -0.2195243149
C  C282  1  0.00010000  0.96050000  0.23710000  1.0 -0.2195243149
C  C283  1  0.50010000  0.53950000  0.23710000  1.0 -0.2195243149
C  C284  1  0.99990000  0.03950000  0.76290000  1.0 -0.2195243149
C  C285  1  0.49500000  0.35300000  0.83410000  1.0 0.0800261452
C  C286  1  0.00500000  0.85300000  0.16590000  1.0 0.0800261452
C  C287  1  0.50500000  0.64700000  0.16590000  1.0 0.0800261452
C  C288  1  0.99500000  0.14700000  0.83410000  1.0 0.0800261452
C  C289  1  0.52260000  0.32530000  0.80370000  1.0 -0.2001844288
C  C290  1  0.97740000  0.82530000  0.19630000  1.0 -0.2001844288
C  C291  1  0.47740000  0.67470000  0.19630000  1.0 -0.2001844288
C  C292  1  0.02260000  0.17470000  0.80370000  1.0 -0.2001844288
C  C293  1  0.39530000  0.57590000  0.45570000  1.0 0.5696976339
C  C294  1  0.10470000  0.07590000  0.54430000  1.0 0.5696976339
C  C295  1  0.60470000  0.42410000  0.54430000  1.0 0.5696976339
C  C296  1  0.89530000  0.92410000  0.45570000  1.0 0.5696976339
C  C297  1  0.31700000  0.69440000  0.43500000  1.0 -0.0918329875
C  C298  1  0.18300000  0.19440000  0.56500000  1.0 -0.0918329875
C  C299  1  0.68300000  0.30560000  0.56500000  1.0 -0.0918329875
C  C300  1  0.81700000  0.80560000  0.43500000  1.0 -0.0918329875
C  C301  1  0.33430000  0.61420000  0.42560000  1.0 -0.0282279741
C  C302  1  0.16570000  0.11420000  0.57440000  1.0 -0.0282279741
C  C303  1  0.66570000  0.38580000  0.57440000  1.0 -0.0282279741
C  C304  1  0.83430000  0.88580000  0.42560000  1.0 -0.0282279741
C  C305  1  0.29660000  0.56940000  0.38570000  1.0 -0.0970576557
C  C306  1  0.20340000  0.06940000  0.61430000  1.0 -0.0970576557
C  C307  1  0.70340000  0.43060000  0.61430000  1.0 -0.0970576557
C  C308  1  0.79660000  0.93060000  0.38570000  1.0 -0.0970576557
C  C309  1  0.24050000  0.60590000  0.35480000  1.0 -0.1610783929
C  C310  1  0.25950000  0.10590000  0.64520000  1.0 -0.1610783929
C  C311  1  0.75950000  0.39410000  0.64520000  1.0 -0.1610783929
C  C312  1  0.74050000  0.89410000  0.35480000  1.0 -0.1610783929
C  C313  1  0.26220000  0.72990000  0.40540000  1.0 -0.139725458
C  C314  1  0.23780000  0.22990000  0.59460000  1.0 -0.139725458
C  C315  1  0.73780000  0.27010000  0.59460000  1.0 -0.139725458
C  C316  1  0.76220000  0.77010000  0.40540000  1.0 -0.139725458
C  C317  1  0.18430000  0.79580000  0.29820000  1.0 0.669457153
C  C318  1  0.31570000  0.29580000  0.70180000  1.0 0.669457153
C  C319  1  0.81570000  0.20420000  0.70180000  1.0 0.669457153
C  C320  1  0.68430000  0.70420000  0.29820000  1.0 0.669457153
C  C321  1  0.11610000  0.66880000  0.29810000  1.0 0.6621403163
C  C322  1  0.38390000  0.16880000  0.70190000  1.0 0.6621403163
C  C323  1  0.88390000  0.33120000  0.70190000  1.0 0.6621403163
C  C324  1  0.61610000  0.83120000  0.29810000  1.0 0.6621403163
C  C325  1  0.22300000  0.68740000  0.36450000  1.0 0.0713166831
C  C326  1  0.27700000  0.18740000  0.63550000  1.0 0.0713166831
C  C327  1  0.77700000  0.31260000  0.63550000  1.0 0.0713166831
C  C328  1  0.72300000  0.81260000  0.36450000  1.0 0.0713166831
C  C329  1  0.16430000  0.73200000  0.33110000  1.0 -0.2762349392
C  C330  1  0.33570000  0.23200000  0.66890000  1.0 -0.2762349392
C  C331  1  0.83570000  0.26800000  0.66890000  1.0 -0.2762349392
C  C332  1  0.66430000  0.76800000  0.33110000  1.0 -0.2762349392
C  C333  1  0.12520000  0.73760000  0.39990000  1.0 -0.139725458
C  C334  1  0.37480000  0.23760000  0.60010000  1.0 -0.139725458
C  C335  1  0.87480000  0.26240000  0.60010000  1.0 -0.139725458
C  C336  1  0.62520000  0.76240000  0.39990000  1.0 -0.139725458
C  C337  1  0.04850000  0.90740000  0.45120000  1.0 0.5616686796
C  C338  1  0.45150000  0.40740000  0.54880000  1.0 0.5616686796
C  C339  1  0.95150000  0.09260000  0.54880000  1.0 0.5616686796
C  C340  1  0.54850000  0.59260000  0.45120000  1.0 0.5616686796
C  C341  1  0.13410000  0.78360000  0.36180000  1.0 0.0800261452
C  C342  1  0.36590000  0.28360000  0.63820000  1.0 0.0800261452
C  C343  1  0.86590000  0.21640000  0.63820000  1.0 0.0800261452
C  C344  1  0.63410000  0.71640000  0.36180000  1.0 0.0800261452
C  C345  1  0.11310000  0.86790000  0.35270000  1.0 -0.1610783929
C  C346  1  0.38690000  0.36790000  0.64730000  1.0 -0.1610783929
C  C347  1  0.88690000  0.13210000  0.64730000  1.0 -0.1610783929
C  C348  1  0.61310000  0.63210000  0.35270000  1.0 -0.1610783929
C  C349  1  0.08580000  0.90680000  0.38180000  1.0 -0.0970576557
C  C350  1  0.41420000  0.40680000  0.61820000  1.0 -0.0970576557
C  C351  1  0.91420000  0.09320000  0.61820000  1.0 -0.0970576557
C  C352  1  0.58580000  0.59320000  0.38180000  1.0 -0.0970576557
C  C353  1  0.09800000  0.77770000  0.42830000  1.0 -0.0918329875
C  C354  1  0.40200000  0.27770000  0.57170000  1.0 -0.0918329875
C  C355  1  0.90200000  0.22230000  0.57170000  1.0 -0.0918329875
C  C356  1  0.59800000  0.72230000  0.42830000  1.0 -0.0918329875
C  C357  1  0.07820000  0.86270000  0.41980000  1.0 -0.0110487157
C  C358  1  0.42180000  0.36270000  0.58020000  1.0 -0.0110487157
C  C359  1  0.92180000  0.13730000  0.58020000  1.0 -0.0110487157
C  C360  1  0.57820000  0.63730000  0.41980000  1.0 -0.0110487157
C  C361  1  0.08230000  0.69730000  0.72490000  1.0 -0.2444132655
C  C362  1  0.41770000  0.19730000  0.27510000  1.0 -0.2444132655
C  C363  1  0.91770000  0.30270000  0.27510000  1.0 -0.2444132655
C  C364  1  0.58230000  0.80270000  0.72490000  1.0 -0.2444132655
C  C365  1  0.15360000  0.67740000  0.74860000  1.0 -0.1086909319
C  C366  1  0.34640000  0.17740000  0.25140000  1.0 -0.1086909319
C  C367  1  0.84640000  0.32260000  0.25140000  1.0 -0.1086909319
C  C368  1  0.65360000  0.82260000  0.74860000  1.0 -0.1086909319
C  C369  1  0.17370000  0.63300000  0.77660000  1.0 -0.2001844288
C  C370  1  0.32630000  0.13300000  0.22340000  1.0 -0.2001844288
C  C371  1  0.82630000  0.36700000  0.22340000  1.0 -0.2001844288
C  C372  1  0.67370000  0.86700000  0.77660000  1.0 -0.2001844288
C  C373  1  0.50300000  0.06080000  0.88750000  1.0 0.5900613224
C  C374  1  0.99700000  0.56080000  0.11250000  1.0 0.5900613224
C  C375  1  0.49700000  0.93920000  0.11250000  1.0 0.5900613224
C  C376  1  0.00300000  0.43920000  0.88750000  1.0 0.5900613224
N  N1  1  0.55080000  0.14250000  0.59310000  1.0 -0.2195243149
N  N2  1  0.94920000  0.64250000  0.40690000  1.0 -0.2195243149
N  N3  1  0.44920000  0.85750000  0.40690000  1.0 -0.2195243149
N  N4  1  0.05080000  0.35750000  0.59310000  1.0 -0.2195243149
N  N5  1  0.46930000  0.43320000  0.83070000  1.0 -0.2648533801
N  N6  1  0.03070000  0.93320000  0.16930000  1.0 -0.2648533801
N  N7  1  0.53070000  0.56680000  0.16930000  1.0 -0.2648533801
N  N8  1  0.96930000  0.06680000  0.83070000  1.0 -0.2648533801
N  N9  1  0.35580000  0.53000000  0.84720000  1.0 -0.2195243149
N  N10  1  0.14420000  0.03000000  0.15280000  1.0 -0.2195243149
N  N11  1  0.64420000  0.47000000  0.15280000  1.0 -0.2195243149
N  N12  1  0.85580000  0.97000000  0.84720000  1.0 -0.2195243149
N  N13  1  0.04120000  0.85450000  0.59460000  1.0 -0.2251858025
N  N14  1  0.45880000  0.35450000  0.40540000  1.0 -0.2251858025
N  N15  1  0.95880000  0.14550000  0.40540000  1.0 -0.2251858025
N  N16  1  0.54120000  0.64550000  0.59460000  1.0 -0.2251858025
O  O1  1  0.55170000  0.61290000  0.95320000  1.0 -0.4700893084
O  O2  1  0.94830000  0.11290000  0.04680000  1.0 -0.4700893084
O  O3  1  0.44830000  0.38710000  0.04680000  1.0 -0.4700893084
O  O4  1  0.05170000  0.88710000  0.95320000  1.0 -0.4700893084
O  O5  1  0.47820000  0.59610000  0.87960000  1.0 -0.5221530455
O  O6  1  0.02180000  0.09610000  0.12040000  1.0 -0.5221530455
O  O7  1  0.52180000  0.40390000  0.12040000  1.0 -0.5221530455
O  O8  1  0.97820000  0.90390000  0.87960000  1.0 -0.5221530455
O  O9  1  0.44620000  0.50330000  0.95720000  1.0 -0.7061807061
O  O10  1  0.05380000  0.00330000  0.04280000  1.0 -0.7061807061
O  O11  1  0.55380000  0.49670000  0.04280000  1.0 -0.7061807061
O  O12  1  0.94620000  0.99670000  0.95720000  1.0 -0.7061807061
O  O13  1  0.91330000  0.48430000  0.44220000  1.0 -0.5674135531
O  O14  1  0.58670000  0.98430000  0.55780000  1.0 -0.5674135531
O  O15  1  0.08670000  0.51570000  0.55780000  1.0 -0.5674135531
O  O16  1  0.41330000  0.01570000  0.44220000  1.0 -0.5674135531
O  O17  1  0.53940000  0.42620000  0.94110000  1.0 0.0303802593
O  O18  1  0.96060000  0.92620000  0.05890000  1.0 0.0303802593
O  O19  1  0.46060000  0.57380000  0.05890000  1.0 0.0303802593
O  O20  1  0.03940000  0.07380000  0.94110000  1.0 0.0303802593
O  O21  1  0.04950000  0.86810000  0.48850000  1.0 -0.5221530455
O  O22  1  0.45050000  0.36810000  0.51150000  1.0 -0.5221530455
O  O23  1  0.95050000  0.13190000  0.51150000  1.0 -0.5221530455
O  O24  1  0.54950000  0.63190000  0.48850000  1.0 -0.5221530455
O  O25  1  0.42920000  0.61890000  0.49280000  1.0 -0.5390042608
O  O26  1  0.07080000  0.11890000  0.50720000  1.0 -0.5390042608
O  O27  1  0.57080000  0.38110000  0.50720000  1.0 -0.5390042608
O  O28  1  0.92920000  0.88110000  0.49280000  1.0 -0.5390042608
O  O29  1  0.02740000  0.98140000  0.43830000  1.0 -0.5580165232
O  O30  1  0.47260000  0.48140000  0.56170000  1.0 -0.5580165232
O  O31  1  0.97260000  0.01860000  0.56170000  1.0 -0.5580165232
O  O32  1  0.52740000  0.51860000  0.43830000  1.0 -0.5580165232
O  O33  1  0.40990000  0.50510000  0.44230000  1.0 -0.5543538774
O  O34  1  0.09010000  0.00510000  0.55770000  1.0 -0.5543538774
O  O35  1  0.59010000  0.49490000  0.55770000  1.0 -0.5543538774
O  O36  1  0.90990000  0.99490000  0.44230000  1.0 -0.5543538774
O  O37  1  0.39980000  0.35670000  0.88120000  1.0 -0.5580165232
O  O38  1  0.10020000  0.85670000  0.11880000  1.0 -0.5580165232
O  O39  1  0.60020000  0.64330000  0.11880000  1.0 -0.5580165232
O  O40  1  0.89980000  0.14330000  0.88120000  1.0 -0.5580165232
O  O41  1  0.43690000  0.30590000  0.95720000  1.0 -0.5111832464
O  O42  1  0.06310000  0.80590000  0.04280000  1.0 -0.5111832464
O  O43  1  0.56310000  0.69410000  0.04280000  1.0 -0.5111832464
O  O44  1  0.93690000  0.19410000  0.95720000  1.0 -0.5111832464
O  O45  1  0.93350000  0.36980000  0.49140000  1.0 -0.5221530455
O  O46  1  0.56650000  0.86980000  0.50860000  1.0 -0.5221530455
O  O47  1  0.06650000  0.63020000  0.50860000  1.0 -0.5221530455
O  O48  1  0.43350000  0.13020000  0.49140000  1.0 -0.5221530455
O  O49  1  0.82650000  0.13460000  0.99650000  1.0 -0.5221530455
O  O50  1  0.67350000  0.63460000  0.00350000  1.0 -0.5221530455
O  O51  1  0.17350000  0.86540000  0.00350000  1.0 -0.5221530455
O  O52  1  0.32650000  0.36540000  0.99650000  1.0 -0.5221530455
O  O53  1  0.84150000  0.99940000  0.97810000  1.0 -0.3932690988
O  O54  1  0.65850000  0.49940000  0.02190000  1.0 -0.3932690988
O  O55  1  0.15850000  0.00060000  0.02190000  1.0 -0.3932690988
O  O56  1  0.34150000  0.50060000  0.97810000  1.0 -0.3932690988
O  O57  1  0.55560000  0.12400000  0.48900000  1.0 -0.5390042608
O  O58  1  0.94440000  0.62400000  0.51100000  1.0 -0.5390042608
O  O59  1  0.44440000  0.87600000  0.51100000  1.0 -0.5390042608
O  O60  1  0.05560000  0.37600000  0.48900000  1.0 -0.5390042608
O  O61  1  0.39210000  0.70330000  0.02160000  1.0 -0.4700893084
O  O62  1  0.10790000  0.20330000  0.97840000  1.0 -0.4700893084
O  O63  1  0.60790000  0.29670000  0.97840000  1.0 -0.4700893084
O  O64  1  0.89210000  0.79670000  0.02160000  1.0 -0.4700893084
O  O65  1  0.44140000  0.69060000  0.96920000  1.0 -0.5390042608
O  O66  1  0.05860000  0.19060000  0.03080000  1.0 -0.5390042608
O  O67  1  0.55860000  0.30940000  0.03080000  1.0 -0.5390042608
O  O68  1  0.94140000  0.80940000  0.96920000  1.0 -0.5390042608
O  O69  1  0.53230000  0.00910000  0.43890000  1.0 -0.5580165232
O  O70  1  0.96770000  0.50910000  0.56110000  1.0 -0.5580165232
O  O71  1  0.46770000  0.99090000  0.56110000  1.0 -0.5580165232
O  O72  1  0.03230000  0.49090000  0.43890000  1.0 -0.5580165232
F  F1  1  0.10650000  0.60350000  0.32300000  1.0 -0.1891351628
F  F2  1  0.39350000  0.10350000  0.67700000  1.0 -0.1891351628
F  F3  1  0.89350000  0.39650000  0.67700000  1.0 -0.1891351628
F  F4  1  0.60650000  0.89650000  0.32300000  1.0 -0.1891351628
F  F5  1  0.06190000  0.70900000  0.27630000  1.0 -0.2001844288
F  F6  1  0.43810000  0.20900000  0.72370000  1.0 -0.2001844288
F  F7  1  0.93810000  0.29100000  0.72370000  1.0 -0.2001844288
F  F8  1  0.56190000  0.79100000  0.27630000  1.0 -0.2001844288
F  F9  1  0.13140000  0.63630000  0.26210000  1.0 -0.2001844288
F  F10  1  0.36860000  0.13630000  0.73790000  1.0 -0.2001844288
F  F11  1  0.86860000  0.36370000  0.73790000  1.0 -0.2001844288
F  F12  1  0.63140000  0.86370000  0.26210000  1.0 -0.2001844288
F  F13  1  0.21860000  0.85960000  0.32400000  1.0 -0.2001844288
F  F14  1  0.28140000  0.35960000  0.67600000  1.0 -0.2001844288
F  F15  1  0.78140000  0.14040000  0.67600000  1.0 -0.2001844288
F  F16  1  0.71860000  0.64040000  0.32400000  1.0 -0.2001844288
F  F17  1  0.21810000  0.75250000  0.27720000  1.0 -0.2093259091
F  F18  1  0.28190000  0.25250000  0.72280000  1.0 -0.2093259091
F  F19  1  0.78190000  0.24750000  0.72280000  1.0 -0.2093259091
F  F20  1  0.71810000  0.74750000  0.27720000  1.0 -0.2093259091
F  F21  1  0.13730000  0.83010000  0.26210000  1.0 -0.2001844288
F  F22  1  0.36270000  0.33010000  0.73790000  1.0 -0.2001844288
F  F23  1  0.86270000  0.16990000  0.73790000  1.0 -0.2001844288
F  F24  1  0.63730000  0.66990000  0.26210000  1.0 -0.2001844288
F  F25  1  0.18130000  0.02010000  0.77740000  1.0 -0.2195243149
F  F26  1  0.31870000  0.52010000  0.22260000  1.0 -0.2195243149
F  F27  1  0.81870000  0.97990000  0.22260000  1.0 -0.2195243149
F  F28  1  0.68130000  0.47990000  0.77740000  1.0 -0.2195243149
F  F29  1  0.19670000  0.88650000  0.80120000  1.0 -0.2195243149
F  F30  1  0.30330000  0.38650000  0.19880000  1.0 -0.2195243149
F  F31  1  0.80330000  0.11350000  0.19880000  1.0 -0.2195243149
F  F32  1  0.69670000  0.61350000  0.80120000  1.0 -0.2195243149
F  F33  1  0.26930000  0.96160000  0.79200000  1.0 -0.1891351628
F  F34  1  0.23070000  0.46160000  0.20800000  1.0 -0.1891351628
F  F35  1  0.73070000  0.03840000  0.20800000  1.0 -0.1891351628
F  F36  1  0.76930000  0.53840000  0.79200000  1.0 -0.1891351628
F  F37  1  0.14390000  0.95600000  0.85890000  1.0 -0.2001844288
F  F38  1  0.35610000  0.45600000  0.14110000  1.0 -0.2001844288
F  F39  1  0.85610000  0.04400000  0.14110000  1.0 -0.2001844288
F  F40  1  0.64390000  0.54400000  0.85890000  1.0 -0.2001844288
F  F41  1  0.20400000  0.02280000  0.92230000  1.0 -0.1756516056
F  F42  1  0.29600000  0.52280000  0.07770000  1.0 -0.1756516056
F  F43  1  0.79600000  0.97720000  0.07770000  1.0 -0.1756516056
F  F44  1  0.70400000  0.47720000  0.92230000  1.0 -0.1756516056
F  F45  1  0.16330000  0.08880000  0.85470000  1.0 -0.1891351628
F  F46  1  0.33670000  0.58880000  0.14530000  1.0 -0.1891351628
F  F47  1  0.83670000  0.91120000  0.14530000  1.0 -0.1891351628
F  F48  1  0.66330000  0.41120000  0.85470000  1.0 -0.1891351628
F  F49  1  0.56670000  0.27550000  0.27550000  1.0 -0.1891351628
F  F50  1  0.93330000  0.77550000  0.72450000  1.0 -0.1891351628
F  F51  1  0.43330000  0.72450000  0.72450000  1.0 -0.1891351628
F  F52  1  0.06670000  0.22450000  0.27550000  1.0 -0.1891351628
F  F53  1  0.61140000  0.37950000  0.32290000  1.0 -0.2001844288
F  F54  1  0.88860000  0.87950000  0.67710000  1.0 -0.2001844288
F  F55  1  0.38860000  0.62050000  0.67710000  1.0 -0.2001844288
F  F56  1  0.11140000  0.12050000  0.32290000  1.0 -0.2001844288
F  F57  1  0.63550000  0.34870000  0.26150000  1.0 -0.2093259091
F  F58  1  0.86450000  0.84870000  0.73850000  1.0 -0.2093259091
F  F59  1  0.36450000  0.65130000  0.73850000  1.0 -0.2093259091
F  F60  1  0.13550000  0.15130000  0.26150000  1.0 -0.2093259091
F  F61  1  0.72210000  0.12230000  0.32000000  1.0 -0.2001844288
F  F62  1  0.77790000  0.62230000  0.68000000  1.0 -0.2001844288
F  F63  1  0.27790000  0.87770000  0.68000000  1.0 -0.2001844288
F  F64  1  0.22210000  0.37770000  0.32000000  1.0 -0.2001844288
F  F65  1  0.72130000  0.22960000  0.27400000  1.0 -0.2093259091
F  F66  1  0.77870000  0.72960000  0.72600000  1.0 -0.2093259091
F  F67  1  0.27870000  0.77040000  0.72600000  1.0 -0.2093259091
F  F68  1  0.22130000  0.27040000  0.27400000  1.0 -0.2093259091
F  F69  1  0.63830000  0.15480000  0.25990000  1.0 -0.2001844288
F  F70  1  0.86170000  0.65480000  0.74010000  1.0 -0.2001844288
F  F71  1  0.36170000  0.84520000  0.74010000  1.0 -0.2001844288
F  F72  1  0.13830000  0.34520000  0.25990000  1.0 -0.2001844288
F  F73  1  0.54920000  0.10380000  0.80820000  1.0 -0.2001844288
F  F74  1  0.95080000  0.60380000  0.19180000  1.0 -0.2001844288
F  F75  1  0.45080000  0.89620000  0.19180000  1.0 -0.2001844288
F  F76  1  0.04920000  0.39620000  0.80820000  1.0 -0.2001844288
F  F77  1  0.47090000  0.01970000  0.78820000  1.0 -0.2093259091
F  F78  1  0.02910000  0.51970000  0.21180000  1.0 -0.2093259091
F  F79  1  0.52910000  0.98030000  0.21180000  1.0 -0.2093259091
F  F80  1  0.97090000  0.48030000  0.78820000  1.0 -0.2093259091
F  F81  1  0.55850000  0.96950000  0.79510000  1.0 -0.2001844288
F  F82  1  0.94150000  0.46950000  0.20490000  1.0 -0.2001844288
F  F83  1  0.44150000  0.03050000  0.20490000  1.0 -0.2001844288
F  F84  1  0.05850000  0.53050000  0.79510000  1.0 -0.2001844288
F  F85  1  0.52020000  0.05990000  0.93520000  1.0 -0.1513313261
F  F86  1  0.97980000  0.55990000  0.06480000  1.0 -0.1513313261
F  F87  1  0.47980000  0.94010000  0.06480000  1.0 -0.1513313261
F  F88  1  0.02020000  0.44010000  0.93520000  1.0 -0.1513313261
F  F89  1  0.50020000  0.14370000  0.87380000  1.0 -0.2001844288
F  F90  1  0.99980000  0.64370000  0.12620000  1.0 -0.2001844288
F  F91  1  0.49980000  0.85630000  0.12620000  1.0 -0.2001844288
F  F92  1  0.00020000  0.35630000  0.87380000  1.0 -0.2001844288
F  F93  1  0.44250000  0.03070000  0.85920000  1.0 0.0800261452
F  F94  1  0.05750000  0.53070000  0.14080000  1.0 0.0800261452
F  F95  1  0.55750000  0.96930000  0.14080000  1.0 0.0800261452
F  F96  1  0.94250000  0.46930000  0.85920000  1.0 0.0800261452
F  F97  1  0.55090000  0.97570000  0.11500000  1.0 0.1011401088
F  F98  1  0.94910000  0.47570000  0.88500000  1.0 0.1011401088
F  F99  1  0.44910000  0.02430000  0.88500000  1.0 0.1011401088
F  F100  1  0.05090000  0.52430000  0.11500000  1.0 0.1011401088
