# DDEC6 charges by PACMAN v1.1 (https://github.com/mtap-research/PACMAN-charge/)
data_COXFOL_ion_pacman
_symmetry_space_group_name_H-M   'P 1'
_cell_length_a   22.78700000
_cell_length_b   10.59000000
_cell_length_c   27.67500000
_cell_angle_alpha   90.00000000
_cell_angle_beta   107.79000000
_cell_angle_gamma   90.00000000
_symmetry_Int_Tables_number   1
_chemical_formula_structural   Co6H42C52N2O27
_chemical_formula_sum   'Co24 H168 C208 N8 O108'
_cell_volume   6359.03248034
_cell_formula_units_Z   4
loop_
 _symmetry_equiv_pos_site_id
 _symmetry_equiv_pos_as_xyz
  1  'x, y, z'
loop_
 _atom_site_type_symbol
 _atom_site_label
 _atom_site_symmetry_multiplicity
 _atom_site_fract_x
 _atom_site_fract_y
 _atom_site_fract_z
 _atom_site_occupancy
 _atom_site_charge
Co  Co1  1  0.77736000  0.59107000  0.06567000  1.0 1.0842048025
Co  Co2  1  0.22264000  0.09107000  0.43433000  1.0 1.0842048025
Co  Co3  1  0.22264000  0.40893000  0.93433000  1.0 1.0842048025
Co  Co4  1  0.77736000  0.90893000  0.56567000  1.0 1.0842048025
Co  Co5  1  0.85197000  0.80321000  0.14874000  1.0 1.018514434
Co  Co6  1  0.14803000  0.30321000  0.35126000  1.0 1.018514434
Co  Co7  1  0.14803000  0.19679000  0.85126000  1.0 1.018514434
Co  Co8  1  0.85197000  0.69679000  0.64874000  1.0 1.018514434
Co  Co9  1  0.69893000  0.69066000  0.14177000  1.0 1.0842048025
Co  Co10  1  0.30107000  0.19066000  0.35823000  1.0 1.0842048025
Co  Co11  1  0.30107000  0.30934000  0.85823000  1.0 1.0842048025
Co  Co12  1  0.69893000  0.80934000  0.64177000  1.0 1.0842048025
Co  Co13  1  0.21954000  0.29165000  0.24343000  1.0 1.058256725
Co  Co14  1  0.78046000  0.79165000  0.25657000  1.0 1.058256725
Co  Co15  1  0.78046000  0.70835000  0.75657000  1.0 1.058256725
Co  Co16  1  0.21954000  0.20835000  0.74343000  1.0 1.058256725
Co  Co17  1  0.64744000  0.83931000  0.76857000  1.0 0.9491382038
Co  Co18  1  0.35256000  0.33931000  0.73143000  1.0 0.9491382038
Co  Co19  1  0.35256000  0.16069000  0.23143000  1.0 0.9491382038
Co  Co20  1  0.64744000  0.66069000  0.26857000  1.0 0.9491382038
Co  Co21  1  0.71131000  0.58500000  0.83293000  1.0 0.9807639515
Co  Co22  1  0.28869000  0.08500000  0.66707000  1.0 0.9807639515
Co  Co23  1  0.28869000  0.41500000  0.16707000  1.0 0.9807639515
Co  Co24  1  0.71131000  0.91500000  0.33293000  1.0 0.9807639515
H  H1  1  0.45570000  0.61850000  0.00400000  1.0 0.1196126941
H  H2  1  0.54430000  0.11850000  0.49600000  1.0 0.1196126941
H  H3  1  0.54430000  0.38150000  0.99600000  1.0 0.1196126941
H  H4  1  0.45570000  0.88150000  0.50400000  1.0 0.1196126941
H  H5  1  0.67040000  0.76290000  0.93800000  1.0 0.1298151055
H  H6  1  0.32960000  0.26290000  0.56200000  1.0 0.1378898497
H  H7  1  0.32960000  0.23710000  0.06200000  1.0 0.1378898497
H  H8  1  0.67040000  0.73710000  0.43800000  1.0 0.1378898497
H  H9  1  0.76060000  0.19620000  0.13190000  1.0 0.1196126941
H  H10  1  0.23940000  0.69620000  0.36810000  1.0 0.1196126941
H  H11  1  0.23940000  0.80380000  0.86810000  1.0 0.1196126941
H  H12  1  0.76060000  0.30380000  0.63190000  1.0 0.1196126941
H  H13  1  0.73290000  0.29050000  0.27800000  1.0 0.1196126941
H  H14  1  0.26710000  0.79050000  0.22200000  1.0 0.1196126941
H  H15  1  0.26710000  0.70950000  0.72200000  1.0 0.1196126941
H  H16  1  0.73290000  0.20950000  0.77800000  1.0 0.1196126941
H  H17  1  0.80410000  0.75790000  0.96100000  1.0 0.1378898497
H  H18  1  0.19590000  0.25790000  0.53900000  1.0 0.1378898497
H  H19  1  0.19590000  0.24210000  0.03900000  1.0 0.1378898497
H  H20  1  0.80410000  0.74210000  0.46100000  1.0 0.1378898497
H  H21  1  0.99920000  0.50200000  0.21680000  1.0 0.1298151055
H  H22  1  0.00080000  0.00200000  0.28320000  1.0 0.1298151055
H  H23  1  0.00080000  0.49800000  0.78320000  1.0 0.1298151055
H  H24  1  0.99920000  0.99800000  0.71680000  1.0 0.1298151055
H  H25  1  0.58550000  0.93710000  0.02700000  1.0 0.1132282919
H  H26  1  0.41450000  0.43710000  0.47300000  1.0 0.1132282919
H  H27  1  0.41450000  0.06290000  0.97300000  1.0 0.1132282919
H  H28  1  0.58550000  0.56290000  0.52700000  1.0 0.1132282919
H  H29  1  0.84460000  0.48690000  0.21910000  1.0 0.1298151055
H  H30  1  0.15540000  0.98690000  0.28090000  1.0 0.1298151055
H  H31  1  0.15540000  0.51310000  0.78090000  1.0 0.1298151055
H  H32  1  0.84460000  0.01310000  0.71910000  1.0 0.1298151055
H  H33  1  0.88780000  0.96290000  0.88080000  1.0 0.1196126941
H  H34  1  0.11220000  0.46290000  0.61920000  1.0 0.1196126941
H  H35  1  0.11220000  0.03710000  0.11920000  1.0 0.1196126941
H  H36  1  0.88780000  0.53710000  0.38080000  1.0 0.1196126941
H  H37  1  0.46950000  0.58330000  0.17270000  1.0 0.1196126941
H  H38  1  0.53050000  0.08330000  0.32730000  1.0 0.1196126941
H  H39  1  0.53050000  0.41670000  0.82730000  1.0 0.1196126941
H  H40  1  0.46950000  0.91670000  0.67270000  1.0 0.1196126941
H  H41  1  0.59000000  0.32950000  0.10670000  1.0 0.1196126941
H  H42  1  0.41000000  0.82950000  0.39330000  1.0 0.1196126941
H  H43  1  0.41000000  0.67050000  0.89330000  1.0 0.1196126941
H  H44  1  0.59000000  0.17050000  0.60670000  1.0 0.1196126941
H  H45  1  0.62600000  0.96830000  0.14380000  1.0 0.1298151055
H  H46  1  0.37400000  0.46830000  0.35620000  1.0 0.1298151055
H  H47  1  0.37400000  0.03170000  0.85620000  1.0 0.1298151055
H  H48  1  0.62600000  0.53170000  0.64380000  1.0 0.1298151055
H  H49  1  0.93010000  0.00950000  0.03210000  1.0 0.1196126941
H  H50  1  0.06990000  0.50950000  0.46790000  1.0 0.1196126941
H  H51  1  0.06990000  0.99050000  0.96790000  1.0 0.1196126941
H  H52  1  0.93010000  0.49050000  0.53210000  1.0 0.1196126941
H  H53  1  0.94180000  0.07090000  0.95450000  1.0 0.1196126941
H  H54  1  0.05820000  0.57090000  0.54550000  1.0 0.1196126941
H  H55  1  0.05820000  0.92910000  0.04550000  1.0 0.1196126941
H  H56  1  0.94180000  0.42910000  0.45450000  1.0 0.1196126941
H  H57  1  0.55630000  0.13230000  0.12050000  1.0 0.1132282919
H  H58  1  0.44370000  0.63230000  0.37950000  1.0 0.1132282919
H  H59  1  0.44370000  0.86770000  0.87950000  1.0 0.1132282919
H  H60  1  0.55630000  0.36770000  0.62050000  1.0 0.1132282919
H  H61  1  0.54880000  0.04420000  0.88170000  1.0 0.1196126941
H  H62  1  0.45120000  0.54420000  0.61830000  1.0 0.1196126941
H  H63  1  0.45120000  0.95580000  0.11830000  1.0 0.1196126941
H  H64  1  0.54880000  0.45580000  0.38170000  1.0 0.1196126941
H  H65  1  0.94000000  0.37720000  0.07250000  1.0 0.1196126941
H  H66  1  0.06000000  0.87720000  0.42750000  1.0 0.1196126941
H  H67  1  0.06000000  0.62280000  0.92750000  1.0 0.1196126941
H  H68  1  0.94000000  0.12280000  0.57250000  1.0 0.1196126941
H  H69  1  0.53380000  0.06740000  0.96160000  1.0 0.1196126941
H  H70  1  0.46620000  0.56740000  0.53840000  1.0 0.1196126941
H  H71  1  0.46620000  0.93260000  0.03840000  1.0 0.1196126941
H  H72  1  0.53380000  0.43260000  0.46160000  1.0 0.1196126941
H  H73  1  0.54600000  0.67730000  0.06590000  1.0 0.1196126941
H  H74  1  0.45400000  0.17730000  0.43410000  1.0 0.1196126941
H  H75  1  0.45400000  0.32270000  0.93410000  1.0 0.1196126941
H  H76  1  0.54600000  0.82270000  0.56590000  1.0 0.1196126941
H  H77  1  0.37300000  0.54210000  0.02770000  1.0 0.1298151055
H  H78  1  0.62700000  0.04210000  0.47230000  1.0 0.1298151055
H  H79  1  0.62700000  0.45790000  0.97230000  1.0 0.1298151055
H  H80  1  0.37300000  0.95790000  0.52770000  1.0 0.1298151055
H  H81  1  0.01820000  0.23440000  0.08920000  1.0 0.1132282919
H  H82  1  0.98180000  0.73440000  0.41080000  1.0 0.1132282919
H  H83  1  0.98180000  0.76560000  0.91080000  1.0 0.1132282919
H  H84  1  0.01820000  0.26560000  0.58920000  1.0 0.1132282919
H  H85  1  0.87710000  0.12750000  0.25170000  1.0 0.1298151055
H  H86  1  0.12290000  0.62750000  0.24830000  1.0 0.1298151055
H  H87  1  0.12290000  0.87250000  0.74830000  1.0 0.1298151055
H  H88  1  0.87710000  0.37250000  0.75170000  1.0 0.1298151055
H  H89  1  0.90390000  0.31460000  0.22170000  1.0 0.1196126941
H  H90  1  0.09610000  0.81460000  0.27830000  1.0 0.1196126941
H  H91  1  0.09610000  0.68540000  0.77830000  1.0 0.1196126941
H  H92  1  0.90390000  0.18540000  0.72170000  1.0 0.1196126941
H  H93  1  0.08230000  0.21300000  0.17170000  1.0 0.1196126941
H  H94  1  0.91770000  0.71300000  0.32830000  1.0 0.1196126941
H  H95  1  0.91770000  0.78700000  0.82830000  1.0 0.1196126941
H  H96  1  0.08230000  0.28700000  0.67170000  1.0 0.1196126941
H  H97  1  0.80200000  0.61600000  0.15560000  1.0 0.3595037257
H  H98  1  0.19800000  0.11600000  0.34440000  1.0 0.3595037257
H  H99  1  0.19800000  0.38400000  0.84440000  1.0 0.3595037257
H  H100  1  0.80200000  0.88400000  0.65560000  1.0 0.3595037257
H  H101  1  0.31800000  0.36200000  0.25970000  1.0 0.3816180622
H  H102  1  0.68200000  0.86200000  0.24030000  1.0 0.3816180622
H  H103  1  0.68200000  0.63800000  0.74030000  1.0 0.3816180622
H  H104  1  0.31800000  0.13800000  0.75970000  1.0 0.3816180622
H  H105  1  0.84370000  0.24350000  0.59250000  1.0 0.1378898497
H  H106  1  0.83030000  0.38530000  0.57670000  1.0 0.1378898497
H  H107  1  0.86590000  0.30000000  0.54870000  1.0 0.1132282919
H  H108  1  0.72980000  0.42720000  0.52980000  1.0 0.1298151055
H  H109  1  0.68080000  0.33410000  0.49600000  1.0 0.1196126941
H  H110  1  0.72840000  0.40050000  0.47380000  1.0 0.1298151055
H  H111  1  0.77300000  0.22360000  0.49420000  1.0 0.2500840613
H  H112  1  0.74700000  0.19990000  0.53520000  1.0 0.2500840613
H  H113  1  0.15630000  0.74350000  0.90750000  1.0 0.1378898497
H  H114  1  0.16970000  0.88530000  0.92330000  1.0 0.1378898497
H  H115  1  0.13410000  0.80000000  0.95130000  1.0 0.1132282919
H  H116  1  0.27020000  0.92720000  0.97020000  1.0 0.1298151055
H  H117  1  0.31920000  0.83410000  0.00400000  1.0 0.1196126941
H  H118  1  0.27160000  0.90050000  0.02620000  1.0 0.1298151055
H  H119  1  0.22700000  0.72360000  0.00580000  1.0 0.2500840613
H  H120  1  0.25300000  0.69990000  0.96480000  1.0 0.2500840613
H  H121  1  0.15630000  0.75650000  0.40750000  1.0 0.1378898497
H  H122  1  0.16970000  0.61470000  0.42330000  1.0 0.1378898497
H  H123  1  0.13410000  0.70000000  0.45130000  1.0 0.1132282919
H  H124  1  0.27020000  0.57280000  0.47020000  1.0 0.1298151055
H  H125  1  0.31920000  0.66590000  0.50400000  1.0 0.1196126941
H  H126  1  0.27160000  0.59950000  0.52620000  1.0 0.1298151055
H  H127  1  0.22700000  0.77640000  0.50580000  1.0 0.2500840613
H  H128  1  0.25300000  0.80010000  0.46480000  1.0 0.2500840613
H  H129  1  0.84370000  0.25650000  0.09250000  1.0 0.1378898497
H  H130  1  0.83030000  0.11470000  0.07670000  1.0 0.1378898497
H  H131  1  0.86590000  0.20000000  0.04870000  1.0 0.1132282919
H  H132  1  0.72980000  0.07280000  0.02980000  1.0 0.1298151055
H  H133  1  0.68080000  0.16590000  0.99600000  1.0 0.1196126941
H  H134  1  0.72840000  0.09950000  0.97380000  1.0 0.1298151055
H  H135  1  0.77300000  0.27640000  0.99420000  1.0 0.2500840613
H  H136  1  0.74700000  0.30010000  0.03520000  1.0 0.2500840613
H  H137  1  0.36600000  0.73870000  0.73610000  1.0 0.1298151055
H  H138  1  0.37700000  0.69590000  0.68530000  1.0 0.1298151055
H  H139  1  0.40430000  0.82430000  0.71050000  1.0 0.1298151055
H  H140  1  0.53400000  0.67270000  0.80580000  1.0 0.1298151055
H  H141  1  0.47540000  0.67170000  0.82430000  1.0 0.1298151055
H  H142  1  0.49530000  0.79640000  0.80310000  1.0 0.1298151055
H  H143  1  0.44330000  0.58960000  0.74880000  1.0 0.2500840613
H  H144  1  0.47890000  0.67300000  0.72760000  1.0 0.2500840613
H  H145  1  0.63400000  0.23870000  0.76390000  1.0 0.1298151055
H  H146  1  0.62300000  0.19590000  0.81470000  1.0 0.1298151055
H  H147  1  0.59570000  0.32430000  0.78950000  1.0 0.1298151055
H  H148  1  0.46600000  0.17270000  0.69420000  1.0 0.1298151055
H  H149  1  0.52460000  0.17170000  0.67570000  1.0 0.1298151055
H  H150  1  0.50470000  0.29640000  0.69690000  1.0 0.1298151055
H  H151  1  0.55670000  0.08960000  0.75120000  1.0 0.2500840613
H  H152  1  0.52110000  0.17300000  0.77240000  1.0 0.2500840613
H  H153  1  0.63400000  0.26130000  0.26390000  1.0 0.1298151055
H  H154  1  0.62300000  0.30410000  0.31470000  1.0 0.1298151055
H  H155  1  0.59570000  0.17570000  0.28950000  1.0 0.1298151055
H  H156  1  0.46600000  0.32730000  0.19420000  1.0 0.1298151055
H  H157  1  0.52460000  0.32830000  0.17570000  1.0 0.1298151055
H  H158  1  0.50470000  0.20360000  0.19690000  1.0 0.1298151055
H  H159  1  0.55670000  0.41040000  0.25120000  1.0 0.2500840613
H  H160  1  0.52110000  0.32700000  0.27240000  1.0 0.2500840613
H  H161  1  0.36600000  0.76130000  0.23610000  1.0 0.1298151055
H  H162  1  0.37700000  0.80410000  0.18530000  1.0 0.1298151055
H  H163  1  0.40430000  0.67570000  0.21050000  1.0 0.1298151055
H  H164  1  0.53400000  0.82730000  0.30580000  1.0 0.1298151055
H  H165  1  0.47540000  0.82830000  0.32430000  1.0 0.1298151055
H  H166  1  0.49530000  0.70360000  0.30310000  1.0 0.1298151055
H  H167  1  0.44330000  0.91040000  0.24880000  1.0 0.2500840613
H  H168  1  0.47890000  0.82700000  0.22760000  1.0 0.2500840613
C  C1  1  0.45900000  0.61100000  0.03820000  1.0 -0.1096949686
C  C2  1  0.54100000  0.11100000  0.46180000  1.0 -0.1096949686
C  C3  1  0.54100000  0.38900000  0.96180000  1.0 -0.1096949686
C  C4  1  0.45900000  0.88900000  0.53820000  1.0 -0.1096949686
C  C5  1  0.85690000  0.84330000  0.05320000  1.0 0.5615476464
C  C6  1  0.14310000  0.34330000  0.44680000  1.0 0.5615476464
C  C7  1  0.14310000  0.15670000  0.94680000  1.0 0.5615476464
C  C8  1  0.85690000  0.65670000  0.55320000  1.0 0.5615476464
C  C9  1  0.64210000  0.82190000  0.94220000  1.0 -0.1290559624
C  C10  1  0.35790000  0.32190000  0.55780000  1.0 -0.1290559624
C  C11  1  0.35790000  0.17810000  0.05780000  1.0 -0.1290559624
C  C12  1  0.64210000  0.67810000  0.44220000  1.0 -0.1290559624
C  C13  1  0.78230000  0.40600000  0.24830000  1.0 -0.0463872383
C  C14  1  0.21770000  0.90600000  0.25170000  1.0 -0.0463872383
C  C15  1  0.21770000  0.59400000  0.75170000  1.0 -0.0463872383
C  C16  1  0.78230000  0.09400000  0.74830000  1.0 -0.0463872383
C  C17  1  0.63130000  0.83420000  0.98860000  1.0 -0.0032094038
C  C18  1  0.36870000  0.33420000  0.51140000  1.0 -0.0032094038
C  C19  1  0.36870000  0.16580000  0.01140000  1.0 -0.0032094038
C  C20  1  0.63130000  0.66580000  0.48860000  1.0 -0.0032094038
C  C21  1  0.71980000  0.18420000  0.13080000  1.0 -0.1096949686
C  C22  1  0.28020000  0.68420000  0.36920000  1.0 -0.1096949686
C  C23  1  0.28020000  0.81580000  0.86920000  1.0 -0.1096949686
C  C24  1  0.71980000  0.31580000  0.63080000  1.0 -0.1096949686
C  C25  1  0.09150000  0.33690000  0.25410000  1.0 0.5809610183
C  C26  1  0.90850000  0.83690000  0.24590000  1.0 0.5809610183
C  C27  1  0.90850000  0.66310000  0.74590000  1.0 0.5809610183
C  C28  1  0.09150000  0.16310000  0.75410000  1.0 0.5809610183
C  C29  1  0.80260000  0.19040000  0.26910000  1.0 -0.0209398231
C  C30  1  0.19740000  0.69040000  0.23090000  1.0 -0.0209398231
C  C31  1  0.19740000  0.80960000  0.73090000  1.0 -0.0209398231
C  C32  1  0.80260000  0.30960000  0.76910000  1.0 -0.0209398231
C  C33  1  0.66560000  0.75300000  0.03350000  1.0 0.5809610183
C  C34  1  0.33440000  0.25300000  0.46650000  1.0 0.5809610183
C  C35  1  0.33440000  0.24700000  0.96650000  1.0 0.5809610183
C  C36  1  0.66560000  0.74700000  0.53350000  1.0 0.5809610183
C  C37  1  0.70070000  0.06660000  0.14210000  1.0 -0.0277237174
C  C38  1  0.29930000  0.56660000  0.35790000  1.0 -0.0277237174
C  C39  1  0.29930000  0.93340000  0.85790000  1.0 -0.0277237174
C  C40  1  0.70070000  0.43340000  0.64210000  1.0 -0.0277237174
C  C41  1  0.76740000  0.29460000  0.26690000  1.0 -0.1096949686
C  C42  1  0.23260000  0.79460000  0.23310000  1.0 -0.1096949686
C  C43  1  0.23260000  0.70540000  0.73310000  1.0 -0.1096949686
C  C44  1  0.76740000  0.20540000  0.76690000  1.0 -0.1096949686
C  C45  1  0.84150000  0.84680000  0.91430000  1.0 -0.0209398231
C  C46  1  0.15850000  0.34680000  0.58570000  1.0 -0.0209398231
C  C47  1  0.15850000  0.15320000  0.08570000  1.0 -0.0209398231
C  C48  1  0.84150000  0.65320000  0.41430000  1.0 -0.0209398231
C  C49  1  0.70030000  0.41450000  0.10850000  1.0 0.5809610183
C  C50  1  0.29970000  0.91450000  0.39150000  1.0 0.5809610183
C  C51  1  0.29970000  0.58550000  0.89150000  1.0 0.5809610183
C  C52  1  0.70030000  0.08550000  0.60850000  1.0 0.5809610183
C  C53  1  0.74310000  0.51670000  0.24520000  1.0 0.6091785823
C  C54  1  0.25690000  0.01670000  0.25480000  1.0 0.6091785823
C  C55  1  0.25690000  0.48330000  0.75480000  1.0 0.6091785823
C  C56  1  0.74310000  0.98330000  0.74520000  1.0 0.6091785823
C  C57  1  0.74390000  0.95850000  0.15690000  1.0 0.6048012768
C  C58  1  0.25610000  0.45850000  0.34310000  1.0 0.6048012768
C  C59  1  0.25610000  0.04150000  0.84310000  1.0 0.6048012768
C  C60  1  0.74390000  0.54150000  0.65690000  1.0 0.6048012768
C  C61  1  0.67860000  0.28460000  0.11790000  1.0 -0.0209398231
C  C62  1  0.32140000  0.78460000  0.38210000  1.0 -0.0209398231
C  C63  1  0.32140000  0.71540000  0.88210000  1.0 -0.0209398231
C  C64  1  0.67860000  0.21540000  0.61790000  1.0 -0.0209398231
C  C65  1  0.86620000  0.87570000  0.00380000  1.0 -0.0209398231
C  C66  1  0.13380000  0.37570000  0.49620000  1.0 -0.0209398231
C  C67  1  0.13380000  0.12430000  0.99620000  1.0 -0.0209398231
C  C68  1  0.86620000  0.62430000  0.50380000  1.0 -0.0209398231
C  C69  1  0.90860000  0.55230000  0.13000000  1.0 0.5615476464
C  C70  1  0.09140000  0.05230000  0.37000000  1.0 0.5615476464
C  C71  1  0.09140000  0.44770000  0.87000000  1.0 0.5615476464
C  C72  1  0.90860000  0.94770000  0.63000000  1.0 0.5615476464
C  C73  1  0.83320000  0.81840000  0.95990000  1.0 -0.1000137655
C  C74  1  0.16680000  0.31840000  0.54010000  1.0 -0.1000137655
C  C75  1  0.16680000  0.18160000  0.04010000  1.0 -0.1000137655
C  C76  1  0.83320000  0.68160000  0.45990000  1.0 -0.1000137655
C  C77  1  0.00310000  0.44790000  0.19150000  1.0 -0.1199494897
C  C78  1  0.99690000  0.94790000  0.30850000  1.0 -0.1199494897
C  C79  1  0.99690000  0.55210000  0.80850000  1.0 -0.1199494897
C  C80  1  0.00310000  0.05210000  0.69150000  1.0 -0.1199494897
C  C81  1  0.80780000  0.77060000  0.86760000  1.0 0.5884204403
C  C82  1  0.19220000  0.27060000  0.63240000  1.0 0.5884204403
C  C83  1  0.19220000  0.22940000  0.13240000  1.0 0.5884204403
C  C84  1  0.80780000  0.72940000  0.36760000  1.0 0.5884204403
C  C85  1  0.57410000  0.65950000  0.16660000  1.0 0.5884204403
C  C86  1  0.42590000  0.15950000  0.33340000  1.0 0.5884204403
C  C87  1  0.42590000  0.34050000  0.83340000  1.0 0.5884204403
C  C88  1  0.57410000  0.84050000  0.66666667  1.0 0.5884204403
C  C89  1  0.04940000  0.35670000  0.20200000  1.0 -0.0277237174
C  C90  1  0.95060000  0.85670000  0.29800000  1.0 -0.0277237174
C  C91  1  0.95060000  0.64330000  0.79800000  1.0 -0.0277237174
C  C92  1  0.04940000  0.14330000  0.70200000  1.0 -0.0277237174
C  C93  1  0.96260000  0.45620000  0.14200000  1.0 -0.0066831221
C  C94  1  0.03740000  0.95620000  0.35800000  1.0 -0.0066831221
C  C95  1  0.03740000  0.54380000  0.85800000  1.0 -0.0066831221
C  C96  1  0.96260000  0.04380000  0.64200000  1.0 -0.0066831221
C  C97  1  0.59130000  0.92770000  0.99540000  1.0 -0.1199494897
C  C98  1  0.40870000  0.42770000  0.50460000  1.0 -0.1199494897
C  C99  1  0.40870000  0.07230000  0.00460000  1.0 -0.1199494897
C  C100  1  0.59130000  0.57230000  0.49540000  1.0 -0.1199494897
C  C101  1  0.61050000  0.89810000  0.90200000  1.0 0.0079402115
C  C102  1  0.38950000  0.39810000  0.59800000  1.0 0.0079402115
C  C103  1  0.38950000  0.10190000  0.09800000  1.0 0.0079402115
C  C104  1  0.61050000  0.60190000  0.40200000  1.0 0.0079402115
C  C105  1  0.83430000  0.41110000  0.23150000  1.0 -0.0903222113
C  C106  1  0.16570000  0.91110000  0.26850000  1.0 -0.0903222113
C  C107  1  0.16570000  0.58890000  0.76850000  1.0 -0.0903222113
C  C108  1  0.83430000  0.08890000  0.73150000  1.0 -0.0903222113
C  C109  1  0.78430000  0.06640000  0.28770000  1.0 0.5884204403
C  C110  1  0.21570000  0.56640000  0.21230000  1.0 0.5884204403
C  C111  1  0.21570000  0.93360000  0.71230000  1.0 0.5884204403
C  C112  1  0.78430000  0.43360000  0.78770000  1.0 0.5884204403
C  C113  1  0.51640000  0.62680000  0.12580000  1.0 -0.039524136
C  C114  1  0.48360000  0.12680000  0.37420000  1.0 -0.039524136
C  C115  1  0.48360000  0.37320000  0.87420000  1.0 -0.039524136
C  C116  1  0.51640000  0.87320000  0.62580000  1.0 -0.039524136
C  C117  1  0.88230000  0.94180000  0.91180000  1.0 -0.1096949686
C  C118  1  0.11770000  0.44180000  0.58820000  1.0 -0.1096949686
C  C119  1  0.11770000  0.05820000  0.08820000  1.0 -0.1096949686
C  C120  1  0.88230000  0.55820000  0.41180000  1.0 -0.1096949686
C  C121  1  0.46660000  0.58810000  0.13850000  1.0 -0.1290559624
C  C122  1  0.53340000  0.08810000  0.36150000  1.0 -0.1290559624
C  C123  1  0.53340000  0.41190000  0.86150000  1.0 -0.1290559624
C  C124  1  0.46660000  0.91190000  0.63850000  1.0 -0.1290559624
C  C125  1  0.61800000  0.26290000  0.11490000  1.0 -0.1096949686
C  C126  1  0.38200000  0.76290000  0.38510000  1.0 -0.1096949686
C  C127  1  0.38200000  0.73710000  0.88510000  1.0 -0.1096949686
C  C128  1  0.61800000  0.23710000  0.61490000  1.0 -0.1096949686
C  C129  1  0.63940000  0.04790000  0.13750000  1.0 -0.1000137655
C  C130  1  0.36060000  0.54790000  0.36250000  1.0 -0.1000137655
C  C131  1  0.36060000  0.95210000  0.86250000  1.0 -0.1000137655
C  C132  1  0.63940000  0.45210000  0.63750000  1.0 -0.1000137655
C  C133  1  0.90740000  0.96980000  0.00230000  1.0 -0.1096949686
C  C134  1  0.09260000  0.46980000  0.49770000  1.0 -0.1096949686
C  C135  1  0.09260000  0.03020000  0.99770000  1.0 -0.1096949686
C  C136  1  0.90740000  0.53020000  0.50230000  1.0 -0.1096949686
C  C137  1  0.91510000  0.00550000  0.95590000  1.0 -0.1096949686
C  C138  1  0.08490000  0.50550000  0.54410000  1.0 -0.1096949686
C  C139  1  0.08490000  0.99450000  0.04410000  1.0 -0.1096949686
C  C140  1  0.91510000  0.49450000  0.45590000  1.0 -0.1096949686
C  C141  1  0.59770000  0.14560000  0.12380000  1.0 -0.1096949686
C  C142  1  0.40230000  0.64560000  0.37620000  1.0 -0.1096949686
C  C143  1  0.40230000  0.85440000  0.87620000  1.0 -0.1096949686
C  C144  1  0.59770000  0.35440000  0.62380000  1.0 -0.1096949686
C  C145  1  0.41100000  0.55490000  0.10260000  1.0 -0.0209398231
C  C146  1  0.58900000  0.05490000  0.39740000  1.0 -0.0209398231
C  C147  1  0.58900000  0.44510000  0.89740000  1.0 -0.0209398231
C  C148  1  0.41100000  0.94510000  0.60260000  1.0 -0.0209398231
C  C149  1  0.56950000  0.99210000  0.90860000  1.0 -0.1290559624
C  C150  1  0.43050000  0.49210000  0.59140000  1.0 -0.1290559624
C  C151  1  0.43050000  0.00790000  0.09140000  1.0 -0.1290559624
C  C152  1  0.56950000  0.50790000  0.40860000  1.0 -0.1290559624
C  C153  1  0.96810000  0.37300000  0.10490000  1.0 -0.1000137655
C  C154  1  0.03190000  0.87300000  0.39510000  1.0 -0.1000137655
C  C155  1  0.03190000  0.62700000  0.89510000  1.0 -0.1000137655
C  C156  1  0.96810000  0.12700000  0.60490000  1.0 -0.1000137655
C  C157  1  0.35970000  0.50680000  0.12000000  1.0 0.5169982707
C  C158  1  0.64030000  0.00680000  0.38000000  1.0 0.5169982707
C  C159  1  0.64030000  0.49320000  0.88000000  1.0 0.5169982707
C  C160  1  0.35970000  0.99320000  0.62000000  1.0 0.5169982707
C  C161  1  0.56040000  0.00600000  0.95650000  1.0 -0.1096949686
C  C162  1  0.43960000  0.50600000  0.54350000  1.0 -0.1096949686
C  C163  1  0.43960000  0.99400000  0.04350000  1.0 -0.1096949686
C  C164  1  0.56040000  0.49400000  0.45650000  1.0 -0.1096949686
C  C165  1  0.51290000  0.64420000  0.07480000  1.0 -0.1000137655
C  C166  1  0.48710000  0.14420000  0.42520000  1.0 -0.1000137655
C  C167  1  0.48710000  0.35580000  0.92520000  1.0 -0.1000137655
C  C168  1  0.51290000  0.85580000  0.57480000  1.0 -0.1000137655
C  C169  1  0.62860000  0.87000000  0.85230000  1.0 0.5115690624
C  C170  1  0.37140000  0.37000000  0.64770000  1.0 0.5115690624
C  C171  1  0.37140000  0.13000000  0.14770000  1.0 0.5115690624
C  C172  1  0.62860000  0.63000000  0.35230000  1.0 0.5115690624
C  C173  1  0.40890000  0.56570000  0.05280000  1.0 -0.0903222113
C  C174  1  0.59110000  0.06570000  0.44720000  1.0 -0.0903222113
C  C175  1  0.59110000  0.43430000  0.94720000  1.0 -0.0903222113
C  C176  1  0.40890000  0.93430000  0.55280000  1.0 -0.1000137655
C  C177  1  0.01330000  0.28650000  0.11480000  1.0 -0.1000137655
C  C178  1  0.98670000  0.78650000  0.38520000  1.0 -0.1000137655
C  C179  1  0.98670000  0.71350000  0.88520000  1.0 -0.1000137655
C  C180  1  0.01330000  0.21350000  0.61480000  1.0 -0.1000137655
C  C181  1  0.85330000  0.19910000  0.25120000  1.0 -0.0903222113
C  C182  1  0.14670000  0.69910000  0.24880000  1.0 -0.0903222113
C  C183  1  0.14670000  0.80090000  0.74880000  1.0 -0.0903222113
C  C184  1  0.85330000  0.30090000  0.75120000  1.0 -0.0903222113
C  C185  1  0.86930000  0.31020000  0.23290000  1.0 -0.0903222113
C  C186  1  0.13070000  0.81020000  0.26710000  1.0 -0.0903222113
C  C187  1  0.13070000  0.68980000  0.76710000  1.0 -0.0903222113
C  C188  1  0.86930000  0.18980000  0.73290000  1.0 -0.0903222113
C  C189  1  0.05270000  0.27650000  0.16410000  1.0 -0.1000137655
C  C190  1  0.94730000  0.77650000  0.33590000  1.0 -0.1000137655
C  C191  1  0.94730000  0.72350000  0.83590000  1.0 -0.1000137655
C  C192  1  0.05270000  0.22350000  0.66410000  1.0 -0.1000137655
C  C193  1  0.83380000  0.30200000  0.56460000  1.0 -0.3841861094
C  C194  1  0.72240000  0.36400000  0.50370000  1.0 -0.2987925465
C  C195  1  0.16620000  0.80200000  0.93540000  1.0 -0.3841861094
C  C196  1  0.27760000  0.86400000  0.99630000  1.0 -0.2987925465
C  C197  1  0.16620000  0.69800000  0.43540000  1.0 -0.3841861094
C  C198  1  0.27760000  0.63600000  0.49630000  1.0 -0.2987925465
C  C199  1  0.83380000  0.19800000  0.06460000  1.0 -0.3841861094
C  C200  1  0.72240000  0.13600000  0.00370000  1.0 -0.2987925465
C  C201  1  0.39480000  0.73900000  0.71700000  1.0 -0.2913249934
C  C202  1  0.49320000  0.70600000  0.79990000  1.0 -0.3106467108
C  C203  1  0.60520000  0.23900000  0.78300000  1.0 -0.2913249934
C  C204  1  0.50680000  0.20600000  0.70010000  1.0 -0.3106467108
C  C205  1  0.60520000  0.26100000  0.28300000  1.0 -0.2913249934
C  C206  1  0.50680000  0.29400000  0.20010000  1.0 -0.3106467108
C  C207  1  0.39480000  0.76100000  0.21700000  1.0 -0.2913249934
C  C208  1  0.49320000  0.79400000  0.29990000  1.0 -0.3106467108
N  N1  1  0.76520000  0.25880000  0.52120000  1.0 -0.1096949686
N  N2  1  0.23480000  0.75880000  0.97880000  1.0 -0.1096949686
N  N3  1  0.23480000  0.74120000  0.47880000  1.0 -0.1096949686
N  N4  1  0.76520000  0.24120000  0.02120000  1.0 -0.1096949686
N  N5  1  0.45380000  0.67100000  0.74720000  1.0 -0.0903222113
N  N6  1  0.54620000  0.17100000  0.75280000  1.0 -0.0903222113
N  N7  1  0.54620000  0.32900000  0.25280000  1.0 -0.0903222113
N  N8  1  0.45380000  0.82900000  0.24720000  1.0 -0.0903222113
O  O1  1  0.78070000  0.50400000  0.99770000  1.0 -0.2498690019
O  O2  1  0.21930000  0.00400000  0.50230000  1.0 -0.2498690019
O  O3  1  0.21930000  0.49600000  0.00230000  1.0 -0.2498690019
O  O4  1  0.78070000  0.99600000  0.49770000  1.0 -0.2498690019
O  O5  1  0.78360000  0.67110000  0.13430000  1.0 -0.900272509
O  O6  1  0.21640000  0.17110000  0.36570000  1.0 -0.900272509
O  O7  1  0.21640000  0.32890000  0.86570000  1.0 -0.900272509
O  O8  1  0.78360000  0.82890000  0.63430000  1.0 -0.900272509
O  O9  1  0.07870000  0.38820000  0.29110000  1.0 -0.5049186851
O  O10  1  0.92130000  0.88820000  0.20890000  1.0 -0.5049186851
O  O11  1  0.92130000  0.61180000  0.70890000  1.0 -0.5049186851
O  O12  1  0.07870000  0.11180000  0.79110000  1.0 -0.5049186851
O  O13  1  0.13920000  0.26860000  0.26270000  1.0 -0.5819592083
O  O14  1  0.86080000  0.76860000  0.23730000  1.0 -0.5819592083
O  O15  1  0.86080000  0.73140000  0.73730000  1.0 -0.5819592083
O  O16  1  0.13920000  0.23140000  0.76270000  1.0 -0.5819592083
O  O17  1  0.91530000  0.64480000  0.15890000  1.0 -0.5391671414
O  O18  1  0.08470000  0.14480000  0.34110000  1.0 -0.5391671414
O  O19  1  0.08470000  0.35520000  0.84110000  1.0 -0.5391671414
O  O20  1  0.91530000  0.85520000  0.65890000  1.0 -0.5391671414
O  O21  1  0.86390000  0.52060000  0.09230000  1.0 -0.5489181186
O  O22  1  0.13610000  0.02060000  0.40770000  1.0 -0.5489181186
O  O23  1  0.13610000  0.47940000  0.90770000  1.0 -0.5489181186
O  O24  1  0.86390000  0.97940000  0.59230000  1.0 -0.5489181186
O  O25  1  0.80910000  0.80500000  0.82510000  1.0 -0.5489181186
O  O26  1  0.19090000  0.30500000  0.67490000  1.0 -0.5489181186
O  O27  1  0.19090000  0.19500000  0.17490000  1.0 -0.5489181186
O  O28  1  0.80910000  0.69500000  0.32510000  1.0 -0.5489181186
O  O29  1  0.78180000  0.67080000  0.87690000  1.0 -0.5391671414
O  O30  1  0.21820000  0.17080000  0.62310000  1.0 -0.5391671414
O  O31  1  0.21820000  0.32920000  0.12310000  1.0 -0.5391671414
O  O32  1  0.78180000  0.82920000  0.37690000  1.0 -0.5391671414
O  O33  1  0.88780000  0.88400000  0.09370000  1.0 -0.4532383288
O  O34  1  0.11220000  0.38400000  0.40630000  1.0 -0.4532383288
O  O35  1  0.11220000  0.11600000  0.90630000  1.0 -0.4532383288
O  O36  1  0.88780000  0.61600000  0.59370000  1.0 -0.4532383288
O  O37  1  0.81110000  0.77260000  0.05110000  1.0 -0.5689486469
O  O38  1  0.18890000  0.27260000  0.44890000  1.0 -0.5689486469
O  O39  1  0.18890000  0.22740000  0.94890000  1.0 -0.5689486469
O  O40  1  0.81110000  0.72740000  0.55110000  1.0 -0.5689486469
O  O41  1  0.61730000  0.71890000  0.15730000  1.0 -0.5689486469
O  O42  1  0.38270000  0.21890000  0.34270000  1.0 -0.5689486469
O  O43  1  0.38270000  0.28110000  0.84270000  1.0 -0.5689486469
O  O44  1  0.61730000  0.78110000  0.65730000  1.0 -0.5689486469
O  O45  1  0.57460000  0.63310000  0.21100000  1.0 -0.5391671414
O  O46  1  0.42540000  0.13310000  0.28900000  1.0 -0.5391671414
O  O47  1  0.42540000  0.36690000  0.78900000  1.0 -0.5391671414
O  O48  1  0.57460000  0.86690000  0.71100000  1.0 -0.5391671414
O  O49  1  0.30650000  0.50710000  0.09170000  1.0 -0.4353090728
O  O50  1  0.69350000  0.00710000  0.40830000  1.0 -0.4353090728
O  O51  1  0.69350000  0.49290000  0.90830000  1.0 -0.4353090728
O  O52  1  0.30650000  0.99290000  0.59170000  1.0 -0.4353090728
O  O53  1  0.37180000  0.47360000  0.16500000  1.0 -0.5306537653
O  O54  1  0.62820000  0.97360000  0.33500000  1.0 -0.5306537653
O  O55  1  0.62820000  0.52640000  0.83500000  1.0 -0.5306537653
O  O56  1  0.37180000  0.02640000  0.66500000  1.0 -0.5306537653
O  O57  1  0.66310000  0.78520000  0.07580000  1.0 -0.5391671414
O  O58  1  0.33690000  0.28520000  0.42420000  1.0 -0.5391671414
O  O59  1  0.33690000  0.21480000  0.92420000  1.0 -0.5391671414
O  O60  1  0.66310000  0.71480000  0.57580000  1.0 -0.5391671414
O  O61  1  0.69480000  0.65970000  0.02400000  1.0 -0.5391671414
O  O62  1  0.30520000  0.15970000  0.47600000  1.0 -0.5391671414
O  O63  1  0.30520000  0.34030000  0.97600000  1.0 -0.5391671414
O  O64  1  0.69480000  0.84030000  0.52400000  1.0 -0.5391671414
O  O65  1  0.74060000  0.42200000  0.08630000  1.0 -0.559051688
O  O66  1  0.25940000  0.92200000  0.41370000  1.0 -0.559051688
O  O67  1  0.25940000  0.57800000  0.91370000  1.0 -0.559051688
O  O68  1  0.74060000  0.07800000  0.58630000  1.0 -0.559051688
O  O69  1  0.67490000  0.50520000  0.12260000  1.0 -0.559051688
O  O70  1  0.32510000  0.00520000  0.37740000  1.0 -0.559051688
O  O71  1  0.32510000  0.49480000  0.87740000  1.0 -0.559051688
O  O72  1  0.67490000  0.99480000  0.62260000  1.0 -0.559051688
O  O73  1  0.79210000  0.96000000  0.14320000  1.0 -0.5133037175
O  O74  1  0.20790000  0.46000000  0.35680000  1.0 -0.5133037175
O  O75  1  0.20790000  0.04000000  0.85680000  1.0 -0.5133037175
O  O76  1  0.79210000  0.54000000  0.64320000  1.0 -0.5133037175
O  O77  1  0.72980000  0.86660000  0.18110000  1.0 -0.6390106137
O  O78  1  0.27020000  0.36660000  0.31890000  1.0 -0.6390106137
O  O79  1  0.27020000  0.13340000  0.81890000  1.0 -0.6390106137
O  O80  1  0.72980000  0.63340000  0.68110000  1.0 -0.6390106137
O  O81  1  0.70150000  0.51260000  0.26680000  1.0 -0.5306537653
O  O82  1  0.29850000  0.01260000  0.23320000  1.0 -0.5306537653
O  O83  1  0.29850000  0.48740000  0.73320000  1.0 -0.5306537653
O  O84  1  0.70150000  0.98740000  0.76680000  1.0 -0.5306537653
O  O85  1  0.75120000  0.61740000  0.22180000  1.0 -0.6390106137
O  O86  1  0.24880000  0.11740000  0.27820000  1.0 -0.6390106137
O  O87  1  0.24880000  0.38260000  0.77820000  1.0 -0.6390106137
O  O88  1  0.75120000  0.88260000  0.72180000  1.0 -0.6390106137
O  O89  1  0.74520000  0.07480000  0.31100000  1.0 -0.5306537653
O  O90  1  0.25480000  0.57480000  0.18900000  1.0 -0.5306537653
O  O91  1  0.25480000  0.92520000  0.68900000  1.0 -0.5306537653
O  O92  1  0.74520000  0.42520000  0.81100000  1.0 -0.5306537653
O  O93  1  0.80980000  0.96850000  0.27960000  1.0 -0.559051688
O  O94  1  0.19020000  0.46850000  0.22040000  1.0 -0.559051688
O  O95  1  0.19020000  0.03150000  0.72040000  1.0 -0.559051688
O  O96  1  0.80980000  0.53150000  0.77960000  1.0 -0.559051688
O  O97  1  0.59380000  0.95290000  0.81600000  1.0 -0.5856608952
O  O98  1  0.40620000  0.45290000  0.68400000  1.0 -0.5856608952
O  O99  1  0.40620000  0.04710000  0.18400000  1.0 -0.5856608952
O  O100  1  0.59380000  0.54710000  0.31600000  1.0 -0.5856608952
O  O101  1  0.66120000  0.80990000  0.84540000  1.0 -0.3684087003
O  O102  1  0.33880000  0.30990000  0.65460000  1.0 -0.3684087003
O  O103  1  0.33880000  0.19010000  0.15460000  1.0 -0.3684087003
O  O104  1  0.66120000  0.69010000  0.34540000  1.0 -0.3684087003
O  O105  1  0.30620000  0.32020000  0.23250000  1.0 -0.8918278421
O  O106  1  0.69380000  0.82020000  0.26750000  1.0 -0.8918278421
O  O107  1  0.69380000  0.67980000  0.76750000  1.0 -0.8918278421
O  O108  1  0.30620000  0.17980000  0.73250000  1.0 -0.8918278421
