# DDEC6 charges by PACMAN v1.1 (https://github.com/mtap-research/PACMAN-charge/)
data_CUCSAU_ion_pacman
_symmetry_space_group_name_H-M   'P 1'
_cell_length_a   11.20490000
_cell_length_b   16.72600000
_cell_length_c   17.15200000
_cell_angle_alpha   64.59200000
_cell_angle_beta   80.09500000
_cell_angle_gamma   85.22500000
_symmetry_Int_Tables_number   1
_chemical_formula_structural   LiH13C9N2
_chemical_formula_sum   'Li10 H130 C90 N20'
_cell_volume   2860.14735201
_cell_formula_units_Z   10
loop_
 _symmetry_equiv_pos_site_id
 _symmetry_equiv_pos_as_xyz
  1  'x, y, z'
loop_
 _atom_site_type_symbol
 _atom_site_label
 _atom_site_symmetry_multiplicity
 _atom_site_fract_x
 _atom_site_fract_y
 _atom_site_fract_z
 _atom_site_occupancy
 _atom_site_charge
Li  Li1  1  0.32420000  0.37730000  0.11530000  1.0 0.6925067402
Li  Li2  1  0.67580000  0.62270000  0.88470000  1.0 0.6925067402
Li  Li3  1  0.10550000  0.33840000  0.14280000  1.0 0.7003847231
Li  Li4  1  0.89450000  0.66160000  0.85720000  1.0 0.7003847231
Li  Li5  1  0.03350000  0.35460000  0.28580000  1.0 0.7003847231
Li  Li6  1  0.96650000  0.64540000  0.71420000  1.0 0.7003847231
Li  Li7  1  0.03940000  0.19250000  0.39770000  1.0 0.7003847231
Li  Li8  1  0.96060000  0.80750000  0.60230000  1.0 0.7003847231
Li  Li9  1  0.95140000  0.40010000  0.40730000  1.0 0.6925067402
Li  Li10  1  0.04860000  0.59990000  0.59270000  1.0 0.7003847231
H  H1  1  0.55110000  0.28510000  0.12570000  1.0 0.1299955498
H  H2  1  0.44890000  0.71490000  0.87430000  1.0 0.1299955498
H  H3  1  0.55090000  0.33210000  0.18980000  1.0 0.1299955498
H  H4  1  0.44910000  0.66790000  0.81020000  1.0 0.1299955498
H  H5  1  0.65870000  0.35010000  0.11000000  1.0 0.1299955498
H  H6  1  0.34130000  0.64990000  0.89000000  1.0 0.1299955498
H  H7  1  0.51310000  0.37160000  0.97760000  1.0 0.1090066637
H  H8  1  0.48690000  0.62840000  0.02240000  1.0 0.1090066637
H  H9  1  0.62250000  0.43500000  0.96270000  1.0 0.1023080016
H  H10  1  0.37750000  0.56500000  0.03730000  1.0 0.1023080016
H  H11  1  0.62180000  0.50590000  0.05990000  1.0 0.1023080016
H  H12  1  0.37820000  0.49410000  0.94010000  1.0 0.1023080016
H  H13  1  0.51200000  0.48920000  0.13840000  1.0 0.1090066637
H  H14  1  0.48800000  0.51080000  0.86160000  1.0 0.1090066637
H  H15  1  0.89810000  0.29000000  0.09620000  1.0 0.1299955498
H  H16  1  0.10190000  0.71000000  0.90380000  1.0 0.1299955498
H  H17  1  0.01000000  0.28900000  0.02470000  1.0 0.1208527815
H  H18  1  0.99000000  0.71100000  0.97530000  1.0 0.1208527815
H  H19  1  0.88990000  0.34450000  0.99450000  1.0 0.1208527815
H  H20  1  0.11010000  0.65550000  0.00550000  1.0 0.1208527815
H  H21  1  0.84770000  0.42740000  0.11470000  1.0 0.1208527815
H  H22  1  0.15230000  0.57260000  0.88530000  1.0 0.1208527815
H  H23  1  0.83690000  0.47150000  0.01280000  1.0 0.1023080016
H  H24  1  0.16310000  0.52850000  0.98720000  1.0 0.1023080016
H  H25  1  0.01140000  0.46690000  0.90800000  1.0 0.1023080016
H  H26  1  0.98860000  0.53310000  0.09200000  1.0 0.1023080016
H  H27  1  0.13400000  0.41920000  0.94220000  1.0 0.1090066637
H  H28  1  0.86600000  0.58080000  0.05780000  1.0 0.1023080016
H  H29  1  0.26110000  0.11300000  0.40510000  1.0 0.1208527815
H  H30  1  0.73890000  0.88700000  0.59490000  1.0 0.1208527815
H  H31  1  0.26660000  0.02610000  0.49420000  1.0 0.1299955498
H  H32  1  0.73340000  0.97390000  0.50580000  1.0 0.1299955498
H  H33  1  0.22920000  0.11950000  0.49680000  1.0 0.1208527815
H  H34  1  0.77080000  0.88050000  0.50320000  1.0 0.1208527815
H  H35  1  0.13630000  0.95070000  0.45610000  1.0 0.1090066637
H  H36  1  0.86370000  0.04930000  0.54390000  1.0 0.1090066637
H  H37  1  0.12240000  0.03430000  0.36590000  1.0 0.1090066637
H  H38  1  0.87760000  0.96570000  0.63410000  1.0 0.1090066637
H  H39  1  0.04430000  0.05880000  0.59220000  1.0 0.1090066637
H  H40  1  0.95570000  0.94120000  0.40780000  1.0 0.1090066637
H  H41  1  0.08900000  0.96540000  0.59210000  1.0 0.1023080016
H  H42  1  0.91100000  0.03460000  0.40790000  1.0 0.1023080016
H  H43  1  0.73060000  0.47410000  0.45280000  1.0 0.1299955498
H  H44  1  0.26940000  0.52590000  0.54720000  1.0 0.1299955498
H  H45  1  0.72540000  0.47750000  0.54520000  1.0 0.1299955498
H  H46  1  0.27460000  0.52250000  0.45480000  1.0 0.1299955498
H  H47  1  0.74710000  0.38510000  0.53780000  1.0 0.1208527815
H  H48  1  0.25290000  0.61490000  0.46220000  1.0 0.1208527815
H  H49  1  0.93210000  0.36040000  0.60130000  1.0 0.1090066637
H  H50  1  0.06790000  0.63960000  0.39870000  1.0 0.1090066637
H  H51  1  0.90650000  0.45180000  0.61050000  1.0 0.1090066637
H  H52  1  0.09350000  0.54820000  0.38950000  1.0 0.1090066637
H  H53  1  0.87810000  0.58690000  0.48450000  1.0 0.1090066637
H  H54  1  0.12190000  0.41310000  0.51550000  1.0 0.1090066637
H  H55  1  0.88530000  0.58530000  0.39100000  1.0 0.1090066637
H  H56  1  0.11470000  0.41470000  0.60900000  1.0 0.1090066637
H  H57  1  0.24000000  0.30500000  0.04000000  1.0 0.2613743094
H  H58  1  0.76000000  0.69500000  0.96000000  1.0 0.2613743094
H  H59  1  0.23770000  0.15810000  0.04330000  1.0 0.1090066637
H  H60  1  0.76230000  0.84190000  0.95670000  1.0 0.1090066637
H  H61  1  0.29430000  0.01070000  0.11180000  1.0 0.091536775
H  H62  1  0.70570000  0.98930000  0.88820000  1.0 0.091536775
H  H63  1  0.38280000  0.95810000  0.23890000  1.0 0.1023080016
H  H64  1  0.61720000  0.04190000  0.76110000  1.0 0.1023080016
H  H65  1  0.41030000  0.05550000  0.29740000  1.0 0.1090066637
H  H66  1  0.58970000  0.94450000  0.70260000  1.0 0.1090066637
H  H67  1  0.35320000  0.20200000  0.23230000  1.0 0.1023080016
H  H68  1  0.64680000  0.79800000  0.76770000  1.0 0.1023080016
H  H69  1  0.15200000  0.47600000  0.15200000  1.0 0.2694644329
H  H70  1  0.84800000  0.52400000  0.84800000  1.0 0.2694644329
H  H71  1  0.30180000  0.29920000  0.29010000  1.0 0.1023080016
H  H72  1  0.69820000  0.70080000  0.70990000  1.0 0.1023080016
H  H73  1  0.43440000  0.30850000  0.37590000  1.0 0.1023080016
H  H74  1  0.56560000  0.69150000  0.62410000  1.0 0.1090066637
H  H75  1  0.47570000  0.44380000  0.37230000  1.0 0.1090066637
H  H76  1  0.52430000  0.55620000  0.62770000  1.0 0.1090066637
H  H77  1  0.38090000  0.57100000  0.28240000  1.0 0.1090066637
H  H78  1  0.61910000  0.42900000  0.71760000  1.0 0.1090066637
H  H79  1  0.24540000  0.56460000  0.19730000  1.0 0.1090066637
H  H80  1  0.75460000  0.43540000  0.80270000  1.0 0.1090066637
H  H81  1  0.09700000  0.21500000  0.25400000  1.0 0.2613743094
H  H82  1  0.90300000  0.78500000  0.74600000  1.0 0.2613743094
H  H83  1  0.03430000  0.11730000  0.20710000  1.0 0.1090066637
H  H84  1  0.96570000  0.88270000  0.79290000  1.0 0.1090066637
H  H85  1  0.87070000  0.04780000  0.19720000  1.0 0.091536775
H  H86  1  0.12930000  0.95220000  0.80280000  1.0 0.091536775
H  H87  1  0.67520000  0.07990000  0.24350000  1.0 0.1023080016
H  H88  1  0.32480000  0.92010000  0.75650000  1.0 0.1023080016
H  H89  1  0.64000000  0.18190000  0.30500000  1.0 0.1090066637
H  H90  1  0.36000000  0.81810000  0.69500000  1.0 0.1090066637
H  H91  1  0.80260000  0.25350000  0.31530000  1.0 0.1090066637
H  H92  1  0.19740000  0.74650000  0.68470000  1.0 0.1090066637
H  H93  1  0.14600000  0.30600000  0.41800000  1.0 0.2792844919
H  H94  1  0.85400000  0.69400000  0.58200000  1.0 0.2792844919
H  H95  1  0.17410000  0.24050000  0.56590000  1.0 0.1208527815
H  H96  1  0.82590000  0.75950000  0.43410000  1.0 0.1208527815
H  H97  1  0.08690000  0.16320000  0.70970000  1.0 0.091536775
H  H98  1  0.91310000  0.83680000  0.29030000  1.0 0.091536775
H  H99  1  0.88440000  0.12320000  0.74560000  1.0 0.1023080016
H  H100  1  0.11560000  0.87680000  0.25440000  1.0 0.1023080016
H  H101  1  0.76640000  0.16380000  0.63600000  1.0 0.1023080016
H  H102  1  0.23360000  0.83620000  0.36400000  1.0 0.1023080016
H  H103  1  0.84830000  0.24340000  0.49020000  1.0 0.1023080016
H  H104  1  0.15170000  0.75660000  0.50980000  1.0 0.1023080016
H  H105  1  0.81700000  0.38900000  0.31700000  1.0 0.2694644329
H  H106  1  0.18300000  0.61100000  0.68300000  1.0 0.2694644329
H  H107  1  0.67130000  0.48840000  0.24590000  1.0 0.1090066637
H  H108  1  0.32870000  0.51160000  0.75410000  1.0 0.1090066637
H  H109  1  0.61410000  0.63280000  0.16800000  1.0 0.1023080016
H  H110  1  0.38590000  0.36720000  0.83200000  1.0 0.1023080016
H  H111  1  0.74560000  0.74700000  0.13080000  1.0 0.1023080016
H  H112  1  0.25440000  0.25300000  0.86920000  1.0 0.1023080016
H  H113  1  0.93890000  0.71500000  0.17270000  1.0 0.091536775
H  H114  1  0.06110000  0.28500000  0.82730000  1.0 0.091536775
H  H115  1  0.99930000  0.57040000  0.24850000  1.0 0.1090066637
H  H116  1  0.00070000  0.42960000  0.75150000  1.0 0.1090066637
H  H117  1  0.71460000  0.99280000  0.07380000  1.0 0.1386396287
H  H118  1  0.28540000  0.00720000  0.92620000  1.0 0.1386396287
H  H119  1  0.77320000  0.93060000  0.15900000  1.0 0.1386396287
H  H120  1  0.22680000  0.06940000  0.84100000  1.0 0.1386396287
H  H121  1  0.76050000  0.89500000  0.08790000  1.0 0.1299955498
H  H122  1  0.23950000  0.10500000  0.91210000  1.0 0.1299955498
H  H123  1  0.83720000  0.07790000  0.95880000  1.0 0.1090066637
H  H124  1  0.16280000  0.92210000  0.04120000  1.0 0.1090066637
H  H125  1  0.88140000  0.99470000  0.93860000  1.0 0.1090066637
H  H126  1  0.11860000  0.00530000  0.06140000  1.0 0.1090066637
H  H127  1  0.97970000  0.87510000  0.06370000  1.0 0.1090066637
H  H128  1  0.02030000  0.12490000  0.93630000  1.0 0.1090066637
H  H129  1  0.98330000  0.90570000  0.13970000  1.0 0.1090066637
H  H130  1  0.01670000  0.09430000  0.86030000  1.0 0.1090066637
C  C1  1  0.57170000  0.33920000  0.12930000  1.0 -0.3608053826
C  C2  1  0.42830000  0.66080000  0.87070000  1.0 -0.3608053826
C  C3  1  0.53420000  0.42580000  0.98170000  1.0 -0.1304482691
C  C4  1  0.46580000  0.57420000  0.01830000  1.0 -0.1304482691
C  C5  1  0.53350000  0.49570000  0.07750000  1.0 -0.1304482691
C  C6  1  0.46650000  0.50430000  0.92250000  1.0 -0.1304482691
C  C7  1  0.94390000  0.32510000  0.03870000  1.0 -0.3737920227
C  C8  1  0.05610000  0.67490000  0.96130000  1.0 -0.3737920227
C  C9  1  0.89300000  0.45950000  0.05530000  1.0 -0.1391028675
C  C10  1  0.10700000  0.54050000  0.94470000  1.0 -0.1391028675
C  C11  1  0.06350000  0.45480000  0.95310000  1.0 -0.1304482691
C  C12  1  0.93650000  0.54520000  0.04690000  1.0 -0.1304482691
C  C13  1  0.22390000  0.08240000  0.46630000  1.0 -0.3608053826
C  C14  1  0.77610000  0.91760000  0.53370000  1.0 -0.3608053826
C  C15  1  0.08800000  0.00500000  0.42850000  1.0 -0.1304482691
C  C16  1  0.91200000  0.99500000  0.57150000  1.0 -0.1304482691
C  C17  1  0.04140000  0.01960000  0.56270000  1.0 -0.1177159252
C  C18  1  0.95860000  0.98040000  0.43730000  1.0 -0.1177159252
C  C19  1  0.76360000  0.44860000  0.50790000  1.0 -0.3608053826
C  C20  1  0.23640000  0.55140000  0.49210000  1.0 -0.3608053826
C  C21  1  0.94680000  0.42490000  0.57130000  1.0 -0.1304482691
C  C22  1  0.05320000  0.57510000  0.42870000  1.0 -0.1304482691
C  C23  1  0.91880000  0.55860000  0.44660000  1.0 -0.1391028675
C  C24  1  0.08120000  0.44140000  0.55340000  1.0 -0.1304482691
C  C25  1  0.28890000  0.20050000  0.12830000  1.0 0.3336242733
C  C26  1  0.71110000  0.79950000  0.87170000  1.0 0.3336242733
C  C27  1  0.27280000  0.13870000  0.09510000  1.0 -0.2486543359
C  C28  1  0.72720000  0.86130000  0.90490000  1.0 -0.2486543359
C  C29  1  0.30700000  0.05020000  0.13610000  1.0 -0.1141509342
C  C30  1  0.69300000  0.94980000  0.86390000  1.0 -0.1177159252
C  C31  1  0.35900000  0.01850000  0.21160000  1.0 -0.1509201119
C  C32  1  0.64100000  0.98150000  0.78840000  1.0 -0.1509201119
C  C33  1  0.37500000  0.07610000  0.24550000  1.0 -0.0993355211
C  C34  1  0.62500000  0.92390000  0.75450000  1.0 -0.0993355211
C  C35  1  0.34100000  0.16410000  0.20600000  1.0 -0.2277277592
C  C36  1  0.65900000  0.83590000  0.79400000  1.0 -0.2277277592
C  C37  1  0.25710000  0.43110000  0.23320000  1.0 0.2354845104
C  C38  1  0.74290000  0.56890000  0.76680000  1.0 0.2340173868
C  C39  1  0.31660000  0.35530000  0.28810000  1.0 -0.2658771279
C  C40  1  0.68340000  0.64470000  0.71190000  1.0 -0.2658771279
C  C41  1  0.39620000  0.36080000  0.33920000  1.0 -0.0993355211
C  C42  1  0.60380000  0.63920000  0.66080000  1.0 -0.0993355211
C  C43  1  0.42070000  0.44040000  0.33740000  1.0 -0.1304482691
C  C44  1  0.57930000  0.55960000  0.66260000  1.0 -0.1304482691
C  C45  1  0.36420000  0.51540000  0.28420000  1.0 -0.0993355211
C  C46  1  0.63580000  0.48460000  0.71580000  1.0 -0.0993355211
C  C47  1  0.28350000  0.51170000  0.23310000  1.0 -0.2215031941
C  C48  1  0.71650000  0.48830000  0.76690000  1.0 -0.2215031941
C  C49  1  0.93750000  0.19400000  0.26250000  1.0 0.2792844919
C  C50  1  0.06250000  0.80600000  0.73750000  1.0 0.2792844919
C  C51  1  0.95450000  0.13150000  0.22720000  1.0 -0.2277277592
C  C52  1  0.04550000  0.86850000  0.77280000  1.0 -0.2277277592
C  C53  1  0.85670000  0.09000000  0.22120000  1.0 -0.0993355211
C  C54  1  0.14330000  0.91000000  0.77880000  1.0 -0.0993355211
C  C55  1  0.74120000  0.10850000  0.24880000  1.0 -0.1304482691
C  C56  1  0.25880000  0.89150000  0.75120000  1.0 -0.1304482691
C  C57  1  0.72040000  0.16920000  0.28470000  1.0 -0.0888910333
C  C58  1  0.27960000  0.83080000  0.71530000  1.0 -0.0888910333
C  C59  1  0.81790000  0.21150000  0.29100000  1.0 -0.2277277592
C  C60  1  0.18210000  0.78850000  0.70900000  1.0 -0.2215031941
C  C61  1  0.02060000  0.25140000  0.51010000  1.0 0.2156460283
C  C62  1  0.97940000  0.74860000  0.48990000  1.0 0.2156460283
C  C63  1  0.09070000  0.22560000  0.57900000  1.0 -0.2215031941
C  C64  1  0.90930000  0.77440000  0.42100000  1.0 -0.2215031941
C  C65  1  0.03870000  0.17930000  0.66460000  1.0 -0.0993355211
C  C66  1  0.96130000  0.82070000  0.33540000  1.0 -0.0993355211
C  C67  1  0.91860000  0.15570000  0.68630000  1.0 -0.1615252348
C  C68  1  0.08140000  0.84430000  0.31370000  1.0 -0.1615252348
C  C69  1  0.84940000  0.17970000  0.62140000  1.0 -0.0842350873
C  C70  1  0.15060000  0.82030000  0.37860000  1.0 -0.0842350873
C  C71  1  0.89860000  0.22720000  0.53410000  1.0 -0.2894526573
C  C72  1  0.10140000  0.77280000  0.46590000  1.0 -0.2894526573
C  C73  1  0.84310000  0.51130000  0.25630000  1.0 0.3186068234
C  C74  1  0.15690000  0.48870000  0.74370000  1.0 0.3186068234
C  C75  1  0.72730000  0.53420000  0.23070000  1.0 -0.236599453
C  C76  1  0.27270000  0.46580000  0.76930000  1.0 -0.236599453
C  C77  1  0.69260000  0.62020000  0.18460000  1.0 -0.0888910333
C  C78  1  0.30740000  0.37980000  0.81540000  1.0 -0.0888910333
C  C79  1  0.76970000  0.68740000  0.16270000  1.0 -0.1678316596
C  C80  1  0.23030000  0.31260000  0.83730000  1.0 -0.1678316596
C  C81  1  0.88470000  0.66820000  0.18740000  1.0 -0.0993355211
C  C82  1  0.11530000  0.33180000  0.81260000  1.0 -0.0993355211
C  C83  1  0.92030000  0.58210000  0.23270000  1.0 -0.2215031941
C  C84  1  0.07970000  0.41790000  0.76730000  1.0 -0.2215031941
C  C85  1  0.77620000  0.94720000  0.09660000  1.0 -0.3974910678
C  C86  1  0.22380000  0.05280000  0.90340000  1.0 -0.3974910678
C  C87  1  0.90040000  0.03110000  0.96750000  1.0 -0.1509201119
C  C88  1  0.09960000  0.96890000  0.03250000  1.0 -0.1509201119
C  C89  1  0.98610000  0.92720000  0.07590000  1.0 -0.1391028675
C  C90  1  0.01390000  0.07280000  0.92410000  1.0 -0.1391028675
N  N1  1  0.50320000  0.41450000  0.07290000  1.0 -0.1615252348
N  N2  1  0.49680000  0.58550000  0.92710000  1.0 -0.1615252348
N  N3  1  0.99470000  0.40350000  0.03974000  1.0 -0.1509201119
N  N4  1  0.00530000  0.59650000  0.96026000  1.0 -0.1509201119
N  N5  1  0.09670000  0.06519000  0.47022000  1.0 -0.1615252348
N  N6  1  0.90330000  0.93481000  0.52978000  1.0 -0.1615252348
N  N7  1  0.89490000  0.46250000  0.49000000  1.0 -0.1509201119
N  N8  1  0.10510000  0.53750000  0.51000000  1.0 -0.1509201119
N  N9  1  0.25830000  0.28880000  0.09070000  1.0 -0.9876740875
N  N10  1  0.74170000  0.71120000  0.90930000  1.0 -0.9876740875
N  N11  1  0.17990000  0.42320000  0.18170000  1.0 -1.0107177995
N  N12  1  0.82010000  0.57680000  0.81830000  1.0 -1.0107177995
N  N13  1  0.03250000  0.23870000  0.26847000  1.0 -1.0107177995
N  N14  1  0.96750000  0.76130000  0.73153000  1.0 -1.0107177995
N  N15  1  0.06670000  0.29720000  0.42270000  1.0 -1.0107177995
N  N16  1  0.93330000  0.70280000  0.57730000  1.0 -1.0107177995
N  N17  1  0.88050000  0.42560000  0.30260000  1.0 -0.9876740875
N  N18  1  0.11950000  0.57440000  0.69740000  1.0 -0.9876740875
N  N19  1  0.89260000  0.98060000  0.05160000  1.0 0.0271302347
N  N20  1  0.10740000  0.01940000  0.94840000  1.0 0.0271302347
