# DDEC6 charges by PACMAN v1.1 (https://github.com/mtap-research/PACMAN-charge/)
data_CUHLUO_ASR_pacman
_symmetry_space_group_name_H-M   'P 1'
_cell_length_a   11.49930000
_cell_length_b   11.49930000
_cell_length_c   11.49930000
_cell_angle_alpha   69.44890000
_cell_angle_beta   69.44890000
_cell_angle_gamma   69.44890000
_symmetry_Int_Tables_number   1
_chemical_formula_structural   CoH66(C4N)12
_chemical_formula_sum   'Co1 H66 C48 N12'
_cell_volume   1287.42233401
_cell_formula_units_Z   1
loop_
 _symmetry_equiv_pos_site_id
 _symmetry_equiv_pos_as_xyz
  1  'x, y, z'
loop_
 _atom_site_type_symbol
 _atom_site_label
 _atom_site_symmetry_multiplicity
 _atom_site_fract_x
 _atom_site_fract_y
 _atom_site_fract_z
 _atom_site_occupancy
 _atom_site_charge
Co  Co1  1  0.50000000  0.50000000  0.50000000  1.0 0.597159338
H  H1  1  0.31493000  0.30986000  0.55442000  1.0 0.1126132429
H  H2  1  0.30986000  0.55442000  0.31493000  1.0 0.1126132429
H  H3  1  0.55442000  0.31493000  0.30986000  1.0 0.1126132429
H  H4  1  0.68507000  0.69014000  0.44558000  1.0 0.1126132429
H  H5  1  0.69014000  0.44558000  0.68507000  1.0 0.1126132429
H  H6  1  0.44558000  0.68507000  0.69014000  1.0 0.1126132429
H  H7  1  0.66194000  0.19503000  0.60811000  1.0 0.1219898582
H  H8  1  0.19503000  0.60811000  0.66194000  1.0 0.1219898582
H  H9  1  0.60811000  0.66194000  0.19503000  1.0 0.1219898582
H  H10  1  0.33806000  0.80497000  0.39189000  1.0 0.1219898582
H  H11  1  0.80497000  0.39189000  0.33806000  1.0 0.1219898582
H  H12  1  0.39189000  0.33806000  0.80497000  1.0 0.1219898582
H  H13  1  0.58166000  0.00181000  0.67329000  1.0 0.1219898582
H  H14  1  0.00181000  0.67329000  0.58166000  1.0 0.1219898582
H  H15  1  0.67329000  0.58166000  0.00181000  1.0 0.1219898582
H  H16  1  0.41834000  0.99819000  0.32671000  1.0 0.1219898582
H  H17  1  0.99819000  0.32671000  0.41834000  1.0 0.1219898582
H  H18  1  0.32671000  0.41834000  0.99819000  1.0 0.1219898582
H  H19  1  0.29484000  0.07241000  0.56491000  1.0 0.0611856658
H  H20  1  0.07241000  0.56491000  0.29484000  1.0 0.0611856658
H  H21  1  0.56491000  0.29484000  0.07241000  1.0 0.0611856658
H  H22  1  0.70516000  0.92759000  0.43509000  1.0 0.0611856658
H  H23  1  0.92759000  0.43509000  0.70516000  1.0 0.0611856658
H  H24  1  0.43509000  0.70516000  0.92759000  1.0 0.0611856658
H  H25  1  0.38829000  0.95161000  0.64041000  1.0 0.0664758367
H  H26  1  0.95161000  0.64041000  0.38829000  1.0 0.0664758367
H  H27  1  0.64041000  0.38829000  0.95161000  1.0 0.0664758367
H  H28  1  0.61171000  0.04839000  0.35959000  1.0 0.0664758367
H  H29  1  0.04839000  0.35959000  0.61171000  1.0 0.0664758367
H  H30  1  0.35959000  0.61171000  0.04839000  1.0 0.0664758367
H  H31  1  0.27474000  0.03181000  0.83579000  1.0 0.1126132429
H  H32  1  0.03181000  0.83579000  0.27474000  1.0 0.1126132429
H  H33  1  0.83579000  0.27474000  0.03181000  1.0 0.1126132429
H  H34  1  0.72526000  0.96819000  0.16421000  1.0 0.1126132429
H  H35  1  0.96819000  0.16421000  0.72526000  1.0 0.1126132429
H  H36  1  0.16421000  0.72526000  0.96819000  1.0 0.1126132429
H  H37  1  0.18630000  0.98091000  0.79498000  1.0 0.0516447432
H  H38  1  0.98091000  0.79498000  0.18630000  1.0 0.0516447432
H  H39  1  0.79498000  0.18630000  0.98091000  1.0 0.0516447432
H  H40  1  0.81370000  0.01909000  0.20502000  1.0 0.0516447432
H  H41  1  0.01909000  0.20502000  0.81370000  1.0 0.0516447432
H  H42  1  0.20502000  0.81370000  0.01909000  1.0 0.0516447432
H  H43  1  0.27715000  0.01109000  0.85941000  1.0 0.1020939022
H  H44  1  0.01109000  0.85941000  0.27715000  1.0 0.1020939022
H  H45  1  0.85941000  0.27715000  0.01109000  1.0 0.1020939022
H  H46  1  0.72285000  0.98891000  0.14059000  1.0 0.1020939022
H  H47  1  0.98891000  0.14059000  0.72285000  1.0 0.1020939022
H  H48  1  0.14059000  0.72285000  0.98891000  1.0 0.1020939022
H  H49  1  0.40001000  0.90734000  0.80385000  1.0 0.0516447432
H  H50  1  0.90734000  0.80385000  0.40001000  1.0 0.0516447432
H  H51  1  0.80385000  0.40001000  0.90734000  1.0 0.0516447432
H  H52  1  0.59999000  0.09266000  0.19615000  1.0 0.0516447432
H  H53  1  0.09266000  0.19615000  0.59999000  1.0 0.0516447432
H  H54  1  0.19615000  0.59999000  0.09266000  1.0 0.0516447432
H  H55  1  0.24329000  0.11513000  0.65618000  1.0 0.0611856658
H  H56  1  0.11513000  0.65618000  0.24329000  1.0 0.0611856658
H  H57  1  0.65618000  0.24329000  0.11513000  1.0 0.0611856658
H  H58  1  0.75671000  0.88487000  0.34382000  1.0 0.0611856658
H  H59  1  0.88487000  0.34382000  0.75671000  1.0 0.0611856658
H  H60  1  0.34382000  0.75671000  0.88487000  1.0 0.0611856658
H  H61  1  0.35364000  0.00535000  0.59708000  1.0 0.0611856658
H  H62  1  0.00535000  0.59708000  0.35364000  1.0 0.0611856658
H  H63  1  0.59708000  0.35364000  0.00535000  1.0 0.0611856658
H  H64  1  0.64636000  0.99465000  0.40292000  1.0 0.0611856658
H  H65  1  0.99465000  0.40292000  0.64636000  1.0 0.0611856658
H  H66  1  0.40292000  0.64636000  0.99465000  1.0 0.0611856658
C  C1  1  0.39275000  0.25685000  0.57635000  1.0 0.0194292647
C  C2  1  0.25685000  0.57635000  0.39275000  1.0 0.0194292647
C  C3  1  0.57635000  0.39275000  0.25685000  1.0 0.0194292647
C  C4  1  0.60725000  0.74315000  0.42365000  1.0 0.0194292647
C  C5  1  0.74315000  0.42365000  0.60725000  1.0 0.0194292647
C  C6  1  0.42365000  0.60725000  0.74315000  1.0 0.0194292647
C  C7  1  0.58038000  0.19488000  0.60528000  1.0 -0.038407641
C  C8  1  0.19488000  0.60528000  0.58038000  1.0 -0.038407641
C  C9  1  0.60528000  0.58038000  0.19488000  1.0 -0.038407641
C  C10  1  0.41962000  0.80512000  0.39472000  1.0 -0.038407641
C  C11  1  0.80512000  0.39472000  0.41962000  1.0 -0.038407641
C  C12  1  0.39472000  0.41962000  0.80512000  1.0 -0.038407641
C  C13  1  0.53688000  0.08808000  0.64128000  1.0 -0.1407618084
C  C14  1  0.08808000  0.64128000  0.53688000  1.0 -0.1407618084
C  C15  1  0.64128000  0.53688000  0.08808000  1.0 -0.1407618084
C  C16  1  0.46312000  0.91192000  0.35872000  1.0 -0.1407618084
C  C17  1  0.91192000  0.35872000  0.46312000  1.0 -0.1407618084
C  C18  1  0.35872000  0.46312000  0.91192000  1.0 -0.1407618084
C  C19  1  0.33590000  0.04090000  0.63690000  1.0 -0.1320469558
C  C20  1  0.04090000  0.63690000  0.33590000  1.0 -0.1320469558
C  C21  1  0.63690000  0.33590000  0.04090000  1.0 -0.1320469558
C  C22  1  0.66410000  0.95910000  0.36310000  1.0 -0.1320469558
C  C23  1  0.95910000  0.36310000  0.66410000  1.0 -0.1320469558
C  C24  1  0.36310000  0.66410000  0.95910000  1.0 -0.1320469558
C  C25  1  0.22990000  0.05000000  0.76950000  1.0 -0.1000546166
C  C26  1  0.05000000  0.76950000  0.22990000  1.0 -0.1000546166
C  C27  1  0.76950000  0.22990000  0.05000000  1.0 -0.1000546166
C  C28  1  0.77010000  0.95000000  0.23050000  1.0 -0.1000546166
C  C29  1  0.95000000  0.23050000  0.77010000  1.0 -0.1000546166
C  C30  1  0.23050000  0.77010000  0.95000000  1.0 -0.1000546166
C  C31  1  0.22860000  0.87090000  0.82570000  1.0 -0.146417278
C  C32  1  0.87090000  0.82570000  0.22860000  1.0 -0.146417278
C  C33  1  0.82570000  0.22860000  0.87090000  1.0 -0.146417278
C  C34  1  0.77140000  0.12910000  0.17430000  1.0 -0.1407618084
C  C35  1  0.12910000  0.17430000  0.77140000  1.0 -0.1407618084
C  C36  1  0.17430000  0.77140000  0.12910000  1.0 -0.146417278
C  C37  1  0.31350000  0.96090000  0.79450000  1.0 -0.1407618084
C  C38  1  0.96090000  0.79450000  0.31350000  1.0 -0.1407618084
C  C39  1  0.79450000  0.31350000  0.96090000  1.0 -0.1407618084
C  C40  1  0.68650000  0.03910000  0.20550000  1.0 -0.1407618084
C  C41  1  0.03910000  0.20550000  0.68650000  1.0 -0.1407618084
C  C42  1  0.20550000  0.68650000  0.03910000  1.0 -0.1407618084
C  C43  1  0.32840000  0.05500000  0.66120000  1.0 -0.1000546166
C  C44  1  0.05500000  0.66120000  0.32840000  1.0 -0.1000546166
C  C45  1  0.66120000  0.32840000  0.05500000  1.0 -0.1000546166
C  C46  1  0.67160000  0.94500000  0.33880000  1.0 -0.1000546166
C  C47  1  0.94500000  0.33880000  0.67160000  1.0 -0.1000546166
C  C48  1  0.33880000  0.67160000  0.94500000  1.0 -0.1000546166
N  N1  1  0.48933000  0.30143000  0.56443000  1.0 -0.2607254267
N  N2  1  0.30143000  0.56443000  0.48933000  1.0 -0.2607254267
N  N3  1  0.56443000  0.48933000  0.30143000  1.0 -0.2607254267
N  N4  1  0.51067000  0.69857000  0.43557000  1.0 -0.2607254267
N  N5  1  0.69857000  0.43557000  0.51067000  1.0 -0.2607254267
N  N6  1  0.43557000  0.51067000  0.69857000  1.0 -0.2607254267
N  N7  1  0.41712000  0.12872000  0.62272000  1.0 0.013766749
N  N8  1  0.12872000  0.62272000  0.41712000  1.0 0.013766749
N  N9  1  0.62272000  0.41712000  0.12872000  1.0 0.013766749
N  N10  1  0.58288000  0.87128000  0.37728000  1.0 0.013766749
N  N11  1  0.87128000  0.37728000  0.58288000  1.0 0.013766749
N  N12  1  0.37728000  0.58288000  0.87128000  1.0 0.013766749
