# DDEC6 charges by PACMAN v1.1 (https://github.com/mtap-research/PACMAN-charge/)
data_CUHNID_FSR_pacman
_symmetry_space_group_name_H-M   'P 1'
_cell_length_a   15.50690000
_cell_length_b   15.50690000
_cell_length_c   25.72710000
_cell_angle_alpha   81.89670000
_cell_angle_beta   98.10330000
_cell_angle_gamma   58.25270000
_symmetry_Int_Tables_number   1
_chemical_formula_structural   Zn4Mo12PH8(CO3)16
_chemical_formula_sum   'Zn8 Mo24 P2 H16 C32 O96'
_cell_volume   5035.37183792
_cell_formula_units_Z   2
loop_
 _symmetry_equiv_pos_site_id
 _symmetry_equiv_pos_as_xyz
  1  'x, y, z'
loop_
 _atom_site_type_symbol
 _atom_site_label
 _atom_site_symmetry_multiplicity
 _atom_site_fract_x
 _atom_site_fract_y
 _atom_site_fract_z
 _atom_site_occupancy
 _atom_site_charge
Zn  Zn1  1  0.63411000  0.28443000  0.33878000  1.0 1.1007900785
Zn  Zn2  1  0.28443000  0.63411000  0.16122000  1.0 1.1007900785
Zn  Zn3  1  0.36589000  0.71557000  0.66122000  1.0 1.1007900785
Zn  Zn4  1  0.71557000  0.36589000  0.83878000  1.0 1.1007900785
Zn  Zn5  1  0.18414000  0.39406000  0.32973000  1.0 1.1007900785
Zn  Zn6  1  0.39406000  0.18414000  0.17027000  1.0 1.1007900785
Zn  Zn7  1  0.81586000  0.60594000  0.67027000  1.0 1.1007900785
Zn  Zn8  1  0.60594000  0.81586000  0.82973000  1.0 1.1007900785
Mo  Mo1  1  0.45733000  0.22437000  0.39121000  1.0 2.0005119302
Mo  Mo2  1  0.22437000  0.45733000  0.10879000  1.0 2.0005119302
Mo  Mo3  1  0.54267000  0.77563000  0.60879000  1.0 2.0061504195
Mo  Mo4  1  0.77563000  0.54267000  0.89121000  1.0 2.0005119302
Mo  Mo5  1  0.18988000  0.62516000  0.27861000  1.0 1.9907463262
Mo  Mo6  1  0.62516000  0.18988000  0.22139000  1.0 2.0005119302
Mo  Mo7  1  0.81012000  0.37484000  0.72139000  1.0 2.0005119302
Mo  Mo8  1  0.37484000  0.81012000  0.77861000  1.0 2.0005119302
Mo  Mo9  1  0.40363000  0.41571000  0.38762000  1.0 1.9907463262
Mo  Mo10  1  0.41571000  0.40363000  0.11238000  1.0 1.9907463262
Mo  Mo11  1  0.59637000  0.58429000  0.61238000  1.0 1.9907463262
Mo  Mo12  1  0.58429000  0.59637000  0.88762000  1.0 1.9907463262
Mo  Mo13  1  0.34030000  0.15342000  0.29872000  1.0 1.9907463262
Mo  Mo14  1  0.15342000  0.34030000  0.20128000  1.0 2.0005119302
Mo  Mo15  1  0.65970000  0.84658000  0.70128000  1.0 2.0005119302
Mo  Mo16  1  0.84658000  0.65970000  0.79872000  1.0 2.0005119302
Mo  Mo17  1  0.44144000  0.56064000  0.29180000  1.0 2.0005119302
Mo  Mo18  1  0.56064000  0.44144000  0.20820000  1.0 1.9907463262
Mo  Mo19  1  0.55856000  0.43936000  0.70820000  1.0 2.0005119302
Mo  Mo20  1  0.43936000  0.55856000  0.79180000  1.0 1.9907463262
Mo  Mo21  1  0.58623000  0.09151000  0.29539000  1.0 1.9907463262
Mo  Mo22  1  0.09151000  0.58623000  0.20461000  1.0 2.0005119302
Mo  Mo23  1  0.41377000  0.90849000  0.70461000  1.0 2.0005119302
Mo  Mo24  1  0.90849000  0.41377000  0.79539000  1.0 1.9907463262
P  P1  1  0.37417000  0.37417000  0.25000000  1.0 1.4306134532
P  P2  1  0.62583000  0.62583000  0.75000000  1.0 1.4306134532
H  H1  1  0.05930000  0.60490000  0.47540000  1.0 0.1403112548
H  H2  1  0.60490000  0.05930000  0.02460000  1.0 0.1403112548
H  H3  1  0.94070000  0.39510000  0.52460000  1.0 0.1403112548
H  H4  1  0.39510000  0.94070000  0.97540000  1.0 0.1403112548
H  H5  1  0.02190000  0.37550000  0.45380000  1.0 0.1403112548
H  H6  1  0.37550000  0.02190000  0.04620000  1.0 0.1403112548
H  H7  1  0.97810000  0.62450000  0.54620000  1.0 0.1403112548
H  H8  1  0.62450000  0.97810000  0.95380000  1.0 0.1403112548
H  H9  1  0.87930000  0.95630000  0.50380000  1.0 0.1403112548
H  H10  1  0.95630000  0.87930000  0.99620000  1.0 0.1403112548
H  H11  1  0.12070000  0.04370000  0.49620000  1.0 0.1403112548
H  H12  1  0.04370000  0.12070000  0.00380000  1.0 0.1403112548
H  H13  1  0.95740000  0.14580000  0.43550000  1.0 0.1403112548
H  H14  1  0.14580000  0.95740000  0.06450000  1.0 0.1403112548
H  H15  1  0.04260000  0.85420000  0.56450000  1.0 0.1403112548
H  H16  1  0.85420000  0.04260000  0.93550000  1.0 0.1403112548
C  C1  1  0.09950000  0.47930000  0.41119000  1.0 0.5567495475
C  C2  1  0.47930000  0.09950000  0.08881000  1.0 0.5567495475
C  C3  1  0.90050000  0.52070000  0.58881000  1.0 0.5567495475
C  C4  1  0.52070000  0.90050000  0.91119000  1.0 0.5567495475
C  C5  1  0.04704000  0.48944000  0.45669000  1.0 -0.0160752292
C  C6  1  0.48944000  0.04704000  0.04331000  1.0 -0.0107907322
C  C7  1  0.95296000  0.51056000  0.54331000  1.0 -0.0160752292
C  C8  1  0.51056000  0.95296000  0.95669000  1.0 -0.0160752292
C  C9  1  0.03520000  0.56280000  0.48495000  1.0 -0.0795575854
C  C10  1  0.56280000  0.03520000  0.01505000  1.0 -0.0795575854
C  C11  1  0.96480000  0.43720000  0.51505000  1.0 -0.0795575854
C  C12  1  0.43720000  0.96480000  0.98495000  1.0 -0.0795575854
C  C13  1  0.01290000  0.42610000  0.47208000  1.0 -0.0795575854
C  C14  1  0.42610000  0.01290000  0.02792000  1.0 -0.0795575854
C  C15  1  0.98710000  0.57390000  0.52792000  1.0 -0.0795575854
C  C16  1  0.57390000  0.98710000  0.97208000  1.0 -0.0795575854
C  C17  1  0.79638000  0.12258000  0.42281000  1.0 0.5567495475
C  C18  1  0.12258000  0.79638000  0.07719000  1.0 0.5567495475
C  C19  1  0.20362000  0.87742000  0.57719000  1.0 0.5567495475
C  C20  1  0.87742000  0.20362000  0.92281000  1.0 0.5567495475
C  C21  1  0.90159000  0.06179000  0.46318000  1.0 -0.0107907322
C  C22  1  0.06179000  0.90159000  0.03682000  1.0 -0.0107907322
C  C23  1  0.09841000  0.93821000  0.53682000  1.0 -0.0107907322
C  C24  1  0.93821000  0.09841000  0.96318000  1.0 -0.0107907322
C  C25  1  0.92789000  0.97389000  0.50223000  1.0 -0.0795575854
C  C26  1  0.97389000  0.92789000  0.99777000  1.0 -0.0795575854
C  C27  1  0.07211000  0.02611000  0.49777000  1.0 -0.0795575854
C  C28  1  0.02611000  0.07211000  0.00223000  1.0 -0.0795575854
C  C29  1  0.97425000  0.08725000  0.46134000  1.0 -0.0795575854
C  C30  1  0.08725000  0.97425000  0.03866000  1.0 -0.0795575854
C  C31  1  0.02575000  0.91275000  0.53866000  1.0 -0.0795575854
C  C32  1  0.91275000  0.02575000  0.96134000  1.0 -0.0795575854
O  O1  1  0.20873000  0.29827000  0.28269000  1.0 -0.9105590557
O  O2  1  0.29827000  0.20873000  0.21731000  1.0 -0.9105590557
O  O3  1  0.79127000  0.70173000  0.71731000  1.0 -0.9105590557
O  O4  1  0.70173000  0.79127000  0.78269000  1.0 -0.9105590557
O  O5  1  0.32030000  0.35640000  0.37444000  1.0 -0.831008306
O  O6  1  0.35640000  0.32030000  0.12556000  1.0 -0.8393044351
O  O7  1  0.67970000  0.64360000  0.62556000  1.0 -0.8393044351
O  O8  1  0.64360000  0.67970000  0.87444000  1.0 -0.8393044351
O  O9  1  0.14192000  0.52988000  0.28347000  1.0 -0.8393044351
O  O10  1  0.52988000  0.14192000  0.21653000  1.0 -0.8393044351
O  O11  1  0.85808000  0.47012000  0.71653000  1.0 -0.8393044351
O  O12  1  0.47012000  0.85808000  0.78347000  1.0 -0.8393044351
O  O13  1  0.53007000  0.29445000  0.37862000  1.0 -0.831008306
O  O14  1  0.29445000  0.53007000  0.12138000  1.0 -0.831008306
O  O15  1  0.46993000  0.70555000  0.62138000  1.0 -0.831008306
O  O16  1  0.70555000  0.46993000  0.87862000  1.0 -0.831008306
O  O17  1  0.18208000  0.63864000  0.20147000  1.0 -0.831008306
O  O18  1  0.63864000  0.18208000  0.29853000  1.0 -0.831008306
O  O19  1  0.81792000  0.36136000  0.79853000  1.0 -0.831008306
O  O20  1  0.36136000  0.81792000  0.70147000  1.0 -0.831008306
O  O21  1  0.41735000  0.26625000  0.28925000  1.0 -0.8188581963
O  O22  1  0.26625000  0.41735000  0.21075000  1.0 -0.8188581963
O  O23  1  0.58265000  0.73375000  0.71075000  1.0 -0.8188581963
O  O24  1  0.73375000  0.58265000  0.78925000  1.0 -0.8188581963
O  O25  1  0.77242000  0.20642000  0.38891000  1.0 -0.5265590449
O  O26  1  0.20642000  0.77242000  0.11109000  1.0 -0.5265590449
O  O27  1  0.22758000  0.79358000  0.61109000  1.0 -0.5265590449
O  O28  1  0.79358000  0.22758000  0.88891000  1.0 -0.5265590449
O  O29  1  0.58085000  0.09949000  0.37365000  1.0 -0.831008306
O  O30  1  0.09949000  0.58085000  0.12635000  1.0 -0.831008306
O  O31  1  0.41915000  0.90051000  0.62635000  1.0 -0.831008306
O  O32  1  0.90051000  0.41915000  0.87365000  1.0 -0.831008306
O  O33  1  0.35872000  0.45406000  0.28396000  1.0 -0.8188581963
O  O34  1  0.45406000  0.35872000  0.21604000  1.0 -0.8188581963
O  O35  1  0.64128000  0.54594000  0.71604000  1.0 -0.8188581963
O  O36  1  0.54594000  0.64128000  0.78396000  1.0 -0.8188581963
O  O37  1  0.56632000  0.42212000  0.28746000  1.0 -0.9105590557
O  O38  1  0.42212000  0.56632000  0.21254000  1.0 -0.9105590557
O  O39  1  0.43368000  0.57788000  0.71254000  1.0 -0.9105590557
O  O40  1  0.57788000  0.43368000  0.78746000  1.0 -0.9105590557
O  O41  1  0.48940000  0.17660000  0.45818000  1.0 -0.4704355746
O  O42  1  0.17660000  0.48940000  0.04182000  1.0 -0.4704355746
O  O43  1  0.51060000  0.82340000  0.54182000  1.0 -0.4704355746
O  O44  1  0.82340000  0.51060000  0.95818000  1.0 -0.4704355746
O  O45  1  0.10472000  0.41352000  0.38428000  1.0 -0.5186500599
O  O46  1  0.41352000  0.10472000  0.11572000  1.0 -0.5186500599
O  O47  1  0.89528000  0.58648000  0.61572000  1.0 -0.5186500599
O  O48  1  0.58648000  0.89528000  0.88428000  1.0 -0.5186500599
O  O49  1  0.29272000  0.07812000  0.30680000  1.0 -0.4885136237
O  O50  1  0.07812000  0.29272000  0.19320000  1.0 -0.4885136237
O  O51  1  0.70728000  0.92188000  0.69320000  1.0 -0.4885136237
O  O52  1  0.92188000  0.70728000  0.80680000  1.0 -0.4885136237
O  O53  1  0.46312000  0.49612000  0.36138000  1.0 -0.7615500142
O  O54  1  0.49612000  0.46312000  0.13862000  1.0 -0.7615500142
O  O55  1  0.53688000  0.50388000  0.63862000  1.0 -0.7615500142
O  O56  1  0.50388000  0.53688000  0.86138000  1.0 -0.7615500142
O  O57  1  0.69123000  0.96923000  0.30748000  1.0 -0.4794195418
O  O58  1  0.96923000  0.69123000  0.19252000  1.0 -0.4794195418
O  O59  1  0.30877000  0.03077000  0.69252000  1.0 -0.4794195418
O  O60  1  0.03077000  0.30877000  0.80748000  1.0 -0.4794195418
O  O61  1  0.37451000  0.16571000  0.36663000  1.0 -0.7615500142
O  O62  1  0.16571000  0.37451000  0.13337000  1.0 -0.7708104451
O  O63  1  0.62549000  0.83429000  0.63337000  1.0 -0.7708104451
O  O64  1  0.83429000  0.62549000  0.86663000  1.0 -0.7708104451
O  O65  1  0.49296000  0.63256000  0.29712000  1.0 -0.4974628289
O  O66  1  0.63256000  0.49296000  0.20288000  1.0 -0.4974628289
O  O67  1  0.50704000  0.36744000  0.70288000  1.0 -0.4974628289
O  O68  1  0.36744000  0.50704000  0.79712000  1.0 -0.4974628289
O  O69  1  0.30044000  0.65584000  0.27803000  1.0 -0.7708104451
O  O70  1  0.65584000  0.30044000  0.22197000  1.0 -0.7755301445
O  O71  1  0.69956000  0.34416000  0.72197000  1.0 -0.7755301445
O  O72  1  0.34416000  0.69956000  0.77803000  1.0 -0.7755301445
O  O73  1  0.47332000  0.06346000  0.29377000  1.0 -0.7708104451
O  O74  1  0.06346000  0.47332000  0.20623000  1.0 -0.7708104451
O  O75  1  0.52668000  0.93654000  0.70623000  1.0 -0.7708104451
O  O76  1  0.93654000  0.52668000  0.79377000  1.0 -0.7708104451
O  O77  1  0.26091000  0.55691000  0.35983000  1.0 -0.831008306
O  O78  1  0.55691000  0.26091000  0.14017000  1.0 -0.831008306
O  O79  1  0.73909000  0.44309000  0.64017000  1.0 -0.831008306
O  O80  1  0.44309000  0.73909000  0.85983000  1.0 -0.831008306
O  O81  1  0.08908000  0.73948000  0.28266000  1.0 -0.4704355746
O  O82  1  0.73948000  0.08908000  0.21734000  1.0 -0.4704355746
O  O83  1  0.91092000  0.26052000  0.71734000  1.0 -0.4704355746
O  O84  1  0.26052000  0.91092000  0.78266000  1.0 -0.4704355746
O  O85  1  0.42509000  0.40889000  0.45353000  1.0 -0.4704355746
O  O86  1  0.40889000  0.42509000  0.04647000  1.0 -0.4704355746
O  O87  1  0.57491000  0.59111000  0.54647000  1.0 -0.4704355746
O  O88  1  0.59111000  0.57491000  0.95353000  1.0 -0.4704355746
O  O89  1  0.13265000  0.53505000  0.40304000  1.0 -0.3833045786
O  O90  1  0.53505000  0.13265000  0.09696000  1.0 -0.3833045786
O  O91  1  0.86735000  0.46495000  0.59696000  1.0 -0.3833045786
O  O92  1  0.46495000  0.86735000  0.90304000  1.0 -0.3833045786
O  O93  1  0.74048000  0.08868000  0.42485000  1.0 -0.3880980288
O  O94  1  0.08868000  0.74048000  0.07515000  1.0 -0.3880980288
O  O95  1  0.25952000  0.91132000  0.57515000  1.0 -0.3880980288
O  O96  1  0.91132000  0.25952000  0.92485000  1.0 -0.3880980288
