# DDEC6 charges by PACMAN v1.1 (https://github.com/mtap-research/PACMAN-charge/)
data_CUMSEL_ASR_pacman
_symmetry_space_group_name_H-M   'P 1'
_cell_length_a   30.79180000
_cell_length_b   30.79180000
_cell_length_c   43.22530000
_cell_angle_alpha   90.00000000
_cell_angle_beta   90.00000000
_cell_angle_gamma   90.00000000
_symmetry_Int_Tables_number   1
_chemical_formula_structural   Cu3H22C42N3O19
_chemical_formula_sum   'Cu48 H352 C672 N48 O304'
_cell_volume   40983.41753493
_cell_formula_units_Z   16
loop_
 _symmetry_equiv_pos_site_id
 _symmetry_equiv_pos_as_xyz
  1  'x, y, z'
loop_
 _atom_site_type_symbol
 _atom_site_label
 _atom_site_symmetry_multiplicity
 _atom_site_fract_x
 _atom_site_fract_y
 _atom_site_fract_z
 _atom_site_occupancy
 _atom_site_charge
Cu  Cu1  1  0.87685000  0.21092000  0.17206000  1.0 0.8887379658
Cu  Cu2  1  0.90617000  0.16070000  0.12634000  1.0 0.904270802
Cu  Cu3  1  0.12315000  0.78908000  0.17206000  1.0 0.8887379658
Cu  Cu4  1  0.09383000  0.83930000  0.12634000  1.0 0.904270802
Cu  Cu5  1  0.78908000  0.87685000  0.17206000  1.0 0.8887379658
Cu  Cu6  1  0.83930000  0.90617000  0.12634000  1.0 0.904270802
Cu  Cu7  1  0.21092000  0.12315000  0.17206000  1.0 0.8887379658
Cu  Cu8  1  0.16070000  0.09383000  0.12634000  1.0 0.904270802
Cu  Cu9  1  0.62315000  0.71092000  0.32794000  1.0 0.8887379658
Cu  Cu10  1  0.59383000  0.66070000  0.37366000  1.0 0.904270802
Cu  Cu11  1  0.37685000  0.28908000  0.32794000  1.0 0.8887379658
Cu  Cu12  1  0.40617000  0.33930000  0.37366000  1.0 0.904270802
Cu  Cu13  1  0.71092000  0.37685000  0.32794000  1.0 0.8887379658
Cu  Cu14  1  0.66070000  0.40617000  0.37366000  1.0 0.904270802
Cu  Cu15  1  0.28908000  0.62315000  0.32794000  1.0 0.8887379658
Cu  Cu16  1  0.33930000  0.59383000  0.37366000  1.0 0.904270802
Cu  Cu17  1  0.12315000  0.78908000  0.82794000  1.0 0.8887379658
Cu  Cu18  1  0.09383000  0.83930000  0.87366000  1.0 0.904270802
Cu  Cu19  1  0.87685000  0.21092000  0.82794000  1.0 0.8887379658
Cu  Cu20  1  0.90617000  0.16070000  0.87366000  1.0 0.904270802
Cu  Cu21  1  0.21092000  0.12315000  0.82794000  1.0 0.8887379658
Cu  Cu22  1  0.16070000  0.09383000  0.87366000  1.0 0.904270802
Cu  Cu23  1  0.78908000  0.87685000  0.82794000  1.0 0.8887379658
Cu  Cu24  1  0.83930000  0.90617000  0.87366000  1.0 0.904270802
Cu  Cu25  1  0.37685000  0.28908000  0.67206000  1.0 0.8887379658
Cu  Cu26  1  0.40617000  0.33930000  0.62634000  1.0 0.904270802
Cu  Cu27  1  0.62315000  0.71092000  0.67206000  1.0 0.8887379658
Cu  Cu28  1  0.59383000  0.66070000  0.62634000  1.0 0.904270802
Cu  Cu29  1  0.28908000  0.62315000  0.67206000  1.0 0.8887379658
Cu  Cu30  1  0.33930000  0.59383000  0.62634000  1.0 0.904270802
Cu  Cu31  1  0.71092000  0.37685000  0.67206000  1.0 0.8887379658
Cu  Cu32  1  0.66070000  0.40617000  0.62634000  1.0 0.904270802
Cu  Cu33  1  0.06827000  0.25201000  0.00000000  1.0 0.8762745749
Cu  Cu34  1  0.09069000  0.33560000  0.00000000  1.0 0.9648134451
Cu  Cu35  1  0.93173000  0.74799000  0.00000000  1.0 0.8762745749
Cu  Cu36  1  0.90931000  0.66440000  0.00000000  1.0 0.9654323202
Cu  Cu37  1  0.74799000  0.06827000  0.00000000  1.0 0.8762745749
Cu  Cu38  1  0.66440000  0.09069000  0.00000000  1.0 0.9648134451
Cu  Cu39  1  0.25201000  0.93173000  0.00000000  1.0 0.8762745749
Cu  Cu40  1  0.33560000  0.90931000  0.00000000  1.0 0.9654323202
Cu  Cu41  1  0.43173000  0.75201000  0.50000000  1.0 0.8762745749
Cu  Cu42  1  0.40931000  0.83560000  0.50000000  1.0 0.9654323202
Cu  Cu43  1  0.56827000  0.24799000  0.50000000  1.0 0.8762745749
Cu  Cu44  1  0.59069000  0.16440000  0.50000000  1.0 0.9654323202
Cu  Cu45  1  0.75201000  0.56827000  0.50000000  1.0 0.8762745749
Cu  Cu46  1  0.83560000  0.59069000  0.50000000  1.0 0.9654323202
Cu  Cu47  1  0.24799000  0.43173000  0.50000000  1.0 0.8762745749
Cu  Cu48  1  0.16440000  0.40931000  0.50000000  1.0 0.9648134451
H  H1  1  0.97170000  0.25540000  0.07410000  1.0 0.1511049235
H  H2  1  0.93670000  0.33040000  0.14600000  1.0 0.1511049235
H  H3  1  0.01750000  0.37720000  0.08110000  1.0 0.1511049235
H  H4  1  0.02260000  0.45670000  0.18260000  1.0 0.1232111539
H  H5  1  0.95120000  0.46110000  0.17720000  1.0 0.1232111539
H  H6  1  0.92160000  0.51340000  0.13950000  1.0 0.1070587671
H  H7  1  0.96160000  0.50590000  0.08720000  1.0 0.1389932715
H  H8  1  0.79500000  0.14930000  0.07210000  1.0 0.1511049235
H  H9  1  0.74730000  0.23390000  0.13420000  1.0 0.1511049235
H  H10  1  0.66940000  0.18420000  0.06850000  1.0 0.1511049235
H  H11  1  0.60380000  0.30830000  0.11840000  1.0 0.1328672029
H  H12  1  0.57050000  0.25440000  0.12610000  1.0 0.1232111539
H  H13  1  0.63570000  0.34200000  0.16360000  1.0 0.1070587671
H  H14  1  0.66380000  0.29180000  0.19830000  1.0 0.1328672029
H  H15  1  0.63690000  0.22590000  0.20740000  1.0 0.1511049235
H  H16  1  0.56790000  0.20730000  0.17680000  1.0 0.1232111539
H  H17  1  0.52340000  0.27860000  0.16770000  1.0 0.1328672029
H  H18  1  0.55140000  0.33950000  0.16010000  1.0 0.1389932715
H  H19  1  0.53790000  0.35180000  0.34380000  1.0 0.1511049235
H  H20  1  0.48340000  0.31050000  0.26460000  1.0 0.1511049235
H  H21  1  0.61040000  0.34020000  0.26690000  1.0 0.1511049235
H  H22  1  0.02830000  0.74460000  0.07410000  1.0 0.1511049235
H  H23  1  0.06330000  0.66960000  0.14600000  1.0 0.1511049235
H  H24  1  0.98250000  0.62280000  0.08110000  1.0 0.1511049235
H  H25  1  0.97740000  0.54330000  0.18260000  1.0 0.1232111539
H  H26  1  0.04880000  0.53890000  0.17720000  1.0 0.1232111539
H  H27  1  0.07840000  0.48660000  0.13950000  1.0 0.1070587671
H  H28  1  0.03840000  0.49410000  0.08720000  1.0 0.1389932715
H  H29  1  0.20500000  0.85070000  0.07210000  1.0 0.1511049235
H  H30  1  0.25270000  0.76610000  0.13420000  1.0 0.1511049235
H  H31  1  0.33060000  0.81580000  0.06850000  1.0 0.1511049235
H  H32  1  0.39620000  0.69170000  0.11840000  1.0 0.1328672029
H  H33  1  0.42950000  0.74560000  0.12610000  1.0 0.1232111539
H  H34  1  0.36430000  0.65800000  0.16360000  1.0 0.1070587671
H  H35  1  0.33620000  0.70820000  0.19830000  1.0 0.1328672029
H  H36  1  0.36310000  0.77410000  0.20740000  1.0 0.1511049235
H  H37  1  0.43210000  0.79270000  0.17680000  1.0 0.1232111539
H  H38  1  0.47660000  0.72140000  0.16770000  1.0 0.1328672029
H  H39  1  0.44860000  0.66050000  0.16010000  1.0 0.1389932715
H  H40  1  0.46210000  0.64820000  0.34380000  1.0 0.1511049235
H  H41  1  0.51660000  0.68950000  0.26460000  1.0 0.1511049235
H  H42  1  0.38960000  0.65980000  0.26690000  1.0 0.1511049235
H  H43  1  0.74460000  0.97170000  0.07410000  1.0 0.1511049235
H  H44  1  0.66960000  0.93670000  0.14600000  1.0 0.1511049235
H  H45  1  0.62280000  0.01750000  0.08110000  1.0 0.1511049235
H  H46  1  0.54330000  0.02260000  0.18260000  1.0 0.1232111539
H  H47  1  0.53890000  0.95120000  0.17720000  1.0 0.1232111539
H  H48  1  0.48660000  0.92160000  0.13950000  1.0 0.1070587671
H  H49  1  0.49410000  0.96160000  0.08720000  1.0 0.1389932715
H  H50  1  0.85070000  0.79500000  0.07210000  1.0 0.1511049235
H  H51  1  0.76610000  0.74730000  0.13420000  1.0 0.1511049235
H  H52  1  0.81580000  0.66940000  0.06850000  1.0 0.1511049235
H  H53  1  0.69170000  0.60380000  0.11840000  1.0 0.1328672029
H  H54  1  0.74560000  0.57050000  0.12610000  1.0 0.1232111539
H  H55  1  0.65800000  0.63570000  0.16360000  1.0 0.1070587671
H  H56  1  0.70820000  0.66380000  0.19830000  1.0 0.1328672029
H  H57  1  0.77410000  0.63690000  0.20740000  1.0 0.1511049235
H  H58  1  0.79270000  0.56790000  0.17680000  1.0 0.1232111539
H  H59  1  0.72140000  0.52340000  0.16770000  1.0 0.1328672029
H  H60  1  0.66050000  0.55140000  0.16010000  1.0 0.1389932715
H  H61  1  0.64820000  0.53790000  0.34380000  1.0 0.1511049235
H  H62  1  0.68950000  0.48340000  0.26460000  1.0 0.1511049235
H  H63  1  0.65980000  0.61040000  0.26690000  1.0 0.1511049235
H  H64  1  0.25540000  0.02830000  0.07410000  1.0 0.1511049235
H  H65  1  0.33040000  0.06330000  0.14600000  1.0 0.1511049235
H  H66  1  0.37720000  0.98250000  0.08110000  1.0 0.1511049235
H  H67  1  0.45670000  0.97740000  0.18260000  1.0 0.1232111539
H  H68  1  0.46110000  0.04880000  0.17720000  1.0 0.1232111539
H  H69  1  0.51340000  0.07840000  0.13950000  1.0 0.1070587671
H  H70  1  0.50590000  0.03840000  0.08720000  1.0 0.1389932715
H  H71  1  0.14930000  0.20500000  0.07210000  1.0 0.1511049235
H  H72  1  0.23390000  0.25270000  0.13420000  1.0 0.1511049235
H  H73  1  0.18420000  0.33060000  0.06850000  1.0 0.1511049235
H  H74  1  0.30830000  0.39620000  0.11840000  1.0 0.1328672029
H  H75  1  0.25440000  0.42950000  0.12610000  1.0 0.1232111539
H  H76  1  0.34200000  0.36430000  0.16360000  1.0 0.1070587671
H  H77  1  0.29180000  0.33620000  0.19830000  1.0 0.1328672029
H  H78  1  0.22590000  0.36310000  0.20740000  1.0 0.1511049235
H  H79  1  0.20730000  0.43210000  0.17680000  1.0 0.1232111539
H  H80  1  0.27860000  0.47660000  0.16770000  1.0 0.1328672029
H  H81  1  0.33950000  0.44860000  0.16010000  1.0 0.1389932715
H  H82  1  0.35180000  0.46210000  0.34380000  1.0 0.1511049235
H  H83  1  0.31050000  0.51660000  0.26460000  1.0 0.1511049235
H  H84  1  0.34020000  0.38960000  0.26690000  1.0 0.1511049235
H  H85  1  0.52830000  0.75540000  0.42590000  1.0 0.1511049235
H  H86  1  0.56330000  0.83040000  0.35400000  1.0 0.1511049235
H  H87  1  0.48250000  0.87720000  0.41890000  1.0 0.1511049235
H  H88  1  0.47740000  0.95670000  0.31740000  1.0 0.1232111539
H  H89  1  0.54880000  0.96110000  0.32280000  1.0 0.1232111539
H  H90  1  0.57840000  0.01340000  0.36050000  1.0 0.1070587671
H  H91  1  0.53840000  0.00590000  0.41280000  1.0 0.1389932715
H  H92  1  0.70500000  0.64930000  0.42790000  1.0 0.1511049235
H  H93  1  0.75270000  0.73390000  0.36580000  1.0 0.1511049235
H  H94  1  0.83060000  0.68420000  0.43150000  1.0 0.1511049235
H  H95  1  0.89620000  0.80830000  0.38160000  1.0 0.1328672029
H  H96  1  0.92950000  0.75440000  0.37390000  1.0 0.1232111539
H  H97  1  0.86430000  0.84200000  0.33640000  1.0 0.1070587671
H  H98  1  0.83620000  0.79180000  0.30170000  1.0 0.1328672029
H  H99  1  0.86310000  0.72590000  0.29260000  1.0 0.1511049235
H  H100  1  0.93210000  0.70730000  0.32320000  1.0 0.1232111539
H  H101  1  0.97660000  0.77860000  0.33230000  1.0 0.1328672029
H  H102  1  0.94860000  0.83950000  0.33990000  1.0 0.1389932715
H  H103  1  0.96210000  0.85180000  0.15620000  1.0 0.1511049235
H  H104  1  0.01660000  0.81050000  0.23540000  1.0 0.1511049235
H  H105  1  0.88960000  0.84020000  0.23310000  1.0 0.1511049235
H  H106  1  0.47170000  0.24460000  0.42590000  1.0 0.1511049235
H  H107  1  0.43670000  0.16960000  0.35400000  1.0 0.1511049235
H  H108  1  0.51750000  0.12280000  0.41890000  1.0 0.1511049235
H  H109  1  0.52260000  0.04330000  0.31740000  1.0 0.1232111539
H  H110  1  0.45120000  0.03890000  0.32280000  1.0 0.1232111539
H  H111  1  0.42160000  0.98660000  0.36050000  1.0 0.1070587671
H  H112  1  0.46160000  0.99410000  0.41280000  1.0 0.1389932715
H  H113  1  0.29500000  0.35070000  0.42790000  1.0 0.1511049235
H  H114  1  0.24730000  0.26610000  0.36580000  1.0 0.1511049235
H  H115  1  0.16940000  0.31580000  0.43150000  1.0 0.1511049235
H  H116  1  0.10380000  0.19170000  0.38160000  1.0 0.1328672029
H  H117  1  0.07050000  0.24560000  0.37390000  1.0 0.1232111539
H  H118  1  0.13570000  0.15800000  0.33640000  1.0 0.1070587671
H  H119  1  0.16380000  0.20820000  0.30170000  1.0 0.1328672029
H  H120  1  0.13690000  0.27410000  0.29260000  1.0 0.1511049235
H  H121  1  0.06790000  0.29270000  0.32320000  1.0 0.1232111539
H  H122  1  0.02340000  0.22140000  0.33230000  1.0 0.1328672029
H  H123  1  0.05140000  0.16050000  0.33990000  1.0 0.1389932715
H  H124  1  0.03790000  0.14820000  0.15620000  1.0 0.1511049235
H  H125  1  0.98340000  0.18950000  0.23540000  1.0 0.1511049235
H  H126  1  0.11040000  0.15980000  0.23310000  1.0 0.1511049235
H  H127  1  0.75540000  0.47170000  0.42590000  1.0 0.1511049235
H  H128  1  0.83040000  0.43670000  0.35400000  1.0 0.1511049235
H  H129  1  0.87720000  0.51750000  0.41890000  1.0 0.1511049235
H  H130  1  0.95670000  0.52260000  0.31740000  1.0 0.1232111539
H  H131  1  0.96110000  0.45120000  0.32280000  1.0 0.1232111539
H  H132  1  0.01340000  0.42160000  0.36050000  1.0 0.1070587671
H  H133  1  0.00590000  0.46160000  0.41280000  1.0 0.1389932715
H  H134  1  0.64930000  0.29500000  0.42790000  1.0 0.1511049235
H  H135  1  0.73390000  0.24730000  0.36580000  1.0 0.1511049235
H  H136  1  0.68420000  0.16940000  0.43150000  1.0 0.1511049235
H  H137  1  0.80830000  0.10380000  0.38160000  1.0 0.1328672029
H  H138  1  0.75440000  0.07050000  0.37390000  1.0 0.1232111539
H  H139  1  0.84200000  0.13570000  0.33640000  1.0 0.1070587671
H  H140  1  0.79180000  0.16380000  0.30170000  1.0 0.1328672029
H  H141  1  0.72590000  0.13690000  0.29260000  1.0 0.1511049235
H  H142  1  0.70730000  0.06790000  0.32320000  1.0 0.1232111539
H  H143  1  0.77860000  0.02340000  0.33230000  1.0 0.1328672029
H  H144  1  0.83950000  0.05140000  0.33990000  1.0 0.1389932715
H  H145  1  0.85180000  0.03790000  0.15620000  1.0 0.1511049235
H  H146  1  0.81050000  0.98340000  0.23540000  1.0 0.1511049235
H  H147  1  0.84020000  0.11040000  0.23310000  1.0 0.1511049235
H  H148  1  0.24460000  0.52830000  0.42590000  1.0 0.1511049235
H  H149  1  0.16960000  0.56330000  0.35400000  1.0 0.1511049235
H  H150  1  0.12280000  0.48250000  0.41890000  1.0 0.1511049235
H  H151  1  0.04330000  0.47740000  0.31740000  1.0 0.1232111539
H  H152  1  0.03890000  0.54880000  0.32280000  1.0 0.1232111539
H  H153  1  0.98660000  0.57840000  0.36050000  1.0 0.1070587671
H  H154  1  0.99410000  0.53840000  0.41280000  1.0 0.1389932715
H  H155  1  0.35070000  0.70500000  0.42790000  1.0 0.1511049235
H  H156  1  0.26610000  0.75270000  0.36580000  1.0 0.1511049235
H  H157  1  0.31580000  0.83060000  0.43150000  1.0 0.1511049235
H  H158  1  0.19170000  0.89620000  0.38160000  1.0 0.1328672029
H  H159  1  0.24560000  0.92950000  0.37390000  1.0 0.1232111539
H  H160  1  0.15800000  0.86430000  0.33640000  1.0 0.1070587671
H  H161  1  0.20820000  0.83620000  0.30170000  1.0 0.1328672029
H  H162  1  0.27410000  0.86310000  0.29260000  1.0 0.1511049235
H  H163  1  0.29270000  0.93210000  0.32320000  1.0 0.1232111539
H  H164  1  0.22140000  0.97660000  0.33230000  1.0 0.1328672029
H  H165  1  0.16050000  0.94860000  0.33990000  1.0 0.1389932715
H  H166  1  0.14820000  0.96210000  0.15620000  1.0 0.1511049235
H  H167  1  0.18950000  0.01660000  0.23540000  1.0 0.1511049235
H  H168  1  0.15980000  0.88960000  0.23310000  1.0 0.1511049235
H  H169  1  0.02830000  0.74460000  0.92590000  1.0 0.1511049235
H  H170  1  0.06330000  0.66960000  0.85400000  1.0 0.1511049235
H  H171  1  0.98250000  0.62280000  0.91890000  1.0 0.1511049235
H  H172  1  0.97740000  0.54330000  0.81740000  1.0 0.1232111539
H  H173  1  0.04880000  0.53890000  0.82280000  1.0 0.1232111539
H  H174  1  0.07840000  0.48660000  0.86050000  1.0 0.1070587671
H  H175  1  0.03840000  0.49410000  0.91280000  1.0 0.1389932715
H  H176  1  0.20500000  0.85070000  0.92790000  1.0 0.1511049235
H  H177  1  0.25270000  0.76610000  0.86580000  1.0 0.1511049235
H  H178  1  0.33060000  0.81580000  0.93150000  1.0 0.1511049235
H  H179  1  0.39620000  0.69170000  0.88160000  1.0 0.1328672029
H  H180  1  0.42950000  0.74560000  0.87390000  1.0 0.1232111539
H  H181  1  0.36430000  0.65800000  0.83640000  1.0 0.1070587671
H  H182  1  0.33620000  0.70820000  0.80170000  1.0 0.1328672029
H  H183  1  0.36310000  0.77410000  0.79260000  1.0 0.1511049235
H  H184  1  0.43210000  0.79270000  0.82320000  1.0 0.1232111539
H  H185  1  0.47660000  0.72140000  0.83230000  1.0 0.1328672029
H  H186  1  0.44860000  0.66050000  0.83990000  1.0 0.1389932715
H  H187  1  0.46210000  0.64820000  0.65620000  1.0 0.1511049235
H  H188  1  0.51660000  0.68950000  0.73540000  1.0 0.1511049235
H  H189  1  0.38960000  0.65980000  0.73310000  1.0 0.1511049235
H  H190  1  0.97170000  0.25540000  0.92590000  1.0 0.1511049235
H  H191  1  0.93670000  0.33040000  0.85400000  1.0 0.1511049235
H  H192  1  0.01750000  0.37720000  0.91890000  1.0 0.1511049235
H  H193  1  0.02260000  0.45670000  0.81740000  1.0 0.1232111539
H  H194  1  0.95120000  0.46110000  0.82280000  1.0 0.1232111539
H  H195  1  0.92160000  0.51340000  0.86050000  1.0 0.1070587671
H  H196  1  0.96160000  0.50590000  0.91280000  1.0 0.1389932715
H  H197  1  0.79500000  0.14930000  0.92790000  1.0 0.1511049235
H  H198  1  0.74730000  0.23390000  0.86580000  1.0 0.1511049235
H  H199  1  0.66940000  0.18420000  0.93150000  1.0 0.1511049235
H  H200  1  0.60380000  0.30830000  0.88160000  1.0 0.1328672029
H  H201  1  0.57050000  0.25440000  0.87390000  1.0 0.1232111539
H  H202  1  0.63570000  0.34200000  0.83640000  1.0 0.1070587671
H  H203  1  0.66380000  0.29180000  0.80170000  1.0 0.1328672029
H  H204  1  0.63690000  0.22590000  0.79260000  1.0 0.1511049235
H  H205  1  0.56790000  0.20730000  0.82320000  1.0 0.1232111539
H  H206  1  0.52340000  0.27860000  0.83230000  1.0 0.1328672029
H  H207  1  0.55140000  0.33950000  0.83990000  1.0 0.1389932715
H  H208  1  0.53790000  0.35180000  0.65620000  1.0 0.1511049235
H  H209  1  0.48340000  0.31050000  0.73540000  1.0 0.1511049235
H  H210  1  0.61040000  0.34020000  0.73310000  1.0 0.1511049235
H  H211  1  0.25540000  0.02830000  0.92590000  1.0 0.1511049235
H  H212  1  0.33040000  0.06330000  0.85400000  1.0 0.1511049235
H  H213  1  0.37720000  0.98250000  0.91890000  1.0 0.1511049235
H  H214  1  0.45670000  0.97740000  0.81740000  1.0 0.1232111539
H  H215  1  0.46110000  0.04880000  0.82280000  1.0 0.1232111539
H  H216  1  0.51340000  0.07840000  0.86050000  1.0 0.1070587671
H  H217  1  0.50590000  0.03840000  0.91280000  1.0 0.1389932715
H  H218  1  0.14930000  0.20500000  0.92790000  1.0 0.1511049235
H  H219  1  0.23390000  0.25270000  0.86580000  1.0 0.1511049235
H  H220  1  0.18420000  0.33060000  0.93150000  1.0 0.1511049235
H  H221  1  0.30830000  0.39620000  0.88160000  1.0 0.1328672029
H  H222  1  0.25440000  0.42950000  0.87390000  1.0 0.1232111539
H  H223  1  0.34200000  0.36430000  0.83640000  1.0 0.1070587671
H  H224  1  0.29180000  0.33620000  0.80170000  1.0 0.1328672029
H  H225  1  0.22590000  0.36310000  0.79260000  1.0 0.1511049235
H  H226  1  0.20730000  0.43210000  0.82320000  1.0 0.1232111539
H  H227  1  0.27860000  0.47660000  0.83230000  1.0 0.1328672029
H  H228  1  0.33950000  0.44860000  0.83990000  1.0 0.1389932715
H  H229  1  0.35180000  0.46210000  0.65620000  1.0 0.1511049235
H  H230  1  0.31050000  0.51660000  0.73540000  1.0 0.1511049235
H  H231  1  0.34020000  0.38960000  0.73310000  1.0 0.1511049235
H  H232  1  0.74460000  0.97170000  0.92590000  1.0 0.1511049235
H  H233  1  0.66960000  0.93670000  0.85400000  1.0 0.1511049235
H  H234  1  0.62280000  0.01750000  0.91890000  1.0 0.1511049235
H  H235  1  0.54330000  0.02260000  0.81740000  1.0 0.1232111539
H  H236  1  0.53890000  0.95120000  0.82280000  1.0 0.1232111539
H  H237  1  0.48660000  0.92160000  0.86050000  1.0 0.1070587671
H  H238  1  0.49410000  0.96160000  0.91280000  1.0 0.1389932715
H  H239  1  0.85070000  0.79500000  0.92790000  1.0 0.1511049235
H  H240  1  0.76610000  0.74730000  0.86580000  1.0 0.1511049235
H  H241  1  0.81580000  0.66940000  0.93150000  1.0 0.1511049235
H  H242  1  0.69170000  0.60380000  0.88160000  1.0 0.1328672029
H  H243  1  0.74560000  0.57050000  0.87390000  1.0 0.1232111539
H  H244  1  0.65800000  0.63570000  0.83640000  1.0 0.1070587671
H  H245  1  0.70820000  0.66380000  0.80170000  1.0 0.1328672029
H  H246  1  0.77410000  0.63690000  0.79260000  1.0 0.1511049235
H  H247  1  0.79270000  0.56790000  0.82320000  1.0 0.1232111539
H  H248  1  0.72140000  0.52340000  0.83230000  1.0 0.1328672029
H  H249  1  0.66050000  0.55140000  0.83990000  1.0 0.1389932715
H  H250  1  0.64820000  0.53790000  0.65620000  1.0 0.1511049235
H  H251  1  0.68950000  0.48340000  0.73540000  1.0 0.1511049235
H  H252  1  0.65980000  0.61040000  0.73310000  1.0 0.1511049235
H  H253  1  0.47170000  0.24460000  0.57410000  1.0 0.1511049235
H  H254  1  0.43670000  0.16960000  0.64600000  1.0 0.1511049235
H  H255  1  0.51750000  0.12280000  0.58110000  1.0 0.1511049235
H  H256  1  0.52260000  0.04330000  0.68260000  1.0 0.1232111539
H  H257  1  0.45120000  0.03890000  0.67720000  1.0 0.1232111539
H  H258  1  0.42160000  0.98660000  0.63950000  1.0 0.1070587671
H  H259  1  0.46160000  0.99410000  0.58720000  1.0 0.1389932715
H  H260  1  0.29500000  0.35070000  0.57210000  1.0 0.1511049235
H  H261  1  0.24730000  0.26610000  0.63420000  1.0 0.1511049235
H  H262  1  0.16940000  0.31580000  0.56850000  1.0 0.1511049235
H  H263  1  0.10380000  0.19170000  0.61840000  1.0 0.1328672029
H  H264  1  0.07050000  0.24560000  0.62610000  1.0 0.1232111539
H  H265  1  0.13570000  0.15800000  0.66360000  1.0 0.1070587671
H  H266  1  0.16380000  0.20820000  0.69830000  1.0 0.1328672029
H  H267  1  0.13690000  0.27410000  0.70740000  1.0 0.1511049235
H  H268  1  0.06790000  0.29270000  0.67680000  1.0 0.1232111539
H  H269  1  0.02340000  0.22140000  0.66770000  1.0 0.1328672029
H  H270  1  0.05140000  0.16050000  0.66010000  1.0 0.1389932715
H  H271  1  0.03790000  0.14820000  0.84380000  1.0 0.1511049235
H  H272  1  0.98340000  0.18950000  0.76460000  1.0 0.1511049235
H  H273  1  0.11040000  0.15980000  0.76690000  1.0 0.1511049235
H  H274  1  0.52830000  0.75540000  0.57410000  1.0 0.1511049235
H  H275  1  0.56330000  0.83040000  0.64600000  1.0 0.1511049235
H  H276  1  0.48250000  0.87720000  0.58110000  1.0 0.1511049235
H  H277  1  0.47740000  0.95670000  0.68260000  1.0 0.1232111539
H  H278  1  0.54880000  0.96110000  0.67720000  1.0 0.1232111539
H  H279  1  0.57840000  0.01340000  0.63950000  1.0 0.1070587671
H  H280  1  0.53840000  0.00590000  0.58720000  1.0 0.1389932715
H  H281  1  0.70500000  0.64930000  0.57210000  1.0 0.1511049235
H  H282  1  0.75270000  0.73390000  0.63420000  1.0 0.1511049235
H  H283  1  0.83060000  0.68420000  0.56850000  1.0 0.1511049235
H  H284  1  0.89620000  0.80830000  0.61840000  1.0 0.1328672029
H  H285  1  0.92950000  0.75440000  0.62610000  1.0 0.1232111539
H  H286  1  0.86430000  0.84200000  0.66360000  1.0 0.1049843323
H  H287  1  0.83620000  0.79180000  0.69830000  1.0 0.1328672029
H  H288  1  0.86310000  0.72590000  0.70740000  1.0 0.1511049235
H  H289  1  0.93210000  0.70730000  0.67680000  1.0 0.1232111539
H  H290  1  0.97660000  0.77860000  0.66770000  1.0 0.1328672029
H  H291  1  0.94860000  0.83950000  0.66010000  1.0 0.1389932715
H  H292  1  0.96210000  0.85180000  0.84380000  1.0 0.1511049235
H  H293  1  0.01660000  0.81050000  0.76460000  1.0 0.1511049235
H  H294  1  0.88960000  0.84020000  0.76690000  1.0 0.1511049235
H  H295  1  0.24460000  0.52830000  0.57410000  1.0 0.1511049235
H  H296  1  0.16960000  0.56330000  0.64600000  1.0 0.1511049235
H  H297  1  0.12280000  0.48250000  0.58110000  1.0 0.1511049235
H  H298  1  0.04330000  0.47740000  0.68260000  1.0 0.1232111539
H  H299  1  0.03890000  0.54880000  0.67720000  1.0 0.1232111539
H  H300  1  0.98660000  0.57840000  0.63950000  1.0 0.1070587671
H  H301  1  0.99410000  0.53840000  0.58720000  1.0 0.1389932715
H  H302  1  0.35070000  0.70500000  0.57210000  1.0 0.1511049235
H  H303  1  0.26610000  0.75270000  0.63420000  1.0 0.1511049235
H  H304  1  0.31580000  0.83060000  0.56850000  1.0 0.1511049235
H  H305  1  0.19170000  0.89620000  0.61840000  1.0 0.1328672029
H  H306  1  0.24560000  0.92950000  0.62610000  1.0 0.1232111539
H  H307  1  0.15800000  0.86430000  0.66360000  1.0 0.1049843323
H  H308  1  0.20820000  0.83620000  0.69830000  1.0 0.1328672029
H  H309  1  0.27410000  0.86310000  0.70740000  1.0 0.1511049235
H  H310  1  0.29270000  0.93210000  0.67680000  1.0 0.1232111539
H  H311  1  0.22140000  0.97660000  0.66770000  1.0 0.1328672029
H  H312  1  0.16050000  0.94860000  0.66010000  1.0 0.1389932715
H  H313  1  0.14820000  0.96210000  0.84380000  1.0 0.1511049235
H  H314  1  0.18950000  0.01660000  0.76460000  1.0 0.1511049235
H  H315  1  0.15980000  0.88960000  0.76690000  1.0 0.1511049235
H  H316  1  0.75540000  0.47170000  0.57410000  1.0 0.1511049235
H  H317  1  0.83040000  0.43670000  0.64600000  1.0 0.1511049235
H  H318  1  0.87720000  0.51750000  0.58110000  1.0 0.1511049235
H  H319  1  0.95670000  0.52260000  0.68260000  1.0 0.1232111539
H  H320  1  0.96110000  0.45120000  0.67720000  1.0 0.1232111539
H  H321  1  0.01340000  0.42160000  0.63950000  1.0 0.1070587671
H  H322  1  0.00590000  0.46160000  0.58720000  1.0 0.1389932715
H  H323  1  0.64930000  0.29500000  0.57210000  1.0 0.1511049235
H  H324  1  0.73390000  0.24730000  0.63420000  1.0 0.1511049235
H  H325  1  0.68420000  0.16940000  0.56850000  1.0 0.1511049235
H  H326  1  0.80830000  0.10380000  0.61840000  1.0 0.1328672029
H  H327  1  0.75440000  0.07050000  0.62610000  1.0 0.1232111539
H  H328  1  0.84200000  0.13570000  0.66360000  1.0 0.1070587671
H  H329  1  0.79180000  0.16380000  0.69830000  1.0 0.1328672029
H  H330  1  0.72590000  0.13690000  0.70740000  1.0 0.1511049235
H  H331  1  0.70730000  0.06790000  0.67680000  1.0 0.1232111539
H  H332  1  0.77860000  0.02340000  0.66770000  1.0 0.1328672029
H  H333  1  0.83950000  0.05140000  0.66010000  1.0 0.1389932715
H  H334  1  0.85180000  0.03790000  0.84380000  1.0 0.1511049235
H  H335  1  0.81050000  0.98340000  0.76460000  1.0 0.1511049235
H  H336  1  0.84020000  0.11040000  0.76690000  1.0 0.1511049235
H  H337  1  0.03090000  0.18940000  0.00000000  1.0 0.4224604123
H  H338  1  0.10220000  0.42680000  0.00000000  1.0 0.5109508972
H  H339  1  0.96910000  0.81060000  0.00000000  1.0 0.4224604123
H  H340  1  0.89780000  0.57320000  0.00000000  1.0 0.5109508972
H  H341  1  0.81060000  0.03090000  0.00000000  1.0 0.4224604123
H  H342  1  0.57320000  0.10220000  0.00000000  1.0 0.5109508972
H  H343  1  0.18940000  0.96910000  0.00000000  1.0 0.4224604123
H  H344  1  0.42680000  0.89780000  0.00000000  1.0 0.5109508972
H  H345  1  0.46910000  0.68940000  0.50000000  1.0 0.4224604123
H  H346  1  0.39780000  0.92680000  0.50000000  1.0 0.5109508972
H  H347  1  0.53090000  0.31060000  0.50000000  1.0 0.4224604123
H  H348  1  0.60220000  0.07320000  0.50000000  1.0 0.5109508972
H  H349  1  0.68940000  0.53090000  0.50000000  1.0 0.4224604123
H  H350  1  0.92680000  0.60220000  0.50000000  1.0 0.5109508972
H  H351  1  0.31060000  0.46910000  0.50000000  1.0 0.4224604123
H  H352  1  0.07320000  0.39780000  0.50000000  1.0 0.5109508972
C  C1  1  0.99840000  0.31530000  0.07308000  1.0 0.0195231596
C  C2  1  0.97310000  0.28170000  0.08467000  1.0 -0.0816546167
C  C3  1  0.95000000  0.28730000  0.11199000  1.0 -0.029556952
C  C4  1  0.95220000  0.32660000  0.12773000  1.0 -0.1388207551
C  C5  1  0.97750000  0.36030000  0.11610000  1.0 0.192022121
C  C6  1  0.00060000  0.35460000  0.08880000  1.0 -0.1388207551
C  C7  1  0.02060000  0.41360000  0.14130000  1.0 0.4682387714
C  C8  1  0.01810000  0.45810000  0.16020000  1.0 -0.1626579472
C  C9  1  0.96780000  0.46440000  0.15800000  1.0 -0.1313891505
C  C10  1  0.94350000  0.42530000  0.13970000  1.0 0.4523837272
C  C11  1  0.95230000  0.50490000  0.13960000  1.0 -0.0207159708
C  C12  1  0.97640000  0.50330000  0.10590000  1.0 -0.2038882682
C  C13  1  0.02590000  0.30720000  0.04310000  1.0 0.5811827472
C  C14  1  0.92580000  0.25080000  0.12450000  1.0 0.5811827472
C  C15  1  0.73118000  0.16227000  0.06610000  1.0 -0.0720049335
C  C16  1  0.77183000  0.16523000  0.07992000  1.0 -0.0593133491
C  C17  1  0.77786000  0.19210000  0.10542000  1.0 -0.0024815264
C  C18  1  0.74323000  0.21593000  0.11711000  1.0 -0.1388207551
C  C19  1  0.70258000  0.21298000  0.10328000  1.0 0.2095162779
C  C20  1  0.69656000  0.18615000  0.07778000  1.0 -0.1188905326
C  C21  1  0.65989000  0.27946000  0.11737000  1.0 0.4224604123
C  C22  1  0.62092000  0.29096000  0.13291000  1.0 -0.1680794799
C  C23  1  0.59701000  0.25230000  0.13847000  1.0 -0.1626579472
C  C24  1  0.62120000  0.21691000  0.12635000  1.0 0.4143059779
C  C25  1  0.61930000  0.31480000  0.16430000  1.0 0.0195231596
C  C26  1  0.63910000  0.28290000  0.18770000  1.0 -0.090490311
C  C27  1  0.62420000  0.24530000  0.19360000  1.0 -0.0960378175
C  C28  1  0.58150000  0.23590000  0.17460000  1.0 -0.0207159708
C  C29  1  0.53830000  0.27730000  0.21197000  1.0 0.4338149246
C  C30  1  0.54976000  0.28130000  0.18028000  1.0 -0.1789165415
C  C31  1  0.56771000  0.32330000  0.17575000  1.0 -0.1904126183
C  C32  1  0.56730000  0.34520000  0.20464000  1.0 0.443210144
C  C33  1  0.58020000  0.34830000  0.30803000  1.0 -0.0024815264
C  C34  1  0.54030000  0.34472000  0.32291000  1.0 -0.0720049335
C  C35  1  0.50400000  0.33050000  0.30664000  1.0 -0.0394218383
C  C36  1  0.50760000  0.32000000  0.27548000  1.0 -0.1188905326
C  C37  1  0.54750000  0.32360000  0.26059000  1.0 0.2095162779
C  C38  1  0.58380000  0.33780000  0.27687000  1.0 -0.1313891505
C  C39  1  0.72030000  0.13530000  0.04220000  1.0 0.5297192376
C  C40  1  0.82100000  0.19420000  0.12120000  1.0 0.5898232352
C  C41  1  0.46380000  0.32410000  0.32190000  1.0 0.5530018251
C  C42  1  0.62100000  0.36170000  0.32340000  1.0 0.5811827472
C  C43  1  0.00160000  0.68470000  0.07308000  1.0 0.0195231596
C  C44  1  0.02690000  0.71830000  0.08467000  1.0 -0.0816546167
C  C45  1  0.05000000  0.71270000  0.11199000  1.0 -0.029556952
C  C46  1  0.04780000  0.67340000  0.12773000  1.0 -0.1388207551
C  C47  1  0.02250000  0.63970000  0.11610000  1.0 0.192022121
C  C48  1  0.99940000  0.64540000  0.08880000  1.0 -0.1388207551
C  C49  1  0.97940000  0.58640000  0.14130000  1.0 0.4682387714
C  C50  1  0.98190000  0.54190000  0.16020000  1.0 -0.1626579472
C  C51  1  0.03220000  0.53560000  0.15800000  1.0 -0.1313891505
C  C52  1  0.05650000  0.57470000  0.13970000  1.0 0.4523837272
C  C53  1  0.04770000  0.49510000  0.13960000  1.0 -0.0207159708
C  C54  1  0.02360000  0.49670000  0.10590000  1.0 -0.2078436752
C  C55  1  0.97410000  0.69280000  0.04310000  1.0 0.5811827472
C  C56  1  0.07420000  0.74920000  0.12450000  1.0 0.5811827472
C  C57  1  0.26882000  0.83773000  0.06610000  1.0 -0.0720049335
C  C58  1  0.22817000  0.83477000  0.07992000  1.0 -0.0593133491
C  C59  1  0.22214000  0.80790000  0.10542000  1.0 0.0001542754
C  C60  1  0.25677000  0.78407000  0.11711000  1.0 -0.1388207551
C  C61  1  0.29742000  0.78702000  0.10328000  1.0 0.2095162779
C  C62  1  0.30344000  0.81385000  0.07778000  1.0 -0.1188905326
C  C63  1  0.34011000  0.72054000  0.11737000  1.0 0.4224604123
C  C64  1  0.37908000  0.70904000  0.13291000  1.0 -0.1680794799
C  C65  1  0.40299000  0.74770000  0.13847000  1.0 -0.1680794799
C  C66  1  0.37880000  0.78309000  0.12635000  1.0 0.4143059779
C  C67  1  0.38070000  0.68520000  0.16430000  1.0 0.0195231596
C  C68  1  0.36090000  0.71710000  0.18770000  1.0 -0.090490311
C  C69  1  0.37580000  0.75470000  0.19360000  1.0 -0.090490311
C  C70  1  0.41850000  0.76410000  0.17460000  1.0 -0.0207159708
C  C71  1  0.46170000  0.72270000  0.21197000  1.0 0.4338149246
C  C72  1  0.45024000  0.71870000  0.18028000  1.0 -0.1789165415
C  C73  1  0.43229000  0.67670000  0.17575000  1.0 -0.1904126183
C  C74  1  0.43270000  0.65480000  0.20464000  1.0 0.443210144
C  C75  1  0.41980000  0.65170000  0.30803000  1.0 -0.0024815264
C  C76  1  0.45970000  0.65528000  0.32291000  1.0 -0.0720049335
C  C77  1  0.49600000  0.66950000  0.30664000  1.0 -0.0394218383
C  C78  1  0.49240000  0.68000000  0.27548000  1.0 -0.1188905326
C  C79  1  0.45250000  0.67640000  0.26059000  1.0 0.2095162779
C  C80  1  0.41620000  0.66220000  0.27687000  1.0 -0.1388207551
C  C81  1  0.27970000  0.86470000  0.04220000  1.0 0.5297192376
C  C82  1  0.17900000  0.80580000  0.12120000  1.0 0.5898232352
C  C83  1  0.53620000  0.67590000  0.32190000  1.0 0.5530018251
C  C84  1  0.37900000  0.63830000  0.32340000  1.0 0.5811827472
C  C85  1  0.68470000  0.99840000  0.07308000  1.0 0.0195231596
C  C86  1  0.71830000  0.97310000  0.08467000  1.0 -0.0816546167
C  C87  1  0.71270000  0.95000000  0.11199000  1.0 -0.029556952
C  C88  1  0.67340000  0.95220000  0.12773000  1.0 -0.1388207551
C  C89  1  0.63970000  0.97750000  0.11610000  1.0 0.192022121
C  C90  1  0.64540000  0.00060000  0.08880000  1.0 -0.1388207551
C  C91  1  0.58640000  0.02060000  0.14130000  1.0 0.4682387714
C  C92  1  0.54190000  0.01810000  0.16020000  1.0 -0.1626579472
C  C93  1  0.53560000  0.96780000  0.15800000  1.0 -0.1313891505
C  C94  1  0.57470000  0.94350000  0.13970000  1.0 0.4523837272
C  C95  1  0.49510000  0.95230000  0.13960000  1.0 -0.0207159708
C  C96  1  0.49670000  0.97640000  0.10590000  1.0 -0.2078436752
C  C97  1  0.69280000  0.02590000  0.04310000  1.0 0.5811827472
C  C98  1  0.74920000  0.92580000  0.12450000  1.0 0.5811827472
C  C99  1  0.83773000  0.73118000  0.06610000  1.0 -0.0720049335
C  C100  1  0.83477000  0.77183000  0.07992000  1.0 -0.0593133491
C  C101  1  0.80790000  0.77786000  0.10542000  1.0 0.0001542754
C  C102  1  0.78407000  0.74323000  0.11711000  1.0 -0.1388207551
C  C103  1  0.78702000  0.70258000  0.10328000  1.0 0.2095162779
C  C104  1  0.81385000  0.69656000  0.07778000  1.0 -0.1188905326
C  C105  1  0.72054000  0.65989000  0.11737000  1.0 0.4224604123
C  C106  1  0.70904000  0.62092000  0.13291000  1.0 -0.1680794799
C  C107  1  0.74770000  0.59701000  0.13847000  1.0 -0.1680794799
C  C108  1  0.78309000  0.62120000  0.12635000  1.0 0.4143059779
C  C109  1  0.68520000  0.61930000  0.16430000  1.0 0.0195231596
C  C110  1  0.71710000  0.63910000  0.18770000  1.0 -0.090490311
C  C111  1  0.75470000  0.62420000  0.19360000  1.0 -0.090490311
C  C112  1  0.76410000  0.58150000  0.17460000  1.0 -0.0207159708
C  C113  1  0.72270000  0.53830000  0.21197000  1.0 0.4338149246
C  C114  1  0.71870000  0.54976000  0.18028000  1.0 -0.1789165415
C  C115  1  0.67670000  0.56771000  0.17575000  1.0 -0.1904126183
C  C116  1  0.65480000  0.56730000  0.20464000  1.0 0.443210144
C  C117  1  0.65170000  0.58020000  0.30803000  1.0 -0.0024815264
C  C118  1  0.65528000  0.54030000  0.32291000  1.0 -0.0720049335
C  C119  1  0.66950000  0.50400000  0.30664000  1.0 -0.0394218383
C  C120  1  0.68000000  0.50760000  0.27548000  1.0 -0.1188905326
C  C121  1  0.67640000  0.54750000  0.26059000  1.0 0.2095162779
C  C122  1  0.66220000  0.58380000  0.27687000  1.0 -0.1388207551
C  C123  1  0.86470000  0.72030000  0.04220000  1.0 0.5297192376
C  C124  1  0.80580000  0.82100000  0.12120000  1.0 0.5898232352
C  C125  1  0.67590000  0.46380000  0.32190000  1.0 0.5530018251
C  C126  1  0.63830000  0.62100000  0.32340000  1.0 0.5811827472
C  C127  1  0.31530000  0.00160000  0.07308000  1.0 0.0195231596
C  C128  1  0.28170000  0.02690000  0.08467000  1.0 -0.0816546167
C  C129  1  0.28730000  0.05000000  0.11199000  1.0 -0.029556952
C  C130  1  0.32660000  0.04780000  0.12773000  1.0 -0.1388207551
C  C131  1  0.36030000  0.02250000  0.11610000  1.0 0.192022121
C  C132  1  0.35460000  0.99940000  0.08880000  1.0 -0.1388207551
C  C133  1  0.41360000  0.97940000  0.14130000  1.0 0.4682387714
C  C134  1  0.45810000  0.98190000  0.16020000  1.0 -0.1626579472
C  C135  1  0.46440000  0.03220000  0.15800000  1.0 -0.1313891505
C  C136  1  0.42530000  0.05650000  0.13970000  1.0 0.4523837272
C  C137  1  0.50490000  0.04770000  0.13960000  1.0 -0.0207159708
C  C138  1  0.50330000  0.02360000  0.10590000  1.0 -0.2078436752
C  C139  1  0.30720000  0.97410000  0.04310000  1.0 0.5811827472
C  C140  1  0.25080000  0.07420000  0.12450000  1.0 0.5811827472
C  C141  1  0.16227000  0.26882000  0.06610000  1.0 -0.0720049335
C  C142  1  0.16523000  0.22817000  0.07992000  1.0 -0.0593133491
C  C143  1  0.19210000  0.22214000  0.10542000  1.0 -0.0024815264
C  C144  1  0.21593000  0.25677000  0.11711000  1.0 -0.1388207551
C  C145  1  0.21298000  0.29742000  0.10328000  1.0 0.2095162779
C  C146  1  0.18615000  0.30344000  0.07778000  1.0 -0.1188905326
C  C147  1  0.27946000  0.34011000  0.11737000  1.0 0.4224604123
C  C148  1  0.29096000  0.37908000  0.13291000  1.0 -0.1680794799
C  C149  1  0.25230000  0.40299000  0.13847000  1.0 -0.1626579472
C  C150  1  0.21691000  0.37880000  0.12635000  1.0 0.4143059779
C  C151  1  0.31480000  0.38070000  0.16430000  1.0 0.0195231596
C  C152  1  0.28290000  0.36090000  0.18770000  1.0 -0.090490311
C  C153  1  0.24530000  0.37580000  0.19360000  1.0 -0.0960378175
C  C154  1  0.23590000  0.41850000  0.17460000  1.0 -0.0207159708
C  C155  1  0.27730000  0.46170000  0.21197000  1.0 0.4338149246
C  C156  1  0.28130000  0.45024000  0.18028000  1.0 -0.1789165415
C  C157  1  0.32330000  0.43229000  0.17575000  1.0 -0.1904126183
C  C158  1  0.34520000  0.43270000  0.20464000  1.0 0.443210144
C  C159  1  0.34830000  0.41980000  0.30803000  1.0 -0.0024815264
C  C160  1  0.34472000  0.45970000  0.32291000  1.0 -0.0720049335
C  C161  1  0.33050000  0.49600000  0.30664000  1.0 -0.0394218383
C  C162  1  0.32000000  0.49240000  0.27548000  1.0 -0.1188905326
C  C163  1  0.32360000  0.45250000  0.26059000  1.0 0.2095162779
C  C164  1  0.33780000  0.41620000  0.27687000  1.0 -0.1388207551
C  C165  1  0.13530000  0.27970000  0.04220000  1.0 0.5297192376
C  C166  1  0.19420000  0.17900000  0.12120000  1.0 0.5898232352
C  C167  1  0.32410000  0.53620000  0.32190000  1.0 0.5530018251
C  C168  1  0.36170000  0.37900000  0.32340000  1.0 0.5811827472
C  C169  1  0.50160000  0.81530000  0.42692000  1.0 0.0195231596
C  C170  1  0.52690000  0.78170000  0.41533000  1.0 -0.0816546167
C  C171  1  0.55000000  0.78730000  0.38801000  1.0 -0.029556952
C  C172  1  0.54780000  0.82660000  0.37227000  1.0 -0.1388207551
C  C173  1  0.52250000  0.86030000  0.38390000  1.0 0.192022121
C  C174  1  0.49940000  0.85460000  0.41120000  1.0 -0.1388207551
C  C175  1  0.47940000  0.91360000  0.35870000  1.0 0.4682387714
C  C176  1  0.48190000  0.95810000  0.33980000  1.0 -0.1626579472
C  C177  1  0.53220000  0.96440000  0.34200000  1.0 -0.1313891505
C  C178  1  0.55650000  0.92530000  0.36030000  1.0 0.4523837272
C  C179  1  0.54770000  0.00490000  0.36040000  1.0 -0.0207159708
C  C180  1  0.52360000  0.00330000  0.39410000  1.0 -0.2038882682
C  C181  1  0.47410000  0.80720000  0.45690000  1.0 0.5811827472
C  C182  1  0.57420000  0.75080000  0.37550000  1.0 0.5811827472
C  C183  1  0.76882000  0.66227000  0.43390000  1.0 -0.0720049335
C  C184  1  0.72817000  0.66523000  0.42008000  1.0 -0.0593133491
C  C185  1  0.72214000  0.69210000  0.39458000  1.0 -0.0024815264
C  C186  1  0.75677000  0.71593000  0.38289000  1.0 -0.1388207551
C  C187  1  0.79742000  0.71298000  0.39672000  1.0 0.2095162779
C  C188  1  0.80344000  0.68615000  0.42222000  1.0 -0.1188905326
C  C189  1  0.84011000  0.77946000  0.38263000  1.0 0.4224604123
C  C190  1  0.87908000  0.79096000  0.36709000  1.0 -0.1680794799
C  C191  1  0.90299000  0.75230000  0.36153000  1.0 -0.1680794799
C  C192  1  0.87880000  0.71691000  0.37365000  1.0 0.4143059779
C  C193  1  0.88070000  0.81480000  0.33570000  1.0 0.0195231596
C  C194  1  0.86090000  0.78290000  0.31230000  1.0 -0.090490311
C  C195  1  0.87580000  0.74530000  0.30640000  1.0 -0.0960378175
C  C196  1  0.91850000  0.73590000  0.32540000  1.0 -0.0207159708
C  C197  1  0.96170000  0.77730000  0.28803000  1.0 0.4338149246
C  C198  1  0.95024000  0.78130000  0.31972000  1.0 -0.1789165415
C  C199  1  0.93229000  0.82330000  0.32425000  1.0 -0.1904126183
C  C200  1  0.93270000  0.84520000  0.29536000  1.0 0.443210144
C  C201  1  0.91980000  0.84830000  0.19197000  1.0 -0.0024815264
C  C202  1  0.95970000  0.84472000  0.17709000  1.0 -0.0720049335
C  C203  1  0.99600000  0.83050000  0.19336000  1.0 -0.0394218383
C  C204  1  0.99240000  0.82000000  0.22452000  1.0 -0.1188905326
C  C205  1  0.95250000  0.82360000  0.23941000  1.0 0.2095162779
C  C206  1  0.91620000  0.83780000  0.22313000  1.0 -0.1388207551
C  C207  1  0.77970000  0.63530000  0.45780000  1.0 0.5297192376
C  C208  1  0.67900000  0.69420000  0.37880000  1.0 0.5898232352
C  C209  1  0.03620000  0.82410000  0.17810000  1.0 0.5530018251
C  C210  1  0.87900000  0.86170000  0.17660000  1.0 0.5811827472
C  C211  1  0.49840000  0.18470000  0.42692000  1.0 0.0195231596
C  C212  1  0.47310000  0.21830000  0.41533000  1.0 -0.0816546167
C  C213  1  0.45000000  0.21270000  0.38801000  1.0 -0.029556952
C  C214  1  0.45220000  0.17340000  0.37227000  1.0 -0.1388207551
C  C215  1  0.47750000  0.13970000  0.38390000  1.0 0.192022121
C  C216  1  0.50060000  0.14540000  0.41120000  1.0 -0.1388207551
C  C217  1  0.52060000  0.08640000  0.35870000  1.0 0.4682387714
C  C218  1  0.51810000  0.04190000  0.33980000  1.0 -0.1626579472
C  C219  1  0.46780000  0.03560000  0.34200000  1.0 -0.1313891505
C  C220  1  0.44350000  0.07470000  0.36030000  1.0 0.4523837272
C  C221  1  0.45230000  0.99510000  0.36040000  1.0 -0.0207159708
C  C222  1  0.47640000  0.99670000  0.39410000  1.0 -0.2078436752
C  C223  1  0.52590000  0.19280000  0.45690000  1.0 0.5811827472
C  C224  1  0.42580000  0.24920000  0.37550000  1.0 0.5811827472
C  C225  1  0.23118000  0.33773000  0.43390000  1.0 -0.0720049335
C  C226  1  0.27183000  0.33477000  0.42008000  1.0 -0.0593133491
C  C227  1  0.27786000  0.30790000  0.39458000  1.0 -0.0024815264
C  C228  1  0.24323000  0.28407000  0.38289000  1.0 -0.1388207551
C  C229  1  0.20258000  0.28702000  0.39672000  1.0 0.2095162779
C  C230  1  0.19656000  0.31385000  0.42222000  1.0 -0.1188905326
C  C231  1  0.15989000  0.22054000  0.38263000  1.0 0.4224604123
C  C232  1  0.12092000  0.20904000  0.36709000  1.0 -0.1680794799
C  C233  1  0.09701000  0.24770000  0.36153000  1.0 -0.1680794799
C  C234  1  0.12120000  0.28309000  0.37365000  1.0 0.4143059779
C  C235  1  0.11930000  0.18520000  0.33570000  1.0 0.0149658093
C  C236  1  0.13910000  0.21710000  0.31230000  1.0 -0.090490311
C  C237  1  0.12420000  0.25470000  0.30640000  1.0 -0.0960378175
C  C238  1  0.08150000  0.26410000  0.32540000  1.0 -0.0207159708
C  C239  1  0.03830000  0.22270000  0.28803000  1.0 0.4338149246
C  C240  1  0.04976000  0.21870000  0.31972000  1.0 -0.1789165415
C  C241  1  0.06771000  0.17670000  0.32425000  1.0 -0.1904126183
C  C242  1  0.06730000  0.15480000  0.29536000  1.0 0.443210144
C  C243  1  0.08020000  0.15170000  0.19197000  1.0 -0.0024815264
C  C244  1  0.04030000  0.15528000  0.17709000  1.0 -0.0720049335
C  C245  1  0.00400000  0.16950000  0.19336000  1.0 -0.0394218383
C  C246  1  0.00760000  0.18000000  0.22452000  1.0 -0.1188905326
C  C247  1  0.04750000  0.17640000  0.23941000  1.0 0.2095162779
C  C248  1  0.08380000  0.16220000  0.22313000  1.0 -0.1388207551
C  C249  1  0.22030000  0.36470000  0.45780000  1.0 0.5297192376
C  C250  1  0.32100000  0.30580000  0.37880000  1.0 0.5898232352
C  C251  1  0.96380000  0.17590000  0.17810000  1.0 0.5530018251
C  C252  1  0.12100000  0.13830000  0.17660000  1.0 0.5811827472
C  C253  1  0.81530000  0.49840000  0.42692000  1.0 0.0195231596
C  C254  1  0.78170000  0.47310000  0.41533000  1.0 -0.0816546167
C  C255  1  0.78730000  0.45000000  0.38801000  1.0 -0.029556952
C  C256  1  0.82660000  0.45220000  0.37227000  1.0 -0.1388207551
C  C257  1  0.86030000  0.47750000  0.38390000  1.0 0.192022121
C  C258  1  0.85460000  0.50060000  0.41120000  1.0 -0.1388207551
C  C259  1  0.91360000  0.52060000  0.35870000  1.0 0.4682387714
C  C260  1  0.95810000  0.51810000  0.33980000  1.0 -0.1626579472
C  C261  1  0.96440000  0.46780000  0.34200000  1.0 -0.1313891505
C  C262  1  0.92530000  0.44350000  0.36030000  1.0 0.4523837272
C  C263  1  0.00490000  0.45230000  0.36040000  1.0 -0.0207159708
C  C264  1  0.00330000  0.47640000  0.39410000  1.0 -0.2078436752
C  C265  1  0.80720000  0.52590000  0.45690000  1.0 0.5811827472
C  C266  1  0.75080000  0.42580000  0.37550000  1.0 0.5811827472
C  C267  1  0.66227000  0.23118000  0.43390000  1.0 -0.0720049335
C  C268  1  0.66523000  0.27183000  0.42008000  1.0 -0.0593133491
C  C269  1  0.69210000  0.27786000  0.39458000  1.0 -0.0024815264
C  C270  1  0.71593000  0.24323000  0.38289000  1.0 -0.1388207551
C  C271  1  0.71298000  0.20258000  0.39672000  1.0 0.2095162779
C  C272  1  0.68615000  0.19656000  0.42222000  1.0 -0.1188905326
C  C273  1  0.77946000  0.15989000  0.38263000  1.0 0.4224604123
C  C274  1  0.79096000  0.12092000  0.36709000  1.0 -0.1680794799
C  C275  1  0.75230000  0.09701000  0.36153000  1.0 -0.1680794799
C  C276  1  0.71691000  0.12120000  0.37365000  1.0 0.4143059779
C  C277  1  0.81480000  0.11930000  0.33570000  1.0 0.0195231596
C  C278  1  0.78290000  0.13910000  0.31230000  1.0 -0.090490311
C  C279  1  0.74530000  0.12420000  0.30640000  1.0 -0.0960378175
C  C280  1  0.73590000  0.08150000  0.32540000  1.0 -0.0207159708
C  C281  1  0.77730000  0.03830000  0.28803000  1.0 0.4338149246
C  C282  1  0.78130000  0.04976000  0.31972000  1.0 -0.1789165415
C  C283  1  0.82330000  0.06771000  0.32425000  1.0 -0.1904126183
C  C284  1  0.84520000  0.06730000  0.29536000  1.0 0.443210144
C  C285  1  0.84830000  0.08020000  0.19197000  1.0 -0.0024815264
C  C286  1  0.84472000  0.04030000  0.17709000  1.0 -0.0720049335
C  C287  1  0.83050000  0.00400000  0.19336000  1.0 -0.0394218383
C  C288  1  0.82000000  0.00760000  0.22452000  1.0 -0.1188905326
C  C289  1  0.82360000  0.04750000  0.23941000  1.0 0.2095162779
C  C290  1  0.83780000  0.08380000  0.22313000  1.0 -0.1388207551
C  C291  1  0.63530000  0.22030000  0.45780000  1.0 0.5297192376
C  C292  1  0.69420000  0.32100000  0.37880000  1.0 0.5898232352
C  C293  1  0.82410000  0.96380000  0.17810000  1.0 0.5530018251
C  C294  1  0.86170000  0.12100000  0.17660000  1.0 0.5811827472
C  C295  1  0.18470000  0.50160000  0.42692000  1.0 0.0195231596
C  C296  1  0.21830000  0.52690000  0.41533000  1.0 -0.0816546167
C  C297  1  0.21270000  0.55000000  0.38801000  1.0 -0.029556952
C  C298  1  0.17340000  0.54780000  0.37227000  1.0 -0.1388207551
C  C299  1  0.13970000  0.52250000  0.38390000  1.0 0.192022121
C  C300  1  0.14540000  0.49940000  0.41120000  1.0 -0.1388207551
C  C301  1  0.08640000  0.47940000  0.35870000  1.0 0.4682387714
C  C302  1  0.04190000  0.48190000  0.33980000  1.0 -0.1626579472
C  C303  1  0.03560000  0.53220000  0.34200000  1.0 -0.1313891505
C  C304  1  0.07470000  0.55650000  0.36030000  1.0 0.4523837272
C  C305  1  0.99510000  0.54770000  0.36040000  1.0 -0.0207159708
C  C306  1  0.99670000  0.52360000  0.39410000  1.0 -0.2038882682
C  C307  1  0.19280000  0.47410000  0.45690000  1.0 0.5811827472
C  C308  1  0.24920000  0.57420000  0.37550000  1.0 0.5811827472
C  C309  1  0.33773000  0.76882000  0.43390000  1.0 -0.0720049335
C  C310  1  0.33477000  0.72817000  0.42008000  1.0 -0.0593133491
C  C311  1  0.30790000  0.72214000  0.39458000  1.0 -0.0024815264
C  C312  1  0.28407000  0.75677000  0.38289000  1.0 -0.1388207551
C  C313  1  0.28702000  0.79742000  0.39672000  1.0 0.2095162779
C  C314  1  0.31385000  0.80344000  0.42222000  1.0 -0.1188905326
C  C315  1  0.22054000  0.84011000  0.38263000  1.0 0.4224604123
C  C316  1  0.20904000  0.87908000  0.36709000  1.0 -0.1680794799
C  C317  1  0.24770000  0.90299000  0.36153000  1.0 -0.1680794799
C  C318  1  0.28309000  0.87880000  0.37365000  1.0 0.4143059779
C  C319  1  0.18520000  0.88070000  0.33570000  1.0 0.0195231596
C  C320  1  0.21710000  0.86090000  0.31230000  1.0 -0.090490311
C  C321  1  0.25470000  0.87580000  0.30640000  1.0 -0.0960378175
C  C322  1  0.26410000  0.91850000  0.32540000  1.0 -0.0207159708
C  C323  1  0.22270000  0.96170000  0.28803000  1.0 0.4338149246
C  C324  1  0.21870000  0.95024000  0.31972000  1.0 -0.1789165415
C  C325  1  0.17670000  0.93229000  0.32425000  1.0 -0.1904126183
C  C326  1  0.15480000  0.93270000  0.29536000  1.0 0.443210144
C  C327  1  0.15170000  0.91980000  0.19197000  1.0 -0.0024815264
C  C328  1  0.15528000  0.95970000  0.17709000  1.0 -0.0720049335
C  C329  1  0.16950000  0.99600000  0.19336000  1.0 -0.0394218383
C  C330  1  0.18000000  0.99240000  0.22452000  1.0 -0.1188905326
C  C331  1  0.17640000  0.95250000  0.23941000  1.0 0.2095162779
C  C332  1  0.16220000  0.91620000  0.22313000  1.0 -0.1388207551
C  C333  1  0.36470000  0.77970000  0.45780000  1.0 0.5297192376
C  C334  1  0.30580000  0.67900000  0.37880000  1.0 0.5898232352
C  C335  1  0.17590000  0.03620000  0.17810000  1.0 0.5530018251
C  C336  1  0.13830000  0.87900000  0.17660000  1.0 0.5811827472
C  C337  1  0.00160000  0.68470000  0.92692000  1.0 0.0195231596
C  C338  1  0.02690000  0.71830000  0.91533000  1.0 -0.0816546167
C  C339  1  0.05000000  0.71270000  0.88801000  1.0 -0.029556952
C  C340  1  0.04780000  0.67340000  0.87227000  1.0 -0.1388207551
C  C341  1  0.02250000  0.63970000  0.88390000  1.0 0.192022121
C  C342  1  0.99940000  0.64540000  0.91120000  1.0 -0.1388207551
C  C343  1  0.97940000  0.58640000  0.85870000  1.0 0.4682387714
C  C344  1  0.98190000  0.54190000  0.83980000  1.0 -0.1626579472
C  C345  1  0.03220000  0.53560000  0.84200000  1.0 -0.1313891505
C  C346  1  0.05650000  0.57470000  0.86030000  1.0 0.4523837272
C  C347  1  0.04770000  0.49510000  0.86040000  1.0 -0.0207159708
C  C348  1  0.02360000  0.49670000  0.89410000  1.0 -0.2078436752
C  C349  1  0.97410000  0.69280000  0.95690000  1.0 0.5811827472
C  C350  1  0.07420000  0.74920000  0.87550000  1.0 0.5811827472
C  C351  1  0.26882000  0.83773000  0.93390000  1.0 -0.0720049335
C  C352  1  0.22817000  0.83477000  0.92008000  1.0 -0.0593133491
C  C353  1  0.22214000  0.80790000  0.89458000  1.0 -0.0024815264
C  C354  1  0.25677000  0.78407000  0.88289000  1.0 -0.1388207551
C  C355  1  0.29742000  0.78702000  0.89672000  1.0 0.2095162779
C  C356  1  0.30344000  0.81385000  0.92222000  1.0 -0.1188905326
C  C357  1  0.34011000  0.72054000  0.88263000  1.0 0.4224604123
C  C358  1  0.37908000  0.70904000  0.86709000  1.0 -0.1680794799
C  C359  1  0.40299000  0.74770000  0.86153000  1.0 -0.1680794799
C  C360  1  0.37880000  0.78309000  0.87365000  1.0 0.4143059779
C  C361  1  0.38070000  0.68520000  0.83570000  1.0 0.0149658093
C  C362  1  0.36090000  0.71710000  0.81230000  1.0 -0.090490311
C  C363  1  0.37580000  0.75470000  0.80640000  1.0 -0.0960378175
C  C364  1  0.41850000  0.76410000  0.82540000  1.0 -0.0207159708
C  C365  1  0.46170000  0.72270000  0.78803000  1.0 0.4338149246
C  C366  1  0.45024000  0.71870000  0.81972000  1.0 -0.1789165415
C  C367  1  0.43229000  0.67670000  0.82425000  1.0 -0.1904126183
C  C368  1  0.43270000  0.65480000  0.79536000  1.0 0.443210144
C  C369  1  0.41980000  0.65170000  0.69197000  1.0 -0.0024815264
C  C370  1  0.45970000  0.65528000  0.67709000  1.0 -0.0720049335
C  C371  1  0.49600000  0.66950000  0.69336000  1.0 -0.0394218383
C  C372  1  0.49240000  0.68000000  0.72452000  1.0 -0.1188905326
C  C373  1  0.45250000  0.67640000  0.73941000  1.0 0.2095162779
C  C374  1  0.41620000  0.66220000  0.72313000  1.0 -0.1388207551
C  C375  1  0.27970000  0.86470000  0.95780000  1.0 0.5297192376
C  C376  1  0.17900000  0.80580000  0.87880000  1.0 0.5898232352
C  C377  1  0.53620000  0.67590000  0.67810000  1.0 0.5530018251
C  C378  1  0.37900000  0.63830000  0.67660000  1.0 0.5811827472
C  C379  1  0.99840000  0.31530000  0.92692000  1.0 0.0195231596
C  C380  1  0.97310000  0.28170000  0.91533000  1.0 -0.0816546167
C  C381  1  0.95000000  0.28730000  0.88801000  1.0 -0.029556952
C  C382  1  0.95220000  0.32660000  0.87227000  1.0 -0.1388207551
C  C383  1  0.97750000  0.36030000  0.88390000  1.0 0.192022121
C  C384  1  0.00060000  0.35460000  0.91120000  1.0 -0.1388207551
C  C385  1  0.02060000  0.41360000  0.85870000  1.0 0.4682387714
C  C386  1  0.01810000  0.45810000  0.83980000  1.0 -0.1626579472
C  C387  1  0.96780000  0.46440000  0.84200000  1.0 -0.1313891505
C  C388  1  0.94350000  0.42530000  0.86030000  1.0 0.4523837272
C  C389  1  0.95230000  0.50490000  0.86040000  1.0 -0.0207159708
C  C390  1  0.97640000  0.50330000  0.89410000  1.0 -0.2078436752
C  C391  1  0.02590000  0.30720000  0.95690000  1.0 0.5811827472
C  C392  1  0.92580000  0.25080000  0.87550000  1.0 0.5811827472
C  C393  1  0.73118000  0.16227000  0.93390000  1.0 -0.0720049335
C  C394  1  0.77183000  0.16523000  0.92008000  1.0 -0.0593133491
C  C395  1  0.77786000  0.19210000  0.89458000  1.0 -0.0024815264
C  C396  1  0.74323000  0.21593000  0.88289000  1.0 -0.1388207551
C  C397  1  0.70258000  0.21298000  0.89672000  1.0 0.2095162779
C  C398  1  0.69656000  0.18615000  0.92222000  1.0 -0.1188905326
C  C399  1  0.65989000  0.27946000  0.88263000  1.0 0.4224604123
C  C400  1  0.62092000  0.29096000  0.86709000  1.0 -0.1680794799
C  C401  1  0.59701000  0.25230000  0.86153000  1.0 -0.1680794799
C  C402  1  0.62120000  0.21691000  0.87365000  1.0 0.4143059779
C  C403  1  0.61930000  0.31480000  0.83570000  1.0 0.0195231596
C  C404  1  0.63910000  0.28290000  0.81230000  1.0 -0.090490311
C  C405  1  0.62420000  0.24530000  0.80640000  1.0 -0.0960378175
C  C406  1  0.58150000  0.23590000  0.82540000  1.0 -0.0207159708
C  C407  1  0.53830000  0.27730000  0.78803000  1.0 0.4338149246
C  C408  1  0.54976000  0.28130000  0.81972000  1.0 -0.1789165415
C  C409  1  0.56771000  0.32330000  0.82425000  1.0 -0.1904126183
C  C410  1  0.56730000  0.34520000  0.79536000  1.0 0.443210144
C  C411  1  0.58020000  0.34830000  0.69197000  1.0 -0.0024815264
C  C412  1  0.54030000  0.34472000  0.67709000  1.0 -0.0720049335
C  C413  1  0.50400000  0.33050000  0.69336000  1.0 -0.0394218383
C  C414  1  0.50760000  0.32000000  0.72452000  1.0 -0.1188905326
C  C415  1  0.54750000  0.32360000  0.73941000  1.0 0.2095162779
C  C416  1  0.58380000  0.33780000  0.72313000  1.0 -0.1313891505
C  C417  1  0.72030000  0.13530000  0.95780000  1.0 0.5297192376
C  C418  1  0.82100000  0.19420000  0.87880000  1.0 0.5898232352
C  C419  1  0.46380000  0.32410000  0.67810000  1.0 0.5530018251
C  C420  1  0.62100000  0.36170000  0.67660000  1.0 0.5811827472
C  C421  1  0.31530000  0.00160000  0.92692000  1.0 0.0195231596
C  C422  1  0.28170000  0.02690000  0.91533000  1.0 -0.0816546167
C  C423  1  0.28730000  0.05000000  0.88801000  1.0 -0.029556952
C  C424  1  0.32660000  0.04780000  0.87227000  1.0 -0.1388207551
C  C425  1  0.36030000  0.02250000  0.88390000  1.0 0.192022121
C  C426  1  0.35460000  0.99940000  0.91120000  1.0 -0.1388207551
C  C427  1  0.41360000  0.97940000  0.85870000  1.0 0.4682387714
C  C428  1  0.45810000  0.98190000  0.83980000  1.0 -0.1626579472
C  C429  1  0.46440000  0.03220000  0.84200000  1.0 -0.1313891505
C  C430  1  0.42530000  0.05650000  0.86030000  1.0 0.4523837272
C  C431  1  0.50490000  0.04770000  0.86040000  1.0 -0.0207159708
C  C432  1  0.50330000  0.02360000  0.89410000  1.0 -0.2078436752
C  C433  1  0.30720000  0.97410000  0.95690000  1.0 0.5811827472
C  C434  1  0.25080000  0.07420000  0.87550000  1.0 0.5811827472
C  C435  1  0.16227000  0.26882000  0.93390000  1.0 -0.0720049335
C  C436  1  0.16523000  0.22817000  0.92008000  1.0 -0.0593133491
C  C437  1  0.19210000  0.22214000  0.89458000  1.0 -0.0024815264
C  C438  1  0.21593000  0.25677000  0.88289000  1.0 -0.1388207551
C  C439  1  0.21298000  0.29742000  0.89672000  1.0 0.2095162779
C  C440  1  0.18615000  0.30344000  0.92222000  1.0 -0.1188905326
C  C441  1  0.27946000  0.34011000  0.88263000  1.0 0.4224604123
C  C442  1  0.29096000  0.37908000  0.86709000  1.0 -0.1680794799
C  C443  1  0.25230000  0.40299000  0.86153000  1.0 -0.1680794799
C  C444  1  0.21691000  0.37880000  0.87365000  1.0 0.4143059779
C  C445  1  0.31480000  0.38070000  0.83570000  1.0 0.0149658093
C  C446  1  0.28290000  0.36090000  0.81230000  1.0 -0.090490311
C  C447  1  0.24530000  0.37580000  0.80640000  1.0 -0.0960378175
C  C448  1  0.23590000  0.41850000  0.82540000  1.0 -0.0207159708
C  C449  1  0.27730000  0.46170000  0.78803000  1.0 0.4338149246
C  C450  1  0.28130000  0.45024000  0.81972000  1.0 -0.1789165415
C  C451  1  0.32330000  0.43229000  0.82425000  1.0 -0.1904126183
C  C452  1  0.34520000  0.43270000  0.79536000  1.0 0.443210144
C  C453  1  0.34830000  0.41980000  0.69197000  1.0 -0.0024815264
C  C454  1  0.34472000  0.45970000  0.67709000  1.0 -0.0720049335
C  C455  1  0.33050000  0.49600000  0.69336000  1.0 -0.0394218383
C  C456  1  0.32000000  0.49240000  0.72452000  1.0 -0.1188905326
C  C457  1  0.32360000  0.45250000  0.73941000  1.0 0.2095162779
C  C458  1  0.33780000  0.41620000  0.72313000  1.0 -0.1388207551
C  C459  1  0.13530000  0.27970000  0.95780000  1.0 0.5297192376
C  C460  1  0.19420000  0.17900000  0.87880000  1.0 0.5898232352
C  C461  1  0.32410000  0.53620000  0.67810000  1.0 0.5530018251
C  C462  1  0.36170000  0.37900000  0.67660000  1.0 0.5811827472
C  C463  1  0.68470000  0.99840000  0.92692000  1.0 0.0195231596
C  C464  1  0.71830000  0.97310000  0.91533000  1.0 -0.0816546167
C  C465  1  0.71270000  0.95000000  0.88801000  1.0 -0.029556952
C  C466  1  0.67340000  0.95220000  0.87227000  1.0 -0.1388207551
C  C467  1  0.63970000  0.97750000  0.88390000  1.0 0.192022121
C  C468  1  0.64540000  0.00060000  0.91120000  1.0 -0.1388207551
C  C469  1  0.58640000  0.02060000  0.85870000  1.0 0.4682387714
C  C470  1  0.54190000  0.01810000  0.83980000  1.0 -0.1626579472
C  C471  1  0.53560000  0.96780000  0.84200000  1.0 -0.1313891505
C  C472  1  0.57470000  0.94350000  0.86030000  1.0 0.4523837272
C  C473  1  0.49510000  0.95230000  0.86040000  1.0 -0.0207159708
C  C474  1  0.49670000  0.97640000  0.89410000  1.0 -0.2078436752
C  C475  1  0.69280000  0.02590000  0.95690000  1.0 0.5811827472
C  C476  1  0.74920000  0.92580000  0.87550000  1.0 0.5811827472
C  C477  1  0.83773000  0.73118000  0.93390000  1.0 -0.0720049335
C  C478  1  0.83477000  0.77183000  0.92008000  1.0 -0.0593133491
C  C479  1  0.80790000  0.77786000  0.89458000  1.0 -0.0024815264
C  C480  1  0.78407000  0.74323000  0.88289000  1.0 -0.1388207551
C  C481  1  0.78702000  0.70258000  0.89672000  1.0 0.2095162779
C  C482  1  0.81385000  0.69656000  0.92222000  1.0 -0.1188905326
C  C483  1  0.72054000  0.65989000  0.88263000  1.0 0.4224604123
C  C484  1  0.70904000  0.62092000  0.86709000  1.0 -0.1680794799
C  C485  1  0.74770000  0.59701000  0.86153000  1.0 -0.1680794799
C  C486  1  0.78309000  0.62120000  0.87365000  1.0 0.4143059779
C  C487  1  0.68520000  0.61930000  0.83570000  1.0 0.0195231596
C  C488  1  0.71710000  0.63910000  0.81230000  1.0 -0.090490311
C  C489  1  0.75470000  0.62420000  0.80640000  1.0 -0.0960378175
C  C490  1  0.76410000  0.58150000  0.82540000  1.0 -0.0207159708
C  C491  1  0.72270000  0.53830000  0.78803000  1.0 0.4338149246
C  C492  1  0.71870000  0.54976000  0.81972000  1.0 -0.1789165415
C  C493  1  0.67670000  0.56771000  0.82425000  1.0 -0.1904126183
C  C494  1  0.65480000  0.56730000  0.79536000  1.0 0.443210144
C  C495  1  0.65170000  0.58020000  0.69197000  1.0 -0.0024815264
C  C496  1  0.65528000  0.54030000  0.67709000  1.0 -0.0720049335
C  C497  1  0.66950000  0.50400000  0.69336000  1.0 -0.0394218383
C  C498  1  0.68000000  0.50760000  0.72452000  1.0 -0.1188905326
C  C499  1  0.67640000  0.54750000  0.73941000  1.0 0.2095162779
C  C500  1  0.66220000  0.58380000  0.72313000  1.0 -0.1388207551
C  C501  1  0.86470000  0.72030000  0.95780000  1.0 0.5297192376
C  C502  1  0.80580000  0.82100000  0.87880000  1.0 0.5898232352
C  C503  1  0.67590000  0.46380000  0.67810000  1.0 0.5530018251
C  C504  1  0.63830000  0.62100000  0.67660000  1.0 0.5811827472
C  C505  1  0.49840000  0.18470000  0.57308000  1.0 0.0195231596
C  C506  1  0.47310000  0.21830000  0.58467000  1.0 -0.0816546167
C  C507  1  0.45000000  0.21270000  0.61199000  1.0 -0.029556952
C  C508  1  0.45220000  0.17340000  0.62773000  1.0 -0.1388207551
C  C509  1  0.47750000  0.13970000  0.61610000  1.0 0.192022121
C  C510  1  0.50060000  0.14540000  0.58880000  1.0 -0.1388207551
C  C511  1  0.52060000  0.08640000  0.64130000  1.0 0.4682387714
C  C512  1  0.51810000  0.04190000  0.66020000  1.0 -0.1626579472
C  C513  1  0.46780000  0.03560000  0.65800000  1.0 -0.1313891505
C  C514  1  0.44350000  0.07470000  0.63970000  1.0 0.4523837272
C  C515  1  0.45230000  0.99510000  0.63960000  1.0 -0.0207159708
C  C516  1  0.47640000  0.99670000  0.60590000  1.0 -0.2078436752
C  C517  1  0.52590000  0.19280000  0.54310000  1.0 0.5811827472
C  C518  1  0.42580000  0.24920000  0.62450000  1.0 0.5811827472
C  C519  1  0.23118000  0.33773000  0.56610000  1.0 -0.0720049335
C  C520  1  0.27183000  0.33477000  0.57992000  1.0 -0.0593133491
C  C521  1  0.27786000  0.30790000  0.60542000  1.0 -0.0024815264
C  C522  1  0.24323000  0.28407000  0.61711000  1.0 -0.1388207551
C  C523  1  0.20258000  0.28702000  0.60328000  1.0 0.2095162779
C  C524  1  0.19656000  0.31385000  0.57778000  1.0 -0.1188905326
C  C525  1  0.15989000  0.22054000  0.61737000  1.0 0.4224604123
C  C526  1  0.12092000  0.20904000  0.63291000  1.0 -0.1680794799
C  C527  1  0.09701000  0.24770000  0.63847000  1.0 -0.1680794799
C  C528  1  0.12120000  0.28309000  0.62635000  1.0 0.4143059779
C  C529  1  0.11930000  0.18520000  0.66430000  1.0 0.0195231596
C  C530  1  0.13910000  0.21710000  0.68770000  1.0 -0.090490311
C  C531  1  0.12420000  0.25470000  0.69360000  1.0 -0.0960378175
C  C532  1  0.08150000  0.26410000  0.67460000  1.0 -0.0207159708
C  C533  1  0.03830000  0.22270000  0.71197000  1.0 0.4338149246
C  C534  1  0.04976000  0.21870000  0.68028000  1.0 -0.1789165415
C  C535  1  0.06771000  0.17670000  0.67575000  1.0 -0.1904126183
C  C536  1  0.06730000  0.15480000  0.70464000  1.0 0.443210144
C  C537  1  0.08020000  0.15170000  0.80803000  1.0 -0.0024815264
C  C538  1  0.04030000  0.15528000  0.82291000  1.0 -0.0720049335
C  C539  1  0.00400000  0.16950000  0.80664000  1.0 -0.0394218383
C  C540  1  0.00760000  0.18000000  0.77548000  1.0 -0.1188905326
C  C541  1  0.04750000  0.17640000  0.76059000  1.0 0.2095162779
C  C542  1  0.08380000  0.16220000  0.77687000  1.0 -0.1313891505
C  C543  1  0.22030000  0.36470000  0.54220000  1.0 0.5297192376
C  C544  1  0.32100000  0.30580000  0.62120000  1.0 0.5898232352
C  C545  1  0.96380000  0.17590000  0.82190000  1.0 0.5530018251
C  C546  1  0.12100000  0.13830000  0.82340000  1.0 0.5811827472
C  C547  1  0.50160000  0.81530000  0.57308000  1.0 0.0195231596
C  C548  1  0.52690000  0.78170000  0.58467000  1.0 -0.0816546167
C  C549  1  0.55000000  0.78730000  0.61199000  1.0 -0.029556952
C  C550  1  0.54780000  0.82660000  0.62773000  1.0 -0.1388207551
C  C551  1  0.52250000  0.86030000  0.61610000  1.0 0.192022121
C  C552  1  0.49940000  0.85460000  0.58880000  1.0 -0.1388207551
C  C553  1  0.47940000  0.91360000  0.64130000  1.0 0.4682387714
C  C554  1  0.48190000  0.95810000  0.66020000  1.0 -0.1626579472
C  C555  1  0.53220000  0.96440000  0.65800000  1.0 -0.1313891505
C  C556  1  0.55650000  0.92530000  0.63970000  1.0 0.4523837272
C  C557  1  0.54770000  0.00490000  0.63960000  1.0 -0.0207159708
C  C558  1  0.52360000  0.00330000  0.60590000  1.0 -0.2078436752
C  C559  1  0.47410000  0.80720000  0.54310000  1.0 0.5811827472
C  C560  1  0.57420000  0.75080000  0.62450000  1.0 0.5811827472
C  C561  1  0.76882000  0.66227000  0.56610000  1.0 -0.0720049335
C  C562  1  0.72817000  0.66523000  0.57992000  1.0 -0.0593133491
C  C563  1  0.72214000  0.69210000  0.60542000  1.0 -0.0024815264
C  C564  1  0.75677000  0.71593000  0.61711000  1.0 -0.1388207551
C  C565  1  0.79742000  0.71298000  0.60328000  1.0 0.2095162779
C  C566  1  0.80344000  0.68615000  0.57778000  1.0 -0.1188905326
C  C567  1  0.84011000  0.77946000  0.61737000  1.0 0.4224604123
C  C568  1  0.87908000  0.79096000  0.63291000  1.0 -0.1680794799
C  C569  1  0.90299000  0.75230000  0.63847000  1.0 -0.1680794799
C  C570  1  0.87880000  0.71691000  0.62635000  1.0 0.4143059779
C  C571  1  0.88070000  0.81480000  0.66430000  1.0 0.0195231596
C  C572  1  0.86090000  0.78290000  0.68770000  1.0 -0.090490311
C  C573  1  0.87580000  0.74530000  0.69360000  1.0 -0.0960378175
C  C574  1  0.91850000  0.73590000  0.67460000  1.0 -0.0207159708
C  C575  1  0.96170000  0.77730000  0.71197000  1.0 0.4338149246
C  C576  1  0.95024000  0.78130000  0.68028000  1.0 -0.1789165415
C  C577  1  0.93229000  0.82330000  0.67575000  1.0 -0.1904126183
C  C578  1  0.93270000  0.84520000  0.70464000  1.0 0.443210144
C  C579  1  0.91980000  0.84830000  0.80803000  1.0 -0.0024815264
C  C580  1  0.95970000  0.84472000  0.82291000  1.0 -0.0720049335
C  C581  1  0.99600000  0.83050000  0.80664000  1.0 -0.0394218383
C  C582  1  0.99240000  0.82000000  0.77548000  1.0 -0.1188905326
C  C583  1  0.95250000  0.82360000  0.76059000  1.0 0.2095162779
C  C584  1  0.91620000  0.83780000  0.77687000  1.0 -0.1313891505
C  C585  1  0.77970000  0.63530000  0.54220000  1.0 0.5297192376
C  C586  1  0.67900000  0.69420000  0.62120000  1.0 0.5898232352
C  C587  1  0.03620000  0.82410000  0.82190000  1.0 0.5530018251
C  C588  1  0.87900000  0.86170000  0.82340000  1.0 0.5811827472
C  C589  1  0.18470000  0.50160000  0.57308000  1.0 0.0195231596
C  C590  1  0.21830000  0.52690000  0.58467000  1.0 -0.0816546167
C  C591  1  0.21270000  0.55000000  0.61199000  1.0 -0.029556952
C  C592  1  0.17340000  0.54780000  0.62773000  1.0 -0.1388207551
C  C593  1  0.13970000  0.52250000  0.61610000  1.0 0.192022121
C  C594  1  0.14540000  0.49940000  0.58880000  1.0 -0.1388207551
C  C595  1  0.08640000  0.47940000  0.64130000  1.0 0.4682387714
C  C596  1  0.04190000  0.48190000  0.66020000  1.0 -0.1626579472
C  C597  1  0.03560000  0.53220000  0.65800000  1.0 -0.1313891505
C  C598  1  0.07470000  0.55650000  0.63970000  1.0 0.4523837272
C  C599  1  0.99510000  0.54770000  0.63960000  1.0 -0.0207159708
C  C600  1  0.99670000  0.52360000  0.60590000  1.0 -0.2078436752
C  C601  1  0.19280000  0.47410000  0.54310000  1.0 0.5811827472
C  C602  1  0.24920000  0.57420000  0.62450000  1.0 0.5811827472
C  C603  1  0.33773000  0.76882000  0.56610000  1.0 -0.0720049335
C  C604  1  0.33477000  0.72817000  0.57992000  1.0 -0.0593133491
C  C605  1  0.30790000  0.72214000  0.60542000  1.0 0.0001542754
C  C606  1  0.28407000  0.75677000  0.61711000  1.0 -0.1388207551
C  C607  1  0.28702000  0.79742000  0.60328000  1.0 0.2095162779
C  C608  1  0.31385000  0.80344000  0.57778000  1.0 -0.1188905326
C  C609  1  0.22054000  0.84011000  0.61737000  1.0 0.4224604123
C  C610  1  0.20904000  0.87908000  0.63291000  1.0 -0.1680794799
C  C611  1  0.24770000  0.90299000  0.63847000  1.0 -0.1680794799
C  C612  1  0.28309000  0.87880000  0.62635000  1.0 0.4143059779
C  C613  1  0.18520000  0.88070000  0.66430000  1.0 0.0195231596
C  C614  1  0.21710000  0.86090000  0.68770000  1.0 -0.090490311
C  C615  1  0.25470000  0.87580000  0.69360000  1.0 -0.0960378175
C  C616  1  0.26410000  0.91850000  0.67460000  1.0 -0.0207159708
C  C617  1  0.22270000  0.96170000  0.71197000  1.0 0.4338149246
C  C618  1  0.21870000  0.95024000  0.68028000  1.0 -0.1789165415
C  C619  1  0.17670000  0.93229000  0.67575000  1.0 -0.1904126183
C  C620  1  0.15480000  0.93270000  0.70464000  1.0 0.443210144
C  C621  1  0.15170000  0.91980000  0.80803000  1.0 -0.0024815264
C  C622  1  0.15528000  0.95970000  0.82291000  1.0 -0.0720049335
C  C623  1  0.16950000  0.99600000  0.80664000  1.0 -0.0394218383
C  C624  1  0.18000000  0.99240000  0.77548000  1.0 -0.1188905326
C  C625  1  0.17640000  0.95250000  0.76059000  1.0 0.2095162779
C  C626  1  0.16220000  0.91620000  0.77687000  1.0 -0.1313891505
C  C627  1  0.36470000  0.77970000  0.54220000  1.0 0.5297192376
C  C628  1  0.30580000  0.67900000  0.62120000  1.0 0.5898232352
C  C629  1  0.17590000  0.03620000  0.82190000  1.0 0.5530018251
C  C630  1  0.13830000  0.87900000  0.82340000  1.0 0.5811827472
C  C631  1  0.81530000  0.49840000  0.57308000  1.0 0.0195231596
C  C632  1  0.78170000  0.47310000  0.58467000  1.0 -0.0816546167
C  C633  1  0.78730000  0.45000000  0.61199000  1.0 -0.029556952
C  C634  1  0.82660000  0.45220000  0.62773000  1.0 -0.1388207551
C  C635  1  0.86030000  0.47750000  0.61610000  1.0 0.192022121
C  C636  1  0.85460000  0.50060000  0.58880000  1.0 -0.1388207551
C  C637  1  0.91360000  0.52060000  0.64130000  1.0 0.4682387714
C  C638  1  0.95810000  0.51810000  0.66020000  1.0 -0.1626579472
C  C639  1  0.96440000  0.46780000  0.65800000  1.0 -0.1313891505
C  C640  1  0.92530000  0.44350000  0.63970000  1.0 0.4523837272
C  C641  1  0.00490000  0.45230000  0.63960000  1.0 -0.0207159708
C  C642  1  0.00330000  0.47640000  0.60590000  1.0 -0.2078436752
C  C643  1  0.80720000  0.52590000  0.54310000  1.0 0.5811827472
C  C644  1  0.75080000  0.42580000  0.62450000  1.0 0.5811827472
C  C645  1  0.66227000  0.23118000  0.56610000  1.0 -0.0720049335
C  C646  1  0.66523000  0.27183000  0.57992000  1.0 -0.0593133491
C  C647  1  0.69210000  0.27786000  0.60542000  1.0 -0.0024815264
C  C648  1  0.71593000  0.24323000  0.61711000  1.0 -0.1388207551
C  C649  1  0.71298000  0.20258000  0.60328000  1.0 0.2095162779
C  C650  1  0.68615000  0.19656000  0.57778000  1.0 -0.1188905326
C  C651  1  0.77946000  0.15989000  0.61737000  1.0 0.4224604123
C  C652  1  0.79096000  0.12092000  0.63291000  1.0 -0.1680794799
C  C653  1  0.75230000  0.09701000  0.63847000  1.0 -0.1680794799
C  C654  1  0.71691000  0.12120000  0.62635000  1.0 0.4143059779
C  C655  1  0.81480000  0.11930000  0.66430000  1.0 0.0195231596
C  C656  1  0.78290000  0.13910000  0.68770000  1.0 -0.090490311
C  C657  1  0.74530000  0.12420000  0.69360000  1.0 -0.0960378175
C  C658  1  0.73590000  0.08150000  0.67460000  1.0 -0.0207159708
C  C659  1  0.77730000  0.03830000  0.71197000  1.0 0.4338149246
C  C660  1  0.78130000  0.04976000  0.68028000  1.0 -0.1789165415
C  C661  1  0.82330000  0.06771000  0.67575000  1.0 -0.1904126183
C  C662  1  0.84520000  0.06730000  0.70464000  1.0 0.443210144
C  C663  1  0.84830000  0.08020000  0.80803000  1.0 -0.0024815264
C  C664  1  0.84472000  0.04030000  0.82291000  1.0 -0.0720049335
C  C665  1  0.83050000  0.00400000  0.80664000  1.0 -0.0394218383
C  C666  1  0.82000000  0.00760000  0.77548000  1.0 -0.1188905326
C  C667  1  0.82360000  0.04750000  0.76059000  1.0 0.2095162779
C  C668  1  0.83780000  0.08380000  0.77687000  1.0 -0.1313891505
C  C669  1  0.63530000  0.22030000  0.54220000  1.0 0.5297192376
C  C670  1  0.69420000  0.32100000  0.62120000  1.0 0.5898232352
C  C671  1  0.82410000  0.96380000  0.82190000  1.0 0.5530018251
C  C672  1  0.86170000  0.12100000  0.82340000  1.0 0.5811827472
N  N1  1  0.98140000  0.40010000  0.13170000  1.0 -0.2171809362
N  N2  1  0.66006000  0.23370000  0.11331000  1.0 -0.1904126183
N  N3  1  0.54916000  0.31680000  0.22703000  1.0 -0.2078436752
N  N4  1  0.01860000  0.59990000  0.13170000  1.0 -0.2171809362
N  N5  1  0.33994000  0.76630000  0.11331000  1.0 -0.1904126183
N  N6  1  0.45084000  0.68320000  0.22703000  1.0 -0.2078436752
N  N7  1  0.59990000  0.98140000  0.13170000  1.0 -0.2171809362
N  N8  1  0.76630000  0.66006000  0.11331000  1.0 -0.1904126183
N  N9  1  0.68320000  0.54916000  0.22703000  1.0 -0.2078436752
N  N10  1  0.40010000  0.01860000  0.13170000  1.0 -0.2171809362
N  N11  1  0.23370000  0.33994000  0.11331000  1.0 -0.1904126183
N  N12  1  0.31680000  0.45084000  0.22703000  1.0 -0.2078436752
N  N13  1  0.51860000  0.90010000  0.36830000  1.0 -0.2171809362
N  N14  1  0.83994000  0.73370000  0.38669000  1.0 -0.1904126183
N  N15  1  0.95084000  0.81680000  0.27297000  1.0 -0.2078436752
N  N16  1  0.48140000  0.09990000  0.36830000  1.0 -0.2171809362
N  N17  1  0.16006000  0.26630000  0.38669000  1.0 -0.1904126183
N  N18  1  0.04916000  0.18320000  0.27297000  1.0 -0.2078436752
N  N19  1  0.90010000  0.48140000  0.36830000  1.0 -0.2171809362
N  N20  1  0.73370000  0.16006000  0.38669000  1.0 -0.1904126183
N  N21  1  0.81680000  0.04916000  0.27297000  1.0 -0.2078436752
N  N22  1  0.09990000  0.51860000  0.36830000  1.0 -0.2171809362
N  N23  1  0.26630000  0.83994000  0.38669000  1.0 -0.1904126183
N  N24  1  0.18320000  0.95084000  0.27297000  1.0 -0.2078436752
N  N25  1  0.01860000  0.59990000  0.86830000  1.0 -0.2171809362
N  N26  1  0.33994000  0.76630000  0.88669000  1.0 -0.1904126183
N  N27  1  0.45084000  0.68320000  0.77297000  1.0 -0.2078436752
N  N28  1  0.98140000  0.40010000  0.86830000  1.0 -0.2171809362
N  N29  1  0.66006000  0.23370000  0.88669000  1.0 -0.1904126183
N  N30  1  0.54916000  0.31680000  0.77297000  1.0 -0.2078436752
N  N31  1  0.40010000  0.01860000  0.86830000  1.0 -0.2171809362
N  N32  1  0.23370000  0.33994000  0.88669000  1.0 -0.1904126183
N  N33  1  0.31680000  0.45084000  0.77297000  1.0 -0.2078436752
N  N34  1  0.59990000  0.98140000  0.86830000  1.0 -0.2171809362
N  N35  1  0.76630000  0.66006000  0.88669000  1.0 -0.1904126183
N  N36  1  0.68320000  0.54916000  0.77297000  1.0 -0.2078436752
N  N37  1  0.48140000  0.09990000  0.63170000  1.0 -0.2171809362
N  N38  1  0.16006000  0.26630000  0.61331000  1.0 -0.1904126183
N  N39  1  0.04916000  0.18320000  0.72703000  1.0 -0.2078436752
N  N40  1  0.51860000  0.90010000  0.63170000  1.0 -0.2171809362
N  N41  1  0.83994000  0.73370000  0.61331000  1.0 -0.1904126183
N  N42  1  0.95084000  0.81680000  0.72703000  1.0 -0.2078436752
N  N43  1  0.09990000  0.51860000  0.63170000  1.0 -0.2171809362
N  N44  1  0.26630000  0.83994000  0.61331000  1.0 -0.1904126183
N  N45  1  0.18320000  0.95084000  0.72703000  1.0 -0.2078436752
N  N46  1  0.90010000  0.48140000  0.63170000  1.0 -0.2171809362
N  N47  1  0.73370000  0.16006000  0.61331000  1.0 -0.1904126183
N  N48  1  0.81680000  0.04916000  0.72703000  1.0 -0.2078436752
O  O1  1  0.04550000  0.34140000  0.03211000  1.0 -0.5380728784
O  O2  1  0.02690000  0.26800000  0.03269000  1.0 -0.5327509488
O  O3  1  0.90570000  0.25858000  0.14948000  1.0 -0.5009404119
O  O4  1  0.92713000  0.21548000  0.10845000  1.0 -0.5144687552
O  O5  1  0.05630000  0.39510000  0.13700000  1.0 -0.4264089275
O  O6  1  0.91040000  0.41700000  0.13300000  1.0 -0.2670193075
O  O7  1  0.75250000  0.11450000  0.03374000  1.0 -0.4456818584
O  O8  1  0.68110000  0.13410000  0.03168000  1.0 -0.5009404119
O  O9  1  0.82480000  0.21750000  0.14732000  1.0 -0.5529028732
O  O10  1  0.84950000  0.16980000  0.10974000  1.0 -0.4902598121
O  O11  1  0.69300000  0.30500000  0.11750000  1.0 -0.4843884069
O  O12  1  0.62520000  0.17330000  0.12890000  1.0 -0.5190810212
O  O13  1  0.52260000  0.24350000  0.22780000  1.0 -0.5190810212
O  O14  1  0.58420000  0.37810000  0.21340000  1.0 -0.4105001349
O  O15  1  0.45880000  0.34180000  0.34951000  1.0 -0.5327509488
O  O16  1  0.43300000  0.30300000  0.30844000  1.0 -0.5190810212
O  O17  1  0.61311000  0.38200000  0.34983000  1.0 -0.5327509488
O  O18  1  0.65590000  0.35570000  0.31186000  1.0 -0.4456818584
O  O19  1  0.95450000  0.65860000  0.03211000  1.0 -0.5380728784
O  O20  1  0.97310000  0.73200000  0.03269000  1.0 -0.5327509488
O  O21  1  0.09430000  0.74142000  0.14948000  1.0 -0.5009404119
O  O22  1  0.07287000  0.78452000  0.10845000  1.0 -0.5144687552
O  O23  1  0.94370000  0.60490000  0.13700000  1.0 -0.4264089275
O  O24  1  0.08960000  0.58300000  0.13300000  1.0 -0.2670193075
O  O25  1  0.24750000  0.88550000  0.03374000  1.0 -0.4456818584
O  O26  1  0.31890000  0.86590000  0.03168000  1.0 -0.5009404119
O  O27  1  0.17520000  0.78250000  0.14732000  1.0 -0.5529028732
O  O28  1  0.15050000  0.83020000  0.10974000  1.0 -0.4902598121
O  O29  1  0.30700000  0.69500000  0.11750000  1.0 -0.4843884069
O  O30  1  0.37480000  0.82670000  0.12890000  1.0 -0.5190810212
O  O31  1  0.47740000  0.75650000  0.22780000  1.0 -0.5190810212
O  O32  1  0.41580000  0.62190000  0.21340000  1.0 -0.4105001349
O  O33  1  0.54120000  0.65820000  0.34951000  1.0 -0.5327509488
O  O34  1  0.56700000  0.69700000  0.30844000  1.0 -0.5190810212
O  O35  1  0.38689000  0.61800000  0.34983000  1.0 -0.5327509488
O  O36  1  0.34410000  0.64430000  0.31186000  1.0 -0.4456818584
O  O37  1  0.65860000  0.04550000  0.03211000  1.0 -0.5380728784
O  O38  1  0.73200000  0.02690000  0.03269000  1.0 -0.5327509488
O  O39  1  0.74142000  0.90570000  0.14948000  1.0 -0.5009404119
O  O40  1  0.78452000  0.92713000  0.10845000  1.0 -0.5144687552
O  O41  1  0.60490000  0.05630000  0.13700000  1.0 -0.4264089275
O  O42  1  0.58300000  0.91040000  0.13300000  1.0 -0.2670193075
O  O43  1  0.88550000  0.75250000  0.03374000  1.0 -0.4456818584
O  O44  1  0.86590000  0.68110000  0.03168000  1.0 -0.5009404119
O  O45  1  0.78250000  0.82480000  0.14732000  1.0 -0.5529028732
O  O46  1  0.83020000  0.84950000  0.10974000  1.0 -0.4902598121
O  O47  1  0.69500000  0.69300000  0.11750000  1.0 -0.4843884069
O  O48  1  0.82670000  0.62520000  0.12890000  1.0 -0.5190810212
O  O49  1  0.75650000  0.52260000  0.22780000  1.0 -0.5190810212
O  O50  1  0.62190000  0.58420000  0.21340000  1.0 -0.4105001349
O  O51  1  0.65820000  0.45880000  0.34951000  1.0 -0.5327509488
O  O52  1  0.69700000  0.43300000  0.30844000  1.0 -0.5190810212
O  O53  1  0.61800000  0.61311000  0.34983000  1.0 -0.5327509488
O  O54  1  0.64430000  0.65590000  0.31186000  1.0 -0.4456818584
O  O55  1  0.34140000  0.95450000  0.03211000  1.0 -0.5380728784
O  O56  1  0.26800000  0.97310000  0.03269000  1.0 -0.5327509488
O  O57  1  0.25858000  0.09430000  0.14948000  1.0 -0.5009404119
O  O58  1  0.21548000  0.07287000  0.10845000  1.0 -0.5144687552
O  O59  1  0.39510000  0.94370000  0.13700000  1.0 -0.4264089275
O  O60  1  0.41700000  0.08960000  0.13300000  1.0 -0.2670193075
O  O61  1  0.11450000  0.24750000  0.03374000  1.0 -0.4456818584
O  O62  1  0.13410000  0.31890000  0.03168000  1.0 -0.5009404119
O  O63  1  0.21750000  0.17520000  0.14732000  1.0 -0.5529028732
O  O64  1  0.16980000  0.15050000  0.10974000  1.0 -0.4902598121
O  O65  1  0.30500000  0.30700000  0.11750000  1.0 -0.4843884069
O  O66  1  0.17330000  0.37480000  0.12890000  1.0 -0.5190810212
O  O67  1  0.24350000  0.47740000  0.22780000  1.0 -0.5190810212
O  O68  1  0.37810000  0.41580000  0.21340000  1.0 -0.4105001349
O  O69  1  0.34180000  0.54120000  0.34951000  1.0 -0.5327509488
O  O70  1  0.30300000  0.56700000  0.30844000  1.0 -0.5190810212
O  O71  1  0.38200000  0.38689000  0.34983000  1.0 -0.5327509488
O  O72  1  0.35570000  0.34410000  0.31186000  1.0 -0.4456818584
O  O73  1  0.45450000  0.84140000  0.46789000  1.0 -0.5380728784
O  O74  1  0.47310000  0.76800000  0.46731000  1.0 -0.5327509488
O  O75  1  0.59430000  0.75858000  0.35052000  1.0 -0.5009404119
O  O76  1  0.57287000  0.71548000  0.39155000  1.0 -0.5144687552
O  O77  1  0.44370000  0.89510000  0.36300000  1.0 -0.4264089275
O  O78  1  0.58960000  0.91700000  0.36700000  1.0 -0.2670193075
O  O79  1  0.74750000  0.61450000  0.46626000  1.0 -0.4456818584
O  O80  1  0.81890000  0.63410000  0.46832000  1.0 -0.5009404119
O  O81  1  0.67520000  0.71750000  0.35268000  1.0 -0.5529028732
O  O82  1  0.65050000  0.66980000  0.39026000  1.0 -0.4902598121
O  O83  1  0.80700000  0.80500000  0.38250000  1.0 -0.4902598121
O  O84  1  0.87480000  0.67330000  0.37110000  1.0 -0.5190810212
O  O85  1  0.97740000  0.74350000  0.27220000  1.0 -0.5190810212
O  O86  1  0.91580000  0.87810000  0.28660000  1.0 -0.4105001349
O  O87  1  0.04120000  0.84180000  0.15049000  1.0 -0.5327509488
O  O88  1  0.06700000  0.80300000  0.19156000  1.0 -0.5190810212
O  O89  1  0.88689000  0.88200000  0.15017000  1.0 -0.5380728784
O  O90  1  0.84410000  0.85570000  0.18814000  1.0 -0.4420537162
O  O91  1  0.54550000  0.15860000  0.46789000  1.0 -0.5380728784
O  O92  1  0.52690000  0.23200000  0.46731000  1.0 -0.5327509488
O  O93  1  0.40570000  0.24142000  0.35052000  1.0 -0.5009404119
O  O94  1  0.42713000  0.28452000  0.39155000  1.0 -0.5144687552
O  O95  1  0.55630000  0.10490000  0.36300000  1.0 -0.4264089275
O  O96  1  0.41040000  0.08300000  0.36700000  1.0 -0.2670193075
O  O97  1  0.25250000  0.38550000  0.46626000  1.0 -0.4456818584
O  O98  1  0.18110000  0.36590000  0.46832000  1.0 -0.5009404119
O  O99  1  0.32480000  0.28250000  0.35268000  1.0 -0.5529028732
O  O100  1  0.34950000  0.33020000  0.39026000  1.0 -0.4902598121
O  O101  1  0.19300000  0.19500000  0.38250000  1.0 -0.4902598121
O  O102  1  0.12520000  0.32670000  0.37110000  1.0 -0.5190810212
O  O103  1  0.02260000  0.25650000  0.27220000  1.0 -0.5190810212
O  O104  1  0.08420000  0.12190000  0.28660000  1.0 -0.4105001349
O  O105  1  0.95880000  0.15820000  0.15049000  1.0 -0.5327509488
O  O106  1  0.93300000  0.19700000  0.19156000  1.0 -0.5190810212
O  O107  1  0.11311000  0.11800000  0.15017000  1.0 -0.5380728784
O  O108  1  0.15590000  0.14430000  0.18814000  1.0 -0.4420537162
O  O109  1  0.84140000  0.54550000  0.46789000  1.0 -0.5380728784
O  O110  1  0.76800000  0.52690000  0.46731000  1.0 -0.5327509488
O  O111  1  0.75858000  0.40570000  0.35052000  1.0 -0.5009404119
O  O112  1  0.71548000  0.42713000  0.39155000  1.0 -0.5144687552
O  O113  1  0.89510000  0.55630000  0.36300000  1.0 -0.4264089275
O  O114  1  0.91700000  0.41040000  0.36700000  1.0 -0.2670193075
O  O115  1  0.61450000  0.25250000  0.46626000  1.0 -0.4456818584
O  O116  1  0.63410000  0.18110000  0.46832000  1.0 -0.5009404119
O  O117  1  0.71750000  0.32480000  0.35268000  1.0 -0.5529028732
O  O118  1  0.66980000  0.34950000  0.39026000  1.0 -0.4902598121
O  O119  1  0.80500000  0.19300000  0.38250000  1.0 -0.4902598121
O  O120  1  0.67330000  0.12520000  0.37110000  1.0 -0.5190810212
O  O121  1  0.74350000  0.02260000  0.27220000  1.0 -0.5190810212
O  O122  1  0.87810000  0.08420000  0.28660000  1.0 -0.4105001349
O  O123  1  0.84180000  0.95880000  0.15049000  1.0 -0.5327509488
O  O124  1  0.80300000  0.93300000  0.19156000  1.0 -0.5190810212
O  O125  1  0.88200000  0.11311000  0.15017000  1.0 -0.5380728784
O  O126  1  0.85570000  0.15590000  0.18814000  1.0 -0.4420537162
O  O127  1  0.15860000  0.45450000  0.46789000  1.0 -0.5380728784
O  O128  1  0.23200000  0.47310000  0.46731000  1.0 -0.5327509488
O  O129  1  0.24142000  0.59430000  0.35052000  1.0 -0.5009404119
O  O130  1  0.28452000  0.57287000  0.39155000  1.0 -0.5144687552
O  O131  1  0.10490000  0.44370000  0.36300000  1.0 -0.4264089275
O  O132  1  0.08300000  0.58960000  0.36700000  1.0 -0.2670193075
O  O133  1  0.38550000  0.74750000  0.46626000  1.0 -0.4456818584
O  O134  1  0.36590000  0.81890000  0.46832000  1.0 -0.5009404119
O  O135  1  0.28250000  0.67520000  0.35268000  1.0 -0.5529028732
O  O136  1  0.33020000  0.65050000  0.39026000  1.0 -0.4902598121
O  O137  1  0.19500000  0.80700000  0.38250000  1.0 -0.4902598121
O  O138  1  0.32670000  0.87480000  0.37110000  1.0 -0.5190810212
O  O139  1  0.25650000  0.97740000  0.27220000  1.0 -0.5190810212
O  O140  1  0.12190000  0.91580000  0.28660000  1.0 -0.4105001349
O  O141  1  0.15820000  0.04120000  0.15049000  1.0 -0.5327509488
O  O142  1  0.19700000  0.06700000  0.19156000  1.0 -0.5190810212
O  O143  1  0.11800000  0.88689000  0.15017000  1.0 -0.5327509488
O  O144  1  0.14430000  0.84410000  0.18814000  1.0 -0.4420537162
O  O145  1  0.95450000  0.65860000  0.96789000  1.0 -0.5380728784
O  O146  1  0.97310000  0.73200000  0.96731000  1.0 -0.5327509488
O  O147  1  0.09430000  0.74142000  0.85052000  1.0 -0.5009404119
O  O148  1  0.07287000  0.78452000  0.89155000  1.0 -0.5190810212
O  O149  1  0.94370000  0.60490000  0.86300000  1.0 -0.4244357604
O  O150  1  0.08960000  0.58300000  0.86700000  1.0 -0.2578345645
O  O151  1  0.24750000  0.88550000  0.96626000  1.0 -0.4456818584
O  O152  1  0.31890000  0.86590000  0.96832000  1.0 -0.5009404119
O  O153  1  0.17520000  0.78250000  0.85268000  1.0 -0.5529028732
O  O154  1  0.15050000  0.83020000  0.89026000  1.0 -0.4902598121
O  O155  1  0.30700000  0.69500000  0.88250000  1.0 -0.4902598121
O  O156  1  0.37480000  0.82670000  0.87110000  1.0 -0.5190810212
O  O157  1  0.47740000  0.75650000  0.77220000  1.0 -0.5190810212
O  O158  1  0.41580000  0.62190000  0.78660000  1.0 -0.4105001349
O  O159  1  0.54120000  0.65820000  0.65049000  1.0 -0.5327509488
O  O160  1  0.56700000  0.69700000  0.69156000  1.0 -0.5190810212
O  O161  1  0.38689000  0.61800000  0.65017000  1.0 -0.5327509488
O  O162  1  0.34410000  0.64430000  0.68814000  1.0 -0.4456818584
O  O163  1  0.04550000  0.34140000  0.96789000  1.0 -0.5380728784
O  O164  1  0.02690000  0.26800000  0.96731000  1.0 -0.5327509488
O  O165  1  0.90570000  0.25858000  0.85052000  1.0 -0.5009404119
O  O166  1  0.92713000  0.21548000  0.89155000  1.0 -0.5190810212
O  O167  1  0.05630000  0.39510000  0.86300000  1.0 -0.4244357604
O  O168  1  0.91040000  0.41700000  0.86700000  1.0 -0.2578345645
O  O169  1  0.75250000  0.11450000  0.96626000  1.0 -0.4456818584
O  O170  1  0.68110000  0.13410000  0.96832000  1.0 -0.5009404119
O  O171  1  0.82480000  0.21750000  0.85268000  1.0 -0.5529028732
O  O172  1  0.84950000  0.16980000  0.89026000  1.0 -0.4902598121
O  O173  1  0.69300000  0.30500000  0.88250000  1.0 -0.4902598121
O  O174  1  0.62520000  0.17330000  0.87110000  1.0 -0.5190810212
O  O175  1  0.52260000  0.24350000  0.77220000  1.0 -0.5190810212
O  O176  1  0.58420000  0.37810000  0.78660000  1.0 -0.4105001349
O  O177  1  0.45880000  0.34180000  0.65049000  1.0 -0.5327509488
O  O178  1  0.43300000  0.30300000  0.69156000  1.0 -0.5190810212
O  O179  1  0.61311000  0.38200000  0.65017000  1.0 -0.5327509488
O  O180  1  0.65590000  0.35570000  0.68814000  1.0 -0.4456818584
O  O181  1  0.34140000  0.95450000  0.96789000  1.0 -0.5380728784
O  O182  1  0.26800000  0.97310000  0.96731000  1.0 -0.5327509488
O  O183  1  0.25858000  0.09430000  0.85052000  1.0 -0.5009404119
O  O184  1  0.21548000  0.07287000  0.89155000  1.0 -0.5190810212
O  O185  1  0.39510000  0.94370000  0.86300000  1.0 -0.4244357604
O  O186  1  0.41700000  0.08960000  0.86700000  1.0 -0.2578345645
O  O187  1  0.11450000  0.24750000  0.96626000  1.0 -0.4456818584
O  O188  1  0.13410000  0.31890000  0.96832000  1.0 -0.5009404119
O  O189  1  0.21750000  0.17520000  0.85268000  1.0 -0.5529028732
O  O190  1  0.16980000  0.15050000  0.89026000  1.0 -0.4902598121
O  O191  1  0.30500000  0.30700000  0.88250000  1.0 -0.4902598121
O  O192  1  0.17330000  0.37480000  0.87110000  1.0 -0.5190810212
O  O193  1  0.24350000  0.47740000  0.77220000  1.0 -0.5190810212
O  O194  1  0.37810000  0.41580000  0.78660000  1.0 -0.4105001349
O  O195  1  0.34180000  0.54120000  0.65049000  1.0 -0.5327509488
O  O196  1  0.30300000  0.56700000  0.69156000  1.0 -0.5190810212
O  O197  1  0.38200000  0.38689000  0.65017000  1.0 -0.5327509488
O  O198  1  0.35570000  0.34410000  0.68814000  1.0 -0.4456818584
O  O199  1  0.65860000  0.04550000  0.96789000  1.0 -0.5380728784
O  O200  1  0.73200000  0.02690000  0.96731000  1.0 -0.5327509488
O  O201  1  0.74142000  0.90570000  0.85052000  1.0 -0.5009404119
O  O202  1  0.78452000  0.92713000  0.89155000  1.0 -0.5190810212
O  O203  1  0.60490000  0.05630000  0.86300000  1.0 -0.4244357604
O  O204  1  0.58300000  0.91040000  0.86700000  1.0 -0.2578345645
O  O205  1  0.88550000  0.75250000  0.96626000  1.0 -0.4456818584
O  O206  1  0.86590000  0.68110000  0.96832000  1.0 -0.5009404119
O  O207  1  0.78250000  0.82480000  0.85268000  1.0 -0.5529028732
O  O208  1  0.83020000  0.84950000  0.89026000  1.0 -0.4902598121
O  O209  1  0.69500000  0.69300000  0.88250000  1.0 -0.4902598121
O  O210  1  0.82670000  0.62520000  0.87110000  1.0 -0.5190810212
O  O211  1  0.75650000  0.52260000  0.77220000  1.0 -0.5190810212
O  O212  1  0.62190000  0.58420000  0.78660000  1.0 -0.4105001349
O  O213  1  0.65820000  0.45880000  0.65049000  1.0 -0.5327509488
O  O214  1  0.69700000  0.43300000  0.69156000  1.0 -0.5190810212
O  O215  1  0.61800000  0.61311000  0.65017000  1.0 -0.5327509488
O  O216  1  0.64430000  0.65590000  0.68814000  1.0 -0.4456818584
O  O217  1  0.54550000  0.15860000  0.53211000  1.0 -0.5380728784
O  O218  1  0.52690000  0.23200000  0.53269000  1.0 -0.5327509488
O  O219  1  0.40570000  0.24142000  0.64948000  1.0 -0.5009404119
O  O220  1  0.42713000  0.28452000  0.60845000  1.0 -0.5190810212
O  O221  1  0.55630000  0.10490000  0.63700000  1.0 -0.4244357604
O  O222  1  0.41040000  0.08300000  0.63300000  1.0 -0.2670193075
O  O223  1  0.25250000  0.38550000  0.53374000  1.0 -0.4456818584
O  O224  1  0.18110000  0.36590000  0.53168000  1.0 -0.5009404119
O  O225  1  0.32480000  0.28250000  0.64732000  1.0 -0.5529028732
O  O226  1  0.34950000  0.33020000  0.60974000  1.0 -0.4902598121
O  O227  1  0.19300000  0.19500000  0.61750000  1.0 -0.4843884069
O  O228  1  0.12520000  0.32670000  0.62890000  1.0 -0.5190810212
O  O229  1  0.02260000  0.25650000  0.72780000  1.0 -0.5190810212
O  O230  1  0.08420000  0.12190000  0.71340000  1.0 -0.4105001349
O  O231  1  0.95880000  0.15820000  0.84951000  1.0 -0.5327509488
O  O232  1  0.93300000  0.19700000  0.80844000  1.0 -0.5190810212
O  O233  1  0.11311000  0.11800000  0.84983000  1.0 -0.5327509488
O  O234  1  0.15590000  0.14430000  0.81186000  1.0 -0.4420537162
O  O235  1  0.45450000  0.84140000  0.53211000  1.0 -0.5380728784
O  O236  1  0.47310000  0.76800000  0.53269000  1.0 -0.5327509488
O  O237  1  0.59430000  0.75858000  0.64948000  1.0 -0.5009404119
O  O238  1  0.57287000  0.71548000  0.60845000  1.0 -0.5190810212
O  O239  1  0.44370000  0.89510000  0.63700000  1.0 -0.4244357604
O  O240  1  0.58960000  0.91700000  0.63300000  1.0 -0.2670193075
O  O241  1  0.74750000  0.61450000  0.53374000  1.0 -0.4456818584
O  O242  1  0.81890000  0.63410000  0.53168000  1.0 -0.5009404119
O  O243  1  0.67520000  0.71750000  0.64732000  1.0 -0.5529028732
O  O244  1  0.65050000  0.66980000  0.60974000  1.0 -0.4902598121
O  O245  1  0.80700000  0.80500000  0.61750000  1.0 -0.4843884069
O  O246  1  0.87480000  0.67330000  0.62890000  1.0 -0.5190810212
O  O247  1  0.97740000  0.74350000  0.72780000  1.0 -0.5190810212
O  O248  1  0.91580000  0.87810000  0.71340000  1.0 -0.4105001349
O  O249  1  0.04120000  0.84180000  0.84951000  1.0 -0.5327509488
O  O250  1  0.06700000  0.80300000  0.80844000  1.0 -0.5190810212
O  O251  1  0.88689000  0.88200000  0.84983000  1.0 -0.5327509488
O  O252  1  0.84410000  0.85570000  0.81186000  1.0 -0.4420537162
O  O253  1  0.15860000  0.45450000  0.53211000  1.0 -0.5380728784
O  O254  1  0.23200000  0.47310000  0.53269000  1.0 -0.5327509488
O  O255  1  0.24142000  0.59430000  0.64948000  1.0 -0.5009404119
O  O256  1  0.28452000  0.57287000  0.60845000  1.0 -0.5190810212
O  O257  1  0.10490000  0.44370000  0.63700000  1.0 -0.4244357604
O  O258  1  0.08300000  0.58960000  0.63300000  1.0 -0.2670193075
O  O259  1  0.38550000  0.74750000  0.53374000  1.0 -0.4456818584
O  O260  1  0.36590000  0.81890000  0.53168000  1.0 -0.5009404119
O  O261  1  0.28250000  0.67520000  0.64732000  1.0 -0.5529028732
O  O262  1  0.33020000  0.65050000  0.60974000  1.0 -0.4902598121
O  O263  1  0.19500000  0.80700000  0.61750000  1.0 -0.4843884069
O  O264  1  0.32670000  0.87480000  0.62890000  1.0 -0.5190810212
O  O265  1  0.25650000  0.97740000  0.72780000  1.0 -0.5190810212
O  O266  1  0.12190000  0.91580000  0.71340000  1.0 -0.4105001349
O  O267  1  0.15820000  0.04120000  0.84951000  1.0 -0.5327509488
O  O268  1  0.19700000  0.06700000  0.80844000  1.0 -0.5190810212
O  O269  1  0.11800000  0.88689000  0.84983000  1.0 -0.5327509488
O  O270  1  0.14430000  0.84410000  0.81186000  1.0 -0.4420537162
O  O271  1  0.84140000  0.54550000  0.53211000  1.0 -0.5380728784
O  O272  1  0.76800000  0.52690000  0.53269000  1.0 -0.5327509488
O  O273  1  0.75858000  0.40570000  0.64948000  1.0 -0.5009404119
O  O274  1  0.71548000  0.42713000  0.60845000  1.0 -0.5190810212
O  O275  1  0.89510000  0.55630000  0.63700000  1.0 -0.4244357604
O  O276  1  0.91700000  0.41040000  0.63300000  1.0 -0.2670193075
O  O277  1  0.61450000  0.25250000  0.53374000  1.0 -0.4456818584
O  O278  1  0.63410000  0.18110000  0.53168000  1.0 -0.5009404119
O  O279  1  0.71750000  0.32480000  0.64732000  1.0 -0.5529028732
O  O280  1  0.66980000  0.34950000  0.60974000  1.0 -0.4902598121
O  O281  1  0.80500000  0.19300000  0.61750000  1.0 -0.4843884069
O  O282  1  0.67330000  0.12520000  0.62890000  1.0 -0.5190810212
O  O283  1  0.74350000  0.02260000  0.72780000  1.0 -0.5190810212
O  O284  1  0.87810000  0.08420000  0.71340000  1.0 -0.4105001349
O  O285  1  0.84180000  0.95880000  0.84951000  1.0 -0.5327509488
O  O286  1  0.80300000  0.93300000  0.80844000  1.0 -0.5190810212
O  O287  1  0.88200000  0.11311000  0.84983000  1.0 -0.5327509488
O  O288  1  0.85570000  0.15590000  0.81186000  1.0 -0.4420537162
O  O289  1  0.05770000  0.18280000  0.00000000  1.0 -0.8155132193
O  O290  1  0.10860000  0.40000000  0.00000000  1.0 -0.87103584
O  O291  1  0.94230000  0.81720000  0.00000000  1.0 -0.8155132193
O  O292  1  0.89140000  0.60000000  0.00000000  1.0 -0.87103584
O  O293  1  0.81720000  0.05770000  0.00000000  1.0 -0.8155132193
O  O294  1  0.60000000  0.10860000  0.00000000  1.0 -0.87103584
O  O295  1  0.18280000  0.94230000  0.00000000  1.0 -0.8155132193
O  O296  1  0.40000000  0.89140000  0.00000000  1.0 -0.87103584
O  O297  1  0.44230000  0.68280000  0.50000000  1.0 -0.8155132193
O  O298  1  0.39140000  0.90000000  0.50000000  1.0 -0.87103584
O  O299  1  0.55770000  0.31720000  0.50000000  1.0 -0.8155132193
O  O300  1  0.60860000  0.10000000  0.50000000  1.0 -0.87103584
O  O301  1  0.68280000  0.55770000  0.50000000  1.0 -0.8155132193
O  O302  1  0.90000000  0.60860000  0.50000000  1.0 -0.87103584
O  O303  1  0.31720000  0.44230000  0.50000000  1.0 -0.8155132193
O  O304  1  0.10000000  0.39140000  0.50000000  1.0 -0.87103584
