# DDEC6 charges by PACMAN v1.1 (https://github.com/mtap-research/PACMAN-charge/)
data_CUMSAH_ASR_pacman
_symmetry_space_group_name_H-M   'P 1'
_cell_length_a   30.63600000
_cell_length_b   30.63600000
_cell_length_c   43.03300000
_cell_angle_alpha   90.00000000
_cell_angle_beta   90.00000000
_cell_angle_gamma   90.00000000
_symmetry_Int_Tables_number   1
_chemical_formula_structural   CuH7C14NO6
_chemical_formula_sum   'Cu48 H336 C672 N48 O288'
_cell_volume   40389.24595637
_cell_formula_units_Z   48
loop_
 _symmetry_equiv_pos_site_id
 _symmetry_equiv_pos_as_xyz
  1  'x, y, z'
loop_
 _atom_site_type_symbol
 _atom_site_label
 _atom_site_symmetry_multiplicity
 _atom_site_fract_x
 _atom_site_fract_y
 _atom_site_fract_z
 _atom_site_occupancy
 _atom_site_charge
Cu  Cu1  1  0.33942000  0.40431000  0.87396000  1.0 0.8728123196
Cu  Cu2  1  0.28963000  0.37475000  0.82794000  1.0 0.8583827827
Cu  Cu3  1  0.66058000  0.59569000  0.87396000  1.0 0.8728123196
Cu  Cu4  1  0.71037000  0.62525000  0.82794000  1.0 0.8583827827
Cu  Cu5  1  0.59569000  0.33942000  0.87396000  1.0 0.8728123196
Cu  Cu6  1  0.62525000  0.28963000  0.82794000  1.0 0.8583827827
Cu  Cu7  1  0.40431000  0.66058000  0.87396000  1.0 0.8728123196
Cu  Cu8  1  0.37475000  0.71037000  0.82794000  1.0 0.8583827827
Cu  Cu9  1  0.16058000  0.90431000  0.62604000  1.0 0.8728123196
Cu  Cu10  1  0.21037000  0.87475000  0.67206000  1.0 0.8583827827
Cu  Cu11  1  0.83942000  0.09569000  0.62604000  1.0 0.8728123196
Cu  Cu12  1  0.78963000  0.12525000  0.67206000  1.0 0.8583827827
Cu  Cu13  1  0.90431000  0.83942000  0.62604000  1.0 0.8728123196
Cu  Cu14  1  0.87475000  0.78963000  0.67206000  1.0 0.8583827827
Cu  Cu15  1  0.09569000  0.16058000  0.62604000  1.0 0.8728123196
Cu  Cu16  1  0.12525000  0.21037000  0.67206000  1.0 0.8583827827
Cu  Cu17  1  0.66058000  0.59569000  0.12604000  1.0 0.8728123196
Cu  Cu18  1  0.71037000  0.62525000  0.17206000  1.0 0.8583827827
Cu  Cu19  1  0.33942000  0.40431000  0.12604000  1.0 0.8728123196
Cu  Cu20  1  0.28963000  0.37475000  0.17206000  1.0 0.8583827827
Cu  Cu21  1  0.40431000  0.66058000  0.12604000  1.0 0.8728123196
Cu  Cu22  1  0.37475000  0.71037000  0.17206000  1.0 0.8583827827
Cu  Cu23  1  0.59569000  0.33942000  0.12604000  1.0 0.8728123196
Cu  Cu24  1  0.62525000  0.28963000  0.17206000  1.0 0.8583827827
Cu  Cu25  1  0.83942000  0.09569000  0.37396000  1.0 0.8728123196
Cu  Cu26  1  0.78963000  0.12525000  0.32794000  1.0 0.8583827827
Cu  Cu27  1  0.16058000  0.90431000  0.37396000  1.0 0.8728123196
Cu  Cu28  1  0.21037000  0.87475000  0.32794000  1.0 0.8583827827
Cu  Cu29  1  0.09569000  0.16058000  0.37396000  1.0 0.8728123196
Cu  Cu30  1  0.12525000  0.21037000  0.32794000  1.0 0.8583827827
Cu  Cu31  1  0.90431000  0.83942000  0.37396000  1.0 0.8728123196
Cu  Cu32  1  0.87475000  0.78963000  0.32794000  1.0 0.8583827827
Cu  Cu33  1  0.16222000  0.58806000  0.00000000  1.0 0.8583827827
Cu  Cu34  1  0.24656000  0.56660000  0.00000000  1.0 0.8856518306
Cu  Cu35  1  0.83778000  0.41194000  0.00000000  1.0 0.8583827827
Cu  Cu36  1  0.75344000  0.43340000  0.00000000  1.0 0.8856518306
Cu  Cu37  1  0.41194000  0.16222000  0.00000000  1.0 0.8583827827
Cu  Cu38  1  0.43340000  0.24656000  0.00000000  1.0 0.8856518306
Cu  Cu39  1  0.58806000  0.83778000  0.00000000  1.0 0.8583827827
Cu  Cu40  1  0.56660000  0.75344000  0.00000000  1.0 0.8856518306
Cu  Cu41  1  0.33778000  0.08806000  0.50000000  1.0 0.8583827827
Cu  Cu42  1  0.25344000  0.06660000  0.50000000  1.0 0.8856518306
Cu  Cu43  1  0.66222000  0.91194000  0.50000000  1.0 0.8583827827
Cu  Cu44  1  0.74656000  0.93340000  0.50000000  1.0 0.8856518306
Cu  Cu45  1  0.08806000  0.66222000  0.50000000  1.0 0.8583827827
Cu  Cu46  1  0.06660000  0.74656000  0.50000000  1.0 0.8856518306
Cu  Cu47  1  0.91194000  0.33778000  0.50000000  1.0 0.8583827827
Cu  Cu48  1  0.93340000  0.25344000  0.50000000  1.0 0.8856518306
H  H1  1  0.24520000  0.46820000  0.92670000  1.0 0.1422852821
H  H2  1  0.16580000  0.43420000  0.85360000  1.0 0.1422852821
H  H3  1  0.12140000  0.51520000  0.91780000  1.0 0.1297694534
H  H4  1  0.03410000  0.45800000  0.81860000  1.0 0.1192078585
H  H5  1  0.04420000  0.53080000  0.81800000  1.0 0.1138574314
H  H6  1  0.01090000  0.57670000  0.85820000  1.0 0.0938041862
H  H7  1  0.00970000  0.53880000  0.90940000  1.0 0.1297694534
H  H8  1  0.29440000  0.64810000  0.92860000  1.0 0.1486856787
H  H9  1  0.24780000  0.73480000  0.86520000  1.0 0.1486856787
H  H10  1  0.16650000  0.68430000  0.93300000  1.0 0.1486856787
H  H11  1  0.10260000  0.81480000  0.88060000  1.0 0.1192078585
H  H12  1  0.06810000  0.75240000  0.87390000  1.0 0.1192078585
H  H13  1  0.13590000  0.84540000  0.83550000  1.0 0.098601013
H  H14  1  0.16180000  0.79210000  0.80180000  1.0 0.1192078585
H  H15  1  0.13400000  0.72820000  0.79240000  1.0 0.1297694534
H  H16  1  0.06970000  0.71360000  0.82830000  1.0 0.098601013
H  H17  1  0.02220000  0.77890000  0.83440000  1.0 0.1192078585
H  H18  1  0.05070000  0.83770000  0.83920000  1.0 0.1192078585
H  H19  1  0.03360000  0.85470000  0.65770000  1.0 0.1486856787
H  H20  1  0.98050000  0.80960000  0.73550000  1.0 0.1422852821
H  H21  1  0.10990000  0.83590000  0.73450000  1.0 0.1422852821
H  H22  1  0.75480000  0.53180000  0.92670000  1.0 0.1422852821
H  H23  1  0.83420000  0.56580000  0.85360000  1.0 0.1422852821
H  H24  1  0.87860000  0.48480000  0.91780000  1.0 0.1297694534
H  H25  1  0.96590000  0.54200000  0.81860000  1.0 0.1192078585
H  H26  1  0.95580000  0.46920000  0.81800000  1.0 0.1138574314
H  H27  1  0.98910000  0.42330000  0.85820000  1.0 0.0938041862
H  H28  1  0.99030000  0.46120000  0.90940000  1.0 0.1297694534
H  H29  1  0.70560000  0.35190000  0.92860000  1.0 0.1486856787
H  H30  1  0.75220000  0.26520000  0.86520000  1.0 0.1486856787
H  H31  1  0.83350000  0.31570000  0.93300000  1.0 0.1486856787
H  H32  1  0.89740000  0.18520000  0.88060000  1.0 0.1192078585
H  H33  1  0.93190000  0.24760000  0.87390000  1.0 0.1192078585
H  H34  1  0.86410000  0.15460000  0.83550000  1.0 0.098601013
H  H35  1  0.83820000  0.20790000  0.80180000  1.0 0.1297694534
H  H36  1  0.86600000  0.27180000  0.79240000  1.0 0.1297694534
H  H37  1  0.93030000  0.28640000  0.82830000  1.0 0.098601013
H  H38  1  0.97780000  0.22110000  0.83440000  1.0 0.1192078585
H  H39  1  0.94930000  0.16230000  0.83920000  1.0 0.1192078585
H  H40  1  0.96640000  0.14530000  0.65770000  1.0 0.1486856787
H  H41  1  0.01950000  0.19040000  0.73550000  1.0 0.1422852821
H  H42  1  0.89010000  0.16410000  0.73450000  1.0 0.1422852821
H  H43  1  0.53180000  0.24520000  0.92670000  1.0 0.1422852821
H  H44  1  0.56580000  0.16580000  0.85360000  1.0 0.1422852821
H  H45  1  0.48480000  0.12140000  0.91780000  1.0 0.1297694534
H  H46  1  0.54200000  0.03410000  0.81860000  1.0 0.1192078585
H  H47  1  0.46920000  0.04420000  0.81800000  1.0 0.1138574314
H  H48  1  0.42330000  0.01090000  0.85820000  1.0 0.0938041862
H  H49  1  0.46120000  0.00970000  0.90940000  1.0 0.1297694534
H  H50  1  0.35190000  0.29440000  0.92860000  1.0 0.1486856787
H  H51  1  0.26520000  0.24780000  0.86520000  1.0 0.1486856787
H  H52  1  0.31570000  0.16650000  0.93300000  1.0 0.1486856787
H  H53  1  0.18520000  0.10260000  0.88060000  1.0 0.1192078585
H  H54  1  0.24760000  0.06810000  0.87390000  1.0 0.1192078585
H  H55  1  0.15460000  0.13590000  0.83550000  1.0 0.098601013
H  H56  1  0.20790000  0.16180000  0.80180000  1.0 0.1297694534
H  H57  1  0.27180000  0.13400000  0.79240000  1.0 0.1297694534
H  H58  1  0.28640000  0.06970000  0.82830000  1.0 0.098601013
H  H59  1  0.22110000  0.02220000  0.83440000  1.0 0.1192078585
H  H60  1  0.16230000  0.05070000  0.83920000  1.0 0.1192078585
H  H61  1  0.14530000  0.03360000  0.65770000  1.0 0.1486856787
H  H62  1  0.19040000  0.98050000  0.73550000  1.0 0.1422852821
H  H63  1  0.16410000  0.10990000  0.73450000  1.0 0.1422852821
H  H64  1  0.46820000  0.75480000  0.92670000  1.0 0.1422852821
H  H65  1  0.43420000  0.83420000  0.85360000  1.0 0.1422852821
H  H66  1  0.51520000  0.87860000  0.91780000  1.0 0.1297694534
H  H67  1  0.45800000  0.96590000  0.81860000  1.0 0.1192078585
H  H68  1  0.53080000  0.95580000  0.81800000  1.0 0.1138574314
H  H69  1  0.57670000  0.98910000  0.85820000  1.0 0.0938041862
H  H70  1  0.53880000  0.99030000  0.90940000  1.0 0.1297694534
H  H71  1  0.64810000  0.70560000  0.92860000  1.0 0.1486856787
H  H72  1  0.73480000  0.75220000  0.86520000  1.0 0.1486856787
H  H73  1  0.68430000  0.83350000  0.93300000  1.0 0.1486856787
H  H74  1  0.81480000  0.89740000  0.88060000  1.0 0.1192078585
H  H75  1  0.75240000  0.93190000  0.87390000  1.0 0.1192078585
H  H76  1  0.84540000  0.86410000  0.83550000  1.0 0.098601013
H  H77  1  0.79210000  0.83820000  0.80180000  1.0 0.1192078585
H  H78  1  0.72820000  0.86600000  0.79240000  1.0 0.1297694534
H  H79  1  0.71360000  0.93030000  0.82830000  1.0 0.098601013
H  H80  1  0.77890000  0.97780000  0.83440000  1.0 0.1192078585
H  H81  1  0.83770000  0.94930000  0.83920000  1.0 0.1192078585
H  H82  1  0.85470000  0.96640000  0.65770000  1.0 0.1486856787
H  H83  1  0.80960000  0.01950000  0.73550000  1.0 0.1422852821
H  H84  1  0.83590000  0.89010000  0.73450000  1.0 0.1422852821
H  H85  1  0.25480000  0.96820000  0.57330000  1.0 0.1422852821
H  H86  1  0.33420000  0.93420000  0.64640000  1.0 0.1422852821
H  H87  1  0.37860000  0.01520000  0.58220000  1.0 0.1297694534
H  H88  1  0.46590000  0.95800000  0.68140000  1.0 0.1192078585
H  H89  1  0.45580000  0.03080000  0.68200000  1.0 0.1138574314
H  H90  1  0.48910000  0.07670000  0.64180000  1.0 0.0938041862
H  H91  1  0.49030000  0.03880000  0.59060000  1.0 0.1297694534
H  H92  1  0.20560000  0.14810000  0.57140000  1.0 0.1486856787
H  H93  1  0.25220000  0.23480000  0.63480000  1.0 0.1486856787
H  H94  1  0.33350000  0.18430000  0.56700000  1.0 0.1486856787
H  H95  1  0.39740000  0.31480000  0.61940000  1.0 0.1192078585
H  H96  1  0.43190000  0.25240000  0.62610000  1.0 0.1192078585
H  H97  1  0.36410000  0.34540000  0.66450000  1.0 0.098601013
H  H98  1  0.33820000  0.29210000  0.69820000  1.0 0.1297694534
H  H99  1  0.36600000  0.22820000  0.70760000  1.0 0.1297694534
H  H100  1  0.43030000  0.21360000  0.67170000  1.0 0.098601013
H  H101  1  0.47780000  0.27890000  0.66560000  1.0 0.1192078585
H  H102  1  0.44930000  0.33770000  0.66080000  1.0 0.1192078585
H  H103  1  0.46640000  0.35470000  0.84230000  1.0 0.1486856787
H  H104  1  0.51950000  0.30960000  0.76450000  1.0 0.1422852821
H  H105  1  0.39010000  0.33590000  0.76550000  1.0 0.1422852821
H  H106  1  0.74520000  0.03180000  0.57330000  1.0 0.1422852821
H  H107  1  0.66580000  0.06580000  0.64640000  1.0 0.1422852821
H  H108  1  0.62140000  0.98480000  0.58220000  1.0 0.1297694534
H  H109  1  0.53410000  0.04200000  0.68140000  1.0 0.1192078585
H  H110  1  0.54420000  0.96920000  0.68200000  1.0 0.1138574314
H  H111  1  0.51090000  0.92330000  0.64180000  1.0 0.0938041862
H  H112  1  0.50970000  0.96120000  0.59060000  1.0 0.1297694534
H  H113  1  0.79440000  0.85190000  0.57140000  1.0 0.1486856787
H  H114  1  0.74780000  0.76520000  0.63480000  1.0 0.1486856787
H  H115  1  0.66650000  0.81570000  0.56700000  1.0 0.1486856787
H  H116  1  0.60260000  0.68520000  0.61940000  1.0 0.1192078585
H  H117  1  0.56810000  0.74760000  0.62610000  1.0 0.1192078585
H  H118  1  0.63590000  0.65460000  0.66450000  1.0 0.098601013
H  H119  1  0.66180000  0.70790000  0.69820000  1.0 0.1192078585
H  H120  1  0.63400000  0.77180000  0.70760000  1.0 0.1297694534
H  H121  1  0.56970000  0.78640000  0.67170000  1.0 0.098601013
H  H122  1  0.52220000  0.72110000  0.66560000  1.0 0.1192078585
H  H123  1  0.55070000  0.66230000  0.66080000  1.0 0.1192078585
H  H124  1  0.53360000  0.64530000  0.84230000  1.0 0.1486856787
H  H125  1  0.48050000  0.69040000  0.76450000  1.0 0.1422852821
H  H126  1  0.60990000  0.66410000  0.76550000  1.0 0.1422852821
H  H127  1  0.96820000  0.74520000  0.57330000  1.0 0.1422852821
H  H128  1  0.93420000  0.66580000  0.64640000  1.0 0.1422852821
H  H129  1  0.01520000  0.62140000  0.58220000  1.0 0.1297694534
H  H130  1  0.95800000  0.53410000  0.68140000  1.0 0.1192078585
H  H131  1  0.03080000  0.54420000  0.68200000  1.0 0.1138574314
H  H132  1  0.07670000  0.51090000  0.64180000  1.0 0.0938041862
H  H133  1  0.03880000  0.50970000  0.59060000  1.0 0.1297694534
H  H134  1  0.14810000  0.79440000  0.57140000  1.0 0.1486856787
H  H135  1  0.23480000  0.74780000  0.63480000  1.0 0.1486856787
H  H136  1  0.18430000  0.66650000  0.56700000  1.0 0.1486856787
H  H137  1  0.31480000  0.60260000  0.61940000  1.0 0.1192078585
H  H138  1  0.25240000  0.56810000  0.62610000  1.0 0.1192078585
H  H139  1  0.34540000  0.63590000  0.66450000  1.0 0.098601013
H  H140  1  0.29210000  0.66180000  0.69820000  1.0 0.1192078585
H  H141  1  0.22820000  0.63400000  0.70760000  1.0 0.1297694534
H  H142  1  0.21360000  0.56970000  0.67170000  1.0 0.098601013
H  H143  1  0.27890000  0.52220000  0.66560000  1.0 0.1192078585
H  H144  1  0.33770000  0.55070000  0.66080000  1.0 0.1192078585
H  H145  1  0.35470000  0.53360000  0.84230000  1.0 0.1486856787
H  H146  1  0.30960000  0.48050000  0.76450000  1.0 0.1422852821
H  H147  1  0.33590000  0.60990000  0.76550000  1.0 0.1422852821
H  H148  1  0.03180000  0.25480000  0.57330000  1.0 0.1422852821
H  H149  1  0.06580000  0.33420000  0.64640000  1.0 0.1422852821
H  H150  1  0.98480000  0.37860000  0.58220000  1.0 0.1297694534
H  H151  1  0.04200000  0.46590000  0.68140000  1.0 0.1192078585
H  H152  1  0.96920000  0.45580000  0.68200000  1.0 0.1138574314
H  H153  1  0.92330000  0.48910000  0.64180000  1.0 0.0938041862
H  H154  1  0.96120000  0.49030000  0.59060000  1.0 0.1297694534
H  H155  1  0.85190000  0.20560000  0.57140000  1.0 0.1486856787
H  H156  1  0.76520000  0.25220000  0.63480000  1.0 0.1486856787
H  H157  1  0.81570000  0.33350000  0.56700000  1.0 0.1486856787
H  H158  1  0.68520000  0.39740000  0.61940000  1.0 0.1192078585
H  H159  1  0.74760000  0.43190000  0.62610000  1.0 0.1192078585
H  H160  1  0.65460000  0.36410000  0.66450000  1.0 0.098601013
H  H161  1  0.70790000  0.33820000  0.69820000  1.0 0.1297694534
H  H162  1  0.77180000  0.36600000  0.70760000  1.0 0.1297694534
H  H163  1  0.78640000  0.43030000  0.67170000  1.0 0.098601013
H  H164  1  0.72110000  0.47780000  0.66560000  1.0 0.1192078585
H  H165  1  0.66230000  0.44930000  0.66080000  1.0 0.1192078585
H  H166  1  0.64530000  0.46640000  0.84230000  1.0 0.1486856787
H  H167  1  0.69040000  0.51950000  0.76450000  1.0 0.1422852821
H  H168  1  0.66410000  0.39010000  0.76550000  1.0 0.1422852821
H  H169  1  0.75480000  0.53180000  0.07330000  1.0 0.1422852821
H  H170  1  0.83420000  0.56580000  0.14640000  1.0 0.1422852821
H  H171  1  0.87860000  0.48480000  0.08220000  1.0 0.1297694534
H  H172  1  0.96590000  0.54200000  0.18140000  1.0 0.1192078585
H  H173  1  0.95580000  0.46920000  0.18200000  1.0 0.1138574314
H  H174  1  0.98910000  0.42330000  0.14180000  1.0 0.0938041862
H  H175  1  0.99030000  0.46120000  0.09060000  1.0 0.1297694534
H  H176  1  0.70560000  0.35190000  0.07140000  1.0 0.1486856787
H  H177  1  0.75220000  0.26520000  0.13480000  1.0 0.1486856787
H  H178  1  0.83350000  0.31570000  0.06700000  1.0 0.1486856787
H  H179  1  0.89740000  0.18520000  0.11940000  1.0 0.1192078585
H  H180  1  0.93190000  0.24760000  0.12610000  1.0 0.1192078585
H  H181  1  0.86410000  0.15460000  0.16450000  1.0 0.098601013
H  H182  1  0.83820000  0.20790000  0.19820000  1.0 0.1192078585
H  H183  1  0.86600000  0.27180000  0.20760000  1.0 0.1297694534
H  H184  1  0.93030000  0.28640000  0.17170000  1.0 0.098601013
H  H185  1  0.97780000  0.22110000  0.16560000  1.0 0.1192078585
H  H186  1  0.94930000  0.16230000  0.16080000  1.0 0.1192078585
H  H187  1  0.96640000  0.14530000  0.34230000  1.0 0.1486856787
H  H188  1  0.01950000  0.19040000  0.26450000  1.0 0.1422852821
H  H189  1  0.89010000  0.16410000  0.26550000  1.0 0.1422852821
H  H190  1  0.24520000  0.46820000  0.07330000  1.0 0.1422852821
H  H191  1  0.16580000  0.43420000  0.14640000  1.0 0.1422852821
H  H192  1  0.12140000  0.51520000  0.08220000  1.0 0.1297694534
H  H193  1  0.03410000  0.45800000  0.18140000  1.0 0.1192078585
H  H194  1  0.04420000  0.53080000  0.18200000  1.0 0.1138574314
H  H195  1  0.01090000  0.57670000  0.14180000  1.0 0.0938041862
H  H196  1  0.00970000  0.53880000  0.09060000  1.0 0.1297694534
H  H197  1  0.29440000  0.64810000  0.07140000  1.0 0.1486856787
H  H198  1  0.24780000  0.73480000  0.13480000  1.0 0.1486856787
H  H199  1  0.16650000  0.68430000  0.06700000  1.0 0.1486856787
H  H200  1  0.10260000  0.81480000  0.11940000  1.0 0.1192078585
H  H201  1  0.06810000  0.75240000  0.12610000  1.0 0.1192078585
H  H202  1  0.13590000  0.84540000  0.16450000  1.0 0.098601013
H  H203  1  0.16180000  0.79210000  0.19820000  1.0 0.1192078585
H  H204  1  0.13400000  0.72820000  0.20760000  1.0 0.1297694534
H  H205  1  0.06970000  0.71360000  0.17170000  1.0 0.098601013
H  H206  1  0.02220000  0.77890000  0.16560000  1.0 0.1192078585
H  H207  1  0.05070000  0.83770000  0.16080000  1.0 0.1192078585
H  H208  1  0.03360000  0.85470000  0.34230000  1.0 0.1486856787
H  H209  1  0.98050000  0.80960000  0.26450000  1.0 0.1422852821
H  H210  1  0.10990000  0.83590000  0.26550000  1.0 0.1422852821
H  H211  1  0.46820000  0.75480000  0.07330000  1.0 0.1422852821
H  H212  1  0.43420000  0.83420000  0.14640000  1.0 0.1422852821
H  H213  1  0.51520000  0.87860000  0.08220000  1.0 0.1297694534
H  H214  1  0.45800000  0.96590000  0.18140000  1.0 0.1192078585
H  H215  1  0.53080000  0.95580000  0.18200000  1.0 0.1138574314
H  H216  1  0.57670000  0.98910000  0.14180000  1.0 0.0938041862
H  H217  1  0.53880000  0.99030000  0.09060000  1.0 0.1297694534
H  H218  1  0.64810000  0.70560000  0.07140000  1.0 0.1486856787
H  H219  1  0.73480000  0.75220000  0.13480000  1.0 0.1486856787
H  H220  1  0.68430000  0.83350000  0.06700000  1.0 0.1486856787
H  H221  1  0.81480000  0.89740000  0.11940000  1.0 0.1192078585
H  H222  1  0.75240000  0.93190000  0.12610000  1.0 0.1192078585
H  H223  1  0.84540000  0.86410000  0.16450000  1.0 0.098601013
H  H224  1  0.79210000  0.83820000  0.19820000  1.0 0.1192078585
H  H225  1  0.72820000  0.86600000  0.20760000  1.0 0.1297694534
H  H226  1  0.71360000  0.93030000  0.17170000  1.0 0.098601013
H  H227  1  0.77890000  0.97780000  0.16560000  1.0 0.1192078585
H  H228  1  0.83770000  0.94930000  0.16080000  1.0 0.1192078585
H  H229  1  0.85470000  0.96640000  0.34230000  1.0 0.1486856787
H  H230  1  0.80960000  0.01950000  0.26450000  1.0 0.1422852821
H  H231  1  0.83590000  0.89010000  0.26550000  1.0 0.1422852821
H  H232  1  0.53180000  0.24520000  0.07330000  1.0 0.1422852821
H  H233  1  0.56580000  0.16580000  0.14640000  1.0 0.1422852821
H  H234  1  0.48480000  0.12140000  0.08220000  1.0 0.1297694534
H  H235  1  0.54200000  0.03410000  0.18140000  1.0 0.1192078585
H  H236  1  0.46920000  0.04420000  0.18200000  1.0 0.1138574314
H  H237  1  0.42330000  0.01090000  0.14180000  1.0 0.0938041862
H  H238  1  0.46120000  0.00970000  0.09060000  1.0 0.1297694534
H  H239  1  0.35190000  0.29440000  0.07140000  1.0 0.1486856787
H  H240  1  0.26520000  0.24780000  0.13480000  1.0 0.1486856787
H  H241  1  0.31570000  0.16650000  0.06700000  1.0 0.1486856787
H  H242  1  0.18520000  0.10260000  0.11940000  1.0 0.1192078585
H  H243  1  0.24760000  0.06810000  0.12610000  1.0 0.1192078585
H  H244  1  0.15460000  0.13590000  0.16450000  1.0 0.098601013
H  H245  1  0.20790000  0.16180000  0.19820000  1.0 0.1192078585
H  H246  1  0.27180000  0.13400000  0.20760000  1.0 0.1297694534
H  H247  1  0.28640000  0.06970000  0.17170000  1.0 0.098601013
H  H248  1  0.22110000  0.02220000  0.16560000  1.0 0.1192078585
H  H249  1  0.16230000  0.05070000  0.16080000  1.0 0.1192078585
H  H250  1  0.14530000  0.03360000  0.34230000  1.0 0.1486856787
H  H251  1  0.19040000  0.98050000  0.26450000  1.0 0.1422852821
H  H252  1  0.16410000  0.10990000  0.26550000  1.0 0.1422852821
H  H253  1  0.74520000  0.03180000  0.42670000  1.0 0.1422852821
H  H254  1  0.66580000  0.06580000  0.35360000  1.0 0.1422852821
H  H255  1  0.62140000  0.98480000  0.41780000  1.0 0.1297694534
H  H256  1  0.53410000  0.04200000  0.31860000  1.0 0.1192078585
H  H257  1  0.54420000  0.96920000  0.31800000  1.0 0.1138574314
H  H258  1  0.51090000  0.92330000  0.35820000  1.0 0.0938041862
H  H259  1  0.50970000  0.96120000  0.40940000  1.0 0.1297694534
H  H260  1  0.79440000  0.85190000  0.42860000  1.0 0.1486856787
H  H261  1  0.74780000  0.76520000  0.36520000  1.0 0.1486856787
H  H262  1  0.66650000  0.81570000  0.43300000  1.0 0.1486856787
H  H263  1  0.60260000  0.68520000  0.38060000  1.0 0.1192078585
H  H264  1  0.56810000  0.74760000  0.37390000  1.0 0.1192078585
H  H265  1  0.63590000  0.65460000  0.33550000  1.0 0.098601013
H  H266  1  0.66180000  0.70790000  0.30180000  1.0 0.1192078585
H  H267  1  0.63400000  0.77180000  0.29240000  1.0 0.1297694534
H  H268  1  0.56970000  0.78640000  0.32830000  1.0 0.098601013
H  H269  1  0.52220000  0.72110000  0.33440000  1.0 0.1192078585
H  H270  1  0.55070000  0.66230000  0.33920000  1.0 0.1192078585
H  H271  1  0.53360000  0.64530000  0.15770000  1.0 0.1486856787
H  H272  1  0.48050000  0.69040000  0.23550000  1.0 0.1422852821
H  H273  1  0.60990000  0.66410000  0.23450000  1.0 0.1422852821
H  H274  1  0.25480000  0.96820000  0.42670000  1.0 0.1422852821
H  H275  1  0.33420000  0.93420000  0.35360000  1.0 0.1422852821
H  H276  1  0.37860000  0.01520000  0.41780000  1.0 0.1297694534
H  H277  1  0.46590000  0.95800000  0.31860000  1.0 0.1192078585
H  H278  1  0.45580000  0.03080000  0.31800000  1.0 0.1138574314
H  H279  1  0.48910000  0.07670000  0.35820000  1.0 0.0938041862
H  H280  1  0.49030000  0.03880000  0.40940000  1.0 0.1297694534
H  H281  1  0.20560000  0.14810000  0.42860000  1.0 0.1486856787
H  H282  1  0.25220000  0.23480000  0.36520000  1.0 0.1486856787
H  H283  1  0.33350000  0.18430000  0.43300000  1.0 0.1486856787
H  H284  1  0.39740000  0.31480000  0.38060000  1.0 0.1192078585
H  H285  1  0.43190000  0.25240000  0.37390000  1.0 0.1192078585
H  H286  1  0.36410000  0.34540000  0.33550000  1.0 0.098601013
H  H287  1  0.33820000  0.29210000  0.30180000  1.0 0.1192078585
H  H288  1  0.36600000  0.22820000  0.29240000  1.0 0.1297694534
H  H289  1  0.43030000  0.21360000  0.32830000  1.0 0.098601013
H  H290  1  0.47780000  0.27890000  0.33440000  1.0 0.1192078585
H  H291  1  0.44930000  0.33770000  0.33920000  1.0 0.1192078585
H  H292  1  0.46640000  0.35470000  0.15770000  1.0 0.1486856787
H  H293  1  0.51950000  0.30960000  0.23550000  1.0 0.1422852821
H  H294  1  0.39010000  0.33590000  0.23450000  1.0 0.1422852821
H  H295  1  0.03180000  0.25480000  0.42670000  1.0 0.1422852821
H  H296  1  0.06580000  0.33420000  0.35360000  1.0 0.1422852821
H  H297  1  0.98480000  0.37860000  0.41780000  1.0 0.1297694534
H  H298  1  0.04200000  0.46590000  0.31860000  1.0 0.1192078585
H  H299  1  0.96920000  0.45580000  0.31800000  1.0 0.1138574314
H  H300  1  0.92330000  0.48910000  0.35820000  1.0 0.0938041862
H  H301  1  0.96120000  0.49030000  0.40940000  1.0 0.1297694534
H  H302  1  0.85190000  0.20560000  0.42860000  1.0 0.1486856787
H  H303  1  0.76520000  0.25220000  0.36520000  1.0 0.1486856787
H  H304  1  0.81570000  0.33350000  0.43300000  1.0 0.1486856787
H  H305  1  0.68520000  0.39740000  0.38060000  1.0 0.1192078585
H  H306  1  0.74760000  0.43190000  0.37390000  1.0 0.1192078585
H  H307  1  0.65460000  0.36410000  0.33550000  1.0 0.098601013
H  H308  1  0.70790000  0.33820000  0.30180000  1.0 0.1192078585
H  H309  1  0.77180000  0.36600000  0.29240000  1.0 0.1297694534
H  H310  1  0.78640000  0.43030000  0.32830000  1.0 0.098601013
H  H311  1  0.72110000  0.47780000  0.33440000  1.0 0.1192078585
H  H312  1  0.66230000  0.44930000  0.33920000  1.0 0.1192078585
H  H313  1  0.64530000  0.46640000  0.15770000  1.0 0.1486856787
H  H314  1  0.69040000  0.51950000  0.23550000  1.0 0.1422852821
H  H315  1  0.66410000  0.39010000  0.23450000  1.0 0.1422852821
H  H316  1  0.96820000  0.74520000  0.42670000  1.0 0.1422852821
H  H317  1  0.93420000  0.66580000  0.35360000  1.0 0.1422852821
H  H318  1  0.01520000  0.62140000  0.41780000  1.0 0.1297694534
H  H319  1  0.95800000  0.53410000  0.31860000  1.0 0.1192078585
H  H320  1  0.03080000  0.54420000  0.31800000  1.0 0.1138574314
H  H321  1  0.07670000  0.51090000  0.35820000  1.0 0.0938041862
H  H322  1  0.03880000  0.50970000  0.40940000  1.0 0.1297694534
H  H323  1  0.14810000  0.79440000  0.42860000  1.0 0.1486856787
H  H324  1  0.23480000  0.74780000  0.36520000  1.0 0.1486856787
H  H325  1  0.18430000  0.66650000  0.43300000  1.0 0.1486856787
H  H326  1  0.31480000  0.60260000  0.38060000  1.0 0.1192078585
H  H327  1  0.25240000  0.56810000  0.37390000  1.0 0.1192078585
H  H328  1  0.34540000  0.63590000  0.33550000  1.0 0.098601013
H  H329  1  0.29210000  0.66180000  0.30180000  1.0 0.1192078585
H  H330  1  0.22820000  0.63400000  0.29240000  1.0 0.1297694534
H  H331  1  0.21360000  0.56970000  0.32830000  1.0 0.098601013
H  H332  1  0.27890000  0.52220000  0.33440000  1.0 0.1192078585
H  H333  1  0.33770000  0.55070000  0.33920000  1.0 0.1192078585
H  H334  1  0.35470000  0.53360000  0.15770000  1.0 0.1486856787
H  H335  1  0.30960000  0.48050000  0.23550000  1.0 0.1422852821
H  H336  1  0.33590000  0.60990000  0.23450000  1.0 0.1422852821
C  C1  1  0.18260000  0.49850000  0.92850000  1.0 0.0135224386
C  C2  1  0.21740000  0.47160000  0.91650000  1.0 -0.1255429405
C  C3  1  0.20950000  0.44850000  0.88710000  1.0 0.0135224386
C  C4  1  0.17070000  0.45020000  0.87160000  1.0 -0.141263439
C  C5  1  0.13980000  0.47620000  0.88380000  1.0 0.1486856787
C  C6  1  0.14480000  0.49860000  0.91080000  1.0 -0.1555870018
C  C7  1  0.07490000  0.45240000  0.85750000  1.0 0.4604664148
C  C8  1  0.03460000  0.46950000  0.83980000  1.0 -0.1486804234
C  C9  1  0.04210000  0.51990000  0.83940000  1.0 -0.141263439
C  C10  1  0.08620000  0.52790000  0.85750000  1.0 0.4519500994
C  C11  1  0.00650000  0.54510000  0.85780000  1.0 -0.0057314081
C  C12  1  0.00480000  0.52310000  0.89120000  1.0 -0.1950611434
C  C13  1  0.18790000  0.52620000  0.95790000  1.0 0.5736131275
C  C14  1  0.25180000  0.42390000  0.87650000  1.0 0.5768010085
C  C15  1  0.23210000  0.66310000  0.93270000  1.0 -0.0471275504
C  C16  1  0.27180000  0.66620000  0.91990000  1.0 -0.0771841169
C  C17  1  0.27500000  0.69210000  0.89500000  1.0 -0.0208855154
C  C18  1  0.24210000  0.71580000  0.88240000  1.0 -0.1555870018
C  C19  1  0.19690000  0.71460000  0.89480000  1.0 0.2585228943
C  C20  1  0.19410000  0.68500000  0.92240000  1.0 -0.1794129382
C  C21  1  0.15800000  0.77640000  0.88010000  1.0 0.377699703
C  C22  1  0.11770000  0.79480000  0.86720000  1.0 -0.141263439
C  C23  1  0.09500000  0.75160000  0.86240000  1.0 -0.1908039643
C  C24  1  0.12150000  0.71540000  0.87500000  1.0 0.4177258779
C  C25  1  0.11940000  0.81800000  0.83550000  1.0 -0.0254986298
C  C26  1  0.13630000  0.78400000  0.81340000  1.0 -0.1201434167
C  C27  1  0.12210000  0.74670000  0.80820000  1.0 -0.1035445358
C  C28  1  0.08060000  0.74290000  0.82960000  1.0 -0.0208855154
C  C29  1  0.03300000  0.76980000  0.78480000  1.0 0.4807322529
C  C30  1  0.04580000  0.78120000  0.81980000  1.0 -0.1794129382
C  C31  1  0.06660000  0.82300000  0.82310000  1.0 -0.1908039643
C  C32  1  0.06540000  0.84860000  0.79210000  1.0 0.4807322529
C  C33  1  0.07720000  0.84620000  0.69280000  1.0 0.021631999
C  C34  1  0.03870000  0.84390000  0.67830000  1.0 -0.1035445358
C  C35  1  0.00190000  0.82890000  0.69450000  1.0 -0.0047936649
C  C36  1  0.00610000  0.81970000  0.72480000  1.0 -0.1255429405
C  C37  1  0.04250000  0.82360000  0.73900000  1.0 0.1486856787
C  C38  1  0.08240000  0.83540000  0.72380000  1.0 -0.1705625793
C  C39  1  0.21790000  0.63440000  0.95740000  1.0 0.5768010085
C  C40  1  0.31630000  0.69370000  0.87710000  1.0 0.5903307461
C  C41  1  0.95870000  0.82380000  0.67860000  1.0 0.5736131275
C  C42  1  0.12060000  0.86080000  0.67580000  1.0 0.5768010085
C  C43  1  0.81740000  0.50150000  0.92850000  1.0 0.0135224386
C  C44  1  0.78260000  0.52840000  0.91650000  1.0 -0.1201434167
C  C45  1  0.79050000  0.55150000  0.88710000  1.0 0.0135224386
C  C46  1  0.82930000  0.54980000  0.87160000  1.0 -0.141263439
C  C47  1  0.86020000  0.52380000  0.88380000  1.0 0.1486856787
C  C48  1  0.85520000  0.50140000  0.91080000  1.0 -0.1555870018
C  C49  1  0.92510000  0.54760000  0.85750000  1.0 0.4604664148
C  C50  1  0.96540000  0.53050000  0.83980000  1.0 -0.1486804234
C  C51  1  0.95790000  0.48010000  0.83940000  1.0 -0.141263439
C  C52  1  0.91380000  0.47210000  0.85750000  1.0 0.4519500994
C  C53  1  0.99350000  0.45490000  0.85780000  1.0 -0.0057314081
C  C54  1  0.99520000  0.47690000  0.89120000  1.0 -0.1908039643
C  C55  1  0.81210000  0.47380000  0.95790000  1.0 0.5736131275
C  C56  1  0.74820000  0.57610000  0.87650000  1.0 0.5768010085
C  C57  1  0.76790000  0.33690000  0.93270000  1.0 -0.0471275504
C  C58  1  0.72820000  0.33380000  0.91990000  1.0 -0.0771841169
C  C59  1  0.72500000  0.30790000  0.89500000  1.0 -0.0208855154
C  C60  1  0.75790000  0.28420000  0.88240000  1.0 -0.1555870018
C  C61  1  0.80310000  0.28540000  0.89480000  1.0 0.2585228943
C  C62  1  0.80590000  0.31500000  0.92240000  1.0 -0.1794129382
C  C63  1  0.84200000  0.22360000  0.88010000  1.0 0.377699703
C  C64  1  0.88230000  0.20520000  0.86720000  1.0 -0.141263439
C  C65  1  0.90500000  0.24840000  0.86240000  1.0 -0.1908039643
C  C66  1  0.87850000  0.28460000  0.87500000  1.0 0.4177258779
C  C67  1  0.88060000  0.18200000  0.83550000  1.0 -0.0254986298
C  C68  1  0.86370000  0.21600000  0.81340000  1.0 -0.1201434167
C  C69  1  0.87790000  0.25330000  0.80820000  1.0 -0.1035445358
C  C70  1  0.91940000  0.25710000  0.82960000  1.0 -0.0208855154
C  C71  1  0.96700000  0.23020000  0.78480000  1.0 0.4807322529
C  C72  1  0.95420000  0.21880000  0.81980000  1.0 -0.1794129382
C  C73  1  0.93340000  0.17700000  0.82310000  1.0 -0.1908039643
C  C74  1  0.93460000  0.15140000  0.79210000  1.0 0.4807322529
C  C75  1  0.92280000  0.15380000  0.69280000  1.0 0.021631999
C  C76  1  0.96130000  0.15610000  0.67830000  1.0 -0.1035445358
C  C77  1  0.99810000  0.17110000  0.69450000  1.0 -0.0057314081
C  C78  1  0.99390000  0.18030000  0.72480000  1.0 -0.1255429405
C  C79  1  0.95750000  0.17640000  0.73900000  1.0 0.1486856787
C  C80  1  0.91760000  0.16460000  0.72380000  1.0 -0.1705625793
C  C81  1  0.78210000  0.36560000  0.95740000  1.0 0.5768010085
C  C82  1  0.68370000  0.30630000  0.87710000  1.0 0.5903307461
C  C83  1  0.04130000  0.17620000  0.67860000  1.0 0.5736131275
C  C84  1  0.87940000  0.13920000  0.67580000  1.0 0.5768010085
C  C85  1  0.50150000  0.18260000  0.92850000  1.0 0.0135224386
C  C86  1  0.52840000  0.21740000  0.91650000  1.0 -0.1201434167
C  C87  1  0.55150000  0.20950000  0.88710000  1.0 0.0135224386
C  C88  1  0.54980000  0.17070000  0.87160000  1.0 -0.141263439
C  C89  1  0.52380000  0.13980000  0.88380000  1.0 0.1486856787
C  C90  1  0.50140000  0.14480000  0.91080000  1.0 -0.1555870018
C  C91  1  0.54760000  0.07490000  0.85750000  1.0 0.4604664148
C  C92  1  0.53050000  0.03460000  0.83980000  1.0 -0.1486804234
C  C93  1  0.48010000  0.04210000  0.83940000  1.0 -0.141263439
C  C94  1  0.47210000  0.08620000  0.85750000  1.0 0.4519500994
C  C95  1  0.45490000  0.00650000  0.85780000  1.0 -0.0057314081
C  C96  1  0.47690000  0.00480000  0.89120000  1.0 -0.1908039643
C  C97  1  0.47380000  0.18790000  0.95790000  1.0 0.5736131275
C  C98  1  0.57610000  0.25180000  0.87650000  1.0 0.5768010085
C  C99  1  0.33690000  0.23210000  0.93270000  1.0 -0.0471275504
C  C100  1  0.33380000  0.27180000  0.91990000  1.0 -0.0771841169
C  C101  1  0.30790000  0.27500000  0.89500000  1.0 -0.0208855154
C  C102  1  0.28420000  0.24210000  0.88240000  1.0 -0.1555870018
C  C103  1  0.28540000  0.19690000  0.89480000  1.0 0.2585228943
C  C104  1  0.31500000  0.19410000  0.92240000  1.0 -0.1794129382
C  C105  1  0.22360000  0.15800000  0.88010000  1.0 0.377699703
C  C106  1  0.20520000  0.11770000  0.86720000  1.0 -0.141263439
C  C107  1  0.24840000  0.09500000  0.86240000  1.0 -0.1908039643
C  C108  1  0.28460000  0.12150000  0.87500000  1.0 0.4177258779
C  C109  1  0.18200000  0.11940000  0.83550000  1.0 -0.0254986298
C  C110  1  0.21600000  0.13630000  0.81340000  1.0 -0.1201434167
C  C111  1  0.25330000  0.12210000  0.80820000  1.0 -0.1035445358
C  C112  1  0.25710000  0.08060000  0.82960000  1.0 -0.0208855154
C  C113  1  0.23020000  0.03300000  0.78480000  1.0 0.4807322529
C  C114  1  0.21880000  0.04580000  0.81980000  1.0 -0.1794129382
C  C115  1  0.17700000  0.06660000  0.82310000  1.0 -0.1908039643
C  C116  1  0.15140000  0.06540000  0.79210000  1.0 0.4807322529
C  C117  1  0.15380000  0.07720000  0.69280000  1.0 0.021631999
C  C118  1  0.15610000  0.03870000  0.67830000  1.0 -0.1035445358
C  C119  1  0.17110000  0.00190000  0.69450000  1.0 -0.0057314081
C  C120  1  0.18030000  0.00610000  0.72480000  1.0 -0.1255429405
C  C121  1  0.17640000  0.04250000  0.73900000  1.0 0.1486856787
C  C122  1  0.16460000  0.08240000  0.72380000  1.0 -0.1705625793
C  C123  1  0.36560000  0.21790000  0.95740000  1.0 0.5768010085
C  C124  1  0.30630000  0.31630000  0.87710000  1.0 0.5903307461
C  C125  1  0.17620000  0.95870000  0.67860000  1.0 0.5736131275
C  C126  1  0.13920000  0.12060000  0.67580000  1.0 0.5768010085
C  C127  1  0.49850000  0.81740000  0.92850000  1.0 0.0135224386
C  C128  1  0.47160000  0.78260000  0.91650000  1.0 -0.1255429405
C  C129  1  0.44850000  0.79050000  0.88710000  1.0 0.0135224386
C  C130  1  0.45020000  0.82930000  0.87160000  1.0 -0.141263439
C  C131  1  0.47620000  0.86020000  0.88380000  1.0 0.1563406086
C  C132  1  0.49860000  0.85520000  0.91080000  1.0 -0.1555870018
C  C133  1  0.45240000  0.92510000  0.85750000  1.0 0.4604664148
C  C134  1  0.46950000  0.96540000  0.83980000  1.0 -0.1486804234
C  C135  1  0.51990000  0.95790000  0.83940000  1.0 -0.141263439
C  C136  1  0.52790000  0.91380000  0.85750000  1.0 0.4519500994
C  C137  1  0.54510000  0.99350000  0.85780000  1.0 -0.0057314081
C  C138  1  0.52310000  0.99520000  0.89120000  1.0 -0.1908039643
C  C139  1  0.52620000  0.81210000  0.95790000  1.0 0.5736131275
C  C140  1  0.42390000  0.74820000  0.87650000  1.0 0.5768010085
C  C141  1  0.66310000  0.76790000  0.93270000  1.0 -0.0471275504
C  C142  1  0.66620000  0.72820000  0.91990000  1.0 -0.0771841169
C  C143  1  0.69210000  0.72500000  0.89500000  1.0 -0.0208855154
C  C144  1  0.71580000  0.75790000  0.88240000  1.0 -0.1555870018
C  C145  1  0.71460000  0.80310000  0.89480000  1.0 0.2585228943
C  C146  1  0.68500000  0.80590000  0.92240000  1.0 -0.1794129382
C  C147  1  0.77640000  0.84200000  0.88010000  1.0 0.377699703
C  C148  1  0.79480000  0.88230000  0.86720000  1.0 -0.141263439
C  C149  1  0.75160000  0.90500000  0.86240000  1.0 -0.1908039643
C  C150  1  0.71540000  0.87850000  0.87500000  1.0 0.4177258779
C  C151  1  0.81800000  0.88060000  0.83550000  1.0 -0.0254986298
C  C152  1  0.78400000  0.86370000  0.81340000  1.0 -0.1201434167
C  C153  1  0.74670000  0.87790000  0.80820000  1.0 -0.1035445358
C  C154  1  0.74290000  0.91940000  0.82960000  1.0 -0.0208855154
C  C155  1  0.76980000  0.96700000  0.78480000  1.0 0.4807322529
C  C156  1  0.78120000  0.95420000  0.81980000  1.0 -0.1794129382
C  C157  1  0.82300000  0.93340000  0.82310000  1.0 -0.1908039643
C  C158  1  0.84860000  0.93460000  0.79210000  1.0 0.4807322529
C  C159  1  0.84620000  0.92280000  0.69280000  1.0 0.021631999
C  C160  1  0.84390000  0.96130000  0.67830000  1.0 -0.1035445358
C  C161  1  0.82890000  0.99810000  0.69450000  1.0 -0.0057314081
C  C162  1  0.81970000  0.99390000  0.72480000  1.0 -0.1255429405
C  C163  1  0.82360000  0.95750000  0.73900000  1.0 0.1486856787
C  C164  1  0.83540000  0.91760000  0.72380000  1.0 -0.1705625793
C  C165  1  0.63440000  0.78210000  0.95740000  1.0 0.5768010085
C  C166  1  0.69370000  0.68370000  0.87710000  1.0 0.5903307461
C  C167  1  0.82380000  0.04130000  0.67860000  1.0 0.5736131275
C  C168  1  0.86080000  0.87940000  0.67580000  1.0 0.5768010085
C  C169  1  0.31740000  0.99850000  0.57150000  1.0 0.0135224386
C  C170  1  0.28260000  0.97160000  0.58350000  1.0 -0.1255429405
C  C171  1  0.29050000  0.94850000  0.61290000  1.0 0.0135224386
C  C172  1  0.32930000  0.95020000  0.62840000  1.0 -0.141263439
C  C173  1  0.36020000  0.97620000  0.61620000  1.0 0.1563406086
C  C174  1  0.35520000  0.99860000  0.58920000  1.0 -0.1555870018
C  C175  1  0.42510000  0.95240000  0.64250000  1.0 0.4604664148
C  C176  1  0.46540000  0.96950000  0.66020000  1.0 -0.1486804234
C  C177  1  0.45790000  0.01990000  0.66060000  1.0 -0.141263439
C  C178  1  0.41380000  0.02790000  0.64250000  1.0 0.4519500994
C  C179  1  0.49350000  0.04510000  0.64220000  1.0 -0.0057314081
C  C180  1  0.49520000  0.02310000  0.60880000  1.0 -0.1908039643
C  C181  1  0.31210000  0.02620000  0.54210000  1.0 0.5736131275
C  C182  1  0.24820000  0.92390000  0.62350000  1.0 0.5768010085
C  C183  1  0.26790000  0.16310000  0.56730000  1.0 -0.0471275504
C  C184  1  0.22820000  0.16620000  0.58010000  1.0 -0.0771841169
C  C185  1  0.22500000  0.19210000  0.60500000  1.0 -0.0254986298
C  C186  1  0.25790000  0.21580000  0.61760000  1.0 -0.1555870018
C  C187  1  0.30310000  0.21460000  0.60520000  1.0 0.2585228943
C  C188  1  0.30590000  0.18500000  0.57760000  1.0 -0.1794129382
C  C189  1  0.34200000  0.27640000  0.61990000  1.0 0.377699703
C  C190  1  0.38230000  0.29480000  0.63280000  1.0 -0.141263439
C  C191  1  0.40500000  0.25160000  0.63760000  1.0 -0.1908039643
C  C192  1  0.37850000  0.21540000  0.62500000  1.0 0.4177258779
C  C193  1  0.38060000  0.31800000  0.66450000  1.0 -0.0254986298
C  C194  1  0.36370000  0.28400000  0.68660000  1.0 -0.1201434167
C  C195  1  0.37790000  0.24670000  0.69180000  1.0 -0.1035445358
C  C196  1  0.41940000  0.24290000  0.67040000  1.0 -0.0208855154
C  C197  1  0.46700000  0.26980000  0.71520000  1.0 0.4807322529
C  C198  1  0.45420000  0.28120000  0.68020000  1.0 -0.1794129382
C  C199  1  0.43340000  0.32300000  0.67690000  1.0 -0.1908039643
C  C200  1  0.43460000  0.34860000  0.70790000  1.0 0.4807322529
C  C201  1  0.42280000  0.34620000  0.80720000  1.0 0.021631999
C  C202  1  0.46130000  0.34390000  0.82170000  1.0 -0.1035445358
C  C203  1  0.49810000  0.32890000  0.80550000  1.0 -0.0057314081
C  C204  1  0.49390000  0.31970000  0.77520000  1.0 -0.1201434167
C  C205  1  0.45750000  0.32360000  0.76100000  1.0 0.1486856787
C  C206  1  0.41760000  0.33540000  0.77620000  1.0 -0.1705625793
C  C207  1  0.28210000  0.13440000  0.54260000  1.0 0.5768010085
C  C208  1  0.18370000  0.19370000  0.62290000  1.0 0.5903307461
C  C209  1  0.54130000  0.32380000  0.82140000  1.0 0.5736131275
C  C210  1  0.37940000  0.36080000  0.82420000  1.0 0.5768010085
C  C211  1  0.68260000  0.00150000  0.57150000  1.0 0.0135224386
C  C212  1  0.71740000  0.02840000  0.58350000  1.0 -0.1201434167
C  C213  1  0.70950000  0.05150000  0.61290000  1.0 0.0135224386
C  C214  1  0.67070000  0.04980000  0.62840000  1.0 -0.141263439
C  C215  1  0.63980000  0.02380000  0.61620000  1.0 0.1563406086
C  C216  1  0.64480000  0.00140000  0.58920000  1.0 -0.1486804234
C  C217  1  0.57490000  0.04760000  0.64250000  1.0 0.4604664148
C  C218  1  0.53460000  0.03050000  0.66020000  1.0 -0.1486804234
C  C219  1  0.54210000  0.98010000  0.66060000  1.0 -0.141263439
C  C220  1  0.58620000  0.97210000  0.64250000  1.0 0.4519500994
C  C221  1  0.50650000  0.95490000  0.64220000  1.0 -0.0057314081
C  C222  1  0.50480000  0.97690000  0.60880000  1.0 -0.1908039643
C  C223  1  0.68790000  0.97380000  0.54210000  1.0 0.5736131275
C  C224  1  0.75180000  0.07610000  0.62350000  1.0 0.5768010085
C  C225  1  0.73210000  0.83690000  0.56730000  1.0 -0.0471275504
C  C226  1  0.77180000  0.83380000  0.58010000  1.0 -0.0771841169
C  C227  1  0.77500000  0.80790000  0.60500000  1.0 -0.0208855154
C  C228  1  0.74210000  0.78420000  0.61760000  1.0 -0.1555870018
C  C229  1  0.69690000  0.78540000  0.60520000  1.0 0.2585228943
C  C230  1  0.69410000  0.81500000  0.57760000  1.0 -0.1794129382
C  C231  1  0.65800000  0.72360000  0.61990000  1.0 0.377699703
C  C232  1  0.61770000  0.70520000  0.63280000  1.0 -0.141263439
C  C233  1  0.59500000  0.74840000  0.63760000  1.0 -0.1908039643
C  C234  1  0.62150000  0.78460000  0.62500000  1.0 0.4177258779
C  C235  1  0.61940000  0.68200000  0.66450000  1.0 -0.0208855154
C  C236  1  0.63630000  0.71600000  0.68660000  1.0 -0.1201434167
C  C237  1  0.62210000  0.75330000  0.69180000  1.0 -0.1035445358
C  C238  1  0.58060000  0.75710000  0.67040000  1.0 -0.0208855154
C  C239  1  0.53300000  0.73020000  0.71520000  1.0 0.4807322529
C  C240  1  0.54580000  0.71880000  0.68020000  1.0 -0.1794129382
C  C241  1  0.56660000  0.67700000  0.67690000  1.0 -0.1908039643
C  C242  1  0.56540000  0.65140000  0.70790000  1.0 0.4807322529
C  C243  1  0.57720000  0.65380000  0.80720000  1.0 0.021631999
C  C244  1  0.53870000  0.65610000  0.82170000  1.0 -0.1065162494
C  C245  1  0.50190000  0.67110000  0.80550000  1.0 -0.0057314081
C  C246  1  0.50610000  0.68030000  0.77520000  1.0 -0.1201434167
C  C247  1  0.54250000  0.67640000  0.76100000  1.0 0.1486856787
C  C248  1  0.58240000  0.66460000  0.77620000  1.0 -0.1705625793
C  C249  1  0.71790000  0.86560000  0.54260000  1.0 0.5768010085
C  C250  1  0.81630000  0.80630000  0.62290000  1.0 0.5903307461
C  C251  1  0.45870000  0.67620000  0.82140000  1.0 0.5736131275
C  C252  1  0.62060000  0.63920000  0.82420000  1.0 0.5768010085
C  C253  1  0.99850000  0.68260000  0.57150000  1.0 0.0135224386
C  C254  1  0.97160000  0.71740000  0.58350000  1.0 -0.1255429405
C  C255  1  0.94850000  0.70950000  0.61290000  1.0 0.0135224386
C  C256  1  0.95020000  0.67070000  0.62840000  1.0 -0.141263439
C  C257  1  0.97620000  0.63980000  0.61620000  1.0 0.1563406086
C  C258  1  0.99860000  0.64480000  0.58920000  1.0 -0.1555870018
C  C259  1  0.95240000  0.57490000  0.64250000  1.0 0.4604664148
C  C260  1  0.96950000  0.53460000  0.66020000  1.0 -0.1486804234
C  C261  1  0.01990000  0.54210000  0.66060000  1.0 -0.141263439
C  C262  1  0.02790000  0.58620000  0.64250000  1.0 0.4519500994
C  C263  1  0.04510000  0.50650000  0.64220000  1.0 -0.0057314081
C  C264  1  0.02310000  0.50480000  0.60880000  1.0 -0.1908039643
C  C265  1  0.02620000  0.68790000  0.54210000  1.0 0.5736131275
C  C266  1  0.92390000  0.75180000  0.62350000  1.0 0.5768010085
C  C267  1  0.16310000  0.73210000  0.56730000  1.0 -0.0471275504
C  C268  1  0.16620000  0.77180000  0.58010000  1.0 -0.0771841169
C  C269  1  0.19210000  0.77500000  0.60500000  1.0 -0.0254986298
C  C270  1  0.21580000  0.74210000  0.61760000  1.0 -0.1555870018
C  C271  1  0.21460000  0.69690000  0.60520000  1.0 0.2585228943
C  C272  1  0.18500000  0.69410000  0.57760000  1.0 -0.1794129382
C  C273  1  0.27640000  0.65800000  0.61990000  1.0 0.377699703
C  C274  1  0.29480000  0.61770000  0.63280000  1.0 -0.141263439
C  C275  1  0.25160000  0.59500000  0.63760000  1.0 -0.1908039643
C  C276  1  0.21540000  0.62150000  0.62500000  1.0 0.4177258779
C  C277  1  0.31800000  0.61940000  0.66450000  1.0 -0.0254986298
C  C278  1  0.28400000  0.63630000  0.68660000  1.0 -0.1201434167
C  C279  1  0.24670000  0.62210000  0.69180000  1.0 -0.1035445358
C  C280  1  0.24290000  0.58060000  0.67040000  1.0 -0.0208855154
C  C281  1  0.26980000  0.53300000  0.71520000  1.0 0.4807322529
C  C282  1  0.28120000  0.54580000  0.68020000  1.0 -0.1794129382
C  C283  1  0.32300000  0.56660000  0.67690000  1.0 -0.1908039643
C  C284  1  0.34860000  0.56540000  0.70790000  1.0 0.4807322529
C  C285  1  0.34620000  0.57720000  0.80720000  1.0 0.021631999
C  C286  1  0.34390000  0.53870000  0.82170000  1.0 -0.1065162494
C  C287  1  0.32890000  0.50190000  0.80550000  1.0 -0.0057314081
C  C288  1  0.31970000  0.50610000  0.77520000  1.0 -0.1201434167
C  C289  1  0.32360000  0.54250000  0.76100000  1.0 0.1486856787
C  C290  1  0.33540000  0.58240000  0.77620000  1.0 -0.1705625793
C  C291  1  0.13440000  0.71790000  0.54260000  1.0 0.5768010085
C  C292  1  0.19370000  0.81630000  0.62290000  1.0 0.5903307461
C  C293  1  0.32380000  0.45870000  0.82140000  1.0 0.5736131275
C  C294  1  0.36080000  0.62060000  0.82420000  1.0 0.5768010085
C  C295  1  0.00150000  0.31740000  0.57150000  1.0 0.0135224386
C  C296  1  0.02840000  0.28260000  0.58350000  1.0 -0.1255429405
C  C297  1  0.05150000  0.29050000  0.61290000  1.0 0.0135224386
C  C298  1  0.04980000  0.32930000  0.62840000  1.0 -0.141263439
C  C299  1  0.02380000  0.36020000  0.61620000  1.0 0.1563406086
C  C300  1  0.00140000  0.35520000  0.58920000  1.0 -0.1555870018
C  C301  1  0.04760000  0.42510000  0.64250000  1.0 0.4604664148
C  C302  1  0.03050000  0.46540000  0.66020000  1.0 -0.1486804234
C  C303  1  0.98010000  0.45790000  0.66060000  1.0 -0.141263439
C  C304  1  0.97210000  0.41380000  0.64250000  1.0 0.4519500994
C  C305  1  0.95490000  0.49350000  0.64220000  1.0 -0.0057314081
C  C306  1  0.97690000  0.49520000  0.60880000  1.0 -0.1908039643
C  C307  1  0.97380000  0.31210000  0.54210000  1.0 0.5736131275
C  C308  1  0.07610000  0.24820000  0.62350000  1.0 0.5768010085
C  C309  1  0.83690000  0.26790000  0.56730000  1.0 -0.0471275504
C  C310  1  0.83380000  0.22820000  0.58010000  1.0 -0.0771841169
C  C311  1  0.80790000  0.22500000  0.60500000  1.0 -0.0254986298
C  C312  1  0.78420000  0.25790000  0.61760000  1.0 -0.1555870018
C  C313  1  0.78540000  0.30310000  0.60520000  1.0 0.2585228943
C  C314  1  0.81500000  0.30590000  0.57760000  1.0 -0.1794129382
C  C315  1  0.72360000  0.34200000  0.61990000  1.0 0.377699703
C  C316  1  0.70520000  0.38230000  0.63280000  1.0 -0.141263439
C  C317  1  0.74840000  0.40500000  0.63760000  1.0 -0.1908039643
C  C318  1  0.78460000  0.37850000  0.62500000  1.0 0.4177258779
C  C319  1  0.68200000  0.38060000  0.66450000  1.0 -0.0208855154
C  C320  1  0.71600000  0.36370000  0.68660000  1.0 -0.1201434167
C  C321  1  0.75330000  0.37790000  0.69180000  1.0 -0.1035445358
C  C322  1  0.75710000  0.41940000  0.67040000  1.0 -0.0208855154
C  C323  1  0.73020000  0.46700000  0.71520000  1.0 0.4807322529
C  C324  1  0.71880000  0.45420000  0.68020000  1.0 -0.1794129382
C  C325  1  0.67700000  0.43340000  0.67690000  1.0 -0.1908039643
C  C326  1  0.65140000  0.43460000  0.70790000  1.0 0.4807322529
C  C327  1  0.65380000  0.42280000  0.80720000  1.0 0.021631999
C  C328  1  0.65610000  0.46130000  0.82170000  1.0 -0.1035445358
C  C329  1  0.67110000  0.49810000  0.80550000  1.0 -0.0057314081
C  C330  1  0.68030000  0.49390000  0.77520000  1.0 -0.1201434167
C  C331  1  0.67640000  0.45750000  0.76100000  1.0 0.1486856787
C  C332  1  0.66460000  0.41760000  0.77620000  1.0 -0.1705625793
C  C333  1  0.86560000  0.28210000  0.54260000  1.0 0.5768010085
C  C334  1  0.80630000  0.18370000  0.62290000  1.0 0.5903307461
C  C335  1  0.67620000  0.54130000  0.82140000  1.0 0.5736131275
C  C336  1  0.63920000  0.37940000  0.82420000  1.0 0.5768010085
C  C337  1  0.81740000  0.50150000  0.07150000  1.0 0.0135224386
C  C338  1  0.78260000  0.52840000  0.08350000  1.0 -0.1201434167
C  C339  1  0.79050000  0.55150000  0.11290000  1.0 0.0135224386
C  C340  1  0.82930000  0.54980000  0.12840000  1.0 -0.141263439
C  C341  1  0.86020000  0.52380000  0.11620000  1.0 0.1563406086
C  C342  1  0.85520000  0.50140000  0.08920000  1.0 -0.1486804234
C  C343  1  0.92510000  0.54760000  0.14250000  1.0 0.4604664148
C  C344  1  0.96540000  0.53050000  0.16020000  1.0 -0.1486804234
C  C345  1  0.95790000  0.48010000  0.16060000  1.0 -0.141263439
C  C346  1  0.91380000  0.47210000  0.14250000  1.0 0.4519500994
C  C347  1  0.99350000  0.45490000  0.14220000  1.0 -0.0057314081
C  C348  1  0.99520000  0.47690000  0.10880000  1.0 -0.1908039643
C  C349  1  0.81210000  0.47380000  0.04210000  1.0 0.5736131275
C  C350  1  0.74820000  0.57610000  0.12350000  1.0 0.5768010085
C  C351  1  0.76790000  0.33690000  0.06730000  1.0 -0.0471275504
C  C352  1  0.72820000  0.33380000  0.08010000  1.0 -0.0771841169
C  C353  1  0.72500000  0.30790000  0.10500000  1.0 -0.0208855154
C  C354  1  0.75790000  0.28420000  0.11760000  1.0 -0.1555870018
C  C355  1  0.80310000  0.28540000  0.10520000  1.0 0.2585228943
C  C356  1  0.80590000  0.31500000  0.07760000  1.0 -0.1794129382
C  C357  1  0.84200000  0.22360000  0.11990000  1.0 0.377699703
C  C358  1  0.88230000  0.20520000  0.13280000  1.0 -0.141263439
C  C359  1  0.90500000  0.24840000  0.13760000  1.0 -0.1908039643
C  C360  1  0.87850000  0.28460000  0.12500000  1.0 0.4177258779
C  C361  1  0.88060000  0.18200000  0.16450000  1.0 -0.0254986298
C  C362  1  0.86370000  0.21600000  0.18660000  1.0 -0.1201434167
C  C363  1  0.87790000  0.25330000  0.19180000  1.0 -0.1035445358
C  C364  1  0.91940000  0.25710000  0.17040000  1.0 -0.0208855154
C  C365  1  0.96700000  0.23020000  0.21520000  1.0 0.4807322529
C  C366  1  0.95420000  0.21880000  0.18020000  1.0 -0.1794129382
C  C367  1  0.93340000  0.17700000  0.17690000  1.0 -0.1908039643
C  C368  1  0.93460000  0.15140000  0.20790000  1.0 0.4807322529
C  C369  1  0.92280000  0.15380000  0.30720000  1.0 0.021631999
C  C370  1  0.96130000  0.15610000  0.32170000  1.0 -0.1035445358
C  C371  1  0.99810000  0.17110000  0.30550000  1.0 -0.0057314081
C  C372  1  0.99390000  0.18030000  0.27520000  1.0 -0.1255429405
C  C373  1  0.95750000  0.17640000  0.26100000  1.0 0.1486856787
C  C374  1  0.91760000  0.16460000  0.27620000  1.0 -0.1705625793
C  C375  1  0.78210000  0.36560000  0.04260000  1.0 0.5736131275
C  C376  1  0.68370000  0.30630000  0.12290000  1.0 0.5903307461
C  C377  1  0.04130000  0.17620000  0.32140000  1.0 0.5736131275
C  C378  1  0.87940000  0.13920000  0.32420000  1.0 0.5768010085
C  C379  1  0.18260000  0.49850000  0.07150000  1.0 0.0135224386
C  C380  1  0.21740000  0.47160000  0.08350000  1.0 -0.1255429405
C  C381  1  0.20950000  0.44850000  0.11290000  1.0 0.0135224386
C  C382  1  0.17070000  0.45020000  0.12840000  1.0 -0.141263439
C  C383  1  0.13980000  0.47620000  0.11620000  1.0 0.1563406086
C  C384  1  0.14480000  0.49860000  0.08920000  1.0 -0.1486804234
C  C385  1  0.07490000  0.45240000  0.14250000  1.0 0.4604664148
C  C386  1  0.03460000  0.46950000  0.16020000  1.0 -0.1486804234
C  C387  1  0.04210000  0.51990000  0.16060000  1.0 -0.141263439
C  C388  1  0.08620000  0.52790000  0.14250000  1.0 0.4519500994
C  C389  1  0.00650000  0.54510000  0.14220000  1.0 -0.0057314081
C  C390  1  0.00480000  0.52310000  0.10880000  1.0 -0.1908039643
C  C391  1  0.18790000  0.52620000  0.04210000  1.0 0.5736131275
C  C392  1  0.25180000  0.42390000  0.12350000  1.0 0.5768010085
C  C393  1  0.23210000  0.66310000  0.06730000  1.0 -0.0471275504
C  C394  1  0.27180000  0.66620000  0.08010000  1.0 -0.0771841169
C  C395  1  0.27500000  0.69210000  0.10500000  1.0 -0.0208855154
C  C396  1  0.24210000  0.71580000  0.11760000  1.0 -0.1555870018
C  C397  1  0.19690000  0.71460000  0.10520000  1.0 0.2585228943
C  C398  1  0.19410000  0.68500000  0.07760000  1.0 -0.1794129382
C  C399  1  0.15800000  0.77640000  0.11990000  1.0 0.377699703
C  C400  1  0.11770000  0.79480000  0.13280000  1.0 -0.141263439
C  C401  1  0.09500000  0.75160000  0.13760000  1.0 -0.1908039643
C  C402  1  0.12150000  0.71540000  0.12500000  1.0 0.4177258779
C  C403  1  0.11940000  0.81800000  0.16450000  1.0 -0.0254986298
C  C404  1  0.13630000  0.78400000  0.18660000  1.0 -0.1201434167
C  C405  1  0.12210000  0.74670000  0.19180000  1.0 -0.1035445358
C  C406  1  0.08060000  0.74290000  0.17040000  1.0 -0.0208855154
C  C407  1  0.03300000  0.76980000  0.21520000  1.0 0.4807322529
C  C408  1  0.04580000  0.78120000  0.18020000  1.0 -0.1794129382
C  C409  1  0.06660000  0.82300000  0.17690000  1.0 -0.1908039643
C  C410  1  0.06540000  0.84860000  0.20790000  1.0 0.4807322529
C  C411  1  0.07720000  0.84620000  0.30720000  1.0 0.021631999
C  C412  1  0.03870000  0.84390000  0.32170000  1.0 -0.1035445358
C  C413  1  0.00190000  0.82890000  0.30550000  1.0 -0.0057314081
C  C414  1  0.00610000  0.81970000  0.27520000  1.0 -0.1255429405
C  C415  1  0.04250000  0.82360000  0.26100000  1.0 0.1486856787
C  C416  1  0.08240000  0.83540000  0.27620000  1.0 -0.1705625793
C  C417  1  0.21790000  0.63440000  0.04260000  1.0 0.5736131275
C  C418  1  0.31630000  0.69370000  0.12290000  1.0 0.5903307461
C  C419  1  0.95870000  0.82380000  0.32140000  1.0 0.5736131275
C  C420  1  0.12060000  0.86080000  0.32420000  1.0 0.5768010085
C  C421  1  0.49850000  0.81740000  0.07150000  1.0 0.0135224386
C  C422  1  0.47160000  0.78260000  0.08350000  1.0 -0.1201434167
C  C423  1  0.44850000  0.79050000  0.11290000  1.0 0.0135224386
C  C424  1  0.45020000  0.82930000  0.12840000  1.0 -0.141263439
C  C425  1  0.47620000  0.86020000  0.11620000  1.0 0.1563406086
C  C426  1  0.49860000  0.85520000  0.08920000  1.0 -0.1555870018
C  C427  1  0.45240000  0.92510000  0.14250000  1.0 0.4604664148
C  C428  1  0.46950000  0.96540000  0.16020000  1.0 -0.1486804234
C  C429  1  0.51990000  0.95790000  0.16060000  1.0 -0.141263439
C  C430  1  0.52790000  0.91380000  0.14250000  1.0 0.4519500994
C  C431  1  0.54510000  0.99350000  0.14220000  1.0 -0.0057314081
C  C432  1  0.52310000  0.99520000  0.10880000  1.0 -0.1908039643
C  C433  1  0.52620000  0.81210000  0.04210000  1.0 0.5736131275
C  C434  1  0.42390000  0.74820000  0.12350000  1.0 0.5768010085
C  C435  1  0.66310000  0.76790000  0.06730000  1.0 -0.0471275504
C  C436  1  0.66620000  0.72820000  0.08010000  1.0 -0.0771841169
C  C437  1  0.69210000  0.72500000  0.10500000  1.0 -0.0208855154
C  C438  1  0.71580000  0.75790000  0.11760000  1.0 -0.1555870018
C  C439  1  0.71460000  0.80310000  0.10520000  1.0 0.2585228943
C  C440  1  0.68500000  0.80590000  0.07760000  1.0 -0.1794129382
C  C441  1  0.77640000  0.84200000  0.11990000  1.0 0.377699703
C  C442  1  0.79480000  0.88230000  0.13280000  1.0 -0.141263439
C  C443  1  0.75160000  0.90500000  0.13760000  1.0 -0.1908039643
C  C444  1  0.71540000  0.87850000  0.12500000  1.0 0.4177258779
C  C445  1  0.81800000  0.88060000  0.16450000  1.0 -0.0254986298
C  C446  1  0.78400000  0.86370000  0.18660000  1.0 -0.1201434167
C  C447  1  0.74670000  0.87790000  0.19180000  1.0 -0.1035445358
C  C448  1  0.74290000  0.91940000  0.17040000  1.0 -0.0208855154
C  C449  1  0.76980000  0.96700000  0.21520000  1.0 0.4807322529
C  C450  1  0.78120000  0.95420000  0.18020000  1.0 -0.1794129382
C  C451  1  0.82300000  0.93340000  0.17690000  1.0 -0.1908039643
C  C452  1  0.84860000  0.93460000  0.20790000  1.0 0.4807322529
C  C453  1  0.84620000  0.92280000  0.30720000  1.0 0.021631999
C  C454  1  0.84390000  0.96130000  0.32170000  1.0 -0.1035445358
C  C455  1  0.82890000  0.99810000  0.30550000  1.0 -0.0057314081
C  C456  1  0.81970000  0.99390000  0.27520000  1.0 -0.1255429405
C  C457  1  0.82360000  0.95750000  0.26100000  1.0 0.1486856787
C  C458  1  0.83540000  0.91760000  0.27620000  1.0 -0.1705625793
C  C459  1  0.63440000  0.78210000  0.04260000  1.0 0.5736131275
C  C460  1  0.69370000  0.68370000  0.12290000  1.0 0.5903307461
C  C461  1  0.82380000  0.04130000  0.32140000  1.0 0.5736131275
C  C462  1  0.86080000  0.87940000  0.32420000  1.0 0.5768010085
C  C463  1  0.50150000  0.18260000  0.07150000  1.0 0.0135224386
C  C464  1  0.52840000  0.21740000  0.08350000  1.0 -0.1255429405
C  C465  1  0.55150000  0.20950000  0.11290000  1.0 0.0135224386
C  C466  1  0.54980000  0.17070000  0.12840000  1.0 -0.141263439
C  C467  1  0.52380000  0.13980000  0.11620000  1.0 0.1563406086
C  C468  1  0.50140000  0.14480000  0.08920000  1.0 -0.1486804234
C  C469  1  0.54760000  0.07490000  0.14250000  1.0 0.4604664148
C  C470  1  0.53050000  0.03460000  0.16020000  1.0 -0.1486804234
C  C471  1  0.48010000  0.04210000  0.16060000  1.0 -0.141263439
C  C472  1  0.47210000  0.08620000  0.14250000  1.0 0.4519500994
C  C473  1  0.45490000  0.00650000  0.14220000  1.0 -0.0057314081
C  C474  1  0.47690000  0.00480000  0.10880000  1.0 -0.1908039643
C  C475  1  0.47380000  0.18790000  0.04210000  1.0 0.5736131275
C  C476  1  0.57610000  0.25180000  0.12350000  1.0 0.5768010085
C  C477  1  0.33690000  0.23210000  0.06730000  1.0 -0.0471275504
C  C478  1  0.33380000  0.27180000  0.08010000  1.0 -0.0771841169
C  C479  1  0.30790000  0.27500000  0.10500000  1.0 -0.0208855154
C  C480  1  0.28420000  0.24210000  0.11760000  1.0 -0.1555870018
C  C481  1  0.28540000  0.19690000  0.10520000  1.0 0.2585228943
C  C482  1  0.31500000  0.19410000  0.07760000  1.0 -0.1794129382
C  C483  1  0.22360000  0.15800000  0.11990000  1.0 0.377699703
C  C484  1  0.20520000  0.11770000  0.13280000  1.0 -0.141263439
C  C485  1  0.24840000  0.09500000  0.13760000  1.0 -0.1908039643
C  C486  1  0.28460000  0.12150000  0.12500000  1.0 0.4177258779
C  C487  1  0.18200000  0.11940000  0.16450000  1.0 -0.0254986298
C  C488  1  0.21600000  0.13630000  0.18660000  1.0 -0.1201434167
C  C489  1  0.25330000  0.12210000  0.19180000  1.0 -0.1035445358
C  C490  1  0.25710000  0.08060000  0.17040000  1.0 -0.0208855154
C  C491  1  0.23020000  0.03300000  0.21520000  1.0 0.4807322529
C  C492  1  0.21880000  0.04580000  0.18020000  1.0 -0.1794129382
C  C493  1  0.17700000  0.06660000  0.17690000  1.0 -0.1908039643
C  C494  1  0.15140000  0.06540000  0.20790000  1.0 0.4807322529
C  C495  1  0.15380000  0.07720000  0.30720000  1.0 0.021631999
C  C496  1  0.15610000  0.03870000  0.32170000  1.0 -0.1035445358
C  C497  1  0.17110000  0.00190000  0.30550000  1.0 -0.0057314081
C  C498  1  0.18030000  0.00610000  0.27520000  1.0 -0.1255429405
C  C499  1  0.17640000  0.04250000  0.26100000  1.0 0.1486856787
C  C500  1  0.16460000  0.08240000  0.27620000  1.0 -0.1705625793
C  C501  1  0.36560000  0.21790000  0.04260000  1.0 0.5736131275
C  C502  1  0.30630000  0.31630000  0.12290000  1.0 0.5903307461
C  C503  1  0.17620000  0.95870000  0.32140000  1.0 0.5736131275
C  C504  1  0.13920000  0.12060000  0.32420000  1.0 0.5768010085
C  C505  1  0.68260000  0.00150000  0.42850000  1.0 0.0135224386
C  C506  1  0.71740000  0.02840000  0.41650000  1.0 -0.1255429405
C  C507  1  0.70950000  0.05150000  0.38710000  1.0 0.0135224386
C  C508  1  0.67070000  0.04980000  0.37160000  1.0 -0.141263439
C  C509  1  0.63980000  0.02380000  0.38380000  1.0 0.1563406086
C  C510  1  0.64480000  0.00140000  0.41080000  1.0 -0.1486804234
C  C511  1  0.57490000  0.04760000  0.35750000  1.0 0.4604664148
C  C512  1  0.53460000  0.03050000  0.33980000  1.0 -0.1486804234
C  C513  1  0.54210000  0.98010000  0.33940000  1.0 -0.141263439
C  C514  1  0.58620000  0.97210000  0.35750000  1.0 0.4519500994
C  C515  1  0.50650000  0.95490000  0.35780000  1.0 -0.0047936649
C  C516  1  0.50480000  0.97690000  0.39120000  1.0 -0.1908039643
C  C517  1  0.68790000  0.97380000  0.45790000  1.0 0.5736131275
C  C518  1  0.75180000  0.07610000  0.37650000  1.0 0.5768010085
C  C519  1  0.73210000  0.83690000  0.43270000  1.0 -0.0471275504
C  C520  1  0.77180000  0.83380000  0.41990000  1.0 -0.0771841169
C  C521  1  0.77500000  0.80790000  0.39500000  1.0 -0.0208855154
C  C522  1  0.74210000  0.78420000  0.38240000  1.0 -0.1486804234
C  C523  1  0.69690000  0.78540000  0.39480000  1.0 0.2585228943
C  C524  1  0.69410000  0.81500000  0.42240000  1.0 -0.1794129382
C  C525  1  0.65800000  0.72360000  0.38010000  1.0 0.377699703
C  C526  1  0.61770000  0.70520000  0.36720000  1.0 -0.141263439
C  C527  1  0.59500000  0.74840000  0.36240000  1.0 -0.1908039643
C  C528  1  0.62150000  0.78460000  0.37500000  1.0 0.4177258779
C  C529  1  0.61940000  0.68200000  0.33550000  1.0 -0.0254986298
C  C530  1  0.63630000  0.71600000  0.31340000  1.0 -0.1201434167
C  C531  1  0.62210000  0.75330000  0.30820000  1.0 -0.1035445358
C  C532  1  0.58060000  0.75710000  0.32960000  1.0 -0.0208855154
C  C533  1  0.53300000  0.73020000  0.28480000  1.0 0.4807322529
C  C534  1  0.54580000  0.71880000  0.31980000  1.0 -0.1794129382
C  C535  1  0.56660000  0.67700000  0.32310000  1.0 -0.1908039643
C  C536  1  0.56540000  0.65140000  0.29210000  1.0 0.4807322529
C  C537  1  0.57720000  0.65380000  0.19280000  1.0 0.021631999
C  C538  1  0.53870000  0.65610000  0.17830000  1.0 -0.1065162494
C  C539  1  0.50190000  0.67110000  0.19450000  1.0 -0.0057314081
C  C540  1  0.50610000  0.68030000  0.22480000  1.0 -0.1201434167
C  C541  1  0.54250000  0.67640000  0.23900000  1.0 0.1486856787
C  C542  1  0.58240000  0.66460000  0.22380000  1.0 -0.1705625793
C  C543  1  0.71790000  0.86560000  0.45740000  1.0 0.5768010085
C  C544  1  0.81630000  0.80630000  0.37710000  1.0 0.5903307461
C  C545  1  0.45870000  0.67620000  0.17860000  1.0 0.5736131275
C  C546  1  0.62060000  0.63920000  0.17580000  1.0 0.5768010085
C  C547  1  0.31740000  0.99850000  0.42850000  1.0 0.0135224386
C  C548  1  0.28260000  0.97160000  0.41650000  1.0 -0.1255429405
C  C549  1  0.29050000  0.94850000  0.38710000  1.0 0.0135224386
C  C550  1  0.32930000  0.95020000  0.37160000  1.0 -0.141263439
C  C551  1  0.36020000  0.97620000  0.38380000  1.0 0.1563406086
C  C552  1  0.35520000  0.99860000  0.41080000  1.0 -0.1555870018
C  C553  1  0.42510000  0.95240000  0.35750000  1.0 0.4604664148
C  C554  1  0.46540000  0.96950000  0.33980000  1.0 -0.1486804234
C  C555  1  0.45790000  0.01990000  0.33940000  1.0 -0.141263439
C  C556  1  0.41380000  0.02790000  0.35750000  1.0 0.4519500994
C  C557  1  0.49350000  0.04510000  0.35780000  1.0 -0.0057314081
C  C558  1  0.49520000  0.02310000  0.39120000  1.0 -0.1950611434
C  C559  1  0.31210000  0.02620000  0.45790000  1.0 0.5736131275
C  C560  1  0.24820000  0.92390000  0.37650000  1.0 0.5768010085
C  C561  1  0.26790000  0.16310000  0.43270000  1.0 -0.0471275504
C  C562  1  0.22820000  0.16620000  0.41990000  1.0 -0.0771841169
C  C563  1  0.22500000  0.19210000  0.39500000  1.0 -0.0254986298
C  C564  1  0.25790000  0.21580000  0.38240000  1.0 -0.1555870018
C  C565  1  0.30310000  0.21460000  0.39480000  1.0 0.2585228943
C  C566  1  0.30590000  0.18500000  0.42240000  1.0 -0.1794129382
C  C567  1  0.34200000  0.27640000  0.38010000  1.0 0.377699703
C  C568  1  0.38230000  0.29480000  0.36720000  1.0 -0.141263439
C  C569  1  0.40500000  0.25160000  0.36240000  1.0 -0.1908039643
C  C570  1  0.37850000  0.21540000  0.37500000  1.0 0.4177258779
C  C571  1  0.38060000  0.31800000  0.33550000  1.0 -0.0254986298
C  C572  1  0.36370000  0.28400000  0.31340000  1.0 -0.1201434167
C  C573  1  0.37790000  0.24670000  0.30820000  1.0 -0.1035445358
C  C574  1  0.41940000  0.24290000  0.32960000  1.0 -0.0208855154
C  C575  1  0.46700000  0.26980000  0.28480000  1.0 0.4807322529
C  C576  1  0.45420000  0.28120000  0.31980000  1.0 -0.1794129382
C  C577  1  0.43340000  0.32300000  0.32310000  1.0 -0.1908039643
C  C578  1  0.43460000  0.34860000  0.29210000  1.0 0.4807322529
C  C579  1  0.42280000  0.34620000  0.19280000  1.0 0.021631999
C  C580  1  0.46130000  0.34390000  0.17830000  1.0 -0.1065162494
C  C581  1  0.49810000  0.32890000  0.19450000  1.0 -0.0057314081
C  C582  1  0.49390000  0.31970000  0.22480000  1.0 -0.1201434167
C  C583  1  0.45750000  0.32360000  0.23900000  1.0 0.1486856787
C  C584  1  0.41760000  0.33540000  0.22380000  1.0 -0.1705625793
C  C585  1  0.28210000  0.13440000  0.45740000  1.0 0.5768010085
C  C586  1  0.18370000  0.19370000  0.37710000  1.0 0.5903307461
C  C587  1  0.54130000  0.32380000  0.17860000  1.0 0.5736131275
C  C588  1  0.37940000  0.36080000  0.17580000  1.0 0.5768010085
C  C589  1  0.00150000  0.31740000  0.42850000  1.0 0.0135224386
C  C590  1  0.02840000  0.28260000  0.41650000  1.0 -0.1255429405
C  C591  1  0.05150000  0.29050000  0.38710000  1.0 0.0135224386
C  C592  1  0.04980000  0.32930000  0.37160000  1.0 -0.141263439
C  C593  1  0.02380000  0.36020000  0.38380000  1.0 0.1563406086
C  C594  1  0.00140000  0.35520000  0.41080000  1.0 -0.1555870018
C  C595  1  0.04760000  0.42510000  0.35750000  1.0 0.4604664148
C  C596  1  0.03050000  0.46540000  0.33980000  1.0 -0.1486804234
C  C597  1  0.98010000  0.45790000  0.33940000  1.0 -0.141263439
C  C598  1  0.97210000  0.41380000  0.35750000  1.0 0.4519500994
C  C599  1  0.95490000  0.49350000  0.35780000  1.0 -0.0047936649
C  C600  1  0.97690000  0.49520000  0.39120000  1.0 -0.1908039643
C  C601  1  0.97380000  0.31210000  0.45790000  1.0 0.5736131275
C  C602  1  0.07610000  0.24820000  0.37650000  1.0 0.5768010085
C  C603  1  0.83690000  0.26790000  0.43270000  1.0 -0.0471275504
C  C604  1  0.83380000  0.22820000  0.41990000  1.0 -0.0771841169
C  C605  1  0.80790000  0.22500000  0.39500000  1.0 -0.0208855154
C  C606  1  0.78420000  0.25790000  0.38240000  1.0 -0.1555870018
C  C607  1  0.78540000  0.30310000  0.39480000  1.0 0.2585228943
C  C608  1  0.81500000  0.30590000  0.42240000  1.0 -0.1794129382
C  C609  1  0.72360000  0.34200000  0.38010000  1.0 0.377699703
C  C610  1  0.70520000  0.38230000  0.36720000  1.0 -0.141263439
C  C611  1  0.74840000  0.40500000  0.36240000  1.0 -0.1908039643
C  C612  1  0.78460000  0.37850000  0.37500000  1.0 0.4177258779
C  C613  1  0.68200000  0.38060000  0.33550000  1.0 -0.0254986298
C  C614  1  0.71600000  0.36370000  0.31340000  1.0 -0.1201434167
C  C615  1  0.75330000  0.37790000  0.30820000  1.0 -0.1035445358
C  C616  1  0.75710000  0.41940000  0.32960000  1.0 -0.0208855154
C  C617  1  0.73020000  0.46700000  0.28480000  1.0 0.4807322529
C  C618  1  0.71880000  0.45420000  0.31980000  1.0 -0.1794129382
C  C619  1  0.67700000  0.43340000  0.32310000  1.0 -0.1908039643
C  C620  1  0.65140000  0.43460000  0.29210000  1.0 0.4807322529
C  C621  1  0.65380000  0.42280000  0.19280000  1.0 0.021631999
C  C622  1  0.65610000  0.46130000  0.17830000  1.0 -0.1065162494
C  C623  1  0.67110000  0.49810000  0.19450000  1.0 -0.0057314081
C  C624  1  0.68030000  0.49390000  0.22480000  1.0 -0.1255429405
C  C625  1  0.67640000  0.45750000  0.23900000  1.0 0.1486856787
C  C626  1  0.66460000  0.41760000  0.22380000  1.0 -0.1705625793
C  C627  1  0.86560000  0.28210000  0.45740000  1.0 0.5768010085
C  C628  1  0.80630000  0.18370000  0.37710000  1.0 0.5903307461
C  C629  1  0.67620000  0.54130000  0.17860000  1.0 0.5736131275
C  C630  1  0.63920000  0.37940000  0.17580000  1.0 0.5768010085
C  C631  1  0.99850000  0.68260000  0.42850000  1.0 0.0135224386
C  C632  1  0.97160000  0.71740000  0.41650000  1.0 -0.1255429405
C  C633  1  0.94850000  0.70950000  0.38710000  1.0 0.0135224386
C  C634  1  0.95020000  0.67070000  0.37160000  1.0 -0.141263439
C  C635  1  0.97620000  0.63980000  0.38380000  1.0 0.1563406086
C  C636  1  0.99860000  0.64480000  0.41080000  1.0 -0.1555870018
C  C637  1  0.95240000  0.57490000  0.35750000  1.0 0.4604664148
C  C638  1  0.96950000  0.53460000  0.33980000  1.0 -0.1486804234
C  C639  1  0.01990000  0.54210000  0.33940000  1.0 -0.141263439
C  C640  1  0.02790000  0.58620000  0.35750000  1.0 0.4519500994
C  C641  1  0.04510000  0.50650000  0.35780000  1.0 -0.0057314081
C  C642  1  0.02310000  0.50480000  0.39120000  1.0 -0.1908039643
C  C643  1  0.02620000  0.68790000  0.45790000  1.0 0.5736131275
C  C644  1  0.92390000  0.75180000  0.37650000  1.0 0.5768010085
C  C645  1  0.16310000  0.73210000  0.43270000  1.0 -0.0471275504
C  C646  1  0.16620000  0.77180000  0.41990000  1.0 -0.0771841169
C  C647  1  0.19210000  0.77500000  0.39500000  1.0 -0.0254986298
C  C648  1  0.21580000  0.74210000  0.38240000  1.0 -0.1486804234
C  C649  1  0.21460000  0.69690000  0.39480000  1.0 0.2585228943
C  C650  1  0.18500000  0.69410000  0.42240000  1.0 -0.1794129382
C  C651  1  0.27640000  0.65800000  0.38010000  1.0 0.377699703
C  C652  1  0.29480000  0.61770000  0.36720000  1.0 -0.141263439
C  C653  1  0.25160000  0.59500000  0.36240000  1.0 -0.1908039643
C  C654  1  0.21540000  0.62150000  0.37500000  1.0 0.4177258779
C  C655  1  0.31800000  0.61940000  0.33550000  1.0 -0.0254986298
C  C656  1  0.28400000  0.63630000  0.31340000  1.0 -0.1201434167
C  C657  1  0.24670000  0.62210000  0.30820000  1.0 -0.1035445358
C  C658  1  0.24290000  0.58060000  0.32960000  1.0 -0.0208855154
C  C659  1  0.26980000  0.53300000  0.28480000  1.0 0.4807322529
C  C660  1  0.28120000  0.54580000  0.31980000  1.0 -0.1794129382
C  C661  1  0.32300000  0.56660000  0.32310000  1.0 -0.1908039643
C  C662  1  0.34860000  0.56540000  0.29210000  1.0 0.4807322529
C  C663  1  0.34620000  0.57720000  0.19280000  1.0 0.021631999
C  C664  1  0.34390000  0.53870000  0.17830000  1.0 -0.1065162494
C  C665  1  0.32890000  0.50190000  0.19450000  1.0 -0.0057314081
C  C666  1  0.31970000  0.50610000  0.22480000  1.0 -0.1201434167
C  C667  1  0.32360000  0.54250000  0.23900000  1.0 0.1486856787
C  C668  1  0.33540000  0.58240000  0.22380000  1.0 -0.1705625793
C  C669  1  0.13440000  0.71790000  0.45740000  1.0 0.5768010085
C  C670  1  0.19370000  0.81630000  0.37710000  1.0 0.5903307461
C  C671  1  0.32380000  0.45870000  0.17860000  1.0 0.5736131275
C  C672  1  0.36080000  0.62060000  0.17580000  1.0 0.5768010085
N  N1  1  0.10080000  0.48540000  0.86640000  1.0 -0.2104620048
N  N2  1  0.16110000  0.73670000  0.88330000  1.0 -0.2104620048
N  N3  1  0.04770000  0.81420000  0.77520000  1.0 -0.2563782396
N  N4  1  0.89920000  0.51460000  0.86640000  1.0 -0.2104620048
N  N5  1  0.83890000  0.26330000  0.88330000  1.0 -0.2104620048
N  N6  1  0.95230000  0.18580000  0.77520000  1.0 -0.2563782396
N  N7  1  0.51460000  0.10080000  0.86640000  1.0 -0.2104620048
N  N8  1  0.26330000  0.16110000  0.88330000  1.0 -0.2104620048
N  N9  1  0.18580000  0.04770000  0.77520000  1.0 -0.2563782396
N  N10  1  0.48540000  0.89920000  0.86640000  1.0 -0.2104620048
N  N11  1  0.73670000  0.83890000  0.88330000  1.0 -0.2104620048
N  N12  1  0.81420000  0.95230000  0.77520000  1.0 -0.2563782396
N  N13  1  0.39920000  0.98540000  0.63360000  1.0 -0.2104620048
N  N14  1  0.33890000  0.23670000  0.61670000  1.0 -0.2104620048
N  N15  1  0.45230000  0.31420000  0.72480000  1.0 -0.2546384297
N  N16  1  0.60080000  0.01460000  0.63360000  1.0 -0.2104620048
N  N17  1  0.66110000  0.76330000  0.61670000  1.0 -0.2104620048
N  N18  1  0.54770000  0.68580000  0.72480000  1.0 -0.2546384297
N  N19  1  0.98540000  0.60080000  0.63360000  1.0 -0.2104620048
N  N20  1  0.23670000  0.66110000  0.61670000  1.0 -0.2104620048
N  N21  1  0.31420000  0.54770000  0.72480000  1.0 -0.2546384297
N  N22  1  0.01460000  0.39920000  0.63360000  1.0 -0.2104620048
N  N23  1  0.76330000  0.33890000  0.61670000  1.0 -0.2104620048
N  N24  1  0.68580000  0.45230000  0.72480000  1.0 -0.2546384297
N  N25  1  0.89920000  0.51460000  0.13360000  1.0 -0.2104620048
N  N26  1  0.83890000  0.26330000  0.11670000  1.0 -0.2104620048
N  N27  1  0.95230000  0.18580000  0.22480000  1.0 -0.2563782396
N  N28  1  0.10080000  0.48540000  0.13360000  1.0 -0.2104620048
N  N29  1  0.16110000  0.73670000  0.11670000  1.0 -0.2104620048
N  N30  1  0.04770000  0.81420000  0.22480000  1.0 -0.2563782396
N  N31  1  0.48540000  0.89920000  0.13360000  1.0 -0.2104620048
N  N32  1  0.73670000  0.83890000  0.11670000  1.0 -0.2104620048
N  N33  1  0.81420000  0.95230000  0.22480000  1.0 -0.2563782396
N  N34  1  0.51460000  0.10080000  0.13360000  1.0 -0.2104620048
N  N35  1  0.26330000  0.16110000  0.11670000  1.0 -0.2104620048
N  N36  1  0.18580000  0.04770000  0.22480000  1.0 -0.2563782396
N  N37  1  0.60080000  0.01460000  0.36640000  1.0 -0.2104620048
N  N38  1  0.66110000  0.76330000  0.38330000  1.0 -0.2104620048
N  N39  1  0.54770000  0.68580000  0.27520000  1.0 -0.2563782396
N  N40  1  0.39920000  0.98540000  0.36640000  1.0 -0.2104620048
N  N41  1  0.33890000  0.23670000  0.38330000  1.0 -0.2104620048
N  N42  1  0.45230000  0.31420000  0.27520000  1.0 -0.2563782396
N  N43  1  0.01460000  0.39920000  0.36640000  1.0 -0.2104620048
N  N44  1  0.76330000  0.33890000  0.38330000  1.0 -0.2104620048
N  N45  1  0.68580000  0.45230000  0.27520000  1.0 -0.2563782396
N  N46  1  0.98540000  0.60080000  0.36640000  1.0 -0.2104620048
N  N47  1  0.23670000  0.66110000  0.38330000  1.0 -0.2104620048
N  N48  1  0.31420000  0.54770000  0.27520000  1.0 -0.2563782396
O  O1  1  0.22830000  0.52600000  0.96748000  1.0 -0.5425552251
O  O2  1  0.15630000  0.54500000  0.96802000  1.0 -0.4717985875
O  O3  1  0.28590000  0.42510000  0.89197000  1.0 -0.5016003232
O  O4  1  0.24330000  0.40390000  0.85085000  1.0 -0.5425552251
O  O5  1  0.08170000  0.41400000  0.86370000  1.0 -0.4265920631
O  O6  1  0.10470000  0.55920000  0.86240000  1.0 -0.3721217028
O  O7  1  0.17900000  0.63050000  0.96863000  1.0 -0.5139110122
O  O8  1  0.25090000  0.61180000  0.96752000  1.0 -0.5202315618
O  O9  1  0.34550000  0.67110000  0.89047000  1.0 -0.5139110122
O  O10  1  0.32120000  0.71570000  0.85347000  1.0 -0.4827048545
O  O11  1  0.18990000  0.80550000  0.88520000  1.0 -0.5202315618
O  O12  1  0.12230000  0.67640000  0.87260000  1.0 -0.4213615512
O  O13  1  0.01800000  0.74170000  0.77090000  1.0 -0.3234279751
O  O14  1  0.08470000  0.87790000  0.78680000  1.0 -0.3833966813
O  O15  1  0.92900000  0.80180000  0.69148000  1.0 -0.5016003232
O  O16  1  0.95670000  0.84020000  0.65059000  1.0 -0.5425552251
O  O17  1  0.11230000  0.88080000  0.65049000  1.0 -0.5202315618
O  O18  1  0.15490000  0.85310000  0.68838000  1.0 -0.4827048545
O  O19  1  0.77170000  0.47400000  0.96748000  1.0 -0.5425552251
O  O20  1  0.84370000  0.45500000  0.96802000  1.0 -0.4717985875
O  O21  1  0.71410000  0.57490000  0.89197000  1.0 -0.5016003232
O  O22  1  0.75670000  0.59610000  0.85085000  1.0 -0.5425552251
O  O23  1  0.91830000  0.58600000  0.86370000  1.0 -0.4213615512
O  O24  1  0.89530000  0.44080000  0.86240000  1.0 -0.3721217028
O  O25  1  0.82100000  0.36950000  0.96863000  1.0 -0.5202315618
O  O26  1  0.74910000  0.38820000  0.96752000  1.0 -0.5202315618
O  O27  1  0.65450000  0.32890000  0.89047000  1.0 -0.5139110122
O  O28  1  0.67880000  0.28430000  0.85347000  1.0 -0.4827048545
O  O29  1  0.81010000  0.19450000  0.88520000  1.0 -0.5202315618
O  O30  1  0.87770000  0.32360000  0.87260000  1.0 -0.4213615512
O  O31  1  0.98200000  0.25830000  0.77090000  1.0 -0.3234279751
O  O32  1  0.91530000  0.12210000  0.78680000  1.0 -0.3833966813
O  O33  1  0.07100000  0.19820000  0.69148000  1.0 -0.5016003232
O  O34  1  0.04330000  0.15980000  0.65059000  1.0 -0.5425552251
O  O35  1  0.88770000  0.11920000  0.65049000  1.0 -0.5202315618
O  O36  1  0.84510000  0.14690000  0.68838000  1.0 -0.4827048545
O  O37  1  0.47400000  0.22830000  0.96748000  1.0 -0.5425552251
O  O38  1  0.45500000  0.15630000  0.96802000  1.0 -0.4717985875
O  O39  1  0.57490000  0.28590000  0.89197000  1.0 -0.5016003232
O  O40  1  0.59610000  0.24330000  0.85085000  1.0 -0.5425552251
O  O41  1  0.58600000  0.08170000  0.86370000  1.0 -0.4213615512
O  O42  1  0.44080000  0.10470000  0.86240000  1.0 -0.3721217028
O  O43  1  0.36950000  0.17900000  0.96863000  1.0 -0.5139110122
O  O44  1  0.38820000  0.25090000  0.96752000  1.0 -0.5202315618
O  O45  1  0.32890000  0.34550000  0.89047000  1.0 -0.5139110122
O  O46  1  0.28430000  0.32120000  0.85347000  1.0 -0.4827048545
O  O47  1  0.19450000  0.18990000  0.88520000  1.0 -0.5202315618
O  O48  1  0.32360000  0.12230000  0.87260000  1.0 -0.4213615512
O  O49  1  0.25830000  0.01800000  0.77090000  1.0 -0.3298682235
O  O50  1  0.12210000  0.08470000  0.78680000  1.0 -0.3870900086
O  O51  1  0.19820000  0.92900000  0.69148000  1.0 -0.5016003232
O  O52  1  0.15980000  0.95670000  0.65059000  1.0 -0.5425552251
O  O53  1  0.11920000  0.11230000  0.65049000  1.0 -0.5202315618
O  O54  1  0.14690000  0.15490000  0.68838000  1.0 -0.4827048545
O  O55  1  0.52600000  0.77170000  0.96748000  1.0 -0.5425552251
O  O56  1  0.54500000  0.84370000  0.96802000  1.0 -0.4717985875
O  O57  1  0.42510000  0.71410000  0.89197000  1.0 -0.5016003232
O  O58  1  0.40390000  0.75670000  0.85085000  1.0 -0.5425552251
O  O59  1  0.41400000  0.91830000  0.86370000  1.0 -0.4265920631
O  O60  1  0.55920000  0.89530000  0.86240000  1.0 -0.3721217028
O  O61  1  0.63050000  0.82100000  0.96863000  1.0 -0.5139110122
O  O62  1  0.61180000  0.74910000  0.96752000  1.0 -0.5202315618
O  O63  1  0.67110000  0.65450000  0.89047000  1.0 -0.5139110122
O  O64  1  0.71570000  0.67880000  0.85347000  1.0 -0.4827048545
O  O65  1  0.80550000  0.81010000  0.88520000  1.0 -0.5202315618
O  O66  1  0.67640000  0.87770000  0.87260000  1.0 -0.4213615512
O  O67  1  0.74170000  0.98200000  0.77090000  1.0 -0.3234279751
O  O68  1  0.87790000  0.91530000  0.78680000  1.0 -0.3833966813
O  O69  1  0.80180000  0.07100000  0.69148000  1.0 -0.5016003232
O  O70  1  0.84020000  0.04330000  0.65059000  1.0 -0.5425552251
O  O71  1  0.88080000  0.88770000  0.65049000  1.0 -0.5202315618
O  O72  1  0.85310000  0.84510000  0.68838000  1.0 -0.4827048545
O  O73  1  0.27170000  0.02600000  0.53252000  1.0 -0.5425552251
O  O74  1  0.34370000  0.04500000  0.53198000  1.0 -0.4717985875
O  O75  1  0.21410000  0.92510000  0.60803000  1.0 -0.5016003232
O  O76  1  0.25670000  0.90390000  0.64915000  1.0 -0.5425552251
O  O77  1  0.41830000  0.91400000  0.63630000  1.0 -0.4213615512
O  O78  1  0.39530000  0.05920000  0.63760000  1.0 -0.3721217028
O  O79  1  0.32100000  0.13050000  0.53137000  1.0 -0.5202315618
O  O80  1  0.24910000  0.11180000  0.53248000  1.0 -0.5202315618
O  O81  1  0.15450000  0.17110000  0.60953000  1.0 -0.5139110122
O  O82  1  0.17880000  0.21570000  0.64653000  1.0 -0.4827048545
O  O83  1  0.31010000  0.30550000  0.61480000  1.0 -0.5202315618
O  O84  1  0.37770000  0.17640000  0.62740000  1.0 -0.4213615512
O  O85  1  0.48200000  0.24170000  0.72910000  1.0 -0.3298682235
O  O86  1  0.41530000  0.37790000  0.71320000  1.0 -0.3870900086
O  O87  1  0.57100000  0.30180000  0.80852000  1.0 -0.5016003232
O  O88  1  0.54330000  0.34020000  0.84941000  1.0 -0.5425552251
O  O89  1  0.38770000  0.38080000  0.84951000  1.0 -0.5202315618
O  O90  1  0.34510000  0.35310000  0.81162000  1.0 -0.4827048545
O  O91  1  0.72830000  0.97400000  0.53252000  1.0 -0.5425552251
O  O92  1  0.65630000  0.95500000  0.53198000  1.0 -0.4717985875
O  O93  1  0.78590000  0.07490000  0.60803000  1.0 -0.5016003232
O  O94  1  0.74330000  0.09610000  0.64915000  1.0 -0.5425552251
O  O95  1  0.58170000  0.08600000  0.63630000  1.0 -0.4213615512
O  O96  1  0.60470000  0.94080000  0.63760000  1.0 -0.3721217028
O  O97  1  0.67900000  0.86950000  0.53137000  1.0 -0.5202315618
O  O98  1  0.75090000  0.88820000  0.53248000  1.0 -0.5202315618
O  O99  1  0.84550000  0.82890000  0.60953000  1.0 -0.5139110122
O  O100  1  0.82120000  0.78430000  0.64653000  1.0 -0.4827048545
O  O101  1  0.68990000  0.69450000  0.61480000  1.0 -0.5139110122
O  O102  1  0.62230000  0.82360000  0.62740000  1.0 -0.4213615512
O  O103  1  0.51800000  0.75830000  0.72910000  1.0 -0.3298682235
O  O104  1  0.58470000  0.62210000  0.71320000  1.0 -0.3870900086
O  O105  1  0.42900000  0.69820000  0.80852000  1.0 -0.5016003232
O  O106  1  0.45670000  0.65980000  0.84941000  1.0 -0.5425552251
O  O107  1  0.61230000  0.61920000  0.84951000  1.0 -0.5202315618
O  O108  1  0.65490000  0.64690000  0.81162000  1.0 -0.4827048545
O  O109  1  0.02600000  0.72830000  0.53252000  1.0 -0.5425552251
O  O110  1  0.04500000  0.65630000  0.53198000  1.0 -0.4717985875
O  O111  1  0.92510000  0.78590000  0.60803000  1.0 -0.5016003232
O  O112  1  0.90390000  0.74330000  0.64915000  1.0 -0.5425552251
O  O113  1  0.91400000  0.58170000  0.63630000  1.0 -0.4213615512
O  O114  1  0.05920000  0.60470000  0.63760000  1.0 -0.3721217028
O  O115  1  0.13050000  0.67900000  0.53137000  1.0 -0.5202315618
O  O116  1  0.11180000  0.75090000  0.53248000  1.0 -0.5202315618
O  O117  1  0.17110000  0.84550000  0.60953000  1.0 -0.5139110122
O  O118  1  0.21570000  0.82120000  0.64653000  1.0 -0.4827048545
O  O119  1  0.30550000  0.68990000  0.61480000  1.0 -0.5139110122
O  O120  1  0.17640000  0.62230000  0.62740000  1.0 -0.4213615512
O  O121  1  0.24170000  0.51800000  0.72910000  1.0 -0.3298682235
O  O122  1  0.37790000  0.58470000  0.71320000  1.0 -0.3870900086
O  O123  1  0.30180000  0.42900000  0.80852000  1.0 -0.5016003232
O  O124  1  0.34020000  0.45670000  0.84941000  1.0 -0.5425552251
O  O125  1  0.38080000  0.61230000  0.84951000  1.0 -0.5202315618
O  O126  1  0.35310000  0.65490000  0.81162000  1.0 -0.4827048545
O  O127  1  0.97400000  0.27170000  0.53252000  1.0 -0.5425552251
O  O128  1  0.95500000  0.34370000  0.53198000  1.0 -0.4717985875
O  O129  1  0.07490000  0.21410000  0.60803000  1.0 -0.5016003232
O  O130  1  0.09610000  0.25670000  0.64915000  1.0 -0.5425552251
O  O131  1  0.08600000  0.41830000  0.63630000  1.0 -0.4213615512
O  O132  1  0.94080000  0.39530000  0.63760000  1.0 -0.3721217028
O  O133  1  0.86950000  0.32100000  0.53137000  1.0 -0.5202315618
O  O134  1  0.88820000  0.24910000  0.53248000  1.0 -0.5202315618
O  O135  1  0.82890000  0.15450000  0.60953000  1.0 -0.5139110122
O  O136  1  0.78430000  0.17880000  0.64653000  1.0 -0.4827048545
O  O137  1  0.69450000  0.31010000  0.61480000  1.0 -0.5202315618
O  O138  1  0.82360000  0.37770000  0.62740000  1.0 -0.4213615512
O  O139  1  0.75830000  0.48200000  0.72910000  1.0 -0.3298682235
O  O140  1  0.62210000  0.41530000  0.71320000  1.0 -0.3870900086
O  O141  1  0.69820000  0.57100000  0.80852000  1.0 -0.5016003232
O  O142  1  0.65980000  0.54330000  0.84941000  1.0 -0.5425552251
O  O143  1  0.61920000  0.38770000  0.84951000  1.0 -0.5202315618
O  O144  1  0.64690000  0.34510000  0.81162000  1.0 -0.4827048545
O  O145  1  0.77170000  0.47400000  0.03252000  1.0 -0.5425552251
O  O146  1  0.84370000  0.45500000  0.03198000  1.0 -0.4717985875
O  O147  1  0.71410000  0.57490000  0.10803000  1.0 -0.5016003232
O  O148  1  0.75670000  0.59610000  0.14915000  1.0 -0.5425552251
O  O149  1  0.91830000  0.58600000  0.13630000  1.0 -0.4265920631
O  O150  1  0.89530000  0.44080000  0.13760000  1.0 -0.3721217028
O  O151  1  0.82100000  0.36950000  0.03137000  1.0 -0.5202315618
O  O152  1  0.74910000  0.38820000  0.03248000  1.0 -0.5202315618
O  O153  1  0.65450000  0.32890000  0.10953000  1.0 -0.5139110122
O  O154  1  0.67880000  0.28430000  0.14653000  1.0 -0.4827048545
O  O155  1  0.81010000  0.19450000  0.11480000  1.0 -0.5202315618
O  O156  1  0.87770000  0.32360000  0.12740000  1.0 -0.4213615512
O  O157  1  0.98200000  0.25830000  0.22910000  1.0 -0.3234279751
O  O158  1  0.91530000  0.12210000  0.21320000  1.0 -0.3833966813
O  O159  1  0.07100000  0.19820000  0.30852000  1.0 -0.5016003232
O  O160  1  0.04330000  0.15980000  0.34941000  1.0 -0.5454252921
O  O161  1  0.88770000  0.11920000  0.34951000  1.0 -0.5202315618
O  O162  1  0.84510000  0.14690000  0.31162000  1.0 -0.4827048545
O  O163  1  0.22830000  0.52600000  0.03252000  1.0 -0.5425552251
O  O164  1  0.15630000  0.54500000  0.03198000  1.0 -0.4717985875
O  O165  1  0.28590000  0.42510000  0.10803000  1.0 -0.5016003232
O  O166  1  0.24330000  0.40390000  0.14915000  1.0 -0.5425552251
O  O167  1  0.08170000  0.41400000  0.13630000  1.0 -0.4213615512
O  O168  1  0.10470000  0.55920000  0.13760000  1.0 -0.3721217028
O  O169  1  0.17900000  0.63050000  0.03137000  1.0 -0.5202315618
O  O170  1  0.25090000  0.61180000  0.03248000  1.0 -0.5202315618
O  O171  1  0.34550000  0.67110000  0.10953000  1.0 -0.5139110122
O  O172  1  0.32120000  0.71570000  0.14653000  1.0 -0.4827048545
O  O173  1  0.18990000  0.80550000  0.11480000  1.0 -0.5202315618
O  O174  1  0.12230000  0.67640000  0.12740000  1.0 -0.4213615512
O  O175  1  0.01800000  0.74170000  0.22910000  1.0 -0.3234279751
O  O176  1  0.08470000  0.87790000  0.21320000  1.0 -0.3833966813
O  O177  1  0.92900000  0.80180000  0.30852000  1.0 -0.5016003232
O  O178  1  0.95670000  0.84020000  0.34941000  1.0 -0.5425552251
O  O179  1  0.11230000  0.88080000  0.34951000  1.0 -0.5202315618
O  O180  1  0.15490000  0.85310000  0.31162000  1.0 -0.4827048545
O  O181  1  0.52600000  0.77170000  0.03252000  1.0 -0.5425552251
O  O182  1  0.54500000  0.84370000  0.03198000  1.0 -0.4717985875
O  O183  1  0.42510000  0.71410000  0.10803000  1.0 -0.5016003232
O  O184  1  0.40390000  0.75670000  0.14915000  1.0 -0.5425552251
O  O185  1  0.41400000  0.91830000  0.13630000  1.0 -0.4265920631
O  O186  1  0.55920000  0.89530000  0.13760000  1.0 -0.3721217028
O  O187  1  0.63050000  0.82100000  0.03137000  1.0 -0.5202315618
O  O188  1  0.61180000  0.74910000  0.03248000  1.0 -0.5202315618
O  O189  1  0.67110000  0.65450000  0.10953000  1.0 -0.5139110122
O  O190  1  0.71570000  0.67880000  0.14653000  1.0 -0.4827048545
O  O191  1  0.80550000  0.81010000  0.11480000  1.0 -0.5202315618
O  O192  1  0.67640000  0.87770000  0.12740000  1.0 -0.4213615512
O  O193  1  0.74170000  0.98200000  0.22910000  1.0 -0.3234279751
O  O194  1  0.87790000  0.91530000  0.21320000  1.0 -0.3833966813
O  O195  1  0.80180000  0.07100000  0.30852000  1.0 -0.5016003232
O  O196  1  0.84020000  0.04330000  0.34941000  1.0 -0.5454252921
O  O197  1  0.88080000  0.88770000  0.34951000  1.0 -0.5202315618
O  O198  1  0.85310000  0.84510000  0.31162000  1.0 -0.4827048545
O  O199  1  0.47400000  0.22830000  0.03252000  1.0 -0.5425552251
O  O200  1  0.45500000  0.15630000  0.03198000  1.0 -0.4717985875
O  O201  1  0.57490000  0.28590000  0.10803000  1.0 -0.5016003232
O  O202  1  0.59610000  0.24330000  0.14915000  1.0 -0.5425552251
O  O203  1  0.58600000  0.08170000  0.13630000  1.0 -0.4213615512
O  O204  1  0.44080000  0.10470000  0.13760000  1.0 -0.3721217028
O  O205  1  0.36950000  0.17900000  0.03137000  1.0 -0.5202315618
O  O206  1  0.38820000  0.25090000  0.03248000  1.0 -0.5202315618
O  O207  1  0.32890000  0.34550000  0.10953000  1.0 -0.5139110122
O  O208  1  0.28430000  0.32120000  0.14653000  1.0 -0.4827048545
O  O209  1  0.19450000  0.18990000  0.11480000  1.0 -0.5202315618
O  O210  1  0.32360000  0.12230000  0.12740000  1.0 -0.4213615512
O  O211  1  0.25830000  0.01800000  0.22910000  1.0 -0.3298682235
O  O212  1  0.12210000  0.08470000  0.21320000  1.0 -0.3870900086
O  O213  1  0.19820000  0.92900000  0.30852000  1.0 -0.5016003232
O  O214  1  0.15980000  0.95670000  0.34941000  1.0 -0.5454252921
O  O215  1  0.11920000  0.11230000  0.34951000  1.0 -0.5202315618
O  O216  1  0.14690000  0.15490000  0.31162000  1.0 -0.4827048545
O  O217  1  0.72830000  0.97400000  0.46748000  1.0 -0.5425552251
O  O218  1  0.65630000  0.95500000  0.46802000  1.0 -0.4717985875
O  O219  1  0.78590000  0.07490000  0.39197000  1.0 -0.5016003232
O  O220  1  0.74330000  0.09610000  0.35085000  1.0 -0.5425552251
O  O221  1  0.58170000  0.08600000  0.36370000  1.0 -0.4213615512
O  O222  1  0.60470000  0.94080000  0.36240000  1.0 -0.3721217028
O  O223  1  0.67900000  0.86950000  0.46863000  1.0 -0.5139110122
O  O224  1  0.75090000  0.88820000  0.46752000  1.0 -0.5202315618
O  O225  1  0.84550000  0.82890000  0.39047000  1.0 -0.5139110122
O  O226  1  0.82120000  0.78430000  0.35347000  1.0 -0.4827048545
O  O227  1  0.68990000  0.69450000  0.38520000  1.0 -0.5202315618
O  O228  1  0.62230000  0.82360000  0.37260000  1.0 -0.4213615512
O  O229  1  0.51800000  0.75830000  0.27090000  1.0 -0.3234279751
O  O230  1  0.58470000  0.62210000  0.28680000  1.0 -0.3833966813
O  O231  1  0.42900000  0.69820000  0.19148000  1.0 -0.5016003232
O  O232  1  0.45670000  0.65980000  0.15059000  1.0 -0.5425552251
O  O233  1  0.61230000  0.61920000  0.15049000  1.0 -0.5202315618
O  O234  1  0.65490000  0.64690000  0.18838000  1.0 -0.4827048545
O  O235  1  0.27170000  0.02600000  0.46748000  1.0 -0.5425552251
O  O236  1  0.34370000  0.04500000  0.46802000  1.0 -0.4717985875
O  O237  1  0.21410000  0.92510000  0.39197000  1.0 -0.5016003232
O  O238  1  0.25670000  0.90390000  0.35085000  1.0 -0.5425552251
O  O239  1  0.41830000  0.91400000  0.36370000  1.0 -0.4213615512
O  O240  1  0.39530000  0.05920000  0.36240000  1.0 -0.3721217028
O  O241  1  0.32100000  0.13050000  0.46863000  1.0 -0.5139110122
O  O242  1  0.24910000  0.11180000  0.46752000  1.0 -0.5202315618
O  O243  1  0.15450000  0.17110000  0.39047000  1.0 -0.5139110122
O  O244  1  0.17880000  0.21570000  0.35347000  1.0 -0.4827048545
O  O245  1  0.31010000  0.30550000  0.38520000  1.0 -0.5202315618
O  O246  1  0.37770000  0.17640000  0.37260000  1.0 -0.4213615512
O  O247  1  0.48200000  0.24170000  0.27090000  1.0 -0.3298682235
O  O248  1  0.41530000  0.37790000  0.28680000  1.0 -0.3833966813
O  O249  1  0.57100000  0.30180000  0.19148000  1.0 -0.5016003232
O  O250  1  0.54330000  0.34020000  0.15059000  1.0 -0.5425552251
O  O251  1  0.38770000  0.38080000  0.15049000  1.0 -0.5202315618
O  O252  1  0.34510000  0.35310000  0.18838000  1.0 -0.4827048545
O  O253  1  0.97400000  0.27170000  0.46748000  1.0 -0.5425552251
O  O254  1  0.95500000  0.34370000  0.46802000  1.0 -0.4717985875
O  O255  1  0.07490000  0.21410000  0.39197000  1.0 -0.5016003232
O  O256  1  0.09610000  0.25670000  0.35085000  1.0 -0.5425552251
O  O257  1  0.08600000  0.41830000  0.36370000  1.0 -0.4213615512
O  O258  1  0.94080000  0.39530000  0.36240000  1.0 -0.3721217028
O  O259  1  0.86950000  0.32100000  0.46863000  1.0 -0.5139110122
O  O260  1  0.88820000  0.24910000  0.46752000  1.0 -0.5202315618
O  O261  1  0.82890000  0.15450000  0.39047000  1.0 -0.5139110122
O  O262  1  0.78430000  0.17880000  0.35347000  1.0 -0.4827048545
O  O263  1  0.69450000  0.31010000  0.38520000  1.0 -0.5202315618
O  O264  1  0.82360000  0.37770000  0.37260000  1.0 -0.4213615512
O  O265  1  0.75830000  0.48200000  0.27090000  1.0 -0.3234279751
O  O266  1  0.62210000  0.41530000  0.28680000  1.0 -0.3833966813
O  O267  1  0.69820000  0.57100000  0.19148000  1.0 -0.5016003232
O  O268  1  0.65980000  0.54330000  0.15059000  1.0 -0.5425552251
O  O269  1  0.61920000  0.38770000  0.15049000  1.0 -0.5202315618
O  O270  1  0.64690000  0.34510000  0.18838000  1.0 -0.4827048545
O  O271  1  0.02600000  0.72830000  0.46748000  1.0 -0.5425552251
O  O272  1  0.04500000  0.65630000  0.46802000  1.0 -0.4717985875
O  O273  1  0.92510000  0.78590000  0.39197000  1.0 -0.5016003232
O  O274  1  0.90390000  0.74330000  0.35085000  1.0 -0.5425552251
O  O275  1  0.91400000  0.58170000  0.36370000  1.0 -0.4213615512
O  O276  1  0.05920000  0.60470000  0.36240000  1.0 -0.3721217028
O  O277  1  0.13050000  0.67900000  0.46863000  1.0 -0.5139110122
O  O278  1  0.11180000  0.75090000  0.46752000  1.0 -0.5202315618
O  O279  1  0.17110000  0.84550000  0.39047000  1.0 -0.5139110122
O  O280  1  0.21570000  0.82120000  0.35347000  1.0 -0.4827048545
O  O281  1  0.30550000  0.68990000  0.38520000  1.0 -0.5202315618
O  O282  1  0.17640000  0.62230000  0.37260000  1.0 -0.4213615512
O  O283  1  0.24170000  0.51800000  0.27090000  1.0 -0.3298682235
O  O284  1  0.37790000  0.58470000  0.28680000  1.0 -0.3833966813
O  O285  1  0.30180000  0.42900000  0.19148000  1.0 -0.5016003232
O  O286  1  0.34020000  0.45670000  0.15059000  1.0 -0.5425552251
O  O287  1  0.38080000  0.61230000  0.15049000  1.0 -0.5202315618
O  O288  1  0.35310000  0.65490000  0.18838000  1.0 -0.4827048545
