# DDEC6 charges by PACMAN v1.1 (https://github.com/mtap-research/PACMAN-charge/)
data_CUNXIS_ASR_pacman
_symmetry_space_group_name_H-M   'P 1'
_cell_length_a   8.66800000
_cell_length_b   17.55800000
_cell_length_c   9.18600000
_cell_angle_alpha   90.00000000
_cell_angle_beta   107.75000000
_cell_angle_gamma   90.00000000
_symmetry_Int_Tables_number   1
_chemical_formula_structural   Al3P3O13
_chemical_formula_sum   'Al12 P12 O52'
_cell_volume   1331.48984890
_cell_formula_units_Z   4
loop_
 _symmetry_equiv_pos_site_id
 _symmetry_equiv_pos_as_xyz
  1  'x, y, z'
loop_
 _atom_site_type_symbol
 _atom_site_label
 _atom_site_symmetry_multiplicity
 _atom_site_fract_x
 _atom_site_fract_y
 _atom_site_fract_z
 _atom_site_occupancy
 _atom_site_charge
Al  Al1  1  0.07744000  0.29742000  0.27954000  1.0 1.7860765434
Al  Al2  1  0.92256000  0.70258000  0.72046000  1.0 1.781745193
Al  Al3  1  0.42256000  0.79742000  0.22046000  1.0 1.781745193
Al  Al4  1  0.57744000  0.20258000  0.77954000  1.0 1.7860765434
Al  Al5  1  0.14347000  0.11371000  0.15338000  1.0 1.7599265892
Al  Al6  1  0.85653000  0.88629000  0.84662000  1.0 1.7599265892
Al  Al7  1  0.35653000  0.61371000  0.34662000  1.0 1.7539221025
Al  Al8  1  0.64347000  0.38629000  0.65338000  1.0 1.7599265892
Al  Al9  1  0.53454000  0.32385000  0.17956000  1.0 1.7599265892
Al  Al10  1  0.46546000  0.67615000  0.82044000  1.0 1.7599265892
Al  Al11  1  0.96546000  0.82385000  0.32044000  1.0 1.7599265892
Al  Al12  1  0.03454000  0.17615000  0.67956000  1.0 1.7599265892
P  P1  1  0.35992000  0.42618000  0.34545000  1.0 1.569247005
P  P2  1  0.64008000  0.57382000  0.65455000  1.0 1.569247005
P  P3  1  0.14008000  0.92618000  0.15455000  1.0 1.569247005
P  P4  1  0.85992000  0.07382000  0.84545000  1.0 1.569247005
P  P5  1  0.81600000  0.29435000  0.46457000  1.0 1.5986181474
P  P6  1  0.18400000  0.70565000  0.53543000  1.0 1.5986181474
P  P7  1  0.68400000  0.79435000  0.03543000  1.0 1.5919520831
P  P8  1  0.31600000  0.20565000  0.96457000  1.0 1.5986181474
P  P9  1  0.27461000  0.16938000  0.48899000  1.0 1.5478726602
P  P10  1  0.72539000  0.83062000  0.51101000  1.0 1.5478726602
P  P11  1  0.22539000  0.66938000  0.01101000  1.0 1.5478726602
P  P12  1  0.77461000  0.33062000  0.98899000  1.0 1.5478726602
O  O1  1  0.06115000  0.20348000  0.19643000  1.0 -0.8521953249
O  O2  1  0.93885000  0.79652000  0.80357000  1.0 -0.8521953249
O  O3  1  0.43885000  0.70348000  0.30357000  1.0 -0.8521953249
O  O4  1  0.56115000  0.29652000  0.69643000  1.0 -0.8521953249
O  O5  1  0.20371000  0.38030000  0.29488000  1.0 -0.7614154193
O  O6  1  0.79629000  0.61970000  0.70512000  1.0 -0.7614154193
O  O7  1  0.29629000  0.88030000  0.20512000  1.0 -0.7614154193
O  O8  1  0.70371000  0.11970000  0.79488000  1.0 -0.7614154193
O  O9  1  0.24967000  0.25328000  0.43372000  1.0 -0.7466474199
O  O10  1  0.75033000  0.74672000  0.56628000  1.0 -0.7466474199
O  O11  1  0.25033000  0.75328000  0.06628000  1.0 -0.7466474199
O  O12  1  0.74967000  0.24672000  0.93372000  1.0 -0.7466474199
O  O13  1  0.95458000  0.31371000  0.40065000  1.0 -0.7914185398
O  O14  1  0.04542000  0.68629000  0.59935000  1.0 -0.7914185398
O  O15  1  0.54542000  0.81371000  0.09935000  1.0 -0.7914185398
O  O16  1  0.45458000  0.18629000  0.90065000  1.0 -0.7914185398
O  O17  1  0.44014000  0.15955000  0.60770000  1.0 -0.7375233197
O  O18  1  0.55986000  0.84045000  0.39230000  1.0 -0.7375233197
O  O19  1  0.05986000  0.65955000  0.89230000  1.0 -0.7375233197
O  O20  1  0.94014000  0.34045000  0.10770000  1.0 -0.7375233197
O  O21  1  0.46851000  0.40726000  0.24577000  1.0 -0.7825104468
O  O22  1  0.53149000  0.59274000  0.75423000  1.0 -0.7825104468
O  O23  1  0.03149000  0.90726000  0.25423000  1.0 -0.7825104468
O  O24  1  0.96851000  0.09274000  0.74577000  1.0 -0.7825104468
O  O25  1  0.86236000  0.22665000  0.57631000  1.0 -0.7702251498
O  O26  1  0.13764000  0.77335000  0.42369000  1.0 -0.7702251498
O  O27  1  0.63764000  0.72665000  0.92369000  1.0 -0.7702251498
O  O28  1  0.36236000  0.27335000  0.07631000  1.0 -0.7702251498
O  O29  1  0.14066000  0.14552000  0.55767000  1.0 -0.8067685538
O  O30  1  0.85934000  0.85448000  0.44233000  1.0 -0.8067685538
O  O31  1  0.35934000  0.64552000  0.94233000  1.0 -0.8067685538
O  O32  1  0.64066000  0.35448000  0.05767000  1.0 -0.8067685538
O  O33  1  0.66224000  0.27159000  0.33276000  1.0 -0.7702251498
O  O34  1  0.33776000  0.72841000  0.66724000  1.0 -0.7702251498
O  O35  1  0.83776000  0.77159000  0.16724000  1.0 -0.7702251498
O  O36  1  0.16224000  0.22841000  0.83276000  1.0 -0.7702251498
O  O37  1  0.26673000  0.11592000  0.35404000  1.0 -0.704046669
O  O38  1  0.73327000  0.88408000  0.64596000  1.0 -0.704046669
O  O39  1  0.23327000  0.61592000  0.14596000  1.0 -0.70525563
O  O40  1  0.76673000  0.38408000  0.85404000  1.0 -0.704046669
O  O41  1  0.44843000  0.40842000  0.51618000  1.0 -0.7614154193
O  O42  1  0.55157000  0.59158000  0.48382000  1.0 -0.7614154193
O  O43  1  0.05157000  0.90842000  0.98382000  1.0 -0.7614154193
O  O44  1  0.94843000  0.09158000  0.01618000  1.0 -0.7614154193
O  O45  1  0.32128000  0.51115000  0.33349000  1.0 -0.7702251498
O  O46  1  0.67872000  0.48885000  0.66651000  1.0 -0.7702251498
O  O47  1  0.17872000  0.01115000  0.16651000  1.0 -0.7702251498
O  O48  1  0.82128000  0.98885000  0.83349000  1.0 -0.7702251498
O  O49  1  0.78043000  0.36413000  0.54918000  1.0 -0.7614154193
O  O50  1  0.21957000  0.63587000  0.45082000  1.0 -0.7614154193
O  O51  1  0.71957000  0.86413000  0.95082000  1.0 -0.7614154193
O  O52  1  0.28043000  0.13587000  0.04918000  1.0 -0.7614154193
