# DDEC6 charges by PACMAN v1.1 (https://github.com/mtap-research/PACMAN-charge/)
data_CUPHUS_ion_pacman
_symmetry_space_group_name_H-M   'P 1'
_cell_length_a   18.09730000
_cell_length_b   28.43690000
_cell_length_c   28.50160000
_cell_angle_alpha   90.00000000
_cell_angle_beta   90.00000000
_cell_angle_gamma   90.00000000
_symmetry_Int_Tables_number   1
_chemical_formula_structural   Cu2H62C49S5N8(ClO5)3
_chemical_formula_sum   'Cu16 H496 C392 S40 N64 Cl24 O120'
_cell_volume   14667.81005532
_cell_formula_units_Z   8
loop_
 _symmetry_equiv_pos_site_id
 _symmetry_equiv_pos_as_xyz
  1  'x, y, z'
loop_
 _atom_site_type_symbol
 _atom_site_label
 _atom_site_symmetry_multiplicity
 _atom_site_fract_x
 _atom_site_fract_y
 _atom_site_fract_z
 _atom_site_occupancy
 _atom_site_charge
Cu  Cu1  1  0.01561000  0.75648000  0.23608000  1.0 0.5371042722
Cu  Cu2  1  0.48439000  0.24352000  0.73608000  1.0 0.5346895518
Cu  Cu3  1  0.51561000  0.74352000  0.76392000  1.0 0.5371042722
Cu  Cu4  1  0.98439000  0.25648000  0.26392000  1.0 0.5371042722
Cu  Cu5  1  0.25824000  0.51386000  0.49691000  1.0 0.6415794926
Cu  Cu6  1  0.24176000  0.48614000  0.99691000  1.0 0.6415794926
Cu  Cu7  1  0.75824000  0.98614000  0.50309000  1.0 0.6415794926
Cu  Cu8  1  0.74176000  0.01386000  0.00309000  1.0 0.6415794926
Cu  Cu9  1  0.98439000  0.24352000  0.76392000  1.0 0.5371042722
Cu  Cu10  1  0.51561000  0.75648000  0.26392000  1.0 0.5371042722
Cu  Cu11  1  0.48439000  0.25648000  0.23608000  1.0 0.5371042722
Cu  Cu12  1  0.01561000  0.74352000  0.73608000  1.0 0.5371042722
Cu  Cu13  1  0.74176000  0.48614000  0.50309000  1.0 0.6415794926
Cu  Cu14  1  0.75824000  0.51386000  0.00309000  1.0 0.6415794926
Cu  Cu15  1  0.24176000  0.01386000  0.49691000  1.0 0.6415794926
Cu  Cu16  1  0.25824000  0.98614000  0.99691000  1.0 0.6415794926
H  H1  1  0.37140000  0.71810000  0.61670000  1.0 0.1292719818
H  H2  1  0.12860000  0.28190000  0.11670000  1.0 0.1292719818
H  H3  1  0.87140000  0.78190000  0.38330000  1.0 0.1292719818
H  H4  1  0.62860000  0.21810000  0.88330000  1.0 0.1292719818
H  H5  1  0.97010000  0.70650000  0.14850000  1.0 0.1005193985
H  H6  1  0.52990000  0.29350000  0.64850000  1.0 0.1005193985
H  H7  1  0.47010000  0.79350000  0.85150000  1.0 0.1005193985
H  H8  1  0.02990000  0.20650000  0.35150000  1.0 0.1005193985
H  H9  1  0.21260000  0.66110000  0.16130000  1.0 0.1504054628
H  H10  1  0.28740000  0.33890000  0.66130000  1.0 0.1504054628
H  H11  1  0.71260000  0.83890000  0.83870000  1.0 0.1504054628
H  H12  1  0.78740000  0.16110000  0.33870000  1.0 0.1504054628
H  H13  1  0.25850000  0.64830000  0.38560000  1.0 0.1292719818
H  H14  1  0.24150000  0.35170000  0.88560000  1.0 0.1292719818
H  H15  1  0.75850000  0.85170000  0.61440000  1.0 0.1292719818
H  H16  1  0.74150000  0.14830000  0.11440000  1.0 0.1292719818
H  H17  1  0.11550000  0.76260000  0.31650000  1.0 0.1083266179
H  H18  1  0.38450000  0.23740000  0.81650000  1.0 0.1083266179
H  H19  1  0.61550000  0.73740000  0.68350000  1.0 0.1083266179
H  H20  1  0.88450000  0.26260000  0.18350000  1.0 0.1083266179
H  H21  1  0.40970000  0.53660000  0.53210000  1.0 0.1005193985
H  H22  1  0.09030000  0.46340000  0.03210000  1.0 0.1005193985
H  H23  1  0.90970000  0.96340000  0.46790000  1.0 0.1005193985
H  H24  1  0.59030000  0.03660000  0.96790000  1.0 0.1005193985
H  H25  1  0.18830000  0.43080000  0.35100000  1.0 0.1292719818
H  H26  1  0.31170000  0.56920000  0.85100000  1.0 0.1292719818
H  H27  1  0.68830000  0.06920000  0.64900000  1.0 0.1292719818
H  H28  1  0.81170000  0.93080000  0.14900000  1.0 0.1292719818
H  H29  1  0.22450000  0.60390000  0.54420000  1.0 0.1005193985
H  H30  1  0.27550000  0.39610000  0.04420000  1.0 0.1005193985
H  H31  1  0.72450000  0.89610000  0.45580000  1.0 0.1005193985
H  H32  1  0.77550000  0.10390000  0.95580000  1.0 0.1005193985
H  H33  1  0.42300000  0.75940000  0.67760000  1.0 0.1005193985
H  H34  1  0.07700000  0.24060000  0.17760000  1.0 0.1005193985
H  H35  1  0.92300000  0.74060000  0.32240000  1.0 0.1005193985
H  H36  1  0.57700000  0.25940000  0.82240000  1.0 0.1005193985
H  H37  1  0.17390000  0.71500000  0.37070000  1.0 0.138321088
H  H38  1  0.32610000  0.28500000  0.87070000  1.0 0.138321088
H  H39  1  0.67390000  0.78500000  0.62930000  1.0 0.138321088
H  H40  1  0.82610000  0.21500000  0.12930000  1.0 0.138321088
H  H41  1  0.94880000  0.30680000  0.35250000  1.0 0.1005193985
H  H42  1  0.55120000  0.69320000  0.85250000  1.0 0.1005193985
H  H43  1  0.44880000  0.19320000  0.64750000  1.0 0.1005193985
H  H44  1  0.05120000  0.80680000  0.14750000  1.0 0.1005193985
H  H45  1  0.05930000  0.59030000  0.40530000  1.0 0.138321088
H  H46  1  0.44070000  0.40970000  0.90530000  1.0 0.138321088
H  H47  1  0.55930000  0.90970000  0.59470000  1.0 0.138321088
H  H48  1  0.94070000  0.09030000  0.09470000  1.0 0.138321088
H  H49  1  0.46570000  0.58570000  0.58530000  1.0 0.138321088
H  H50  1  0.03430000  0.41430000  0.08530000  1.0 0.138321088
H  H51  1  0.96570000  0.91430000  0.41470000  1.0 0.138321088
H  H52  1  0.53430000  0.08570000  0.91470000  1.0 0.138321088
H  H53  1  0.00240000  0.35790000  0.40510000  1.0 0.1292719818
H  H54  1  0.49760000  0.64210000  0.90510000  1.0 0.1292719818
H  H55  1  0.50240000  0.14210000  0.59490000  1.0 0.1292719818
H  H56  1  0.99760000  0.85790000  0.09490000  1.0 0.1292719818
H  H57  1  0.19030000  0.34710000  0.33270000  1.0 0.1292719818
H  H58  1  0.30970000  0.65290000  0.83270000  1.0 0.1292719818
H  H59  1  0.69030000  0.15290000  0.66730000  1.0 0.1292719818
H  H60  1  0.80970000  0.84710000  0.16730000  1.0 0.1292719818
H  H61  1  0.30590000  0.59730000  0.44110000  1.0 0.1005193985
H  H62  1  0.19410000  0.40270000  0.94110000  1.0 0.1005193985
H  H63  1  0.80590000  0.90270000  0.55890000  1.0 0.1005193985
H  H64  1  0.69410000  0.09730000  0.05890000  1.0 0.1005193985
H  H65  1  0.10360000  0.63230000  0.03130000  1.0 0.1292719818
H  H66  1  0.39640000  0.36770000  0.53130000  1.0 0.1292719818
H  H67  1  0.60360000  0.86770000  0.96870000  1.0 0.1292719818
H  H68  1  0.89640000  0.13230000  0.46870000  1.0 0.1292719818
H  H69  1  0.06090000  0.60520000  0.31780000  1.0 0.138321088
H  H70  1  0.43910000  0.39480000  0.81780000  1.0 0.138321088
H  H71  1  0.56090000  0.89480000  0.68220000  1.0 0.138321088
H  H72  1  0.93910000  0.10520000  0.18220000  1.0 0.138321088
H  H73  1  0.11150000  0.54130000  0.46010000  1.0 0.1005193985
H  H74  1  0.38850000  0.45870000  0.96010000  1.0 0.1005193985
H  H75  1  0.61150000  0.95870000  0.53990000  1.0 0.1005193985
H  H76  1  0.88850000  0.04130000  0.03990000  1.0 0.1005193985
H  H77  1  0.27450000  0.65480000  0.59770000  1.0 0.138321088
H  H78  1  0.22550000  0.34520000  0.09770000  1.0 0.138321088
H  H79  1  0.77450000  0.84520000  0.40230000  1.0 0.138321088
H  H80  1  0.72550000  0.15480000  0.90230000  1.0 0.138321088
H  H81  1  0.13190000  0.29560000  0.28330000  1.0 0.1005193985
H  H82  1  0.36810000  0.70440000  0.78330000  1.0 0.1005193985
H  H83  1  0.63190000  0.20440000  0.71670000  1.0 0.1005193985
H  H84  1  0.86810000  0.79560000  0.21670000  1.0 0.1005193985
H  H85  1  0.45730000  0.60040000  0.67190000  1.0 0.1292719818
H  H86  1  0.04270000  0.39960000  0.17190000  1.0 0.1292719818
H  H87  1  0.95730000  0.89960000  0.32810000  1.0 0.1292719818
H  H88  1  0.54270000  0.10040000  0.82810000  1.0 0.1292719818
H  H89  1  0.50260000  0.64440000  0.73310000  1.0 0.1083266179
H  H90  1  0.99740000  0.35560000  0.23310000  1.0 0.1083266179
H  H91  1  0.00260000  0.85560000  0.26690000  1.0 0.1083266179
H  H92  1  0.49740000  0.14440000  0.76690000  1.0 0.1083266179
H  H93  1  0.10020000  0.37400000  0.46710000  1.0 0.138321088
H  H94  1  0.39980000  0.62600000  0.96710000  1.0 0.138321088
H  H95  1  0.60020000  0.12600000  0.53290000  1.0 0.138321088
H  H96  1  0.89980000  0.87400000  0.03290000  1.0 0.138321088
H  H97  1  0.01140000  0.65480000  0.26260000  1.0 0.1005193985
H  H98  1  0.48860000  0.34520000  0.76260000  1.0 0.1005193985
H  H99  1  0.51140000  0.84520000  0.73740000  1.0 0.1005193985
H  H100  1  0.98860000  0.15480000  0.23740000  1.0 0.1005193985
H  H101  1  0.16260000  0.71600000  0.21070000  1.0 0.1083266179
H  H102  1  0.33740000  0.28400000  0.71070000  1.0 0.1083266179
H  H103  1  0.66260000  0.78400000  0.78930000  1.0 0.1083266179
H  H104  1  0.83740000  0.21600000  0.28930000  1.0 0.1083266179
H  H105  1  0.01680000  0.65330000  0.09570000  1.0 0.1292719818
H  H106  1  0.48320000  0.34670000  0.59570000  1.0 0.1292719818
H  H107  1  0.51680000  0.84670000  0.90430000  1.0 0.1292719818
H  H108  1  0.98320000  0.15330000  0.40430000  1.0 0.1292719818
H  H109  1  0.16090000  0.43020000  0.51030000  1.0 0.1005193985
H  H110  1  0.33910000  0.56980000  0.01030000  1.0 0.1005193985
H  H111  1  0.66090000  0.06980000  0.48970000  1.0 0.1005193985
H  H112  1  0.83910000  0.93020000  0.98970000  1.0 0.1005193985
H  H113  1  0.20000000  0.57430000  0.14360000  1.0 0.138321088
H  H114  1  0.30000000  0.42570000  0.64360000  1.0 0.138321088
H  H115  1  0.70000000  0.92570000  0.85640000  1.0 0.138321088
H  H116  1  0.80000000  0.07430000  0.35640000  1.0 0.138321088
H  H117  1  0.24220000  0.48730000  0.39770000  1.0 0.1083266179
H  H118  1  0.25780000  0.51270000  0.89770000  1.0 0.1083266179
H  H119  1  0.74220000  0.01270000  0.60230000  1.0 0.1083266179
H  H120  1  0.75780000  0.98730000  0.10230000  1.0 0.1083266179
H  H121  1  0.15050000  0.57230000  0.98710000  1.0 0.1083266179
H  H122  1  0.34950000  0.42770000  0.48710000  1.0 0.1083266179
H  H123  1  0.65050000  0.92770000  0.01290000  1.0 0.1083266179
H  H124  1  0.84950000  0.07230000  0.51290000  1.0 0.1083266179
H  H125  1  0.23630000  0.51330000  0.09740000  1.0 0.1005193985
H  H126  1  0.26370000  0.48670000  0.59740000  1.0 0.1005193985
H  H127  1  0.73630000  0.98670000  0.90260000  1.0 0.1005193985
H  H128  1  0.76370000  0.01330000  0.40260000  1.0 0.1005193985
H  H129  1  0.12550000  0.89220000  0.28010000  1.0 0.0875496124
H  H130  1  0.37450000  0.10780000  0.78010000  1.0 0.0875496124
H  H131  1  0.62550000  0.60780000  0.71990000  1.0 0.0875496124
H  H132  1  0.87450000  0.39220000  0.21990000  1.0 0.0875496124
H  H133  1  0.21000000  0.90410000  0.27800000  1.0 0.1083266179
H  H134  1  0.29000000  0.09590000  0.77800000  1.0 0.1083266179
H  H135  1  0.71000000  0.59590000  0.72200000  1.0 0.1083266179
H  H136  1  0.79000000  0.40410000  0.22200000  1.0 0.1083266179
H  H137  1  0.16190000  0.90670000  0.23230000  1.0 0.0808325623
H  H138  1  0.33810000  0.09330000  0.73230000  1.0 0.0808325623
H  H139  1  0.66190000  0.59330000  0.76770000  1.0 0.0808325623
H  H140  1  0.83810000  0.40670000  0.26770000  1.0 0.0808325623
H  H141  1  0.37770000  0.49600000  0.34260000  1.0 0.1594857765
H  H142  1  0.12230000  0.50400000  0.84260000  1.0 0.1594857765
H  H143  1  0.87770000  0.00400000  0.65740000  1.0 0.1594857765
H  H144  1  0.62230000  0.99600000  0.15740000  1.0 0.1594857765
H  H145  1  0.45250000  0.46820000  0.34360000  1.0 0.1504054628
H  H146  1  0.04750000  0.53180000  0.84360000  1.0 0.1504054628
H  H147  1  0.95250000  0.03180000  0.65640000  1.0 0.1504054628
H  H148  1  0.54750000  0.96820000  0.15640000  1.0 0.1504054628
H  H149  1  0.38160000  0.44650000  0.36660000  1.0 0.1594857765
H  H150  1  0.11840000  0.55350000  0.86660000  1.0 0.1594857765
H  H151  1  0.88160000  0.05350000  0.63340000  1.0 0.1594857765
H  H152  1  0.61840000  0.94650000  0.13340000  1.0 0.1594857765
H  H153  1  0.07780000  0.57250000  0.64370000  1.0 0.0693678876
H  H154  1  0.42220000  0.42750000  0.14370000  1.0 0.0693678876
H  H155  1  0.57780000  0.92750000  0.35630000  1.0 0.0693678876
H  H156  1  0.92220000  0.07250000  0.85630000  1.0 0.0693678876
H  H157  1  0.15160000  0.58670000  0.61870000  1.0 0.0693678876
H  H158  1  0.34840000  0.41330000  0.11870000  1.0 0.0693678876
H  H159  1  0.65160000  0.91330000  0.38130000  1.0 0.0693678876
H  H160  1  0.84840000  0.08670000  0.88130000  1.0 0.0693678876
H  H161  1  0.14460000  0.53740000  0.64270000  1.0 0.0617879331
H  H162  1  0.35540000  0.46260000  0.14270000  1.0 0.0617879331
H  H163  1  0.64460000  0.96260000  0.35730000  1.0 0.0617879331
H  H164  1  0.85540000  0.03740000  0.85730000  1.0 0.0617879331
H  H165  1  0.46660000  0.57700000  0.42070000  1.0 0.138321088
H  H166  1  0.03340000  0.42300000  0.92070000  1.0 0.138321088
H  H167  1  0.96660000  0.92300000  0.57930000  1.0 0.138321088
H  H168  1  0.53340000  0.07700000  0.07930000  1.0 0.138321088
H  H169  1  0.50750000  0.55230000  0.37890000  1.0 0.138321088
H  H170  1  0.99250000  0.44770000  0.87890000  1.0 0.138321088
H  H171  1  0.00750000  0.94770000  0.62110000  1.0 0.138321088
H  H172  1  0.49250000  0.05230000  0.12110000  1.0 0.138321088
H  H173  1  0.42520000  0.56850000  0.37310000  1.0 0.1504054628
H  H174  1  0.07480000  0.43150000  0.87310000  1.0 0.1504054628
H  H175  1  0.92520000  0.93150000  0.62690000  1.0 0.1504054628
H  H176  1  0.57480000  0.06850000  0.12690000  1.0 0.1504054628
H  H177  1  0.21560000  0.85060000  0.17520000  1.0 0.0693678876
H  H178  1  0.28440000  0.14940000  0.67520000  1.0 0.0693678876
H  H179  1  0.71560000  0.64940000  0.82480000  1.0 0.0693678876
H  H180  1  0.78440000  0.35060000  0.32480000  1.0 0.0693678876
H  H181  1  0.28710000  0.85230000  0.20610000  1.0 0.1005193985
H  H182  1  0.21290000  0.14770000  0.70610000  1.0 0.1005193985
H  H183  1  0.78710000  0.64770000  0.79390000  1.0 0.1005193985
H  H184  1  0.71290000  0.35230000  0.29390000  1.0 0.1005193985
H  H185  1  0.25550000  0.80380000  0.18940000  1.0 0.1083266179
H  H186  1  0.24450000  0.19620000  0.68940000  1.0 0.1083266179
H  H187  1  0.75550000  0.69620000  0.81060000  1.0 0.1083266179
H  H188  1  0.74450000  0.30380000  0.31060000  1.0 0.1083266179
H  H189  1  0.00620000  0.47580000  0.56680000  1.0 0.1005193985
H  H190  1  0.49380000  0.52420000  0.06680000  1.0 0.1005193985
H  H191  1  0.50620000  0.02420000  0.43320000  1.0 0.1005193985
H  H192  1  0.99380000  0.97580000  0.93320000  1.0 0.1005193985
H  H193  1  0.99000000  0.51960000  0.59860000  1.0 0.1005193985
H  H194  1  0.51000000  0.48040000  0.09860000  1.0 0.1005193985
H  H195  1  0.49000000  0.98040000  0.40140000  1.0 0.1005193985
H  H196  1  0.01000000  0.01960000  0.90140000  1.0 0.1005193985
H  H197  1  0.01120000  0.52670000  0.54580000  1.0 0.0617879331
H  H198  1  0.48880000  0.47330000  0.04580000  1.0 0.0617879331
H  H199  1  0.51120000  0.97330000  0.45420000  1.0 0.0617879331
H  H200  1  0.98880000  0.02670000  0.95420000  1.0 0.0617879331
H  H201  1  0.09360000  0.55500000  0.65450000  1.0 0.0693678876
H  H202  1  0.40640000  0.44500000  0.15450000  1.0 0.0693678876
H  H203  1  0.59360000  0.94500000  0.34550000  1.0 0.0693678876
H  H204  1  0.90640000  0.05500000  0.84550000  1.0 0.0693678876
H  H205  1  0.09570000  0.58740000  0.60990000  1.0 0.0526262434
H  H206  1  0.40430000  0.41260000  0.10990000  1.0 0.0526262434
H  H207  1  0.59570000  0.91260000  0.39010000  1.0 0.0526262434
H  H208  1  0.90430000  0.08740000  0.89010000  1.0 0.0526262434
H  H209  1  0.16960000  0.56840000  0.63160000  1.0 0.0693678876
H  H210  1  0.33040000  0.43160000  0.13160000  1.0 0.0693678876
H  H211  1  0.66960000  0.93160000  0.36840000  1.0 0.0693678876
H  H212  1  0.83040000  0.06840000  0.86840000  1.0 0.0693678876
H  H213  1  0.10040000  0.47150000  0.61760000  1.0 0.0693678876
H  H214  1  0.39960000  0.52850000  0.11760000  1.0 0.0693678876
H  H215  1  0.60040000  0.02850000  0.38240000  1.0 0.0693678876
H  H216  1  0.89960000  0.97150000  0.88240000  1.0 0.0693678876
H  H217  1  0.01670000  0.48550000  0.61540000  1.0 0.1005193985
H  H218  1  0.48330000  0.51450000  0.11540000  1.0 0.1005193985
H  H219  1  0.51670000  0.01450000  0.38460000  1.0 0.1005193985
H  H220  1  0.98330000  0.98550000  0.88460000  1.0 0.1005193985
H  H221  1  0.05350000  0.45980000  0.57280000  1.0 0.1083266179
H  H222  1  0.44650000  0.54020000  0.07280000  1.0 0.1083266179
H  H223  1  0.55350000  0.04020000  0.42720000  1.0 0.1083266179
H  H224  1  0.94650000  0.95980000  0.92720000  1.0 0.1083266179
H  H225  1  0.10220000  0.89290000  0.26500000  1.0 0.0875496124
H  H226  1  0.39780000  0.10710000  0.76500000  1.0 0.0875496124
H  H227  1  0.60220000  0.60710000  0.73500000  1.0 0.0875496124
H  H228  1  0.89780000  0.39290000  0.23500000  1.0 0.0875496124
H  H229  1  0.18410000  0.90960000  0.25830000  1.0 0.0808325623
H  H230  1  0.31590000  0.09040000  0.75830000  1.0 0.0808325623
H  H231  1  0.68410000  0.59040000  0.74170000  1.0 0.0808325623
H  H232  1  0.81590000  0.40960000  0.24170000  1.0 0.0875496124
H  H233  1  0.12540000  0.91950000  0.21910000  1.0 0.1205371565
H  H234  1  0.37460000  0.08050000  0.71910000  1.0 0.1205371565
H  H235  1  0.62540000  0.58050000  0.78090000  1.0 0.1205371565
H  H236  1  0.87460000  0.41950000  0.28090000  1.0 0.1205371565
H  H237  1  0.27050000  0.80600000  0.21860000  1.0 0.0875496124
H  H238  1  0.22950000  0.19400000  0.71860000  1.0 0.0875496124
H  H239  1  0.77050000  0.69400000  0.78140000  1.0 0.0875496124
H  H240  1  0.72950000  0.30600000  0.28140000  1.0 0.0875496124
H  H241  1  0.28340000  0.86050000  0.22060000  1.0 0.1005193985
H  H242  1  0.21660000  0.13950000  0.72060000  1.0 0.1005193985
H  H243  1  0.78340000  0.63950000  0.77940000  1.0 0.1005193985
H  H244  1  0.71660000  0.36050000  0.27940000  1.0 0.1005193985
H  H245  1  0.25730000  0.83350000  0.26560000  1.0 0.0617879331
H  H246  1  0.24270000  0.16650000  0.76560000  1.0 0.0617879331
H  H247  1  0.75730000  0.66650000  0.73440000  1.0 0.0617879331
H  H248  1  0.74270000  0.33350000  0.23440000  1.0 0.0617879331
H  H249  1  0.62860000  0.28190000  0.38330000  1.0 0.1292719818
H  H250  1  0.87140000  0.71810000  0.88330000  1.0 0.1292719818
H  H251  1  0.12860000  0.21810000  0.61670000  1.0 0.1292719818
H  H252  1  0.37140000  0.78190000  0.11670000  1.0 0.1292719818
H  H253  1  0.02990000  0.29350000  0.85150000  1.0 0.1005193985
H  H254  1  0.47010000  0.70650000  0.35150000  1.0 0.1005193985
H  H255  1  0.52990000  0.20650000  0.14850000  1.0 0.1005193985
H  H256  1  0.97010000  0.79350000  0.64850000  1.0 0.1005193985
H  H257  1  0.78740000  0.33890000  0.83870000  1.0 0.1504054628
H  H258  1  0.71260000  0.66110000  0.33870000  1.0 0.1504054628
H  H259  1  0.28740000  0.16110000  0.16130000  1.0 0.1504054628
H  H260  1  0.21260000  0.83890000  0.66130000  1.0 0.1504054628
H  H261  1  0.74150000  0.35170000  0.61440000  1.0 0.1292719818
H  H262  1  0.75850000  0.64830000  0.11440000  1.0 0.1292719818
H  H263  1  0.24150000  0.14830000  0.38560000  1.0 0.1292719818
H  H264  1  0.25850000  0.85170000  0.88560000  1.0 0.1292719818
H  H265  1  0.88450000  0.23740000  0.68350000  1.0 0.1083266179
H  H266  1  0.61550000  0.76260000  0.18350000  1.0 0.1083266179
H  H267  1  0.38450000  0.26260000  0.31650000  1.0 0.1083266179
H  H268  1  0.11550000  0.73740000  0.81650000  1.0 0.1083266179
H  H269  1  0.59030000  0.46340000  0.46790000  1.0 0.1005193985
H  H270  1  0.90970000  0.53660000  0.96790000  1.0 0.1005193985
H  H271  1  0.09030000  0.03660000  0.53210000  1.0 0.1005193985
H  H272  1  0.40970000  0.96340000  0.03210000  1.0 0.1005193985
H  H273  1  0.81170000  0.56920000  0.64900000  1.0 0.1292719818
H  H274  1  0.68830000  0.43080000  0.14900000  1.0 0.1292719818
H  H275  1  0.31170000  0.93080000  0.35100000  1.0 0.1292719818
H  H276  1  0.18830000  0.06920000  0.85100000  1.0 0.1292719818
H  H277  1  0.77550000  0.39610000  0.45580000  1.0 0.1005193985
H  H278  1  0.72450000  0.60390000  0.95580000  1.0 0.1005193985
H  H279  1  0.27550000  0.10390000  0.54420000  1.0 0.1005193985
H  H280  1  0.22450000  0.89610000  0.04420000  1.0 0.1005193985
H  H281  1  0.57700000  0.24060000  0.32240000  1.0 0.1005193985
H  H282  1  0.92300000  0.75940000  0.82240000  1.0 0.1005193985
H  H283  1  0.07700000  0.25940000  0.67760000  1.0 0.1005193985
H  H284  1  0.42300000  0.74060000  0.17760000  1.0 0.1005193985
H  H285  1  0.82610000  0.28500000  0.62930000  1.0 0.138321088
H  H286  1  0.67390000  0.71500000  0.12930000  1.0 0.138321088
H  H287  1  0.32610000  0.21500000  0.37070000  1.0 0.138321088
H  H288  1  0.17390000  0.78500000  0.87070000  1.0 0.138321088
H  H289  1  0.05120000  0.69320000  0.64750000  1.0 0.1005193985
H  H290  1  0.44880000  0.30680000  0.14750000  1.0 0.1005193985
H  H291  1  0.55120000  0.80680000  0.35250000  1.0 0.1005193985
H  H292  1  0.94880000  0.19320000  0.85250000  1.0 0.1005193985
H  H293  1  0.94070000  0.40970000  0.59470000  1.0 0.138321088
H  H294  1  0.55930000  0.59030000  0.09470000  1.0 0.138321088
H  H295  1  0.44070000  0.09030000  0.40530000  1.0 0.138321088
H  H296  1  0.05930000  0.90970000  0.90530000  1.0 0.138321088
H  H297  1  0.53430000  0.41430000  0.41470000  1.0 0.138321088
H  H298  1  0.96570000  0.58570000  0.91470000  1.0 0.138321088
H  H299  1  0.03430000  0.08570000  0.58530000  1.0 0.138321088
H  H300  1  0.46570000  0.91430000  0.08530000  1.0 0.138321088
H  H301  1  0.99760000  0.64210000  0.59490000  1.0 0.1292719818
H  H302  1  0.50240000  0.35790000  0.09490000  1.0 0.1292719818
H  H303  1  0.49760000  0.85790000  0.40510000  1.0 0.1292719818
H  H304  1  0.00240000  0.14210000  0.90510000  1.0 0.1292719818
H  H305  1  0.80970000  0.65290000  0.66730000  1.0 0.1292719818
H  H306  1  0.69030000  0.34710000  0.16730000  1.0 0.1292719818
H  H307  1  0.30970000  0.84710000  0.33270000  1.0 0.1292719818
H  H308  1  0.19030000  0.15290000  0.83270000  1.0 0.1292719818
H  H309  1  0.69410000  0.40270000  0.55890000  1.0 0.1005193985
H  H310  1  0.80590000  0.59730000  0.05890000  1.0 0.1005193985
H  H311  1  0.19410000  0.09730000  0.44110000  1.0 0.1005193985
H  H312  1  0.30590000  0.90270000  0.94110000  1.0 0.1005193985
H  H313  1  0.89640000  0.36770000  0.96870000  1.0 0.1292719818
H  H314  1  0.60360000  0.63230000  0.46870000  1.0 0.1292719818
H  H315  1  0.39640000  0.13230000  0.03130000  1.0 0.1292719818
H  H316  1  0.10360000  0.86770000  0.53130000  1.0 0.1292719818
H  H317  1  0.93910000  0.39480000  0.68220000  1.0 0.138321088
H  H318  1  0.56090000  0.60520000  0.18220000  1.0 0.138321088
H  H319  1  0.43910000  0.10520000  0.31780000  1.0 0.138321088
H  H320  1  0.06090000  0.89480000  0.81780000  1.0 0.138321088
H  H321  1  0.88850000  0.45870000  0.53990000  1.0 0.1005193985
H  H322  1  0.61150000  0.54130000  0.03990000  1.0 0.1005193985
H  H323  1  0.38850000  0.04130000  0.46010000  1.0 0.1005193985
H  H324  1  0.11150000  0.95870000  0.96010000  1.0 0.1005193985
H  H325  1  0.72550000  0.34520000  0.40230000  1.0 0.138321088
H  H326  1  0.77450000  0.65480000  0.90230000  1.0 0.138321088
H  H327  1  0.22550000  0.15480000  0.59770000  1.0 0.138321088
H  H328  1  0.27450000  0.84520000  0.09770000  1.0 0.138321088
H  H329  1  0.86810000  0.70440000  0.71670000  1.0 0.1005193985
H  H330  1  0.63190000  0.29560000  0.21670000  1.0 0.1005193985
H  H331  1  0.36810000  0.79560000  0.28330000  1.0 0.1005193985
H  H332  1  0.13190000  0.20440000  0.78330000  1.0 0.1005193985
H  H333  1  0.54270000  0.39960000  0.32810000  1.0 0.1292719818
H  H334  1  0.95730000  0.60040000  0.82810000  1.0 0.1292719818
H  H335  1  0.04270000  0.10040000  0.67190000  1.0 0.1292719818
H  H336  1  0.45730000  0.89960000  0.17190000  1.0 0.1292719818
H  H337  1  0.49740000  0.35560000  0.26690000  1.0 0.1083266179
H  H338  1  0.00260000  0.64440000  0.76690000  1.0 0.1083266179
H  H339  1  0.99740000  0.14440000  0.73310000  1.0 0.1083266179
H  H340  1  0.50260000  0.85560000  0.23310000  1.0 0.1083266179
H  H341  1  0.89980000  0.62600000  0.53290000  1.0 0.138321088
H  H342  1  0.60020000  0.37400000  0.03290000  1.0 0.138321088
H  H343  1  0.39980000  0.87400000  0.46710000  1.0 0.138321088
H  H344  1  0.10020000  0.12600000  0.96710000  1.0 0.138321088
H  H345  1  0.98860000  0.34520000  0.73740000  1.0 0.1005193985
H  H346  1  0.51140000  0.65480000  0.23740000  1.0 0.1005193985
H  H347  1  0.48860000  0.15480000  0.26260000  1.0 0.1005193985
H  H348  1  0.01140000  0.84520000  0.76260000  1.0 0.1005193985
H  H349  1  0.83740000  0.28400000  0.78930000  1.0 0.1083266179
H  H350  1  0.66260000  0.71600000  0.28930000  1.0 0.1083266179
H  H351  1  0.33740000  0.21600000  0.21070000  1.0 0.1083266179
H  H352  1  0.16260000  0.78400000  0.71070000  1.0 0.1083266179
H  H353  1  0.98320000  0.34670000  0.90430000  1.0 0.1292719818
H  H354  1  0.51680000  0.65330000  0.40430000  1.0 0.1292719818
H  H355  1  0.48320000  0.15330000  0.09570000  1.0 0.1292719818
H  H356  1  0.01680000  0.84670000  0.59570000  1.0 0.1292719818
H  H357  1  0.83910000  0.56980000  0.48970000  1.0 0.1005193985
H  H358  1  0.66090000  0.43020000  0.98970000  1.0 0.1005193985
H  H359  1  0.33910000  0.93020000  0.51030000  1.0 0.1005193985
H  H360  1  0.16090000  0.06980000  0.01030000  1.0 0.1005193985
H  H361  1  0.80000000  0.42570000  0.85640000  1.0 0.138321088
H  H362  1  0.70000000  0.57430000  0.35640000  1.0 0.138321088
H  H363  1  0.30000000  0.07430000  0.14360000  1.0 0.138321088
H  H364  1  0.20000000  0.92570000  0.64360000  1.0 0.138321088
H  H365  1  0.75780000  0.51270000  0.60230000  1.0 0.1083266179
H  H366  1  0.74220000  0.48730000  0.10230000  1.0 0.1083266179
H  H367  1  0.25780000  0.98730000  0.39770000  1.0 0.1083266179
H  H368  1  0.24220000  0.01270000  0.89770000  1.0 0.1083266179
H  H369  1  0.84950000  0.42770000  0.01290000  1.0 0.1083266179
H  H370  1  0.65050000  0.57230000  0.51290000  1.0 0.1083266179
H  H371  1  0.34950000  0.07230000  0.98710000  1.0 0.1083266179
H  H372  1  0.15050000  0.92770000  0.48710000  1.0 0.1083266179
H  H373  1  0.76370000  0.48670000  0.90260000  1.0 0.1005193985
H  H374  1  0.73630000  0.51330000  0.40260000  1.0 0.1005193985
H  H375  1  0.26370000  0.01330000  0.09740000  1.0 0.1005193985
H  H376  1  0.23630000  0.98670000  0.59740000  1.0 0.1005193985
H  H377  1  0.87450000  0.10780000  0.71990000  1.0 0.0875496124
H  H378  1  0.62550000  0.89220000  0.21990000  1.0 0.0875496124
H  H379  1  0.37450000  0.39220000  0.28010000  1.0 0.0875496124
H  H380  1  0.12550000  0.60780000  0.78010000  1.0 0.0875496124
H  H381  1  0.79000000  0.09590000  0.72200000  1.0 0.1083266179
H  H382  1  0.71000000  0.90410000  0.22200000  1.0 0.1083266179
H  H383  1  0.29000000  0.40410000  0.27800000  1.0 0.1083266179
H  H384  1  0.21000000  0.59590000  0.77800000  1.0 0.1083266179
H  H385  1  0.83810000  0.09330000  0.76770000  1.0 0.0808325623
H  H386  1  0.66190000  0.90670000  0.26770000  1.0 0.0808325623
H  H387  1  0.33810000  0.40670000  0.23230000  1.0 0.0808325623
H  H388  1  0.16190000  0.59330000  0.73230000  1.0 0.0808325623
H  H389  1  0.62230000  0.50400000  0.65740000  1.0 0.1594857765
H  H390  1  0.87770000  0.49600000  0.15740000  1.0 0.1594857765
H  H391  1  0.12230000  0.99600000  0.34260000  1.0 0.1594857765
H  H392  1  0.37770000  0.00400000  0.84260000  1.0 0.1594857765
H  H393  1  0.54750000  0.53180000  0.65640000  1.0 0.1504054628
H  H394  1  0.95250000  0.46820000  0.15640000  1.0 0.1504054628
H  H395  1  0.04750000  0.96820000  0.34360000  1.0 0.1504054628
H  H396  1  0.45250000  0.03180000  0.84360000  1.0 0.1504054628
H  H397  1  0.61840000  0.55350000  0.63340000  1.0 0.1594857765
H  H398  1  0.88160000  0.44650000  0.13340000  1.0 0.1594857765
H  H399  1  0.11840000  0.94650000  0.36660000  1.0 0.1594857765
H  H400  1  0.38160000  0.05350000  0.86660000  1.0 0.1594857765
H  H401  1  0.92220000  0.42750000  0.35630000  1.0 0.0693678876
H  H402  1  0.57780000  0.57250000  0.85630000  1.0 0.0693678876
H  H403  1  0.42220000  0.07250000  0.64370000  1.0 0.0693678876
H  H404  1  0.07780000  0.92750000  0.14370000  1.0 0.0693678876
H  H405  1  0.84840000  0.41330000  0.38130000  1.0 0.0693678876
H  H406  1  0.65160000  0.58670000  0.88130000  1.0 0.0693678876
H  H407  1  0.34840000  0.08670000  0.61870000  1.0 0.0693678876
H  H408  1  0.15160000  0.91330000  0.11870000  1.0 0.0693678876
H  H409  1  0.85540000  0.46260000  0.35730000  1.0 0.0617879331
H  H410  1  0.64460000  0.53740000  0.85730000  1.0 0.0617879331
H  H411  1  0.35540000  0.03740000  0.64270000  1.0 0.0617879331
H  H412  1  0.14460000  0.96260000  0.14270000  1.0 0.0617879331
H  H413  1  0.53340000  0.42300000  0.57930000  1.0 0.138321088
H  H414  1  0.96660000  0.57700000  0.07930000  1.0 0.138321088
H  H415  1  0.03340000  0.07700000  0.42070000  1.0 0.138321088
H  H416  1  0.46660000  0.92300000  0.92070000  1.0 0.138321088
H  H417  1  0.49250000  0.44770000  0.62110000  1.0 0.138321088
H  H418  1  0.00750000  0.55230000  0.12110000  1.0 0.138321088
H  H419  1  0.99250000  0.05230000  0.37890000  1.0 0.138321088
H  H420  1  0.50750000  0.94770000  0.87890000  1.0 0.138321088
H  H421  1  0.57480000  0.43150000  0.62690000  1.0 0.1504054628
H  H422  1  0.92520000  0.56850000  0.12690000  1.0 0.1504054628
H  H423  1  0.07480000  0.06850000  0.37310000  1.0 0.1504054628
H  H424  1  0.42520000  0.93150000  0.87310000  1.0 0.1504054628
H  H425  1  0.78440000  0.14940000  0.82480000  1.0 0.0693678876
H  H426  1  0.71560000  0.85060000  0.32480000  1.0 0.0693678876
H  H427  1  0.28440000  0.35060000  0.17520000  1.0 0.0693678876
H  H428  1  0.21560000  0.64940000  0.67520000  1.0 0.0693678876
H  H429  1  0.71290000  0.14770000  0.79390000  1.0 0.1005193985
H  H430  1  0.78710000  0.85230000  0.29390000  1.0 0.1005193985
H  H431  1  0.21290000  0.35230000  0.20610000  1.0 0.1005193985
H  H432  1  0.28710000  0.64770000  0.70610000  1.0 0.1005193985
H  H433  1  0.74450000  0.19620000  0.81060000  1.0 0.1083266179
H  H434  1  0.75550000  0.80380000  0.31060000  1.0 0.1083266179
H  H435  1  0.24450000  0.30380000  0.18940000  1.0 0.1083266179
H  H436  1  0.25550000  0.69620000  0.68940000  1.0 0.1083266179
H  H437  1  0.99380000  0.52420000  0.43320000  1.0 0.1005193985
H  H438  1  0.50620000  0.47580000  0.93320000  1.0 0.1005193985
H  H439  1  0.49380000  0.97580000  0.56680000  1.0 0.1005193985
H  H440  1  0.00620000  0.02420000  0.06680000  1.0 0.1005193985
H  H441  1  0.01000000  0.48040000  0.40140000  1.0 0.1005193985
H  H442  1  0.49000000  0.51960000  0.90140000  1.0 0.1005193985
H  H443  1  0.51000000  0.01960000  0.59860000  1.0 0.1005193985
H  H444  1  0.99000000  0.98040000  0.09860000  1.0 0.1005193985
H  H445  1  0.98880000  0.47330000  0.45420000  1.0 0.0617879331
H  H446  1  0.51120000  0.52670000  0.95420000  1.0 0.0617879331
H  H447  1  0.48880000  0.02670000  0.54580000  1.0 0.0617879331
H  H448  1  0.01120000  0.97330000  0.04580000  1.0 0.0617879331
H  H449  1  0.90640000  0.44500000  0.34550000  1.0 0.0693678876
H  H450  1  0.59360000  0.55500000  0.84550000  1.0 0.0693678876
H  H451  1  0.40640000  0.05500000  0.65450000  1.0 0.0693678876
H  H452  1  0.09360000  0.94500000  0.15450000  1.0 0.0693678876
H  H453  1  0.90430000  0.41260000  0.39010000  1.0 0.0526262434
H  H454  1  0.59570000  0.58740000  0.89010000  1.0 0.0526262434
H  H455  1  0.40430000  0.08740000  0.60990000  1.0 0.0526262434
H  H456  1  0.09570000  0.91260000  0.10990000  1.0 0.0526262434
H  H457  1  0.83040000  0.43160000  0.36840000  1.0 0.0693678876
H  H458  1  0.66960000  0.56840000  0.86840000  1.0 0.0693678876
H  H459  1  0.33040000  0.06840000  0.63160000  1.0 0.0693678876
H  H460  1  0.16960000  0.93160000  0.13160000  1.0 0.0693678876
H  H461  1  0.89960000  0.52850000  0.38240000  1.0 0.0693678876
H  H462  1  0.60040000  0.47150000  0.88240000  1.0 0.0693678876
H  H463  1  0.39960000  0.97150000  0.61760000  1.0 0.0693678876
H  H464  1  0.10040000  0.02850000  0.11760000  1.0 0.0693678876
H  H465  1  0.98330000  0.51450000  0.38460000  1.0 0.1005193985
H  H466  1  0.51670000  0.48550000  0.88460000  1.0 0.1005193985
H  H467  1  0.48330000  0.98550000  0.61540000  1.0 0.1005193985
H  H468  1  0.01670000  0.01450000  0.11540000  1.0 0.1005193985
H  H469  1  0.94650000  0.54020000  0.42720000  1.0 0.1083266179
H  H470  1  0.55350000  0.45980000  0.92720000  1.0 0.1083266179
H  H471  1  0.44650000  0.95980000  0.57280000  1.0 0.1083266179
H  H472  1  0.05350000  0.04020000  0.07280000  1.0 0.1083266179
H  H473  1  0.89780000  0.10710000  0.73500000  1.0 0.0875496124
H  H474  1  0.60220000  0.89290000  0.23500000  1.0 0.0875496124
H  H475  1  0.39780000  0.39290000  0.26500000  1.0 0.0875496124
H  H476  1  0.10220000  0.60710000  0.76500000  1.0 0.0875496124
H  H477  1  0.81590000  0.09040000  0.74170000  1.0 0.0875496124
H  H478  1  0.68410000  0.90960000  0.24170000  1.0 0.0875496124
H  H479  1  0.31590000  0.40960000  0.25830000  1.0 0.0808325623
H  H480  1  0.18410000  0.59040000  0.75830000  1.0 0.0808325623
H  H481  1  0.87460000  0.08050000  0.78090000  1.0 0.1205371565
H  H482  1  0.62540000  0.91950000  0.28090000  1.0 0.1205371565
H  H483  1  0.37460000  0.41950000  0.21910000  1.0 0.1205371565
H  H484  1  0.12540000  0.58050000  0.71910000  1.0 0.1205371565
H  H485  1  0.72950000  0.19400000  0.78140000  1.0 0.0875496124
H  H486  1  0.77050000  0.80600000  0.28140000  1.0 0.0875496124
H  H487  1  0.22950000  0.30600000  0.21860000  1.0 0.0875496124
H  H488  1  0.27050000  0.69400000  0.71860000  1.0 0.0875496124
H  H489  1  0.71660000  0.13950000  0.77940000  1.0 0.1005193985
H  H490  1  0.78340000  0.86050000  0.27940000  1.0 0.1005193985
H  H491  1  0.21660000  0.36050000  0.22060000  1.0 0.1005193985
H  H492  1  0.28340000  0.63950000  0.72060000  1.0 0.1005193985
H  H493  1  0.74270000  0.16650000  0.73440000  1.0 0.0617879331
H  H494  1  0.75730000  0.83350000  0.23440000  1.0 0.0617879331
H  H495  1  0.24270000  0.33350000  0.26560000  1.0 0.0617879331
H  H496  1  0.25730000  0.66650000  0.76560000  1.0 0.0617879331
C  C1  1  0.11880000  0.64970000  0.12330000  1.0 0.1005193985
C  C2  1  0.38120000  0.35030000  0.62330000  1.0 0.1005193985
C  C3  1  0.61880000  0.85030000  0.87670000  1.0 0.1005193985
C  C4  1  0.88120000  0.14970000  0.37670000  1.0 0.1005193985
C  C5  1  0.10290000  0.35950000  0.37390000  1.0 0.1083266179
C  C6  1  0.39710000  0.64050000  0.87390000  1.0 0.1083266179
C  C7  1  0.60290000  0.14050000  0.62610000  1.0 0.1083266179
C  C8  1  0.89710000  0.85950000  0.12610000  1.0 0.1083266179
C  C9  1  0.12130000  0.65520000  0.35190000  1.0 0.1083266179
C  C10  1  0.37870000  0.34480000  0.85190000  1.0 0.1083266179
C  C11  1  0.62130000  0.84480000  0.64810000  1.0 0.1083266179
C  C12  1  0.87870000  0.15520000  0.14810000  1.0 0.1083266179
C  C13  1  0.39840000  0.70240000  0.63970000  1.0 -0.1801513471
C  C14  1  0.10160000  0.29760000  0.13970000  1.0 -0.1801513471
C  C15  1  0.89840000  0.79760000  0.36030000  1.0 -0.1801513471
C  C16  1  0.60160000  0.20240000  0.86030000  1.0 -0.1801513471
C  C17  1  0.01920000  0.69720000  0.15100000  1.0 0.0617879331
C  C18  1  0.48080000  0.30280000  0.65100000  1.0 0.0617879331
C  C19  1  0.51920000  0.80280000  0.84900000  1.0 0.0617879331
C  C20  1  0.98080000  0.19720000  0.34900000  1.0 0.0617879331
C  C21  1  0.37660000  0.62530000  0.59930000  1.0 0.1083266179
C  C22  1  0.12340000  0.37470000  0.09930000  1.0 0.1083266179
C  C23  1  0.87660000  0.87470000  0.40070000  1.0 0.1083266179
C  C24  1  0.62340000  0.12530000  0.90070000  1.0 0.1083266179
C  C25  1  0.15360000  0.62360000  0.38810000  1.0 0.1005193985
C  C26  1  0.34640000  0.37640000  0.88810000  1.0 0.1005193985
C  C27  1  0.65360000  0.87640000  0.61190000  1.0 0.1005193985
C  C28  1  0.84640000  0.12360000  0.11190000  1.0 0.1005193985
C  C29  1  0.16330000  0.66980000  0.15820000  1.0 -0.1801513471
C  C30  1  0.33670000  0.33020000  0.65820000  1.0 -0.1801513471
C  C31  1  0.66330000  0.83020000  0.84180000  1.0 -0.1801513471
C  C32  1  0.83670000  0.16980000  0.34180000  1.0 -0.1801513471
C  C33  1  0.22790000  0.62630000  0.39990000  1.0 -0.187747666
C  C34  1  0.27210000  0.37370000  0.89990000  1.0 -0.187747666
C  C35  1  0.72790000  0.87370000  0.60010000  1.0 -0.187747666
C  C36  1  0.77210000  0.12630000  0.10010000  1.0 -0.187747666
C  C37  1  0.10580000  0.73050000  0.31640000  1.0 0.0808325623
C  C38  1  0.39420000  0.26950000  0.81640000  1.0 0.0808325623
C  C39  1  0.60580000  0.76950000  0.68360000  1.0 0.0808325623
C  C40  1  0.89420000  0.23050000  0.18360000  1.0 0.0808325623
C  C41  1  0.38170000  0.56010000  0.54620000  1.0 0.0875496124
C  C42  1  0.11830000  0.43990000  0.04620000  1.0 0.0875496124
C  C43  1  0.88170000  0.93990000  0.45380000  1.0 0.0875496124
C  C44  1  0.61830000  0.06010000  0.95380000  1.0 0.0875496124
C  C45  1  0.18150000  0.43020000  0.38340000  1.0 -0.1801513471
C  C46  1  0.31850000  0.56980000  0.88340000  1.0 -0.1801513471
C  C47  1  0.68150000  0.06980000  0.61660000  1.0 -0.1801513471
C  C48  1  0.81850000  0.93020000  0.11660000  1.0 -0.1801513471
C  C49  1  0.14670000  0.61040000  0.09310000  1.0 0.1005193985
C  C50  1  0.35330000  0.38960000  0.59310000  1.0 0.1005193985
C  C51  1  0.64670000  0.88960000  0.90690000  1.0 0.1005193985
C  C52  1  0.85330000  0.11040000  0.40690000  1.0 0.1005193985
C  C53  1  0.27330000  0.59970000  0.55340000  1.0 0.0392945005
C  C54  1  0.22670000  0.40030000  0.05340000  1.0 0.0392945005
C  C55  1  0.77330000  0.90030000  0.44660000  1.0 0.0392945005
C  C56  1  0.72670000  0.09970000  0.94660000  1.0 0.0392945005
C  C57  1  0.42930000  0.72700000  0.67670000  1.0 0.0808325623
C  C58  1  0.07070000  0.27300000  0.17670000  1.0 0.0808325623
C  C59  1  0.92930000  0.77300000  0.32330000  1.0 0.0808325623
C  C60  1  0.57070000  0.22700000  0.82330000  1.0 0.0808325623
C  C61  1  0.13960000  0.70240000  0.35000000  1.0 -0.1801513471
C  C62  1  0.36040000  0.29760000  0.85000000  1.0 -0.1801513471
C  C63  1  0.63960000  0.79760000  0.65000000  1.0 -0.1801513471
C  C64  1  0.86040000  0.20240000  0.15000000  1.0 -0.1801513471
C  C65  1  0.99810000  0.31520000  0.34840000  1.0 0.0128170812
C  C66  1  0.50190000  0.68480000  0.84840000  1.0 0.0128170812
C  C67  1  0.49810000  0.18480000  0.65160000  1.0 0.0128170812
C  C68  1  0.00190000  0.81520000  0.15160000  1.0 0.0128170812
C  C69  1  0.10970000  0.59200000  0.41160000  1.0 -0.1801513471
C  C70  1  0.39030000  0.40800000  0.91160000  1.0 -0.1801513471
C  C71  1  0.60970000  0.90800000  0.58840000  1.0 -0.1801513471
C  C72  1  0.89030000  0.09200000  0.08840000  1.0 -0.1801513471
C  C73  1  0.41600000  0.58980000  0.57810000  1.0 -0.187747666
C  C74  1  0.08400000  0.41020000  0.07810000  1.0 -0.187747666
C  C75  1  0.91600000  0.91020000  0.42190000  1.0 -0.187747666
C  C76  1  0.58400000  0.08980000  0.92190000  1.0 -0.187747666
C  C77  1  0.02980000  0.34620000  0.38000000  1.0 -0.1801513471
C  C78  1  0.47020000  0.65380000  0.88000000  1.0 -0.1801513471
C  C79  1  0.52980000  0.15380000  0.62000000  1.0 -0.1801513471
C  C80  1  0.97020000  0.84620000  0.12000000  1.0 -0.1801513471
C  C81  1  0.14080000  0.33980000  0.33750000  1.0 -0.1801513471
C  C82  1  0.35920000  0.66020000  0.83750000  1.0 -0.1801513471
C  C83  1  0.64080000  0.16020000  0.66250000  1.0 -0.1801513471
C  C84  1  0.85920000  0.83980000  0.16250000  1.0 -0.1801513471
C  C85  1  0.13880000  0.39600000  0.40380000  1.0 0.1005193985
C  C86  1  0.36120000  0.60400000  0.90380000  1.0 0.1005193985
C  C87  1  0.63880000  0.10400000  0.59620000  1.0 0.1005193985
C  C88  1  0.86120000  0.89600000  0.09620000  1.0 0.1005193985
C  C89  1  0.25600000  0.59560000  0.43350000  1.0 0.0808325623
C  C90  1  0.24400000  0.40440000  0.93350000  1.0 0.0808325623
C  C91  1  0.75600000  0.90440000  0.56650000  1.0 0.0808325623
C  C92  1  0.74400000  0.09560000  0.06650000  1.0 0.0808325623
C  C93  1  0.13190000  0.60890000  0.04530000  1.0 -0.171652825
C  C94  1  0.36810000  0.39110000  0.54530000  1.0 -0.171652825
C  C95  1  0.63190000  0.89110000  0.95470000  1.0 -0.171652825
C  C96  1  0.86810000  0.10890000  0.45470000  1.0 -0.171652825
C  C97  1  0.07290000  0.63700000  0.31800000  1.0 -0.1801513471
C  C98  1  0.42710000  0.36300000  0.81800000  1.0 -0.1801513471
C  C99  1  0.57290000  0.86300000  0.68200000  1.0 -0.1801513471
C  C100  1  0.92710000  0.13700000  0.18200000  1.0 -0.1801513471
C  C101  1  0.14150000  0.56270000  0.44450000  1.0 0.0156105865
C  C102  1  0.35850000  0.43730000  0.94450000  1.0 0.0156105865
C  C103  1  0.64150000  0.93730000  0.55550000  1.0 0.0156105865
C  C104  1  0.85850000  0.06270000  0.05550000  1.0 0.0156105865
C  C105  1  0.30310000  0.63060000  0.58540000  1.0 -0.1957780955
C  C106  1  0.19690000  0.36940000  0.08540000  1.0 -0.1957780955
C  C107  1  0.80310000  0.86940000  0.41460000  1.0 -0.1957780955
C  C108  1  0.69690000  0.13060000  0.91460000  1.0 -0.1957780955
C  C109  1  0.10500000  0.30870000  0.30780000  1.0 0.0392945005
C  C110  1  0.39500000  0.69130000  0.80780000  1.0 0.0392945005
C  C111  1  0.60500000  0.19130000  0.69220000  1.0 0.0392945005
C  C112  1  0.89500000  0.80870000  0.19220000  1.0 0.0392945005
C  C113  1  0.44890000  0.63270000  0.67280000  1.0 -0.2200256047
C  C114  1  0.05110000  0.36730000  0.17280000  1.0 -0.2200256047
C  C115  1  0.94890000  0.86730000  0.32720000  1.0 -0.2200256047
C  C116  1  0.55110000  0.13270000  0.82720000  1.0 -0.2200256047
C  C117  1  0.47670000  0.65940000  0.70910000  1.0 -0.0310894729
C  C118  1  0.02330000  0.34060000  0.20910000  1.0 -0.0310894729
C  C119  1  0.97670000  0.84060000  0.29090000  1.0 -0.0310894729
C  C120  1  0.52330000  0.15940000  0.79090000  1.0 -0.0310894729
C  C121  1  0.12980000  0.39630000  0.45230000  1.0 -0.1801513471
C  C122  1  0.37020000  0.60370000  0.95230000  1.0 -0.1801513471
C  C123  1  0.62980000  0.10370000  0.54770000  1.0 -0.1801513471
C  C124  1  0.87020000  0.89630000  0.04770000  1.0 -0.1801513471
C  C125  1  0.04360000  0.66680000  0.28500000  1.0 0.0617879331
C  C126  1  0.45640000  0.33320000  0.78500000  1.0 0.0617879331
C  C127  1  0.54360000  0.83320000  0.71500000  1.0 0.0617879331
C  C128  1  0.95640000  0.16680000  0.21500000  1.0 0.0617879331
C  C129  1  0.40810000  0.65430000  0.63730000  1.0 0.0875496124
C  C130  1  0.09190000  0.34570000  0.13730000  1.0 0.0875496124
C  C131  1  0.90810000  0.84570000  0.36270000  1.0 0.0875496124
C  C132  1  0.59190000  0.15430000  0.86270000  1.0 0.0875496124
C  C133  1  0.13290000  0.70240000  0.18780000  1.0 0.0617879331
C  C134  1  0.36710000  0.29760000  0.68780000  1.0 0.0617879331
C  C135  1  0.63290000  0.79760000  0.81220000  1.0 0.0617879331
C  C136  1  0.86710000  0.20240000  0.31220000  1.0 0.0693678876
C  C137  1  0.04690000  0.66490000  0.11950000  1.0 -0.187747666
C  C138  1  0.45310000  0.33510000  0.61950000  1.0 -0.187747666
C  C139  1  0.54690000  0.83510000  0.88050000  1.0 -0.187747666
C  C140  1  0.95310000  0.16490000  0.38050000  1.0 -0.187747666
C  C141  1  0.16580000  0.43050000  0.47780000  1.0 0.0526262434
C  C142  1  0.33420000  0.56950000  0.97780000  1.0 0.0526262434
C  C143  1  0.66580000  0.06950000  0.52220000  1.0 0.0617879331
C  C144  1  0.83420000  0.93050000  0.02220000  1.0 0.0617879331
C  C145  1  0.18790000  0.57420000  0.11190000  1.0 -0.171652825
C  C146  1  0.31210000  0.42580000  0.61190000  1.0 -0.171652825
C  C147  1  0.68790000  0.92580000  0.88810000  1.0 -0.171652825
C  C148  1  0.81210000  0.07420000  0.38810000  1.0 -0.171652825
C  C149  1  0.21420000  0.46380000  0.41170000  1.0 0.0617879331
C  C150  1  0.28580000  0.53620000  0.91170000  1.0 0.0617879331
C  C151  1  0.71420000  0.03620000  0.58830000  1.0 0.0617879331
C  C152  1  0.78580000  0.96380000  0.08830000  1.0 0.0617879331
C  C153  1  0.15940000  0.57250000  0.01930000  1.0 0.0875496124
C  C154  1  0.34060000  0.42750000  0.51930000  1.0 0.0875496124
C  C155  1  0.65940000  0.92750000  0.98070000  1.0 0.0875496124
C  C156  1  0.84060000  0.07250000  0.48070000  1.0 0.0875496124
C  C157  1  0.21090000  0.53820000  0.08390000  1.0 0.0392945005
C  C158  1  0.28910000  0.46180000  0.58390000  1.0 0.0392945005
C  C159  1  0.71090000  0.96180000  0.91610000  1.0 0.0392945005
C  C160  1  0.78910000  0.03820000  0.41610000  1.0 0.0392945005
C  C161  1  0.16940000  0.89020000  0.26130000  1.0 -0.2200256047
C  C162  1  0.33060000  0.10980000  0.76130000  1.0 -0.2200256047
C  C163  1  0.66940000  0.60980000  0.73870000  1.0 -0.2200256047
C  C164  1  0.83060000  0.39020000  0.23870000  1.0 -0.2200256047
C  C165  1  0.40810000  0.47510000  0.36070000  1.0 -0.6207664436
C  C166  1  0.09190000  0.52490000  0.86070000  1.0 -0.6207664436
C  C167  1  0.90810000  0.02490000  0.63930000  1.0 -0.6207664436
C  C168  1  0.59190000  0.97510000  0.13930000  1.0 -0.6207664436
C  C169  1  0.11870000  0.56120000  0.62540000  1.0 -0.3818509815
C  C170  1  0.38130000  0.43880000  0.12540000  1.0 -0.3818509815
C  C171  1  0.61870000  0.93880000  0.37460000  1.0 -0.3818509815
C  C172  1  0.88130000  0.06120000  0.87460000  1.0 -0.3818509815
C  C173  1  0.46090000  0.55590000  0.39460000  1.0 -0.585618907
C  C174  1  0.03910000  0.44410000  0.89460000  1.0 -0.585618907
C  C175  1  0.96090000  0.94410000  0.60540000  1.0 -0.585618907
C  C176  1  0.53910000  0.05590000  0.10540000  1.0 -0.585618907
C  C177  1  0.24280000  0.83500000  0.19950000  1.0 -0.2501232786
C  C178  1  0.25720000  0.16500000  0.69950000  1.0 -0.2501232786
C  C179  1  0.74280000  0.66500000  0.80050000  1.0 -0.2501232786
C  C180  1  0.75720000  0.33500000  0.30050000  1.0 -0.2501232786
C  C181  1  0.01960000  0.50780000  0.57320000  1.0 -0.2501232786
C  C182  1  0.48040000  0.49220000  0.07320000  1.0 -0.2501232786
C  C183  1  0.51960000  0.99220000  0.42680000  1.0 -0.2501232786
C  C184  1  0.98040000  0.00780000  0.92680000  1.0 -0.2501232786
C  C185  1  0.06100000  0.48220000  0.59750000  1.0 -0.2200256047
C  C186  1  0.43900000  0.51780000  0.09750000  1.0 -0.2200256047
C  C187  1  0.56100000  0.01780000  0.40250000  1.0 -0.2200256047
C  C188  1  0.93900000  0.98220000  0.90250000  1.0 -0.2200256047
C  C189  1  0.14100000  0.89750000  0.24300000  1.0 -0.2292481733
C  C190  1  0.35900000  0.10250000  0.74300000  1.0 -0.2292481733
C  C191  1  0.64100000  0.60250000  0.75700000  1.0 -0.2292481733
C  C192  1  0.85900000  0.39750000  0.25700000  1.0 -0.2292481733
C  C193  1  0.25350000  0.83500000  0.23200000  1.0 -0.2292481733
C  C194  1  0.24650000  0.16500000  0.73200000  1.0 -0.2292481733
C  C195  1  0.75350000  0.66500000  0.76800000  1.0 -0.2292481733
C  C196  1  0.74650000  0.33500000  0.26800000  1.0 -0.2292481733
C  C197  1  0.88120000  0.35030000  0.87670000  1.0 0.1005193985
C  C198  1  0.61880000  0.64970000  0.37670000  1.0 0.1005193985
C  C199  1  0.38120000  0.14970000  0.12330000  1.0 0.1005193985
C  C200  1  0.11880000  0.85030000  0.62330000  1.0 0.1005193985
C  C201  1  0.89710000  0.64050000  0.62610000  1.0 0.1083266179
C  C202  1  0.60290000  0.35950000  0.12610000  1.0 0.1083266179
C  C203  1  0.39710000  0.85950000  0.37390000  1.0 0.1083266179
C  C204  1  0.10290000  0.14050000  0.87390000  1.0 0.1083266179
C  C205  1  0.87870000  0.34480000  0.64810000  1.0 0.1083266179
C  C206  1  0.62130000  0.65520000  0.14810000  1.0 0.1083266179
C  C207  1  0.37870000  0.15520000  0.35190000  1.0 0.1083266179
C  C208  1  0.12130000  0.84480000  0.85190000  1.0 0.1083266179
C  C209  1  0.60160000  0.29760000  0.36030000  1.0 -0.1801513471
C  C210  1  0.89840000  0.70240000  0.86030000  1.0 -0.1801513471
C  C211  1  0.10160000  0.20240000  0.63970000  1.0 -0.1801513471
C  C212  1  0.39840000  0.79760000  0.13970000  1.0 -0.1801513471
C  C213  1  0.98080000  0.30280000  0.84900000  1.0 0.0617879331
C  C214  1  0.51920000  0.69720000  0.34900000  1.0 0.0617879331
C  C215  1  0.48080000  0.19720000  0.15100000  1.0 0.0617879331
C  C216  1  0.01920000  0.80280000  0.65100000  1.0 0.0617879331
C  C217  1  0.62340000  0.37470000  0.40070000  1.0 0.1083266179
C  C218  1  0.87660000  0.62530000  0.90070000  1.0 0.1083266179
C  C219  1  0.12340000  0.12530000  0.59930000  1.0 0.1083266179
C  C220  1  0.37660000  0.87470000  0.09930000  1.0 0.1083266179
C  C221  1  0.84640000  0.37640000  0.61190000  1.0 0.1005193985
C  C222  1  0.65360000  0.62360000  0.11190000  1.0 0.1005193985
C  C223  1  0.34640000  0.12360000  0.38810000  1.0 0.1005193985
C  C224  1  0.15360000  0.87640000  0.88810000  1.0 0.1005193985
C  C225  1  0.83670000  0.33020000  0.84180000  1.0 -0.1801513471
C  C226  1  0.66330000  0.66980000  0.34180000  1.0 -0.1801513471
C  C227  1  0.33670000  0.16980000  0.15820000  1.0 -0.1801513471
C  C228  1  0.16330000  0.83020000  0.65820000  1.0 -0.1801513471
C  C229  1  0.77210000  0.37370000  0.60010000  1.0 -0.187747666
C  C230  1  0.72790000  0.62630000  0.10010000  1.0 -0.187747666
C  C231  1  0.27210000  0.12630000  0.39990000  1.0 -0.187747666
C  C232  1  0.22790000  0.87370000  0.89990000  1.0 -0.187747666
C  C233  1  0.89420000  0.26950000  0.68360000  1.0 0.0808325623
C  C234  1  0.60580000  0.73050000  0.18360000  1.0 0.0808325623
C  C235  1  0.39420000  0.23050000  0.31640000  1.0 0.0808325623
C  C236  1  0.10580000  0.76950000  0.81640000  1.0 0.0808325623
C  C237  1  0.61830000  0.43990000  0.45380000  1.0 0.0875496124
C  C238  1  0.88170000  0.56010000  0.95380000  1.0 0.0875496124
C  C239  1  0.11830000  0.06010000  0.54620000  1.0 0.0875496124
C  C240  1  0.38170000  0.93990000  0.04620000  1.0 0.0875496124
C  C241  1  0.81850000  0.56980000  0.61660000  1.0 -0.1801513471
C  C242  1  0.68150000  0.43020000  0.11660000  1.0 -0.1801513471
C  C243  1  0.31850000  0.93020000  0.38340000  1.0 -0.1801513471
C  C244  1  0.18150000  0.06980000  0.88340000  1.0 -0.1801513471
C  C245  1  0.85330000  0.38960000  0.90690000  1.0 0.1005193985
C  C246  1  0.64670000  0.61040000  0.40690000  1.0 0.1005193985
C  C247  1  0.35330000  0.11040000  0.09310000  1.0 0.1005193985
C  C248  1  0.14670000  0.88960000  0.59310000  1.0 0.1005193985
C  C249  1  0.72670000  0.40030000  0.44660000  1.0 0.0392945005
C  C250  1  0.77330000  0.59970000  0.94660000  1.0 0.0392945005
C  C251  1  0.22670000  0.09970000  0.55340000  1.0 0.0392945005
C  C252  1  0.27330000  0.90030000  0.05340000  1.0 0.0392945005
C  C253  1  0.57070000  0.27300000  0.32330000  1.0 0.0808325623
C  C254  1  0.92930000  0.72700000  0.82330000  1.0 0.0808325623
C  C255  1  0.07070000  0.22700000  0.67670000  1.0 0.0808325623
C  C256  1  0.42930000  0.77300000  0.17670000  1.0 0.0808325623
C  C257  1  0.86040000  0.29760000  0.65000000  1.0 -0.1801513471
C  C258  1  0.63960000  0.70240000  0.15000000  1.0 -0.1801513471
C  C259  1  0.36040000  0.20240000  0.35000000  1.0 -0.1801513471
C  C260  1  0.13960000  0.79760000  0.85000000  1.0 -0.1801513471
C  C261  1  0.00190000  0.68480000  0.65160000  1.0 0.0128170812
C  C262  1  0.49810000  0.31520000  0.15160000  1.0 0.0128170812
C  C263  1  0.50190000  0.81520000  0.34840000  1.0 0.0128170812
C  C264  1  0.99810000  0.18480000  0.84840000  1.0 0.0128170812
C  C265  1  0.89030000  0.40800000  0.58840000  1.0 -0.1801513471
C  C266  1  0.60970000  0.59200000  0.08840000  1.0 -0.1801513471
C  C267  1  0.39030000  0.09200000  0.41160000  1.0 -0.1801513471
C  C268  1  0.10970000  0.90800000  0.91160000  1.0 -0.1801513471
C  C269  1  0.58400000  0.41020000  0.42190000  1.0 -0.187747666
C  C270  1  0.91600000  0.58980000  0.92190000  1.0 -0.187747666
C  C271  1  0.08400000  0.08980000  0.57810000  1.0 -0.187747666
C  C272  1  0.41600000  0.91020000  0.07810000  1.0 -0.187747666
C  C273  1  0.97020000  0.65380000  0.62000000  1.0 -0.1801513471
C  C274  1  0.52980000  0.34620000  0.12000000  1.0 -0.1801513471
C  C275  1  0.47020000  0.84620000  0.38000000  1.0 -0.1801513471
C  C276  1  0.02980000  0.15380000  0.88000000  1.0 -0.1801513471
C  C277  1  0.85920000  0.66020000  0.66250000  1.0 -0.1801513471
C  C278  1  0.64080000  0.33980000  0.16250000  1.0 -0.1801513471
C  C279  1  0.35920000  0.83980000  0.33750000  1.0 -0.1801513471
C  C280  1  0.14080000  0.16020000  0.83750000  1.0 -0.1801513471
C  C281  1  0.86120000  0.60400000  0.59620000  1.0 0.1005193985
C  C282  1  0.63880000  0.39600000  0.09620000  1.0 0.1005193985
C  C283  1  0.36120000  0.89600000  0.40380000  1.0 0.1005193985
C  C284  1  0.13880000  0.10400000  0.90380000  1.0 0.1005193985
C  C285  1  0.74400000  0.40440000  0.56650000  1.0 0.0808325623
C  C286  1  0.75600000  0.59560000  0.06650000  1.0 0.0808325623
C  C287  1  0.24400000  0.09560000  0.43350000  1.0 0.0808325623
C  C288  1  0.25600000  0.90440000  0.93350000  1.0 0.0808325623
C  C289  1  0.86810000  0.39110000  0.95470000  1.0 -0.171652825
C  C290  1  0.63190000  0.60890000  0.45470000  1.0 -0.171652825
C  C291  1  0.36810000  0.10890000  0.04530000  1.0 -0.171652825
C  C292  1  0.13190000  0.89110000  0.54530000  1.0 -0.171652825
C  C293  1  0.92710000  0.36300000  0.68200000  1.0 -0.1801513471
C  C294  1  0.57290000  0.63700000  0.18200000  1.0 -0.1801513471
C  C295  1  0.42710000  0.13700000  0.31800000  1.0 -0.1801513471
C  C296  1  0.07290000  0.86300000  0.81800000  1.0 -0.1801513471
C  C297  1  0.85850000  0.43730000  0.55550000  1.0 0.0156105865
C  C298  1  0.64150000  0.56270000  0.05550000  1.0 0.0156105865
C  C299  1  0.35850000  0.06270000  0.44450000  1.0 0.0156105865
C  C300  1  0.14150000  0.93730000  0.94450000  1.0 0.0156105865
C  C301  1  0.69690000  0.36940000  0.41460000  1.0 -0.1957780955
C  C302  1  0.80310000  0.63060000  0.91460000  1.0 -0.1957780955
C  C303  1  0.19690000  0.13060000  0.58540000  1.0 -0.1957780955
C  C304  1  0.30310000  0.86940000  0.08540000  1.0 -0.1957780955
C  C305  1  0.89500000  0.69130000  0.69220000  1.0 0.0392945005
C  C306  1  0.60500000  0.30870000  0.19220000  1.0 0.0392945005
C  C307  1  0.39500000  0.80870000  0.30780000  1.0 0.0392945005
C  C308  1  0.10500000  0.19130000  0.80780000  1.0 0.0392945005
C  C309  1  0.55110000  0.36730000  0.32720000  1.0 -0.2200256047
C  C310  1  0.94890000  0.63270000  0.82720000  1.0 -0.2200256047
C  C311  1  0.05110000  0.13270000  0.67280000  1.0 -0.2200256047
C  C312  1  0.44890000  0.86730000  0.17280000  1.0 -0.2200256047
C  C313  1  0.52330000  0.34060000  0.29090000  1.0 -0.0310894729
C  C314  1  0.97670000  0.65940000  0.79090000  1.0 -0.0310894729
C  C315  1  0.02330000  0.15940000  0.70910000  1.0 -0.0310894729
C  C316  1  0.47670000  0.84060000  0.20910000  1.0 -0.0310894729
C  C317  1  0.87020000  0.60370000  0.54770000  1.0 -0.1801513471
C  C318  1  0.62980000  0.39630000  0.04770000  1.0 -0.1801513471
C  C319  1  0.37020000  0.89630000  0.45230000  1.0 -0.1801513471
C  C320  1  0.12980000  0.10370000  0.95230000  1.0 -0.1801513471
C  C321  1  0.95640000  0.33320000  0.71500000  1.0 0.0617879331
C  C322  1  0.54360000  0.66680000  0.21500000  1.0 0.0617879331
C  C323  1  0.45640000  0.16680000  0.28500000  1.0 0.0617879331
C  C324  1  0.04360000  0.83320000  0.78500000  1.0 0.0617879331
C  C325  1  0.59190000  0.34570000  0.36270000  1.0 0.0875496124
C  C326  1  0.90810000  0.65430000  0.86270000  1.0 0.0875496124
C  C327  1  0.09190000  0.15430000  0.63730000  1.0 0.0875496124
C  C328  1  0.40810000  0.84570000  0.13730000  1.0 0.0875496124
C  C329  1  0.86710000  0.29760000  0.81220000  1.0 0.0617879331
C  C330  1  0.63290000  0.70240000  0.31220000  1.0 0.0693678876
C  C331  1  0.36710000  0.20240000  0.18780000  1.0 0.0617879331
C  C332  1  0.13290000  0.79760000  0.68780000  1.0 0.0617879331
C  C333  1  0.95310000  0.33510000  0.88050000  1.0 -0.187747666
C  C334  1  0.54690000  0.66490000  0.38050000  1.0 -0.187747666
C  C335  1  0.45310000  0.16490000  0.11950000  1.0 -0.187747666
C  C336  1  0.04690000  0.83510000  0.61950000  1.0 -0.187747666
C  C337  1  0.83420000  0.56950000  0.52220000  1.0 0.0617879331
C  C338  1  0.66580000  0.43050000  0.02220000  1.0 0.0617879331
C  C339  1  0.33420000  0.93050000  0.47780000  1.0 0.0526262434
C  C340  1  0.16580000  0.06950000  0.97780000  1.0 0.0526262434
C  C341  1  0.81210000  0.42580000  0.88810000  1.0 -0.171652825
C  C342  1  0.68790000  0.57420000  0.38810000  1.0 -0.171652825
C  C343  1  0.31210000  0.07420000  0.11190000  1.0 -0.171652825
C  C344  1  0.18790000  0.92580000  0.61190000  1.0 -0.171652825
C  C345  1  0.78580000  0.53620000  0.58830000  1.0 0.0617879331
C  C346  1  0.71420000  0.46380000  0.08830000  1.0 0.0617879331
C  C347  1  0.28580000  0.96380000  0.41170000  1.0 0.0617879331
C  C348  1  0.21420000  0.03620000  0.91170000  1.0 0.0617879331
C  C349  1  0.84060000  0.42750000  0.98070000  1.0 0.0875496124
C  C350  1  0.65940000  0.57250000  0.48070000  1.0 0.0875496124
C  C351  1  0.34060000  0.07250000  0.01930000  1.0 0.0875496124
C  C352  1  0.15940000  0.92750000  0.51930000  1.0 0.0875496124
C  C353  1  0.78910000  0.46180000  0.91610000  1.0 0.0392945005
C  C354  1  0.71090000  0.53820000  0.41610000  1.0 0.0392945005
C  C355  1  0.28910000  0.03820000  0.08390000  1.0 0.0392945005
C  C356  1  0.21090000  0.96180000  0.58390000  1.0 0.0392945005
C  C357  1  0.83060000  0.10980000  0.73870000  1.0 -0.2200256047
C  C358  1  0.66940000  0.89020000  0.23870000  1.0 -0.2200256047
C  C359  1  0.33060000  0.39020000  0.26130000  1.0 -0.2200256047
C  C360  1  0.16940000  0.60980000  0.76130000  1.0 -0.2200256047
C  C361  1  0.59190000  0.52490000  0.63930000  1.0 -0.6207664436
C  C362  1  0.90810000  0.47510000  0.13930000  1.0 -0.6207664436
C  C363  1  0.09190000  0.97510000  0.36070000  1.0 -0.6207664436
C  C364  1  0.40810000  0.02490000  0.86070000  1.0 -0.6207664436
C  C365  1  0.88130000  0.43880000  0.37460000  1.0 -0.3818509815
C  C366  1  0.61870000  0.56120000  0.87460000  1.0 -0.3818509815
C  C367  1  0.38130000  0.06120000  0.62540000  1.0 -0.3818509815
C  C368  1  0.11870000  0.93880000  0.12540000  1.0 -0.3818509815
C  C369  1  0.53910000  0.44410000  0.60540000  1.0 -0.585618907
C  C370  1  0.96090000  0.55590000  0.10540000  1.0 -0.585618907
C  C371  1  0.03910000  0.05590000  0.39460000  1.0 -0.585618907
C  C372  1  0.46090000  0.94410000  0.89460000  1.0 -0.585618907
C  C373  1  0.75720000  0.16500000  0.80050000  1.0 -0.2501232786
C  C374  1  0.74280000  0.83500000  0.30050000  1.0 -0.2501232786
C  C375  1  0.25720000  0.33500000  0.19950000  1.0 -0.2501232786
C  C376  1  0.24280000  0.66500000  0.69950000  1.0 -0.2501232786
C  C377  1  0.98040000  0.49220000  0.42680000  1.0 -0.2501232786
C  C378  1  0.51960000  0.50780000  0.92680000  1.0 -0.2501232786
C  C379  1  0.48040000  0.00780000  0.57320000  1.0 -0.2501232786
C  C380  1  0.01960000  0.99220000  0.07320000  1.0 -0.2501232786
C  C381  1  0.93900000  0.51780000  0.40250000  1.0 -0.2200256047
C  C382  1  0.56100000  0.48220000  0.90250000  1.0 -0.2200256047
C  C383  1  0.43900000  0.98220000  0.59750000  1.0 -0.2200256047
C  C384  1  0.06100000  0.01780000  0.09750000  1.0 -0.2200256047
C  C385  1  0.85900000  0.10250000  0.75700000  1.0 -0.2292481733
C  C386  1  0.64100000  0.89750000  0.25700000  1.0 -0.2292481733
C  C387  1  0.35900000  0.39750000  0.24300000  1.0 -0.2292481733
C  C388  1  0.14100000  0.60250000  0.74300000  1.0 -0.2292481733
C  C389  1  0.74650000  0.16500000  0.76800000  1.0 -0.2292481733
C  C390  1  0.75350000  0.83500000  0.26800000  1.0 -0.2292481733
C  C391  1  0.24650000  0.33500000  0.23200000  1.0 -0.2292481733
C  C392  1  0.25350000  0.66500000  0.73200000  1.0 -0.2292481733
S  S1  1  0.43116000  0.50205000  0.41458000  1.0 0.6244615378
S  S2  1  0.06884000  0.49795000  0.91458000  1.0 0.6251649918
S  S3  1  0.93116000  0.99795000  0.58542000  1.0 0.6251649918
S  S4  1  0.56884000  0.00205000  0.08542000  1.0 0.6244615378
S  S5  1  0.08570000  0.53730000  0.57284000  1.0 0.2499888676
S  S6  1  0.41430000  0.46270000  0.07284000  1.0 0.2499888676
S  S7  1  0.58570000  0.96270000  0.42716000  1.0 0.2499888676
S  S8  1  0.91430000  0.03730000  0.92716000  1.0 0.2499888676
S  S9  1  0.18910000  0.83172000  0.24963000  1.0 0.1292719818
S  S10  1  0.31090000  0.16828000  0.74963000  1.0 0.1205371565
S  S11  1  0.68910000  0.66828000  0.75037000  1.0 0.1205371565
S  S12  1  0.81090000  0.33172000  0.25037000  1.0 0.1292719818
S  S13  1  0.11320000  0.51050000  0.58870000  1.0 0.2266905029
S  S14  1  0.38680000  0.48950000  0.08870000  1.0 0.2266905029
S  S15  1  0.61320000  0.98950000  0.41130000  1.0 0.2266905029
S  S16  1  0.88680000  0.01050000  0.91130000  1.0 0.2242786797
S  S17  1  0.16250000  0.84440000  0.21630000  1.0 0.1696575718
S  S18  1  0.33750000  0.15560000  0.71630000  1.0 0.1696575718
S  S19  1  0.66250000  0.65560000  0.78370000  1.0 0.1696575718
S  S20  1  0.83750000  0.34440000  0.28370000  1.0 0.1696575718
S  S21  1  0.56884000  0.49795000  0.58542000  1.0 0.6251649918
S  S22  1  0.93116000  0.50205000  0.08542000  1.0 0.6244615378
S  S23  1  0.06884000  0.00205000  0.41458000  1.0 0.6244615378
S  S24  1  0.43116000  0.99795000  0.91458000  1.0 0.6244615378
S  S25  1  0.91430000  0.46270000  0.42716000  1.0 0.2499888676
S  S26  1  0.58570000  0.53730000  0.92716000  1.0 0.2499888676
S  S27  1  0.41430000  0.03730000  0.57284000  1.0 0.2499888676
S  S28  1  0.08570000  0.96270000  0.07284000  1.0 0.2499888676
S  S29  1  0.81090000  0.16828000  0.75037000  1.0 0.1205371565
S  S30  1  0.68910000  0.83172000  0.25037000  1.0 0.1292719818
S  S31  1  0.31090000  0.33172000  0.24963000  1.0 0.1205371565
S  S32  1  0.18910000  0.66828000  0.74963000  1.0 0.1205371565
S  S33  1  0.88680000  0.48950000  0.41130000  1.0 0.2266905029
S  S34  1  0.61320000  0.51050000  0.91130000  1.0 0.2266905029
S  S35  1  0.38680000  0.01050000  0.58870000  1.0 0.2266905029
S  S36  1  0.11320000  0.98950000  0.08870000  1.0 0.2266905029
S  S37  1  0.83750000  0.15560000  0.78370000  1.0 0.1696575718
S  S38  1  0.66250000  0.84440000  0.28370000  1.0 0.1696575718
S  S39  1  0.33750000  0.34440000  0.21630000  1.0 0.1696575718
S  S40  1  0.16250000  0.65560000  0.71630000  1.0 0.1696575718
N  N1  1  0.46750000  0.70664000  0.71103000  1.0 -0.2406964818
N  N2  1  0.03250000  0.29336000  0.21103000  1.0 -0.2406964818
N  N3  1  0.96750000  0.79336000  0.28897000  1.0 -0.2406964818
N  N4  1  0.53250000  0.20664000  0.78897000  1.0 -0.2406964818
N  N5  1  0.06010000  0.71347000  0.28412000  1.0 -0.2292481733
N  N6  1  0.43990000  0.28653000  0.78412000  1.0 -0.2292481733
N  N7  1  0.56010000  0.78653000  0.71588000  1.0 -0.2292481733
N  N8  1  0.93990000  0.21347000  0.21588000  1.0 -0.2292481733
N  N9  1  0.21340000  0.56389000  0.45498000  1.0 -0.2200256047
N  N10  1  0.28660000  0.43611000  0.95498000  1.0 -0.2200256047
N  N11  1  0.71340000  0.93611000  0.54502000  1.0 -0.2200256047
N  N12  1  0.78660000  0.06389000  0.04502000  1.0 -0.2200256047
N  N13  1  0.03510000  0.29662000  0.31218000  1.0 -0.2200256047
N  N14  1  0.46490000  0.70338000  0.81218000  1.0 -0.2200256047
N  N15  1  0.53510000  0.20338000  0.68782000  1.0 -0.2200256047
N  N16  1  0.96490000  0.79662000  0.18782000  1.0 -0.2200256047
N  N17  1  0.31120000  0.56388000  0.53504000  1.0 -0.2292481733
N  N18  1  0.18880000  0.43612000  0.03504000  1.0 -0.2292481733
N  N19  1  0.81120000  0.93612000  0.46496000  1.0 -0.2292481733
N  N20  1  0.68880000  0.06388000  0.96496000  1.0 -0.2292481733
N  N21  1  0.06120000  0.71560000  0.18507000  1.0 -0.2200256047
N  N22  1  0.43880000  0.28440000  0.68507000  1.0 -0.2200256047
N  N23  1  0.56120000  0.78440000  0.81493000  1.0 -0.2200256047
N  N24  1  0.93880000  0.21560000  0.31493000  1.0 -0.2200256047
N  N25  1  0.19830000  0.53736000  0.03757000  1.0 -0.2200256047
N  N26  1  0.30170000  0.46264000  0.53757000  1.0 -0.2200256047
N  N27  1  0.69830000  0.96264000  0.96243000  1.0 -0.2200256047
N  N28  1  0.80170000  0.03736000  0.46243000  1.0 -0.2292481733
N  N29  1  0.20710000  0.46361000  0.45858000  1.0 -0.2292481733
N  N30  1  0.29290000  0.53639000  0.95858000  1.0 -0.2292481733
N  N31  1  0.70710000  0.03639000  0.54142000  1.0 -0.2292481733
N  N32  1  0.79290000  0.96361000  0.04142000  1.0 -0.2292481733
N  N33  1  0.53250000  0.29336000  0.28897000  1.0 -0.2406964818
N  N34  1  0.96750000  0.70664000  0.78897000  1.0 -0.2406964818
N  N35  1  0.03250000  0.20664000  0.71103000  1.0 -0.2406964818
N  N36  1  0.46750000  0.79336000  0.21103000  1.0 -0.2406964818
N  N37  1  0.93990000  0.28653000  0.71588000  1.0 -0.2292481733
N  N38  1  0.56010000  0.71347000  0.21588000  1.0 -0.2292481733
N  N39  1  0.43990000  0.21347000  0.28412000  1.0 -0.2292481733
N  N40  1  0.06010000  0.78653000  0.78412000  1.0 -0.2292481733
N  N41  1  0.78660000  0.43611000  0.54502000  1.0 -0.2200256047
N  N42  1  0.71340000  0.56389000  0.04502000  1.0 -0.2200256047
N  N43  1  0.28660000  0.06389000  0.45498000  1.0 -0.2200256047
N  N44  1  0.21340000  0.93611000  0.95498000  1.0 -0.2200256047
N  N45  1  0.96490000  0.70338000  0.68782000  1.0 -0.2200256047
N  N46  1  0.53510000  0.29662000  0.18782000  1.0 -0.2200256047
N  N47  1  0.46490000  0.79662000  0.31218000  1.0 -0.2200256047
N  N48  1  0.03510000  0.20338000  0.81218000  1.0 -0.2200256047
N  N49  1  0.68880000  0.43612000  0.46496000  1.0 -0.2292481733
N  N50  1  0.81120000  0.56388000  0.96496000  1.0 -0.2292481733
N  N51  1  0.18880000  0.06388000  0.53504000  1.0 -0.2292481733
N  N52  1  0.31120000  0.93612000  0.03504000  1.0 -0.2292481733
N  N53  1  0.93880000  0.28440000  0.81493000  1.0 -0.2200256047
N  N54  1  0.56120000  0.71560000  0.31493000  1.0 -0.2200256047
N  N55  1  0.43880000  0.21560000  0.18507000  1.0 -0.2200256047
N  N56  1  0.06120000  0.78440000  0.68507000  1.0 -0.2200256047
N  N57  1  0.80170000  0.46264000  0.96243000  1.0 -0.2200256047
N  N58  1  0.69830000  0.53736000  0.46243000  1.0 -0.2200256047
N  N59  1  0.30170000  0.03736000  0.03757000  1.0 -0.2200256047
N  N60  1  0.19830000  0.96264000  0.53757000  1.0 -0.2200256047
N  N61  1  0.79290000  0.53639000  0.54142000  1.0 -0.2292481733
N  N62  1  0.70710000  0.46361000  0.04142000  1.0 -0.2292481733
N  N63  1  0.29290000  0.96361000  0.45858000  1.0 -0.2292481733
N  N64  1  0.20710000  0.03639000  0.95858000  1.0 -0.2292481733
Cl  Cl1  1  0.55350000  0.03048000  0.72577000  1.0 1.1204682565
Cl  Cl2  1  0.94650000  0.96952000  0.22577000  1.0 1.1204682565
Cl  Cl3  1  0.05350000  0.46952000  0.27423000  1.0 1.1256616773
Cl  Cl4  1  0.44650000  0.53048000  0.77423000  1.0 1.1204682565
Cl  Cl5  1  0.44650000  0.96952000  0.27423000  1.0 1.1204682565
Cl  Cl6  1  0.05350000  0.03048000  0.77423000  1.0 1.1204682565
Cl  Cl7  1  0.94650000  0.53048000  0.72577000  1.0 1.1204682565
Cl  Cl8  1  0.55350000  0.46952000  0.22577000  1.0 1.1204682565
Cl  Cl9  1  0.10900000  0.15907000  0.08428000  1.0 1.2238226594
Cl  Cl10  1  0.39100000  0.84093000  0.58428000  1.0 1.2238226594
Cl  Cl11  1  0.60900000  0.34093000  0.91572000  1.0 1.2238226594
Cl  Cl12  1  0.89100000  0.65907000  0.41572000  1.0 1.2238226594
Cl  Cl13  1  0.89100000  0.84093000  0.91572000  1.0 1.2238226594
Cl  Cl14  1  0.60900000  0.15907000  0.41572000  1.0 1.2238226594
Cl  Cl15  1  0.39100000  0.65907000  0.08428000  1.0 1.2238226594
Cl  Cl16  1  0.10900000  0.34093000  0.58428000  1.0 1.2238226594
Cl  Cl17  1  0.64031000  0.83750000  0.09038000  1.0 1.1463139914
Cl  Cl18  1  0.85969000  0.16250000  0.59038000  1.0 1.1443627538
Cl  Cl19  1  0.14031000  0.66250000  0.90962000  1.0 1.1463139914
Cl  Cl20  1  0.35969000  0.33750000  0.40962000  1.0 1.1463139914
Cl  Cl21  1  0.35969000  0.16250000  0.90962000  1.0 1.1463139914
Cl  Cl22  1  0.14031000  0.83750000  0.40962000  1.0 1.1463139914
Cl  Cl23  1  0.85969000  0.33750000  0.09038000  1.0 1.1443627538
Cl  Cl24  1  0.64031000  0.66250000  0.59038000  1.0 1.1463139914
O  O1  1  0.11750000  0.80770000  0.23542000  1.0 -0.4013544992
O  O2  1  0.38250000  0.19230000  0.73542000  1.0 -0.4013544992
O  O3  1  0.61750000  0.69230000  0.76458000  1.0 -0.4013544992
O  O4  1  0.88250000  0.30770000  0.26458000  1.0 -0.4013544992
O  O5  1  0.36420000  0.51100000  0.44230000  1.0 -0.6207664436
O  O6  1  0.13580000  0.48900000  0.94230000  1.0 -0.6207664436
O  O7  1  0.86420000  0.98900000  0.55770000  1.0 -0.6207664436
O  O8  1  0.63580000  0.01100000  0.05770000  1.0 -0.6207664436
O  O9  1  0.15060000  0.52050000  0.54600000  1.0 -0.4013544992
O  O10  1  0.34940000  0.47950000  0.04600000  1.0 -0.4013544992
O  O11  1  0.65060000  0.97950000  0.45400000  1.0 -0.4013544992
O  O12  1  0.84940000  0.02050000  0.95400000  1.0 -0.4013544992
O  O13  1  0.88250000  0.19230000  0.76458000  1.0 -0.4013544992
O  O14  1  0.61750000  0.80770000  0.26458000  1.0 -0.4013544992
O  O15  1  0.38250000  0.30770000  0.23542000  1.0 -0.4013544992
O  O16  1  0.11750000  0.69230000  0.73542000  1.0 -0.4013544992
O  O17  1  0.63580000  0.48900000  0.55770000  1.0 -0.6207664436
O  O18  1  0.86420000  0.51100000  0.05770000  1.0 -0.6207664436
O  O19  1  0.13580000  0.01100000  0.44230000  1.0 -0.6207664436
O  O20  1  0.36420000  0.98900000  0.94230000  1.0 -0.6207664436
O  O21  1  0.84940000  0.47950000  0.45400000  1.0 -0.4013544992
O  O22  1  0.65060000  0.52050000  0.95400000  1.0 -0.4013544992
O  O23  1  0.34940000  0.02050000  0.54600000  1.0 -0.4013544992
O  O24  1  0.15060000  0.97950000  0.04600000  1.0 -0.4013544992
O  O25  1  0.62340000  0.05050000  0.73390000  1.0 -0.4995948797
O  O26  1  0.55410000  0.99370000  0.69590000  1.0 -0.4693077021
O  O27  1  0.50800000  0.06540000  0.70970000  1.0 -0.4693077021
O  O28  1  0.52140000  0.02070000  0.76680000  1.0 -0.3893679319
O  O29  1  0.87660000  0.94950000  0.23390000  1.0 -0.4995948797
O  O30  1  0.94590000  0.00630000  0.19590000  1.0 -0.4693077021
O  O31  1  0.99200000  0.93460000  0.20970000  1.0 -0.4693077021
O  O32  1  0.97860000  0.97930000  0.26680000  1.0 -0.3893679319
O  O33  1  0.12340000  0.44950000  0.26610000  1.0 -0.4995948797
O  O34  1  0.05410000  0.50630000  0.30410000  1.0 -0.4693077021
O  O35  1  0.00800000  0.43460000  0.29030000  1.0 -0.4693077021
O  O36  1  0.02140000  0.47930000  0.23320000  1.0 -0.3893679319
O  O37  1  0.37660000  0.55050000  0.76610000  1.0 -0.4995948797
O  O38  1  0.44590000  0.49370000  0.80410000  1.0 -0.4693077021
O  O39  1  0.49200000  0.56540000  0.79030000  1.0 -0.4693077021
O  O40  1  0.47860000  0.52070000  0.73320000  1.0 -0.3893679319
O  O41  1  0.37660000  0.94950000  0.26610000  1.0 -0.4995948797
O  O42  1  0.44590000  0.00630000  0.30410000  1.0 -0.4693077021
O  O43  1  0.49200000  0.93460000  0.29030000  1.0 -0.4693077021
O  O44  1  0.47860000  0.97930000  0.23320000  1.0 -0.3893679319
O  O45  1  0.12340000  0.05050000  0.76610000  1.0 -0.4995948797
O  O46  1  0.05410000  0.99370000  0.80410000  1.0 -0.4693077021
O  O47  1  0.00800000  0.06540000  0.79030000  1.0 -0.4693077021
O  O48  1  0.02140000  0.02070000  0.73320000  1.0 -0.3893679319
O  O49  1  0.87660000  0.55050000  0.73390000  1.0 -0.4995948797
O  O50  1  0.94590000  0.49370000  0.69590000  1.0 -0.4595133776
O  O51  1  0.99200000  0.56540000  0.70970000  1.0 -0.4693077021
O  O52  1  0.97860000  0.52070000  0.76680000  1.0 -0.3893679319
O  O53  1  0.62340000  0.44950000  0.23390000  1.0 -0.4995948797
O  O54  1  0.55410000  0.50630000  0.19590000  1.0 -0.4693077021
O  O55  1  0.50800000  0.43460000  0.20970000  1.0 -0.4693077021
O  O56  1  0.52140000  0.47930000  0.26680000  1.0 -0.3893679319
O  O57  1  0.05750000  0.13200000  0.06120000  1.0 -0.475731869
O  O58  1  0.17570000  0.13530000  0.07950000  1.0 -0.4693077021
O  O59  1  0.11670000  0.20100000  0.06060000  1.0 -0.4468007995
O  O60  1  0.09210000  0.16560000  0.12960000  1.0 -0.4595133776
O  O61  1  0.44250000  0.86800000  0.56120000  1.0 -0.475731869
O  O62  1  0.32430000  0.86470000  0.57950000  1.0 -0.4693077021
O  O63  1  0.38330000  0.79900000  0.56060000  1.0 -0.4468007995
O  O64  1  0.40790000  0.83440000  0.62960000  1.0 -0.4595133776
O  O65  1  0.55750000  0.36800000  0.93880000  1.0 -0.475731869
O  O66  1  0.67570000  0.36470000  0.92050000  1.0 -0.4693077021
O  O67  1  0.61670000  0.29900000  0.93940000  1.0 -0.4468007995
O  O68  1  0.59210000  0.33440000  0.87040000  1.0 -0.4595133776
O  O69  1  0.94250000  0.63200000  0.43880000  1.0 -0.4693077021
O  O70  1  0.82430000  0.63530000  0.42050000  1.0 -0.4693077021
O  O71  1  0.88330000  0.70100000  0.43940000  1.0 -0.4468007995
O  O72  1  0.90790000  0.66560000  0.37040000  1.0 -0.4595133776
O  O73  1  0.94250000  0.86800000  0.93880000  1.0 -0.475731869
O  O74  1  0.82430000  0.86470000  0.92050000  1.0 -0.4693077021
O  O75  1  0.88330000  0.79900000  0.93940000  1.0 -0.4468007995
O  O76  1  0.90790000  0.83440000  0.87040000  1.0 -0.4595133776
O  O77  1  0.55750000  0.13200000  0.43880000  1.0 -0.475731869
O  O78  1  0.67570000  0.13530000  0.42050000  1.0 -0.4693077021
O  O79  1  0.61670000  0.20100000  0.43940000  1.0 -0.4468007995
O  O80  1  0.59210000  0.16560000  0.37040000  1.0 -0.4595133776
O  O81  1  0.44250000  0.63200000  0.06120000  1.0 -0.475731869
O  O82  1  0.32430000  0.63530000  0.07950000  1.0 -0.4693077021
O  O83  1  0.38330000  0.70100000  0.06060000  1.0 -0.4468007995
O  O84  1  0.40790000  0.66560000  0.12960000  1.0 -0.4595133776
O  O85  1  0.05750000  0.36800000  0.56120000  1.0 -0.475731869
O  O86  1  0.17570000  0.36470000  0.57950000  1.0 -0.4693077021
O  O87  1  0.11670000  0.29900000  0.56060000  1.0 -0.4468007995
O  O88  1  0.09210000  0.33440000  0.62960000  1.0 -0.4595133776
O  O89  1  0.59900000  0.87220000  0.07410000  1.0 -0.4013544992
O  O90  1  0.65590000  0.83850000  0.13630000  1.0 -0.4595133776
O  O91  1  0.69670000  0.84550000  0.06340000  1.0 -0.3520884154
O  O92  1  0.60660000  0.79630000  0.08470000  1.0 -0.3893679319
O  O93  1  0.90100000  0.12780000  0.57410000  1.0 -0.4013544992
O  O94  1  0.84410000  0.16150000  0.63630000  1.0 -0.4595133776
O  O95  1  0.80330000  0.15450000  0.56340000  1.0 -0.3520884154
O  O96  1  0.89340000  0.20370000  0.58470000  1.0 -0.3893679319
O  O97  1  0.09900000  0.62780000  0.92590000  1.0 -0.4013544992
O  O98  1  0.15590000  0.66150000  0.86370000  1.0 -0.4595133776
O  O99  1  0.19670000  0.65450000  0.93660000  1.0 -0.3520884154
O  O100  1  0.10660000  0.70370000  0.91530000  1.0 -0.3893679319
O  O101  1  0.40100000  0.37220000  0.42590000  1.0 -0.4013544992
O  O102  1  0.34410000  0.33850000  0.36370000  1.0 -0.4595133776
O  O103  1  0.30330000  0.34550000  0.43660000  1.0 -0.3520884154
O  O104  1  0.39340000  0.29630000  0.41530000  1.0 -0.3893679319
O  O105  1  0.40100000  0.12780000  0.92590000  1.0 -0.4013544992
O  O106  1  0.34410000  0.16150000  0.86370000  1.0 -0.4595133776
O  O107  1  0.30330000  0.15450000  0.93660000  1.0 -0.3520884154
O  O108  1  0.39340000  0.20370000  0.91530000  1.0 -0.3893679319
O  O109  1  0.09900000  0.87220000  0.42590000  1.0 -0.4013544992
O  O110  1  0.15590000  0.83850000  0.36370000  1.0 -0.4595133776
O  O111  1  0.19670000  0.84550000  0.43660000  1.0 -0.3520884154
O  O112  1  0.10660000  0.79630000  0.41530000  1.0 -0.3893679319
O  O113  1  0.90100000  0.37220000  0.07410000  1.0 -0.4013544992
O  O114  1  0.84410000  0.33850000  0.13630000  1.0 -0.4595133776
O  O115  1  0.80330000  0.34550000  0.06340000  1.0 -0.3520884154
O  O116  1  0.89340000  0.29630000  0.08470000  1.0 -0.3893679319
O  O117  1  0.59900000  0.62780000  0.57410000  1.0 -0.4013544992
O  O118  1  0.65590000  0.66150000  0.63630000  1.0 -0.4595133776
O  O119  1  0.69670000  0.65450000  0.56340000  1.0 -0.3520884154
O  O120  1  0.60660000  0.70370000  0.58470000  1.0 -0.3893679319
