# DDEC6 charges by PACMAN v1.1 (https://github.com/mtap-research/PACMAN-charge/)
data_CUQRUD_FSR_pacman
_symmetry_space_group_name_H-M   'P 1'
_cell_length_a   19.61630000
_cell_length_b   19.61630000
_cell_length_c   9.87100000
_cell_angle_alpha   82.74120000
_cell_angle_beta   97.25880000
_cell_angle_gamma   151.53100000
_symmetry_Int_Tables_number   1
_chemical_formula_structural   ZnH7C10N3O2
_chemical_formula_sum   'Zn4 H28 C40 N12 O8'
_cell_volume   1795.16226001
_cell_formula_units_Z   4
loop_
 _symmetry_equiv_pos_site_id
 _symmetry_equiv_pos_as_xyz
  1  'x, y, z'
loop_
 _atom_site_type_symbol
 _atom_site_label
 _atom_site_symmetry_multiplicity
 _atom_site_fract_x
 _atom_site_fract_y
 _atom_site_fract_z
 _atom_site_occupancy
 _atom_site_charge
Zn  Zn1  1  0.54021000  0.10905000  0.59848000  1.0 0.6394910019
Zn  Zn2  1  0.10905000  0.54021000  0.90152000  1.0 0.6394910019
Zn  Zn3  1  0.45979000  0.89095000  0.40152000  1.0 0.6394910019
Zn  Zn4  1  0.89095000  0.45979000  0.09848000  1.0 0.6394910019
H  H1  1  0.54990000  0.35950000  0.47880000  1.0 0.1190589072
H  H2  1  0.35950000  0.54990000  0.02120000  1.0 0.1190589072
H  H3  1  0.45010000  0.64050000  0.52120000  1.0 0.1190589072
H  H4  1  0.64050000  0.45010000  0.97880000  1.0 0.1190589072
H  H5  1  0.49950000  0.42770000  0.51190000  1.0 0.1012099709
H  H6  1  0.42770000  0.49950000  0.98810000  1.0 0.1012099709
H  H7  1  0.50050000  0.57230000  0.48810000  1.0 0.1012099709
H  H8  1  0.57230000  0.50050000  0.01190000  1.0 0.1012099709
H  H9  1  0.31190000  0.19470000  0.86390000  1.0 0.1116491742
H  H10  1  0.19470000  0.31190000  0.63610000  1.0 0.1116491742
H  H11  1  0.68810000  0.80530000  0.13610000  1.0 0.1116491742
H  H12  1  0.80530000  0.68810000  0.36390000  1.0 0.1116491742
H  H13  1  0.36220000  0.12640000  0.83070000  1.0 0.1255461376
H  H14  1  0.12640000  0.36220000  0.66930000  1.0 0.1255461376
H  H15  1  0.63780000  0.87360000  0.16930000  1.0 0.1255461376
H  H16  1  0.87360000  0.63780000  0.33070000  1.0 0.1255461376
H  H17  1  0.34020000  0.36560000  0.62240000  1.0 0.1116491742
H  H18  1  0.36560000  0.34020000  0.87760000  1.0 0.1116491742
H  H19  1  0.65980000  0.63440000  0.37760000  1.0 0.1190589072
H  H20  1  0.63440000  0.65980000  0.12240000  1.0 0.1190589072
H  H21  1  0.68340000  0.14420000  0.17590000  1.0 0.1116491742
H  H22  1  0.14420000  0.68340000  0.32410000  1.0 0.1116491742
H  H23  1  0.31660000  0.85580000  0.82410000  1.0 0.1116491742
H  H24  1  0.85580000  0.31660000  0.67590000  1.0 0.1116491742
H  H25  1  0.76550000  0.36490000  0.38740000  1.0 0.1116491742
H  H26  1  0.36490000  0.76550000  0.11260000  1.0 0.1116491742
H  H27  1  0.23450000  0.63510000  0.61260000  1.0 0.1116491742
H  H28  1  0.63510000  0.23450000  0.88740000  1.0 0.1116491742
C  C1  1  0.49710000  0.19890000  0.62250000  1.0 0.4803123873
C  C2  1  0.19890000  0.49710000  0.87750000  1.0 0.4803123873
C  C3  1  0.50290000  0.80110000  0.37750000  1.0 0.4803123873
C  C4  1  0.80110000  0.50290000  0.12250000  1.0 0.4803123873
C  C5  1  0.46100000  0.23620000  0.65150000  1.0 -0.0451710869
C  C6  1  0.23620000  0.46100000  0.84850000  1.0 -0.0451710869
C  C7  1  0.53900000  0.76380000  0.34850000  1.0 -0.0451710869
C  C8  1  0.76380000  0.53900000  0.15150000  1.0 -0.0451710869
C  C9  1  0.50220000  0.32640000  0.55600000  1.0 -0.1066531792
C  C10  1  0.32640000  0.50220000  0.94400000  1.0 -0.1066531792
C  C11  1  0.49780000  0.67360000  0.44400000  1.0 -0.1066531792
C  C12  1  0.67360000  0.49780000  0.05600000  1.0 -0.1066531792
C  C13  1  0.47200000  0.36720000  0.57580000  1.0 -0.160971516
C  C14  1  0.36720000  0.47200000  0.92420000  1.0 -0.160971516
C  C15  1  0.52800000  0.63280000  0.42420000  1.0 -0.160971516
C  C16  1  0.63280000  0.52800000  0.07580000  1.0 -0.160971516
C  C17  1  0.40071000  0.31789000  0.69120000  1.0 0.062645695
C  C18  1  0.31789000  0.40071000  0.80880000  1.0 0.062645695
C  C19  1  0.59929000  0.68211000  0.30880000  1.0 0.062645695
C  C20  1  0.68211000  0.59929000  0.19120000  1.0 0.062645695
C  C21  1  0.35956000  0.22764000  0.78670000  1.0 -0.160971516
C  C22  1  0.22764000  0.35956000  0.71330000  1.0 -0.160971516
C  C23  1  0.64044000  0.77236000  0.21330000  1.0 -0.160971516
C  C24  1  0.77236000  0.64044000  0.28670000  1.0 -0.160971516
C  C25  1  0.38976000  0.18684000  0.76680000  1.0 -0.0894300707
C  C26  1  0.18684000  0.38976000  0.73320000  1.0 -0.0894300707
C  C27  1  0.61024000  0.81316000  0.23320000  1.0 -0.0894300707
C  C28  1  0.81316000  0.61024000  0.26680000  1.0 -0.0894300707
C  C29  1  0.35930000  0.35150000  0.70030000  1.0 -0.132229795
C  C30  1  0.35150000  0.35930000  0.79970000  1.0 -0.132229795
C  C31  1  0.64070000  0.64850000  0.29970000  1.0 -0.132229795
C  C32  1  0.64850000  0.64070000  0.20030000  1.0 -0.132229795
C  C33  1  0.68305000  0.17235000  0.24450000  1.0 0.1426615853
C  C34  1  0.17235000  0.68305000  0.25550000  1.0 0.1426615853
C  C35  1  0.31695000  0.82765000  0.75550000  1.0 0.1426615853
C  C36  1  0.82765000  0.31695000  0.74450000  1.0 0.1426615853
C  C37  1  0.72712000  0.29148000  0.35840000  1.0 0.1426615853
C  C38  1  0.29148000  0.72712000  0.14160000  1.0 0.1426615853
C  C39  1  0.27288000  0.70852000  0.64160000  1.0 0.1426615853
C  C40  1  0.70852000  0.27288000  0.85840000  1.0 0.1426615853
N  N1  1  0.76298000  0.29902000  0.24210000  1.0 -0.3351542849
N  N2  1  0.29902000  0.76298000  0.25790000  1.0 -0.3351542849
N  N3  1  0.23702000  0.70098000  0.75790000  1.0 -0.3351542849
N  N4  1  0.70098000  0.23702000  0.74210000  1.0 -0.3351542849
N  N5  1  0.60303000  0.09017000  0.35380000  1.0 -0.215666135
N  N6  1  0.09017000  0.60303000  0.14620000  1.0 -0.215666135
N  N7  1  0.39697000  0.90983000  0.64620000  1.0 -0.215666135
N  N8  1  0.90983000  0.39697000  0.85380000  1.0 -0.215666135
N  N9  1  0.63341000  0.17099000  0.42570000  1.0 -0.2054282736
N  N10  1  0.17099000  0.63341000  0.07430000  1.0 -0.2054282736
N  N11  1  0.36659000  0.82901000  0.57430000  1.0 -0.2054282736
N  N12  1  0.82901000  0.36659000  0.92570000  1.0 -0.2054282736
O  O1  1  0.43840000  0.09940000  0.68600000  1.0 -0.4239683572
O  O2  1  0.09940000  0.43840000  0.81400000  1.0 -0.4239683572
O  O3  1  0.56160000  0.90060000  0.31400000  1.0 -0.4239683572
O  O4  1  0.90060000  0.56160000  0.18600000  1.0 -0.4239683572
O  O5  1  0.56470000  0.24330000  0.54100000  1.0 -0.3882446189
O  O6  1  0.24330000  0.56470000  0.95900000  1.0 -0.3882446189
O  O7  1  0.43530000  0.75670000  0.45900000  1.0 -0.3882446189
O  O8  1  0.75670000  0.43530000  0.04100000  1.0 -0.3882446189
