# DDEC6 charges by PACMAN v1.1 (https://github.com/mtap-research/PACMAN-charge/)
data_CUQTAL_ion_pacman
_symmetry_space_group_name_H-M   'P 1'
_cell_length_a   28.91230000
_cell_length_b   20.77060000
_cell_length_c   29.72840000
_cell_angle_alpha   90.00000000
_cell_angle_beta   101.22400000
_cell_angle_gamma   90.00000000
_symmetry_Int_Tables_number   1
_chemical_formula_structural   Cu2B3H84C94N8(O11F6)2
_chemical_formula_sum   'Cu8 B12 H336 C376 N32 O88 F48'
_cell_volume   17511.21633714
_cell_formula_units_Z   4
loop_
 _symmetry_equiv_pos_site_id
 _symmetry_equiv_pos_as_xyz
  1  'x, y, z'
loop_
 _atom_site_type_symbol
 _atom_site_label
 _atom_site_symmetry_multiplicity
 _atom_site_fract_x
 _atom_site_fract_y
 _atom_site_fract_z
 _atom_site_occupancy
 _atom_site_charge
Cu  Cu1  1  0.74012000  0.99631000  0.06474000  1.0 0.7619852253
Cu  Cu2  1  0.74012000  0.50369000  0.56474000  1.0 0.7619852253
Cu  Cu3  1  0.23860000  0.95068000  0.57284000  1.0 0.6882549949
Cu  Cu4  1  0.23860000  0.54932000  0.07284000  1.0 0.6882549949
Cu  Cu5  1  0.25988000  0.49631000  0.43526000  1.0 0.7619852253
Cu  Cu6  1  0.25988000  0.00369000  0.93526000  1.0 0.7619852253
Cu  Cu7  1  0.76140000  0.45068000  0.92716000  1.0 0.6882549949
Cu  Cu8  1  0.76140000  0.04932000  0.42716000  1.0 0.6882549949
B  B1  1  0.32870000  0.33360000  0.98840000  1.0 1.0601955332
B  B2  1  0.67130000  0.83360000  0.51160000  1.0 1.0601955332
B  B3  1  0.67130000  0.66640000  0.01160000  1.0 1.0601955332
B  B4  1  0.32870000  0.16640000  0.48840000  1.0 1.0601955332
B  B5  1  0.71290000  0.18820000  0.97100000  1.0 1.0601955332
B  B6  1  0.28710000  0.68820000  0.52900000  1.0 1.0601955332
B  B7  1  0.28710000  0.81180000  0.02900000  1.0 1.0601955332
B  B8  1  0.71290000  0.31180000  0.47100000  1.0 1.0601955332
B  B9  1  0.91270000  0.00970000  0.23230000  1.0 0.9845850893
B  B10  1  0.08730000  0.50970000  0.26770000  1.0 0.989340467
B  B11  1  0.08730000  0.99030000  0.76770000  1.0 0.989340467
B  B12  1  0.91270000  0.49030000  0.73230000  1.0 0.989340467
H  H1  1  0.39160000  0.57270000  0.79990000  1.0 0.1304508282
H  H2  1  0.39160000  0.92730000  0.29990000  1.0 0.1304508282
H  H3  1  0.47570000  0.70470000  0.71730000  1.0 0.1407996327
H  H4  1  0.47570000  0.79530000  0.21730000  1.0 0.1407996327
H  H5  1  0.54190000  0.62950000  0.73090000  1.0 0.1304508282
H  H6  1  0.54190000  0.87050000  0.23090000  1.0 0.1304508282
H  H7  1  0.54500000  0.57370000  0.76860000  1.0 0.120594772
H  H8  1  0.54500000  0.92630000  0.26860000  1.0 0.120594772
H  H9  1  0.56190000  0.73620000  0.75150000  1.0 0.120594772
H  H10  1  0.56190000  0.76380000  0.25150000  1.0 0.120594772
H  H11  1  0.61470000  0.67890000  0.90440000  1.0 0.1608844104
H  H12  1  0.61470000  0.82110000  0.40440000  1.0 0.1608844104
H  H13  1  0.60460000  0.56380000  0.88180000  1.0 0.1304508282
H  H14  1  0.60460000  0.93620000  0.38180000  1.0 0.1304508282
H  H15  1  0.57110000  0.54530000  0.83420000  1.0 0.120594772
H  H16  1  0.57110000  0.95470000  0.33420000  1.0 0.120594772
H  H17  1  0.57010000  0.59910000  0.94690000  1.0 0.1407996327
H  H18  1  0.57010000  0.90090000  0.44690000  1.0 0.1407996327
H  H19  1  0.42540000  0.51510000  0.87310000  1.0 0.1407996327
H  H20  1  0.42540000  0.98490000  0.37310000  1.0 0.1407996327
H  H21  1  0.50730000  0.51470000  0.80080000  1.0 0.120594772
H  H22  1  0.50730000  0.98530000  0.30080000  1.0 0.120594772
H  H23  1  0.45570000  0.49170000  0.80610000  1.0 0.120594772
H  H24  1  0.45570000  0.00830000  0.30610000  1.0 0.120594772
H  H25  1  0.33560000  0.63260000  0.81810000  1.0 0.1407996327
H  H26  1  0.33560000  0.86740000  0.31810000  1.0 0.1407996327
H  H27  1  0.28690000  0.65580000  0.78700000  1.0 0.1407996327
H  H28  1  0.28690000  0.84420000  0.28700000  1.0 0.1407996327
H  H29  1  0.31160000  0.59100000  0.77450000  1.0 0.120594772
H  H30  1  0.31160000  0.90900000  0.27450000  1.0 0.120594772
H  H31  1  0.34070000  0.90730000  0.72590000  1.0 0.1407996327
H  H32  1  0.34070000  0.59270000  0.22590000  1.0 0.1407996327
H  H33  1  0.28770000  0.96440000  0.66960000  1.0 0.1090045326
H  H34  1  0.28770000  0.53560000  0.16960000  1.0 0.1090045326
H  H35  1  0.29050000  0.82670000  0.58010000  1.0 0.1090045326
H  H36  1  0.29050000  0.67330000  0.08010000  1.0 0.1090045326
H  H37  1  0.33980000  0.76380000  0.63410000  1.0 0.1503800624
H  H38  1  0.33980000  0.73620000  0.13410000  1.0 0.1503800624
H  H39  1  0.56840000  0.84160000  0.73970000  1.0 0.120594772
H  H40  1  0.56840000  0.65840000  0.23970000  1.0 0.120594772
H  H41  1  0.61330000  0.88830000  0.74940000  1.0 0.120594772
H  H42  1  0.61330000  0.61170000  0.24940000  1.0 0.120594772
H  H43  1  0.61980000  0.81370000  0.73870000  1.0 0.120594772
H  H44  1  0.61980000  0.68630000  0.23870000  1.0 0.120594772
H  H45  1  0.60100000  0.95640000  0.94100000  1.0 0.1407996327
H  H46  1  0.60100000  0.54360000  0.44100000  1.0 0.1407996327
H  H47  1  0.64710000  0.01020000  0.00190000  1.0 0.1304508282
H  H48  1  0.64710000  0.48980000  0.50190000  1.0 0.1304508282
H  H49  1  0.74810000  0.88030000  0.01090000  1.0 0.100545115
H  H50  1  0.74810000  0.61970000  0.51090000  1.0 0.100545115
H  H51  1  0.70350000  0.81950000  0.95290000  1.0 0.1503800624
H  H52  1  0.70350000  0.68050000  0.45290000  1.0 0.1503800624
H  H53  1  0.55520000  0.65960000  0.00920000  1.0 0.1304508282
H  H54  1  0.55520000  0.84040000  0.50920000  1.0 0.1304508282
H  H55  1  0.54670000  0.62900000  0.05630000  1.0 0.1304508282
H  H56  1  0.54670000  0.87100000  0.55630000  1.0 0.1304508282
H  H57  1  0.57510000  0.58930000  0.02430000  1.0 0.120594772
H  H58  1  0.57510000  0.91070000  0.52430000  1.0 0.120594772
H  H59  1  0.31570000  0.65140000  0.95520000  1.0 0.1503800624
H  H60  1  0.31570000  0.84860000  0.45520000  1.0 0.1503800624
H  H61  1  0.25550000  0.63040000  0.99530000  1.0 0.120594772
H  H62  1  0.25550000  0.86960000  0.49530000  1.0 0.120594772
H  H63  1  0.32540000  0.48340000  0.05740000  1.0 0.120594772
H  H64  1  0.32540000  0.01660000  0.55740000  1.0 0.120594772
H  H65  1  0.38480000  0.49640000  0.01590000  1.0 0.1407996327
H  H66  1  0.38480000  0.00360000  0.51590000  1.0 0.1407996327
H  H67  1  0.96180000  0.24150000  0.21610000  1.0 0.1407996327
H  H68  1  0.96180000  0.25850000  0.71610000  1.0 0.1407996327
H  H69  1  0.88640000  0.39580000  0.28950000  1.0 0.120594772
H  H70  1  0.88640000  0.10420000  0.78950000  1.0 0.120594772
H  H71  1  0.95790000  0.46120000  0.30270000  1.0 0.1304508282
H  H72  1  0.95790000  0.03880000  0.80270000  1.0 0.1304508282
H  H73  1  0.00750000  0.42870000  0.30000000  1.0 0.1304508282
H  H74  1  0.00750000  0.07130000  0.80000000  1.0 0.1304508282
H  H75  1  0.91930000  0.43760000  0.36640000  1.0 0.1407996327
H  H76  1  0.91930000  0.06240000  0.86640000  1.0 0.1407996327
H  H77  1  0.05580000  0.33840000  0.44540000  1.0 0.120594772
H  H78  1  0.05580000  0.16160000  0.94540000  1.0 0.120594772
H  H79  1  0.06670000  0.39230000  0.33550000  1.0 0.1304508282
H  H80  1  0.06670000  0.10770000  0.83550000  1.0 0.1304508282
H  H81  1  0.09660000  0.37270000  0.38460000  1.0 0.120594772
H  H82  1  0.09660000  0.12730000  0.88460000  1.0 0.120594772
H  H83  1  0.10680000  0.26230000  0.40670000  1.0 0.1407996327
H  H84  1  0.10680000  0.23770000  0.90670000  1.0 0.1407996327
H  H85  1  0.04230000  0.19490000  0.25860000  1.0 0.1304508282
H  H86  1  0.04230000  0.30510000  0.75860000  1.0 0.1304508282
H  H87  1  0.04070000  0.36050000  0.26740000  1.0 0.1304508282
H  H88  1  0.04070000  0.13950000  0.76740000  1.0 0.1304508282
H  H89  1  0.03420000  0.30120000  0.23250000  1.0 0.1304508282
H  H90  1  0.03420000  0.19880000  0.73250000  1.0 0.1304508282
H  H91  1  0.80270000  0.38640000  0.27130000  1.0 0.120594772
H  H92  1  0.80270000  0.11360000  0.77130000  1.0 0.120594772
H  H93  1  0.77530000  0.32240000  0.28090000  1.0 0.1407996327
H  H94  1  0.77530000  0.17760000  0.78090000  1.0 0.1407996327
H  H95  1  0.82630000  0.33780000  0.31090000  1.0 0.1304508282
H  H96  1  0.82630000  0.16220000  0.81090000  1.0 0.1304508282
H  H97  1  0.77290000  0.22560000  0.09600000  1.0 0.1407996327
H  H98  1  0.77290000  0.27440000  0.59600000  1.0 0.1407996327
H  H99  1  0.73310000  0.13480000  0.06310000  1.0 0.120594772
H  H100  1  0.73310000  0.36520000  0.56310000  1.0 0.120594772
H  H101  1  0.81660000  0.02030000  0.14780000  1.0 0.120594772
H  H102  1  0.81660000  0.47970000  0.64780000  1.0 0.120594772
H  H103  1  0.85750000  0.10800000  0.18470000  1.0 0.1407996327
H  H104  1  0.85750000  0.39200000  0.68470000  1.0 0.1407996327
H  H105  1  0.07090000  0.09240000  0.24370000  1.0 0.1304508282
H  H106  1  0.07090000  0.40760000  0.74370000  1.0 0.1304508282
H  H107  1  0.05830000  0.02820000  0.26850000  1.0 0.1503800624
H  H108  1  0.05830000  0.47180000  0.76850000  1.0 0.1503800624
H  H109  1  0.02390000  0.08920000  0.26450000  1.0 0.1407996327
H  H110  1  0.02390000  0.41080000  0.76450000  1.0 0.1407996327
H  H111  1  0.08650000  0.00420000  0.46870000  1.0 0.1407996327
H  H112  1  0.08650000  0.49580000  0.96870000  1.0 0.1407996327
H  H113  1  0.13850000  0.94730000  0.52490000  1.0 0.120594772
H  H114  1  0.13850000  0.55270000  0.02490000  1.0 0.120594772
H  H115  1  0.24250000  0.06550000  0.51460000  1.0 0.120594772
H  H116  1  0.24250000  0.43450000  0.01460000  1.0 0.120594772
H  H117  1  0.19380000  0.12670000  0.45900000  1.0 0.1503800624
H  H118  1  0.19380000  0.37330000  0.95900000  1.0 0.1503800624
H  H119  1  0.05920000  0.35830000  0.52230000  1.0 0.120594772
H  H120  1  0.05920000  0.14170000  0.02230000  1.0 0.120594772
H  H121  1  0.02930000  0.32020000  0.55370000  1.0 0.1304508282
H  H122  1  0.02930000  0.17980000  0.05370000  1.0 0.1304508282
H  H123  1  0.04010000  0.28740000  0.50810000  1.0 0.120594772
H  H124  1  0.04010000  0.21260000  0.00810000  1.0 0.120594772
H  H125  1  0.90220000  0.54760000  0.53750000  1.0 0.1407996327
H  H126  1  0.90220000  0.95240000  0.03750000  1.0 0.1407996327
H  H127  1  0.83800000  0.56130000  0.57160000  1.0 0.120594772
H  H128  1  0.83800000  0.93870000  0.07160000  1.0 0.120594772
H  H129  1  0.76340000  0.43980000  0.48460000  1.0 0.1304508282
H  H130  1  0.76340000  0.06020000  0.98460000  1.0 0.1304508282
H  H131  1  0.82700000  0.42120000  0.44990000  1.0 0.1407996327
H  H132  1  0.82700000  0.07880000  0.94990000  1.0 0.1407996327
H  H133  1  0.74770000  0.81030000  0.06140000  1.0 0.1304508282
H  H134  1  0.74770000  0.68970000  0.56140000  1.0 0.1304508282
H  H135  1  0.71030000  0.80890000  0.09530000  1.0 0.1503800624
H  H136  1  0.71030000  0.69110000  0.59530000  1.0 0.1503800624
H  H137  1  0.81950000  0.74480000  0.17610000  1.0 0.100545115
H  H138  1  0.81950000  0.75520000  0.67610000  1.0 0.100545115
H  H139  1  0.76770000  0.75820000  0.18750000  1.0 0.1090045326
H  H140  1  0.76770000  0.74180000  0.68750000  1.0 0.1090045326
H  H141  1  0.80500000  0.89950000  0.20770000  1.0 0.1503800624
H  H142  1  0.80500000  0.60050000  0.70770000  1.0 0.1503800624
H  H143  1  0.84520000  0.84560000  0.21280000  1.0 0.1407996327
H  H144  1  0.84520000  0.65440000  0.71280000  1.0 0.1407996327
H  H145  1  0.84310000  0.90130000  0.17530000  1.0 0.1407996327
H  H146  1  0.84310000  0.59870000  0.67530000  1.0 0.1407996327
H  H147  1  0.74290000  0.71820000  0.11420000  1.0 0.1304508282
H  H148  1  0.74290000  0.78180000  0.61420000  1.0 0.1304508282
H  H149  1  0.79100000  0.73850000  0.09880000  1.0 0.1090045326
H  H150  1  0.79100000  0.76150000  0.59880000  1.0 0.1090045326
H  H151  1  0.21920000  0.74720000  0.59920000  1.0 0.1407996327
H  H152  1  0.21920000  0.75280000  0.09920000  1.0 0.1407996327
H  H153  1  0.18410000  0.79520000  0.61880000  1.0 0.1407996327
H  H154  1  0.18410000  0.70480000  0.11880000  1.0 0.1407996327
H  H155  1  0.12250000  0.73130000  0.59660000  1.0 0.100545115
H  H156  1  0.12250000  0.76870000  0.09660000  1.0 0.100545115
H  H157  1  0.16130000  0.67620000  0.59480000  1.0 0.100545115
H  H158  1  0.16130000  0.82380000  0.09480000  1.0 0.100545115
H  H159  1  0.14990000  0.68020000  0.51570000  1.0 0.1090045326
H  H160  1  0.14990000  0.81980000  0.01570000  1.0 0.1090045326
H  H161  1  0.09990000  0.71310000  0.51890000  1.0 0.100545115
H  H162  1  0.09990000  0.78690000  0.01890000  1.0 0.100545115
H  H163  1  0.15980000  0.84180000  0.46740000  1.0 0.1304508282
H  H164  1  0.15980000  0.65820000  0.96740000  1.0 0.1304508282
H  H165  1  0.10990000  0.80590000  0.45750000  1.0 0.1407996327
H  H166  1  0.10990000  0.69410000  0.95750000  1.0 0.1407996327
H  H167  1  0.15630000  0.76870000  0.45010000  1.0 0.1407996327
H  H168  1  0.15630000  0.73130000  0.95010000  1.0 0.1407996327
H  H169  1  0.60840000  0.07270000  0.70010000  1.0 0.1304508282
H  H170  1  0.60840000  0.42730000  0.20010000  1.0 0.1304508282
H  H171  1  0.52430000  0.20470000  0.78270000  1.0 0.1407996327
H  H172  1  0.52430000  0.29530000  0.28270000  1.0 0.1407996327
H  H173  1  0.45810000  0.12950000  0.76910000  1.0 0.1304508282
H  H174  1  0.45810000  0.37050000  0.26910000  1.0 0.1304508282
H  H175  1  0.45500000  0.07370000  0.73140000  1.0 0.120594772
H  H176  1  0.45500000  0.42630000  0.23140000  1.0 0.120594772
H  H177  1  0.43810000  0.23620000  0.74850000  1.0 0.1304508282
H  H178  1  0.43810000  0.26380000  0.24850000  1.0 0.120594772
H  H179  1  0.38530000  0.17890000  0.59560000  1.0 0.1608844104
H  H180  1  0.38530000  0.32110000  0.09560000  1.0 0.1608844104
H  H181  1  0.39540000  0.06380000  0.61820000  1.0 0.1304508282
H  H182  1  0.39540000  0.43620000  0.11820000  1.0 0.1304508282
H  H183  1  0.42890000  0.04530000  0.66580000  1.0 0.120594772
H  H184  1  0.42890000  0.45470000  0.16580000  1.0 0.120594772
H  H185  1  0.42990000  0.09910000  0.55310000  1.0 0.1407996327
H  H186  1  0.42990000  0.40090000  0.05310000  1.0 0.1407996327
H  H187  1  0.57460000  0.01510000  0.62690000  1.0 0.1407996327
H  H188  1  0.57460000  0.48490000  0.12690000  1.0 0.1407996327
H  H189  1  0.49270000  0.01470000  0.69920000  1.0 0.120594772
H  H190  1  0.49270000  0.48530000  0.19920000  1.0 0.120594772
H  H191  1  0.54430000  0.99170000  0.69390000  1.0 0.120594772
H  H192  1  0.54430000  0.50830000  0.19390000  1.0 0.120594772
H  H193  1  0.66440000  0.13260000  0.68190000  1.0 0.1407996327
H  H194  1  0.66440000  0.36740000  0.18190000  1.0 0.1407996327
H  H195  1  0.71310000  0.15580000  0.71300000  1.0 0.1407996327
H  H196  1  0.71310000  0.34420000  0.21300000  1.0 0.1407996327
H  H197  1  0.68840000  0.09100000  0.72550000  1.0 0.120594772
H  H198  1  0.68840000  0.40900000  0.22550000  1.0 0.120594772
H  H199  1  0.65930000  0.40730000  0.77410000  1.0 0.1407996327
H  H200  1  0.65930000  0.09270000  0.27410000  1.0 0.1407996327
H  H201  1  0.71230000  0.46440000  0.83040000  1.0 0.1090045326
H  H202  1  0.71230000  0.03560000  0.33040000  1.0 0.1090045326
H  H203  1  0.70950000  0.32670000  0.91990000  1.0 0.1090045326
H  H204  1  0.70950000  0.17330000  0.41990000  1.0 0.1090045326
H  H205  1  0.66020000  0.26380000  0.86590000  1.0 0.1503800624
H  H206  1  0.66020000  0.23620000  0.36590000  1.0 0.1503800624
H  H207  1  0.43160000  0.34160000  0.76030000  1.0 0.120594772
H  H208  1  0.43160000  0.15840000  0.26030000  1.0 0.120594772
H  H209  1  0.38670000  0.38830000  0.75060000  1.0 0.120594772
H  H210  1  0.38670000  0.11170000  0.25060000  1.0 0.120594772
H  H211  1  0.38020000  0.31370000  0.76130000  1.0 0.120594772
H  H212  1  0.38020000  0.18630000  0.26130000  1.0 0.120594772
H  H213  1  0.39900000  0.45640000  0.55900000  1.0 0.1407996327
H  H214  1  0.39900000  0.04360000  0.05900000  1.0 0.1407996327
H  H215  1  0.35290000  0.51020000  0.49810000  1.0 0.1304508282
H  H216  1  0.35290000  0.98980000  0.99810000  1.0 0.1304508282
H  H217  1  0.25190000  0.38030000  0.48910000  1.0 0.100545115
H  H218  1  0.25190000  0.11970000  0.98910000  1.0 0.100545115
H  H219  1  0.29650000  0.31950000  0.54710000  1.0 0.1503800624
H  H220  1  0.29650000  0.18050000  0.04710000  1.0 0.1503800624
H  H221  1  0.44480000  0.15960000  0.49080000  1.0 0.1304508282
H  H222  1  0.44480000  0.34040000  0.99080000  1.0 0.1304508282
H  H223  1  0.45330000  0.12900000  0.44370000  1.0 0.1304508282
H  H224  1  0.45330000  0.37100000  0.94370000  1.0 0.1304508282
H  H225  1  0.42490000  0.08930000  0.47570000  1.0 0.120594772
H  H226  1  0.42490000  0.41070000  0.97570000  1.0 0.120594772
H  H227  1  0.68430000  0.15140000  0.54480000  1.0 0.1503800624
H  H228  1  0.68430000  0.34860000  0.04480000  1.0 0.1503800624
H  H229  1  0.74450000  0.13040000  0.50470000  1.0 0.120594772
H  H230  1  0.74450000  0.36960000  0.00470000  1.0 0.120594772
H  H231  1  0.67460000  0.98340000  0.44260000  1.0 0.120594772
H  H232  1  0.67460000  0.51660000  0.94260000  1.0 0.120594772
H  H233  1  0.61520000  0.99640000  0.48410000  1.0 0.1407996327
H  H234  1  0.61520000  0.50360000  0.98410000  1.0 0.1407996327
H  H235  1  0.03820000  0.74150000  0.28390000  1.0 0.1407996327
H  H236  1  0.03820000  0.75850000  0.78390000  1.0 0.1407996327
H  H237  1  0.11360000  0.89580000  0.21050000  1.0 0.120594772
H  H238  1  0.11360000  0.60420000  0.71050000  1.0 0.120594772
H  H239  1  0.04210000  0.96120000  0.19730000  1.0 0.1304508282
H  H240  1  0.04210000  0.53880000  0.69730000  1.0 0.1304508282
H  H241  1  0.99250000  0.92870000  0.20000000  1.0 0.1304508282
H  H242  1  0.99250000  0.57130000  0.70000000  1.0 0.1304508282
H  H243  1  0.08070000  0.93760000  0.13360000  1.0 0.1407996327
H  H244  1  0.08070000  0.56240000  0.63360000  1.0 0.1407996327
H  H245  1  0.94420000  0.83840000  0.05460000  1.0 0.120594772
H  H246  1  0.94420000  0.66160000  0.55460000  1.0 0.120594772
H  H247  1  0.93330000  0.89230000  0.16450000  1.0 0.1304508282
H  H248  1  0.93330000  0.60770000  0.66450000  1.0 0.1304508282
H  H249  1  0.90340000  0.87270000  0.11540000  1.0 0.120594772
H  H250  1  0.90340000  0.62730000  0.61540000  1.0 0.120594772
H  H251  1  0.89320000  0.76230000  0.09330000  1.0 0.1407996327
H  H252  1  0.89320000  0.73770000  0.59330000  1.0 0.1407996327
H  H253  1  0.95770000  0.69490000  0.24140000  1.0 0.1304508282
H  H254  1  0.95770000  0.80510000  0.74140000  1.0 0.1304508282
H  H255  1  0.95930000  0.86050000  0.23260000  1.0 0.1304508282
H  H256  1  0.95930000  0.63950000  0.73260000  1.0 0.1304508282
H  H257  1  0.96580000  0.80120000  0.26750000  1.0 0.1304508282
H  H258  1  0.96580000  0.69880000  0.76750000  1.0 0.1304508282
H  H259  1  0.19730000  0.88640000  0.22870000  1.0 0.120594772
H  H260  1  0.19730000  0.61360000  0.72870000  1.0 0.120594772
H  H261  1  0.22470000  0.82240000  0.21910000  1.0 0.1407996327
H  H262  1  0.22470000  0.67760000  0.71910000  1.0 0.1407996327
H  H263  1  0.17370000  0.83780000  0.18910000  1.0 0.1304508282
H  H264  1  0.17370000  0.66220000  0.68910000  1.0 0.1304508282
H  H265  1  0.22710000  0.72560000  0.40400000  1.0 0.1407996327
H  H266  1  0.22710000  0.77440000  0.90400000  1.0 0.1407996327
H  H267  1  0.26690000  0.63480000  0.43690000  1.0 0.120594772
H  H268  1  0.26690000  0.86520000  0.93690000  1.0 0.120594772
H  H269  1  0.18340000  0.52030000  0.35220000  1.0 0.120594772
H  H270  1  0.18340000  0.97970000  0.85220000  1.0 0.120594772
H  H271  1  0.14250000  0.60800000  0.31530000  1.0 0.1407996327
H  H272  1  0.14250000  0.89200000  0.81530000  1.0 0.1407996327
H  H273  1  0.92910000  0.59240000  0.25630000  1.0 0.1304508282
H  H274  1  0.92910000  0.90760000  0.75630000  1.0 0.1304508282
H  H275  1  0.94170000  0.52820000  0.23150000  1.0 0.1503800624
H  H276  1  0.94170000  0.97180000  0.73150000  1.0 0.1503800624
H  H277  1  0.97610000  0.58920000  0.23550000  1.0 0.1407996327
H  H278  1  0.97610000  0.91080000  0.73550000  1.0 0.1407996327
H  H279  1  0.91350000  0.50420000  0.03130000  1.0 0.1407996327
H  H280  1  0.91350000  0.99580000  0.53130000  1.0 0.1407996327
H  H281  1  0.86150000  0.44730000  0.97510000  1.0 0.120594772
H  H282  1  0.86150000  0.05270000  0.47510000  1.0 0.120594772
H  H283  1  0.75750000  0.56550000  0.98540000  1.0 0.120594772
H  H284  1  0.75750000  0.93450000  0.48540000  1.0 0.120594772
H  H285  1  0.80620000  0.62670000  0.04100000  1.0 0.1503800624
H  H286  1  0.80620000  0.87330000  0.54100000  1.0 0.1503800624
H  H287  1  0.94080000  0.85830000  0.97770000  1.0 0.120594772
H  H288  1  0.94080000  0.64170000  0.47770000  1.0 0.120594772
H  H289  1  0.97070000  0.82020000  0.94630000  1.0 0.1304508282
H  H290  1  0.97070000  0.67980000  0.44630000  1.0 0.1304508282
H  H291  1  0.95990000  0.78740000  0.99190000  1.0 0.120594772
H  H292  1  0.95990000  0.71260000  0.49190000  1.0 0.120594772
H  H293  1  0.09780000  0.04760000  0.96250000  1.0 0.1407996327
H  H294  1  0.09780000  0.45240000  0.46250000  1.0 0.1407996327
H  H295  1  0.16200000  0.06130000  0.92840000  1.0 0.120594772
H  H296  1  0.16200000  0.43870000  0.42840000  1.0 0.120594772
H  H297  1  0.23660000  0.93980000  0.01540000  1.0 0.1304508282
H  H298  1  0.23660000  0.56020000  0.51540000  1.0 0.1304508282
H  H299  1  0.17300000  0.92120000  0.05010000  1.0 0.1407996327
H  H300  1  0.17300000  0.57880000  0.55010000  1.0 0.1407996327
H  H301  1  0.25230000  0.31030000  0.43860000  1.0 0.1304508282
H  H302  1  0.25230000  0.18970000  0.93860000  1.0 0.1304508282
H  H303  1  0.28970000  0.30890000  0.40470000  1.0 0.1503800624
H  H304  1  0.28970000  0.19110000  0.90470000  1.0 0.1503800624
H  H305  1  0.18050000  0.24480000  0.32390000  1.0 0.100545115
H  H306  1  0.18050000  0.25520000  0.82390000  1.0 0.100545115
H  H307  1  0.23230000  0.25820000  0.31250000  1.0 0.1090045326
H  H308  1  0.23230000  0.24180000  0.81250000  1.0 0.1090045326
H  H309  1  0.19500000  0.39950000  0.29230000  1.0 0.1503800624
H  H310  1  0.19500000  0.10050000  0.79230000  1.0 0.1503800624
H  H311  1  0.15480000  0.34560000  0.28720000  1.0 0.1407996327
H  H312  1  0.15480000  0.15440000  0.78720000  1.0 0.1407996327
H  H313  1  0.15690000  0.40130000  0.32470000  1.0 0.1407996327
H  H314  1  0.15690000  0.09870000  0.82470000  1.0 0.1407996327
H  H315  1  0.25710000  0.21820000  0.38580000  1.0 0.1304508282
H  H316  1  0.25710000  0.28180000  0.88580000  1.0 0.1304508282
H  H317  1  0.20900000  0.23850000  0.40120000  1.0 0.1090045326
H  H318  1  0.20900000  0.26150000  0.90120000  1.0 0.1090045326
H  H319  1  0.78080000  0.24720000  0.90080000  1.0 0.1407996327
H  H320  1  0.78080000  0.25280000  0.40080000  1.0 0.1407996327
H  H321  1  0.81590000  0.29520000  0.88120000  1.0 0.1407996327
H  H322  1  0.81590000  0.20480000  0.38120000  1.0 0.1407996327
H  H323  1  0.87750000  0.23130000  0.90340000  1.0 0.100545115
H  H324  1  0.87750000  0.26870000  0.40340000  1.0 0.100545115
H  H325  1  0.83870000  0.17620000  0.90520000  1.0 0.100545115
H  H326  1  0.83870000  0.32380000  0.40520000  1.0 0.100545115
H  H327  1  0.85010000  0.18020000  0.98430000  1.0 0.1090045326
H  H328  1  0.85010000  0.31980000  0.48430000  1.0 0.1090045326
H  H329  1  0.90010000  0.21310000  0.98110000  1.0 0.100545115
H  H330  1  0.90010000  0.28690000  0.48110000  1.0 0.100545115
H  H331  1  0.84020000  0.34180000  0.03260000  1.0 0.1304508282
H  H332  1  0.84020000  0.15820000  0.53260000  1.0 0.1304508282
H  H333  1  0.89010000  0.30590000  0.04250000  1.0 0.1407996327
H  H334  1  0.89010000  0.19410000  0.54250000  1.0 0.1407996327
H  H335  1  0.84370000  0.26870000  0.04990000  1.0 0.1407996327
H  H336  1  0.84370000  0.23130000  0.54990000  1.0 0.1407996327
C  C1  1  0.45700000  0.58570000  0.78400000  1.0 0.0890289765
C  C2  1  0.45700000  0.91430000  0.28400000  1.0 0.0890289765
C  C3  1  0.40910000  0.59980000  0.78360000  1.0 -0.28207908
C  C4  1  0.40910000  0.90020000  0.28360000  1.0 -0.28207908
C  C5  1  0.38740000  0.65260000  0.76000000  1.0 0.1503800624
C  C6  1  0.38740000  0.84740000  0.26000000  1.0 0.1503800624
C  C7  1  0.41270000  0.68940000  0.73520000  1.0 0.1304508282
C  C8  1  0.41270000  0.81060000  0.23520000  1.0 0.1304508282
C  C9  1  0.45910000  0.67790000  0.73470000  1.0 -0.247646584
C  C10  1  0.45910000  0.82210000  0.23470000  1.0 -0.247646584
C  C11  1  0.48240000  0.62530000  0.76030000  1.0 0.0890289765
C  C12  1  0.48240000  0.87470000  0.26030000  1.0 0.0890289765
C  C13  1  0.53530000  0.61890000  0.76150000  1.0 -0.2890549437
C  C14  1  0.53530000  0.88110000  0.26150000  1.0 -0.2890549437
C  C15  1  0.56360000  0.66290000  0.79700000  1.0 0.100545115
C  C16  1  0.56360000  0.83710000  0.29700000  1.0 0.100545115
C  C17  1  0.57250000  0.72460000  0.78270000  1.0 -0.28207908
C  C18  1  0.57250000  0.77540000  0.28270000  1.0 -0.28207908
C  C19  1  0.59680000  0.76950000  0.81310000  1.0 0.1503800624
C  C20  1  0.59680000  0.73050000  0.31310000  1.0 0.1503800624
C  C21  1  0.61080000  0.75070000  0.85840000  1.0 0.1407996327
C  C22  1  0.61080000  0.74930000  0.35840000  1.0 0.1407996327
C  C23  1  0.60370000  0.69000000  0.87310000  1.0 -0.2220852061
C  C24  1  0.60370000  0.81000000  0.37310000  1.0 -0.2220852061
C  C25  1  0.58040000  0.64400000  0.84250000  1.0 0.100545115
C  C26  1  0.58040000  0.85600000  0.34250000  1.0 0.100545115
C  C27  1  0.57510000  0.57560000  0.86040000  1.0 -0.3090155668
C  C28  1  0.57510000  0.92440000  0.36040000  1.0 -0.3090155668
C  C29  1  0.53390000  0.56680000  0.88490000  1.0 0.1090045326
C  C30  1  0.53390000  0.93320000  0.38490000  1.0 0.1090045326
C  C31  1  0.54040000  0.58300000  0.93170000  1.0 -0.2890549437
C  C32  1  0.54040000  0.91700000  0.43170000  1.0 -0.2890549437
C  C33  1  0.50440000  0.57590000  0.95630000  1.0 0.1833660953
C  C34  1  0.50440000  0.92410000  0.45630000  1.0 0.1833660953
C  C35  1  0.46100000  0.55060000  0.93220000  1.0 0.1503800624
C  C36  1  0.46100000  0.94940000  0.43220000  1.0 0.1503800624
C  C37  1  0.45460000  0.53330000  0.88770000  1.0 -0.247646584
C  C38  1  0.45460000  0.96670000  0.38770000  1.0 -0.247646584
C  C39  1  0.49050000  0.54190000  0.86230000  1.0 0.0834722572
C  C40  1  0.49050000  0.95810000  0.36230000  1.0 0.0834722572
C  C41  1  0.47840000  0.52800000  0.81150000  1.0 -0.2966095678
C  C42  1  0.47840000  0.97200000  0.31150000  1.0 -0.2966095678
C  C43  1  0.31720000  0.63470000  0.78680000  1.0 -0.239395888
C  C44  1  0.31720000  0.86530000  0.28680000  1.0 -0.239395888
C  C45  1  0.37490000  0.79120000  0.72180000  1.0 0.5096854188
C  C46  1  0.37490000  0.70880000  0.22180000  1.0 0.5096854188
C  C47  1  0.34410000  0.82970000  0.68550000  1.0 0.0185060771
C  C48  1  0.34410000  0.67030000  0.18550000  1.0 0.0185060771
C  C49  1  0.32980000  0.88930000  0.69640000  1.0 -0.140427761
C  C50  1  0.32980000  0.61070000  0.19640000  1.0 -0.140427761
C  C51  1  0.29850000  0.92310000  0.66240000  1.0 0.0890289765
C  C52  1  0.29850000  0.57690000  0.16240000  1.0 0.0890289765
C  C53  1  0.29980000  0.84260000  0.61050000  1.0 0.100545115
C  C54  1  0.29980000  0.65740000  0.11050000  1.0 0.100545115
C  C55  1  0.32960000  0.80500000  0.64210000  1.0 -0.1303217735
C  C56  1  0.32960000  0.69500000  0.14210000  1.0 -0.1303217735
C  C57  1  0.60200000  0.84460000  0.75350000  1.0 -0.247646584
C  C58  1  0.60200000  0.65540000  0.25350000  1.0 -0.247646584
C  C59  1  0.61520000  0.84310000  0.90490000  1.0 0.5096854188
C  C60  1  0.61520000  0.65690000  0.40490000  1.0 0.5096854188
C  C61  1  0.64710000  0.88040000  0.94130000  1.0 0.042403435
C  C62  1  0.64710000  0.61960000  0.44130000  1.0 0.042403435
C  C63  1  0.63060000  0.93930000  0.95570000  1.0 -0.1303217735
C  C64  1  0.63060000  0.56070000  0.45570000  1.0 -0.1303217735
C  C65  1  0.65850000  0.97130000  0.99130000  1.0 0.0890289765
C  C66  1  0.65850000  0.52870000  0.49130000  1.0 0.0890289765
C  C67  1  0.71750000  0.89500000  0.99710000  1.0 0.0890289765
C  C68  1  0.71750000  0.60500000  0.49710000  1.0 0.0890289765
C  C69  1  0.69130000  0.85870000  0.96230000  1.0 -0.1303217735
C  C70  1  0.69130000  0.64130000  0.46230000  1.0 -0.1303217735
C  C71  1  0.54910000  0.61960000  0.02450000  1.0 -0.2309207868
C  C72  1  0.54910000  0.88040000  0.52450000  1.0 -0.2309207868
C  C73  1  0.39210000  0.58700000  0.95290000  1.0 0.5096854188
C  C74  1  0.39210000  0.91300000  0.45290000  1.0 0.5096854188
C  C75  1  0.35530000  0.57440000  0.98000000  1.0 0.0140385205
C  C76  1  0.35530000  0.92560000  0.48000000  1.0 0.0140385205
C  C77  1  0.31780000  0.61550000  0.97530000  1.0 -0.1195856112
C  C78  1  0.31780000  0.88450000  0.47530000  1.0 -0.1195856112
C  C79  1  0.28270000  0.60380000  0.00030000  1.0 0.100545115
C  C80  1  0.28270000  0.89620000  0.50030000  1.0 0.100545115
C  C81  1  0.32330000  0.51760000  0.03590000  1.0 0.0742490009
C  C82  1  0.32330000  0.98240000  0.53590000  1.0 0.0742490009
C  C83  1  0.35860000  0.52490000  0.01130000  1.0 -0.1303217735
C  C84  1  0.35860000  0.97510000  0.51130000  1.0 -0.1303217735
C  C85  1  0.97370000  0.32050000  0.25800000  1.0 0.100545115
C  C86  1  0.97370000  0.17950000  0.75800000  1.0 0.100545115
C  C87  1  0.94690000  0.27280000  0.23170000  1.0 -0.2309207868
C  C88  1  0.94690000  0.22720000  0.73170000  1.0 -0.2309207868
C  C89  1  0.89910000  0.27160000  0.22850000  1.0 0.1304508282
C  C90  1  0.89910000  0.22840000  0.72850000  1.0 0.1304508282
C  C91  1  0.87580000  0.31520000  0.25090000  1.0 0.1407996327
C  C92  1  0.87580000  0.18480000  0.75090000  1.0 0.1407996327
C  C93  1  0.90200000  0.36380000  0.27520000  1.0 -0.28207908
C  C94  1  0.90200000  0.13620000  0.77520000  1.0 -0.28207908
C  C95  1  0.95100000  0.36700000  0.27930000  1.0 0.1090045326
C  C96  1  0.95100000  0.13300000  0.77930000  1.0 0.1090045326
C  C97  1  0.97660000  0.42110000  0.30860000  1.0 -0.2890549437
C  C98  1  0.97660000  0.07890000  0.80860000  1.0 -0.2890549437
C  C99  1  0.98390000  0.40440000  0.35920000  1.0 0.1090045326
C  C100  1  0.98390000  0.09560000  0.85920000  1.0 0.1090045326
C  C101  1  0.94720000  0.41730000  0.38210000  1.0 -0.247646584
C  C102  1  0.94720000  0.08270000  0.88210000  1.0 -0.247646584
C  C103  1  0.95130000  0.40080000  0.42700000  1.0 0.1407996327
C  C104  1  0.95130000  0.09920000  0.92700000  1.0 0.1407996327
C  C105  1  0.99150000  0.37000000  0.45150000  1.0 0.1608844104
C  C106  1  0.99150000  0.13000000  0.95150000  1.0 0.1608844104
C  C107  1  0.02800000  0.35850000  0.42920000  1.0 -0.2890549437
C  C108  1  0.02800000  0.14150000  0.92920000  1.0 -0.2890549437
C  C109  1  0.02520000  0.37580000  0.38310000  1.0 0.1090045326
C  C110  1  0.02520000  0.12420000  0.88310000  1.0 0.1090045326
C  C111  1  0.06770000  0.36280000  0.36180000  1.0 -0.2890549437
C  C112  1  0.06770000  0.13720000  0.86180000  1.0 -0.2890549437
C  C113  1  0.07080000  0.29300000  0.34500000  1.0 0.100545115
C  C114  1  0.07080000  0.20700000  0.84500000  1.0 0.100545115
C  C115  1  0.09350000  0.24880000  0.37650000  1.0 -0.247646584
C  C116  1  0.09350000  0.25120000  0.87650000  1.0 -0.247646584
C  C117  1  0.09720000  0.18470000  0.36430000  1.0 0.1304508282
C  C118  1  0.09720000  0.31530000  0.86430000  1.0 0.1304508282
C  C119  1  0.07770000  0.16290000  0.32070000  1.0 0.1608844104
C  C120  1  0.07770000  0.33710000  0.82070000  1.0 0.1608844104
C  C121  1  0.05540000  0.20850000  0.28890000  1.0 -0.28207908
C  C122  1  0.05540000  0.29150000  0.78890000  1.0 -0.28207908
C  C123  1  0.05190000  0.27260000  0.30030000  1.0 0.1090045326
C  C124  1  0.05190000  0.22740000  0.80030000  1.0 0.1090045326
C  C125  1  0.02730000  0.31670000  0.26200000  1.0 -0.2890549437
C  C126  1  0.02730000  0.18330000  0.76200000  1.0 -0.2890549437
C  C127  1  0.80630000  0.34110000  0.28030000  1.0 -0.2638581864
C  C128  1  0.80630000  0.15890000  0.78030000  1.0 -0.2638581864
C  C129  1  0.84650000  0.23350000  0.16410000  1.0 0.5168982573
C  C130  1  0.84650000  0.26650000  0.66410000  1.0 0.5168982573
C  C131  1  0.82010000  0.17590000  0.14320000  1.0 0.0185060771
C  C132  1  0.82010000  0.32410000  0.64320000  1.0 0.0185060771
C  C133  1  0.78250000  0.18390000  0.10720000  1.0 -0.1303217735
C  C134  1  0.78250000  0.31610000  0.60720000  1.0 -0.1303217735
C  C135  1  0.75900000  0.12940000  0.08780000  1.0 0.0890289765
C  C136  1  0.75900000  0.37060000  0.58780000  1.0 0.0890289765
C  C137  1  0.80750000  0.06250000  0.13740000  1.0 0.1090045326
C  C138  1  0.80750000  0.43750000  0.63740000  1.0 0.1090045326
C  C139  1  0.83240000  0.11440000  0.15920000  1.0 -0.1303217735
C  C140  1  0.83240000  0.38560000  0.65920000  1.0 -0.1303217735
C  C141  1  0.05680000  0.07540000  0.26870000  1.0 -0.2309207868
C  C142  1  0.05680000  0.42460000  0.76870000  1.0 -0.2309207868
C  C143  1  0.10160000  0.10830000  0.42290000  1.0 0.5096854188
C  C144  1  0.10160000  0.39170000  0.92290000  1.0 0.5096854188
C  C145  1  0.13480000  0.07190000  0.45810000  1.0 0.0185060771
C  C146  1  0.13480000  0.42810000  0.95810000  1.0 0.0185060771
C  C147  1  0.11840000  0.01780000  0.47780000  1.0 -0.140427761
C  C148  1  0.11840000  0.48220000  0.97780000  1.0 -0.140427761
C  C149  1  0.14970000  0.98390000  0.51110000  1.0 0.100545115
C  C150  1  0.14970000  0.51610000  0.01110000  1.0 0.100545115
C  C151  1  0.21040000  0.05330000  0.50510000  1.0 0.0834722572
C  C152  1  0.21040000  0.44670000  0.00510000  1.0 0.0834722572
C  C153  1  0.18170000  0.09000000  0.47200000  1.0 -0.1303217735
C  C154  1  0.18170000  0.41000000  0.97200000  1.0 -0.1303217735
C  C155  1  0.03320000  0.32810000  0.52210000  1.0 -0.239395888
C  C156  1  0.03320000  0.17190000  0.02210000  1.0 -0.239395888
C  C157  1  0.91420000  0.47250000  0.47060000  1.0 0.5096854188
C  C158  1  0.91420000  0.02750000  0.97060000  1.0 0.5096854188
C  C159  1  0.87180000  0.48200000  0.49100000  1.0 0.0185060771
C  C160  1  0.87180000  0.01800000  0.99100000  1.0 0.0185060771
C  C161  1  0.87400000  0.52420000  0.52660000  1.0 -0.140427761
C  C162  1  0.87400000  0.97580000  0.02660000  1.0 -0.140427761
C  C163  1  0.83570000  0.53260000  0.54640000  1.0 0.0834722572
C  C164  1  0.83570000  0.96740000  0.04640000  1.0 0.0834722572
C  C165  1  0.79230000  0.46140000  0.49580000  1.0 0.100545115
C  C166  1  0.79230000  0.03860000  0.99580000  1.0 0.100545115
C  C167  1  0.82980000  0.45020000  0.47490000  1.0 -0.1303217735
C  C168  1  0.82980000  0.04980000  0.97490000  1.0 -0.1303217735
C  C169  1  0.77350000  0.86440000  0.12460000  1.0 0.4353960284
C  C170  1  0.77350000  0.63560000  0.62460000  1.0 0.4349394568
C  C171  1  0.74420000  0.80770000  0.09380000  1.0 -0.2966095678
C  C172  1  0.74420000  0.69230000  0.59380000  1.0 -0.2966095678
C  C173  1  0.78910000  0.76740000  0.16610000  1.0 -0.0884721972
C  C174  1  0.78910000  0.73260000  0.66610000  1.0 -0.0884721972
C  C175  1  0.82420000  0.87320000  0.19110000  1.0 -0.3090155668
C  C176  1  0.82420000  0.62680000  0.69110000  1.0 -0.3090155668
C  C177  1  0.76630000  0.75320000  0.11540000  1.0 -0.140427761
C  C178  1  0.76630000  0.74680000  0.61540000  1.0 -0.140427761
C  C179  1  0.18220000  0.80850000  0.54830000  1.0 0.4872281082
C  C180  1  0.18220000  0.69150000  0.04830000  1.0 0.4872281082
C  C181  1  0.18780000  0.76800000  0.59240000  1.0 -0.3090155668
C  C182  1  0.18780000  0.73200000  0.09240000  1.0 -0.3090155668
C  C183  1  0.14960000  0.71870000  0.58260000  1.0 -0.1465342878
C  C184  1  0.14960000  0.78130000  0.08260000  1.0 -0.1465342878
C  C185  1  0.13450000  0.71630000  0.52890000  1.0 -0.1098611243
C  C186  1  0.13450000  0.78370000  0.02890000  1.0 -0.1043612904
C  C187  1  0.14380000  0.80050000  0.46900000  1.0 -0.3208798639
C  C188  1  0.14380000  0.69950000  0.96900000  1.0 -0.3208798639
C  C189  1  0.54300000  0.08570000  0.71600000  1.0 0.0890289765
C  C190  1  0.54300000  0.41430000  0.21600000  1.0 0.0890289765
C  C191  1  0.59090000  0.09980000  0.71640000  1.0 -0.28207908
C  C192  1  0.59090000  0.40020000  0.21640000  1.0 -0.28207908
C  C193  1  0.61260000  0.15260000  0.74000000  1.0 0.1503800624
C  C194  1  0.61260000  0.34740000  0.24000000  1.0 0.1503800624
C  C195  1  0.58730000  0.18940000  0.76480000  1.0 0.1304508282
C  C196  1  0.58730000  0.31060000  0.26480000  1.0 0.1304508282
C  C197  1  0.54090000  0.17790000  0.76530000  1.0 -0.239395888
C  C198  1  0.54090000  0.32210000  0.26530000  1.0 -0.239395888
C  C199  1  0.51760000  0.12530000  0.73970000  1.0 0.0890289765
C  C200  1  0.51760000  0.37470000  0.23970000  1.0 0.0890289765
C  C201  1  0.46470000  0.11890000  0.73850000  1.0 -0.2890549437
C  C202  1  0.46470000  0.38110000  0.23850000  1.0 -0.2890549437
C  C203  1  0.43640000  0.16290000  0.70300000  1.0 0.100545115
C  C204  1  0.43640000  0.33710000  0.20300000  1.0 0.100545115
C  C205  1  0.42750000  0.22460000  0.71730000  1.0 -0.28207908
C  C206  1  0.42750000  0.27540000  0.21730000  1.0 -0.28207908
C  C207  1  0.40320000  0.26950000  0.68690000  1.0 0.1503800624
C  C208  1  0.40320000  0.23050000  0.18690000  1.0 0.1503800624
C  C209  1  0.38920000  0.25070000  0.64160000  1.0 0.1407996327
C  C210  1  0.38920000  0.24930000  0.14160000  1.0 0.1407996327
C  C211  1  0.39630000  0.19000000  0.62690000  1.0 -0.2220852061
C  C212  1  0.39630000  0.31000000  0.12690000  1.0 -0.2220852061
C  C213  1  0.41960000  0.14400000  0.65750000  1.0 0.100545115
C  C214  1  0.41960000  0.35600000  0.15750000  1.0 0.100545115
C  C215  1  0.42490000  0.07560000  0.63960000  1.0 -0.3090155668
C  C216  1  0.42490000  0.42440000  0.13960000  1.0 -0.3090155668
C  C217  1  0.46610000  0.06680000  0.61510000  1.0 0.1090045326
C  C218  1  0.46610000  0.43320000  0.11510000  1.0 0.1090045326
C  C219  1  0.45960000  0.08300000  0.56830000  1.0 -0.2890549437
C  C220  1  0.45960000  0.41700000  0.06830000  1.0 -0.2890549437
C  C221  1  0.49560000  0.07590000  0.54370000  1.0 0.1833660953
C  C222  1  0.49560000  0.42410000  0.04370000  1.0 0.1833660953
C  C223  1  0.53900000  0.05060000  0.56780000  1.0 0.1503800624
C  C224  1  0.53900000  0.44940000  0.06780000  1.0 0.1503800624
C  C225  1  0.54540000  0.03330000  0.61230000  1.0 -0.247646584
C  C226  1  0.54540000  0.46670000  0.11230000  1.0 -0.247646584
C  C227  1  0.50950000  0.04190000  0.63770000  1.0 0.0834722572
C  C228  1  0.50950000  0.45810000  0.13770000  1.0 0.0834722572
C  C229  1  0.52160000  0.02800000  0.68850000  1.0 -0.2966095678
C  C230  1  0.52160000  0.47200000  0.18850000  1.0 -0.2966095678
C  C231  1  0.68280000  0.13470000  0.71320000  1.0 -0.239395888
C  C232  1  0.68280000  0.36530000  0.21320000  1.0 -0.239395888
C  C233  1  0.62510000  0.29120000  0.77820000  1.0 0.5096854188
C  C234  1  0.62510000  0.20880000  0.27820000  1.0 0.5096854188
C  C235  1  0.65590000  0.32970000  0.81450000  1.0 0.0185060771
C  C236  1  0.65590000  0.17030000  0.31450000  1.0 0.0185060771
C  C237  1  0.67020000  0.38930000  0.80360000  1.0 -0.140427761
C  C238  1  0.67020000  0.11070000  0.30360000  1.0 -0.140427761
C  C239  1  0.70150000  0.42310000  0.83760000  1.0 0.0890289765
C  C240  1  0.70150000  0.07690000  0.33760000  1.0 0.0890289765
C  C241  1  0.70020000  0.34260000  0.88950000  1.0 0.100545115
C  C242  1  0.70020000  0.15740000  0.38950000  1.0 0.100545115
C  C243  1  0.67040000  0.30500000  0.85790000  1.0 -0.1303217735
C  C244  1  0.67040000  0.19500000  0.35790000  1.0 -0.1303217735
C  C245  1  0.39800000  0.34460000  0.74650000  1.0 -0.247646584
C  C246  1  0.39800000  0.15540000  0.24650000  1.0 -0.247646584
C  C247  1  0.38480000  0.34310000  0.59510000  1.0 0.5096854188
C  C248  1  0.38480000  0.15690000  0.09510000  1.0 0.5096854188
C  C249  1  0.35290000  0.38040000  0.55870000  1.0 0.042403435
C  C250  1  0.35290000  0.11960000  0.05870000  1.0 0.042403435
C  C251  1  0.36940000  0.43930000  0.54430000  1.0 -0.1303217735
C  C252  1  0.36940000  0.06070000  0.04430000  1.0 -0.1303217735
C  C253  1  0.34150000  0.47130000  0.50870000  1.0 0.0890289765
C  C254  1  0.34150000  0.02870000  0.00870000  1.0 0.0890289765
C  C255  1  0.28250000  0.39500000  0.50290000  1.0 0.0890289765
C  C256  1  0.28250000  0.10500000  0.00290000  1.0 0.0890289765
C  C257  1  0.30870000  0.35870000  0.53770000  1.0 -0.1303217735
C  C258  1  0.30870000  0.14130000  0.03770000  1.0 -0.1303217735
C  C259  1  0.45090000  0.11960000  0.47550000  1.0 -0.2309207868
C  C260  1  0.45090000  0.38040000  0.97550000  1.0 -0.2309207868
C  C261  1  0.60790000  0.08700000  0.54710000  1.0 0.5096854188
C  C262  1  0.60790000  0.41300000  0.04710000  1.0 0.5096854188
C  C263  1  0.64470000  0.07440000  0.52000000  1.0 0.0185060771
C  C264  1  0.64470000  0.42560000  0.02000000  1.0 0.0185060771
C  C265  1  0.68220000  0.11550000  0.52470000  1.0 -0.1195856112
C  C266  1  0.68220000  0.38450000  0.02470000  1.0 -0.1195856112
C  C267  1  0.71730000  0.10380000  0.49970000  1.0 0.100545115
C  C268  1  0.71730000  0.39620000  0.99970000  1.0 0.100545115
C  C269  1  0.67670000  0.01760000  0.46410000  1.0 0.0742490009
C  C270  1  0.67670000  0.48240000  0.96410000  1.0 0.0742490009
C  C271  1  0.64140000  0.02490000  0.48870000  1.0 -0.1303217735
C  C272  1  0.64140000  0.47510000  0.98870000  1.0 -0.1303217735
C  C273  1  0.02630000  0.82050000  0.24200000  1.0 0.100545115
C  C274  1  0.02630000  0.67950000  0.74200000  1.0 0.100545115
C  C275  1  0.05310000  0.77280000  0.26830000  1.0 -0.2309207868
C  C276  1  0.05310000  0.72720000  0.76830000  1.0 -0.2309207868
C  C277  1  0.10090000  0.77160000  0.27150000  1.0 0.1304508282
C  C278  1  0.10090000  0.72840000  0.77150000  1.0 0.1304508282
C  C279  1  0.12420000  0.81520000  0.24910000  1.0 0.1407996327
C  C280  1  0.12420000  0.68480000  0.74910000  1.0 0.1407996327
C  C281  1  0.09800000  0.86380000  0.22480000  1.0 -0.2890549437
C  C282  1  0.09800000  0.63620000  0.72480000  1.0 -0.28207908
C  C283  1  0.04900000  0.86700000  0.22070000  1.0 0.1090045326
C  C284  1  0.04900000  0.63300000  0.72070000  1.0 0.1090045326
C  C285  1  0.02340000  0.92110000  0.19140000  1.0 -0.2890549437
C  C286  1  0.02340000  0.57890000  0.69140000  1.0 -0.2890549437
C  C287  1  0.01610000  0.90440000  0.14080000  1.0 0.1090045326
C  C288  1  0.01610000  0.59560000  0.64080000  1.0 0.1090045326
C  C289  1  0.05280000  0.91730000  0.11790000  1.0 -0.247646584
C  C290  1  0.05280000  0.58270000  0.61790000  1.0 -0.247646584
C  C291  1  0.04870000  0.90080000  0.07300000  1.0 0.1407996327
C  C292  1  0.04870000  0.59920000  0.57300000  1.0 0.1407996327
C  C293  1  0.00850000  0.87000000  0.04850000  1.0 0.1608844104
C  C294  1  0.00850000  0.63000000  0.54850000  1.0 0.1608844104
C  C295  1  0.97200000  0.85850000  0.07080000  1.0 -0.2890549437
C  C296  1  0.97200000  0.64150000  0.57080000  1.0 -0.2890549437
C  C297  1  0.97480000  0.87580000  0.11690000  1.0 0.1090045326
C  C298  1  0.97480000  0.62420000  0.61690000  1.0 0.1090045326
C  C299  1  0.93230000  0.86280000  0.13820000  1.0 -0.2890549437
C  C300  1  0.93230000  0.63720000  0.63820000  1.0 -0.2890549437
C  C301  1  0.92920000  0.79300000  0.15500000  1.0 0.100545115
C  C302  1  0.92920000  0.70700000  0.65500000  1.0 0.100545115
C  C303  1  0.90650000  0.74880000  0.12350000  1.0 -0.247646584
C  C304  1  0.90650000  0.75120000  0.62350000  1.0 -0.247646584
C  C305  1  0.90280000  0.68470000  0.13570000  1.0 0.1304508282
C  C306  1  0.90280000  0.81530000  0.63570000  1.0 0.1304508282
C  C307  1  0.92230000  0.66290000  0.17930000  1.0 0.1608844104
C  C308  1  0.92230000  0.83710000  0.67930000  1.0 0.1608844104
C  C309  1  0.94460000  0.70850000  0.21110000  1.0 -0.28207908
C  C310  1  0.94460000  0.79150000  0.71110000  1.0 -0.28207908
C  C311  1  0.94810000  0.77260000  0.19970000  1.0 0.1090045326
C  C312  1  0.94810000  0.72740000  0.69970000  1.0 0.1090045326
C  C313  1  0.97270000  0.81670000  0.23800000  1.0 -0.2890549437
C  C314  1  0.97270000  0.68330000  0.73800000  1.0 -0.2890549437
C  C315  1  0.19370000  0.84110000  0.21970000  1.0 -0.2638581864
C  C316  1  0.19370000  0.65890000  0.71970000  1.0 -0.2638581864
C  C317  1  0.15350000  0.73350000  0.33590000  1.0 0.5168982573
C  C318  1  0.15350000  0.76650000  0.83590000  1.0 0.5168982573
C  C319  1  0.17990000  0.67590000  0.35680000  1.0 0.0185060771
C  C320  1  0.17990000  0.82410000  0.85680000  1.0 0.0185060771
C  C321  1  0.21750000  0.68390000  0.39280000  1.0 -0.1303217735
C  C322  1  0.21750000  0.81610000  0.89280000  1.0 -0.1303217735
C  C323  1  0.24100000  0.62940000  0.41220000  1.0 0.0890289765
C  C324  1  0.24100000  0.87060000  0.91220000  1.0 0.0890289765
C  C325  1  0.19250000  0.56250000  0.36260000  1.0 0.1090045326
C  C326  1  0.19250000  0.93750000  0.86260000  1.0 0.1090045326
C  C327  1  0.16760000  0.61440000  0.34080000  1.0 -0.1303217735
C  C328  1  0.16760000  0.88560000  0.84080000  1.0 -0.1303217735
C  C329  1  0.94320000  0.57540000  0.23130000  1.0 -0.2309207868
C  C330  1  0.94320000  0.92460000  0.73130000  1.0 -0.2309207868
C  C331  1  0.89840000  0.60830000  0.07710000  1.0 0.5096854188
C  C332  1  0.89840000  0.89170000  0.57710000  1.0 0.5096854188
C  C333  1  0.86520000  0.57190000  0.04190000  1.0 0.0185060771
C  C334  1  0.86520000  0.92810000  0.54190000  1.0 0.0185060771
C  C335  1  0.88160000  0.51780000  0.02220000  1.0 -0.140427761
C  C336  1  0.88160000  0.98220000  0.52220000  1.0 -0.140427761
C  C337  1  0.85030000  0.48390000  0.98890000  1.0 0.100545115
C  C338  1  0.85030000  0.01610000  0.48890000  1.0 0.100545115
C  C339  1  0.78960000  0.55330000  0.99490000  1.0 0.0834722572
C  C340  1  0.78960000  0.94670000  0.49490000  1.0 0.0834722572
C  C341  1  0.81830000  0.59000000  0.02800000  1.0 -0.1303217735
C  C342  1  0.81830000  0.91000000  0.52800000  1.0 -0.1303217735
C  C343  1  0.96680000  0.82810000  0.97790000  1.0 -0.2309207868
C  C344  1  0.96680000  0.67190000  0.47790000  1.0 -0.2309207868
C  C345  1  0.08580000  0.97250000  0.02940000  1.0 0.5096854188
C  C346  1  0.08580000  0.52750000  0.52940000  1.0 0.5096854188
C  C347  1  0.12820000  0.98200000  0.00900000  1.0 0.0185060771
C  C348  1  0.12820000  0.51800000  0.50900000  1.0 0.0185060771
C  C349  1  0.12600000  0.02420000  0.97340000  1.0 -0.140427761
C  C350  1  0.12600000  0.47580000  0.47340000  1.0 -0.140427761
C  C351  1  0.16430000  0.03260000  0.95360000  1.0 0.0834722572
C  C352  1  0.16430000  0.46740000  0.45360000  1.0 0.0834722572
C  C353  1  0.20770000  0.96140000  0.00420000  1.0 0.100545115
C  C354  1  0.20770000  0.53860000  0.50420000  1.0 0.100545115
C  C355  1  0.17020000  0.95020000  0.02510000  1.0 -0.1303217735
C  C356  1  0.17020000  0.54980000  0.52510000  1.0 -0.1303217735
C  C357  1  0.22650000  0.36440000  0.37540000  1.0 0.4349394568
C  C358  1  0.22650000  0.13560000  0.87540000  1.0 0.4349394568
C  C359  1  0.25580000  0.30770000  0.40620000  1.0 -0.2966095678
C  C360  1  0.25580000  0.19230000  0.90620000  1.0 -0.2966095678
C  C361  1  0.21090000  0.26740000  0.33390000  1.0 -0.0884721972
C  C362  1  0.21090000  0.23260000  0.83390000  1.0 -0.0884721972
C  C363  1  0.17580000  0.37320000  0.30890000  1.0 -0.3090155668
C  C364  1  0.17580000  0.12680000  0.80890000  1.0 -0.3090155668
C  C365  1  0.23370000  0.25320000  0.38460000  1.0 -0.140427761
C  C366  1  0.23370000  0.24680000  0.88460000  1.0 -0.140427761
C  C367  1  0.81780000  0.30850000  0.95170000  1.0 0.4872281082
C  C368  1  0.81780000  0.19150000  0.45170000  1.0 0.4872281082
C  C369  1  0.81220000  0.26800000  0.90760000  1.0 -0.3090155668
C  C370  1  0.81220000  0.23200000  0.40760000  1.0 -0.3090155668
C  C371  1  0.85040000  0.21870000  0.91740000  1.0 -0.1465342878
C  C372  1  0.85040000  0.28130000  0.41740000  1.0 -0.1465342878
C  C373  1  0.86550000  0.21630000  0.97110000  1.0 -0.1043612904
C  C374  1  0.86550000  0.28370000  0.47110000  1.0 -0.1043612904
C  C375  1  0.85620000  0.30050000  0.03100000  1.0 -0.3208798639
C  C376  1  0.85620000  0.19950000  0.53100000  1.0 -0.3208798639
N  N1  1  0.28330000  0.89950000  0.62047000  1.0 -0.2082114987
N  N2  1  0.28330000  0.60050000  0.12047000  1.0 -0.2082114987
N  N3  1  0.77110000  0.06930000  0.10240000  1.0 -0.2082114987
N  N4  1  0.77110000  0.43070000  0.60240000  1.0 -0.2082114987
N  N5  1  0.70170000  0.94960000  0.01220000  1.0 -0.2220852061
N  N6  1  0.70170000  0.55040000  0.51220000  1.0 -0.2220852061
N  N7  1  0.28610000  0.55700000  0.03070000  1.0 -0.239395888
N  N8  1  0.28610000  0.94300000  0.53070000  1.0 -0.2309207868
N  N9  1  0.19461000  0.00100000  0.52431000  1.0 -0.2082114987
N  N10  1  0.19461000  0.49900000  0.02431000  1.0 -0.2082114987
N  N11  1  0.79490000  0.50160000  0.53160000  1.0 -0.2309207868
N  N12  1  0.79490000  0.99840000  0.03160000  1.0 -0.2309207868
N  N13  1  0.79480000  0.83480000  0.15890000  1.0 -0.0511967003
N  N14  1  0.79480000  0.66520000  0.65890000  1.0 -0.0511967003
N  N15  1  0.15210000  0.77790000  0.51730000  1.0 -0.0511967003
N  N16  1  0.15210000  0.72210000  0.01730000  1.0 -0.0511967003
N  N17  1  0.71670000  0.39950000  0.87953000  1.0 -0.2082114987
N  N18  1  0.71670000  0.10050000  0.37953000  1.0 -0.2082114987
N  N19  1  0.22890000  0.56930000  0.39760000  1.0 -0.2082114987
N  N20  1  0.22890000  0.93070000  0.89760000  1.0 -0.2082114987
N  N21  1  0.29830000  0.44960000  0.48780000  1.0 -0.2220852061
N  N22  1  0.29830000  0.05040000  0.98780000  1.0 -0.2220852061
N  N23  1  0.71390000  0.05700000  0.46930000  1.0 -0.239395888
N  N24  1  0.71390000  0.44300000  0.96930000  1.0 -0.2309207868
N  N25  1  0.80539000  0.50100000  0.97569000  1.0 -0.2082114987
N  N26  1  0.80539000  0.99900000  0.47569000  1.0 -0.2082114987
N  N27  1  0.20510000  0.00160000  0.96840000  1.0 -0.2309207868
N  N28  1  0.20510000  0.49840000  0.46840000  1.0 -0.2309207868
N  N29  1  0.20520000  0.33480000  0.34110000  1.0 -0.0511967003
N  N30  1  0.20520000  0.16520000  0.84110000  1.0 -0.0511967003
N  N31  1  0.84790000  0.27790000  0.98270000  1.0 -0.0511967003
N  N32  1  0.84790000  0.22210000  0.48270000  1.0 -0.0511967003
O  O1  1  0.34210000  0.66990000  0.75930000  1.0 -0.140427761
O  O2  1  0.34210000  0.83010000  0.25930000  1.0 -0.140427761
O  O3  1  0.60870000  0.83020000  0.80200000  1.0 -0.140427761
O  O4  1  0.60870000  0.66980000  0.30200000  1.0 -0.140427761
O  O5  1  0.57450000  0.85580000  0.89120000  1.0 -0.3991044547
O  O6  1  0.57450000  0.64420000  0.39120000  1.0 -0.3991044547
O  O7  1  0.12420000  0.14300000  0.39600000  1.0 -0.2309207868
O  O8  1  0.12420000  0.35700000  0.89600000  1.0 -0.2309207868
O  O9  1  0.38870000  0.73610000  0.70500000  1.0 -0.239395888
O  O10  1  0.38870000  0.76390000  0.20500000  1.0 -0.239395888
O  O11  1  0.38580000  0.80710000  0.76190000  1.0 -0.4337913565
O  O12  1  0.38580000  0.69290000  0.26190000  1.0 -0.4337913565
O  O13  1  0.63808000  0.79350000  0.89049000  1.0 -0.2309207868
O  O14  1  0.63808000  0.70650000  0.39049000  1.0 -0.2309207868
O  O15  1  0.50614000  0.59180000  0.00098000  1.0 -0.1098611243
O  O16  1  0.50614000  0.90820000  0.50098000  1.0 -0.1098611243
O  O17  1  0.42469000  0.54140000  0.95713000  1.0 -0.2309207868
O  O18  1  0.42469000  0.95860000  0.45713000  1.0 -0.2309207868
O  O19  1  0.39380000  0.63390000  0.93060000  1.0 -0.4181244643
O  O20  1  0.39380000  0.86610000  0.43060000  1.0 -0.4181244643
O  O21  1  0.82810000  0.30630000  0.24770000  1.0 -0.1465342878
O  O22  1  0.82810000  0.19370000  0.74770000  1.0 -0.1465342878
O  O23  1  0.87315000  0.22000000  0.20475000  1.0 -0.2220852061
O  O24  1  0.87315000  0.28000000  0.70475000  1.0 -0.2220852061
O  O25  1  0.84480000  0.28530000  0.14580000  1.0 -0.4426368422
O  O26  1  0.84480000  0.21470000  0.64580000  1.0 -0.4426368422
O  O27  1  0.08260000  0.09940000  0.31200000  1.0 -0.1195856112
O  O28  1  0.08260000  0.40060000  0.81200000  1.0 -0.1195856112
O  O29  1  0.05921000  0.10680000  0.41890000  1.0 -0.4181244643
O  O30  1  0.05921000  0.39320000  0.91890000  1.0 -0.4181244643
O  O31  1  0.99029000  0.35500000  0.49601000  1.0 -0.1465342878
O  O32  1  0.99029000  0.14500000  0.99601000  1.0 -0.140427761
O  O33  1  0.91304000  0.41450000  0.44940000  1.0 -0.239395888
O  O34  1  0.91304000  0.08550000  0.94940000  1.0 -0.239395888
O  O35  1  0.94560000  0.51040000  0.47230000  1.0 -0.4131288998
O  O36  1  0.94560000  0.98960000  0.97230000  1.0 -0.4181244643
O  O37  1  0.68460000  0.00920000  0.09230000  1.0 -0.6030422819
O  O38  1  0.68460000  0.49080000  0.59230000  1.0 -0.6030422819
O  O39  1  0.76950000  0.91680000  0.10830000  1.0 -0.4893817454
O  O40  1  0.76950000  0.58320000  0.60830000  1.0 -0.4893817454
O  O41  1  0.19471000  0.96010000  0.61689000  1.0 -0.6464565866
O  O42  1  0.19471000  0.53990000  0.11689000  1.0 -0.6464565866
O  O43  1  0.20272000  0.85730000  0.54450000  1.0 -0.4975011586
O  O44  1  0.20272000  0.64270000  0.04450000  1.0 -0.4975011586
O  O45  1  0.65790000  0.16990000  0.74070000  1.0 -0.140427761
O  O46  1  0.65790000  0.33010000  0.24070000  1.0 -0.140427761
O  O47  1  0.39130000  0.33020000  0.69800000  1.0 -0.140427761
O  O48  1  0.39130000  0.16980000  0.19800000  1.0 -0.140427761
O  O49  1  0.42550000  0.35580000  0.60880000  1.0 -0.3991044547
O  O50  1  0.42550000  0.14420000  0.10880000  1.0 -0.3939995639
O  O51  1  0.87580000  0.64300000  0.10400000  1.0 -0.2309207868
O  O52  1  0.87580000  0.85700000  0.60400000  1.0 -0.2309207868
O  O53  1  0.61130000  0.23610000  0.79500000  1.0 -0.239395888
O  O54  1  0.61130000  0.26390000  0.29500000  1.0 -0.239395888
O  O55  1  0.61420000  0.30710000  0.73810000  1.0 -0.4337913565
O  O56  1  0.61420000  0.19290000  0.23810000  1.0 -0.4337913565
O  O57  1  0.36192000  0.29350000  0.60951000  1.0 -0.2309207868
O  O58  1  0.36192000  0.20650000  0.10951000  1.0 -0.2309207868
O  O59  1  0.49386000  0.09180000  0.49902000  1.0 -0.1098611243
O  O60  1  0.49386000  0.40820000  0.99902000  1.0 -0.1098611243
O  O61  1  0.57531000  0.04140000  0.54287000  1.0 -0.2309207868
O  O62  1  0.57531000  0.45860000  0.04287000  1.0 -0.2309207868
O  O63  1  0.60620000  0.13390000  0.56940000  1.0 -0.4181244643
O  O64  1  0.60620000  0.36610000  0.06940000  1.0 -0.4181244643
O  O65  1  0.17190000  0.80630000  0.25230000  1.0 -0.1465342878
O  O66  1  0.17190000  0.69370000  0.75230000  1.0 -0.1465342878
O  O67  1  0.12685000  0.72000000  0.29525000  1.0 -0.2220852061
O  O68  1  0.12685000  0.78000000  0.79525000  1.0 -0.2220852061
O  O69  1  0.15520000  0.78530000  0.35420000  1.0 -0.4426368422
O  O70  1  0.15520000  0.71470000  0.85420000  1.0 -0.4426368422
O  O71  1  0.91740000  0.59940000  0.18800000  1.0 -0.1195856112
O  O72  1  0.91740000  0.90060000  0.68800000  1.0 -0.1195856112
O  O73  1  0.94079000  0.60680000  0.08110000  1.0 -0.4181244643
O  O74  1  0.94079000  0.89320000  0.58110000  1.0 -0.4181244643
O  O75  1  0.00971000  0.85500000  0.00399000  1.0 -0.140427761
O  O76  1  0.00971000  0.64500000  0.50399000  1.0 -0.140427761
O  O77  1  0.08696000  0.91450000  0.05060000  1.0 -0.239395888
O  O78  1  0.08696000  0.58550000  0.55060000  1.0 -0.239395888
O  O79  1  0.05440000  0.01040000  0.02770000  1.0 -0.4131288998
O  O80  1  0.05440000  0.48960000  0.52770000  1.0 -0.4131288998
O  O81  1  0.31540000  0.50920000  0.40770000  1.0 -0.6092872194
O  O82  1  0.31540000  0.99080000  0.90770000  1.0 -0.6030422819
O  O83  1  0.23050000  0.41680000  0.39170000  1.0 -0.4893817454
O  O84  1  0.23050000  0.08320000  0.89170000  1.0 -0.4893817454
O  O85  1  0.80529000  0.46010000  0.88311000  1.0 -0.6464565866
O  O86  1  0.80529000  0.03990000  0.38311000  1.0 -0.6464565866
O  O87  1  0.79728000  0.35730000  0.95550000  1.0 -0.4975011586
O  O88  1  0.79728000  0.14270000  0.45550000  1.0 -0.4975011586
F  F1  1  0.34810000  0.37530000  0.02120000  1.0 -0.4893817454
F  F2  1  0.34520000  0.34180000  0.94780000  1.0 -0.4893817454
F  F3  1  0.34320000  0.27290000  0.00420000  1.0 -0.4893817454
F  F4  1  0.28030000  0.33730000  0.98000000  1.0 -0.4893817454
F  F5  1  0.65190000  0.87530000  0.47880000  1.0 -0.4893817454
F  F6  1  0.65480000  0.84180000  0.55220000  1.0 -0.4893817454
F  F7  1  0.65680000  0.77290000  0.49580000  1.0 -0.4893817454
F  F8  1  0.71970000  0.83730000  0.52000000  1.0 -0.4975011586
F  F9  1  0.65190000  0.62470000  0.97880000  1.0 -0.4893817454
F  F10  1  0.65480000  0.65820000  0.05220000  1.0 -0.4893817454
F  F11  1  0.65680000  0.72710000  0.99580000  1.0 -0.4893817454
F  F12  1  0.71970000  0.66270000  0.02000000  1.0 -0.4975011586
F  F13  1  0.34810000  0.12470000  0.52120000  1.0 -0.4893817454
F  F14  1  0.34520000  0.15820000  0.44780000  1.0 -0.4893817454
F  F15  1  0.34320000  0.22710000  0.50420000  1.0 -0.4893817454
F  F16  1  0.28030000  0.16270000  0.48000000  1.0 -0.4893817454
F  F17  1  0.72950000  0.22990000  0.00710000  1.0 -0.4817214646
F  F18  1  0.74930000  0.17350000  0.95160000  1.0 -0.4817214646
F  F19  1  0.67910000  0.21970000  0.94250000  1.0 -0.4580959327
F  F20  1  0.69580000  0.13230000  0.98777000  1.0 -0.4893817454
F  F21  1  0.27050000  0.72990000  0.49290000  1.0 -0.4817214646
F  F22  1  0.25070000  0.67350000  0.54840000  1.0 -0.4817214646
F  F23  1  0.32090000  0.71970000  0.55750000  1.0 -0.4580959327
F  F24  1  0.30420000  0.63230000  0.51223000  1.0 -0.4893817454
F  F25  1  0.27050000  0.77010000  0.99290000  1.0 -0.4817214646
F  F26  1  0.25070000  0.82650000  0.04840000  1.0 -0.4817214646
F  F27  1  0.32090000  0.78030000  0.05750000  1.0 -0.4580959327
F  F28  1  0.30420000  0.86770000  0.01223000  1.0 -0.4893817454
F  F29  1  0.72950000  0.27010000  0.50710000  1.0 -0.4817214646
F  F30  1  0.74930000  0.32650000  0.45160000  1.0 -0.4817214646
F  F31  1  0.67910000  0.28030000  0.44250000  1.0 -0.4580959327
F  F32  1  0.69580000  0.36770000  0.48777000  1.0 -0.4893817454
F  F33  1  0.92170000  0.07120000  0.23950000  1.0 -0.3991044547
F  F34  1  0.94370000  0.97000000  0.25440000  1.0 -0.4975011586
F  F35  1  0.87260000  0.01790000  0.24960000  1.0 -0.3790228463
F  F36  1  0.90000000  0.99610000  0.18700000  1.0 -0.4893817454
F  F37  1  0.07830000  0.57120000  0.26050000  1.0 -0.3991044547
F  F38  1  0.05630000  0.47000000  0.24560000  1.0 -0.4893817454
F  F39  1  0.12740000  0.51790000  0.25040000  1.0 -0.3790228463
F  F40  1  0.10000000  0.49610000  0.31300000  1.0 -0.4817214646
F  F41  1  0.07830000  0.92880000  0.76050000  1.0 -0.3991044547
F  F42  1  0.05630000  0.03000000  0.74560000  1.0 -0.4975011586
F  F43  1  0.12740000  0.98210000  0.75040000  1.0 -0.3790228463
F  F44  1  0.10000000  0.00390000  0.81300000  1.0 -0.4893817454
F  F45  1  0.92170000  0.42880000  0.73950000  1.0 -0.3991044547
F  F46  1  0.94370000  0.53000000  0.75440000  1.0 -0.4975011586
F  F47  1  0.87260000  0.48210000  0.74960000  1.0 -0.3790228463
F  F48  1  0.90000000  0.50390000  0.68700000  1.0 -0.4893817454
