# DDEC6 charges by PACMAN v1.1 (https://github.com/mtap-research/PACMAN-charge/)
data_CUSBIE_FSR_pacman
_symmetry_space_group_name_H-M   'P 1'
_cell_length_a   17.28520000
_cell_length_b   17.28520000
_cell_length_c   9.44090000
_cell_angle_alpha   79.83890000
_cell_angle_beta   100.16100000
_cell_angle_gamma   143.15400000
_symmetry_Int_Tables_number   1
_chemical_formula_structural   Li3CuH11C17N5O9
_chemical_formula_sum   'Li12 Cu4 H44 C68 N20 O36'
_cell_volume   1661.99972252
_cell_formula_units_Z   4
loop_
 _symmetry_equiv_pos_site_id
 _symmetry_equiv_pos_as_xyz
  1  'x, y, z'
loop_
 _atom_site_type_symbol
 _atom_site_label
 _atom_site_symmetry_multiplicity
 _atom_site_fract_x
 _atom_site_fract_y
 _atom_site_fract_z
 _atom_site_occupancy
 _atom_site_charge
Li  Li1  1  0.34533000  0.13281000  0.36075000  1.0 0.5955289553
Li  Li2  1  0.82116000  0.67136000  0.20445000  1.0 0.6915584157
Li  Li3  1  0.74528000  0.62818000  0.45275000  1.0 0.678826044
Li  Li4  1  0.13281000  0.34533000  0.13925000  1.0 0.5955289553
Li  Li5  1  0.67136000  0.82116000  0.29555000  1.0 0.6915584157
Li  Li6  1  0.62818000  0.74528000  0.04725000  1.0 0.678826044
Li  Li7  1  0.65467000  0.86719000  0.63925000  1.0 0.5955289553
Li  Li8  1  0.17884000  0.32864000  0.79555000  1.0 0.6915584157
Li  Li9  1  0.25472000  0.37182000  0.54725000  1.0 0.678826044
Li  Li10  1  0.86719000  0.65467000  0.86075000  1.0 0.594338889
Li  Li11  1  0.32864000  0.17884000  0.70445000  1.0 0.6915584157
Li  Li12  1  0.37182000  0.25472000  0.95275000  1.0 0.678826044
Cu  Cu1  1  0.86214000  0.36256000  0.09330000  1.0 0.5365973215
Cu  Cu2  1  0.36256000  0.86214000  0.40670000  1.0 0.5365973215
Cu  Cu3  1  0.13786000  0.63744000  0.90670000  1.0 0.5365973215
Cu  Cu4  1  0.63744000  0.13786000  0.59330000  1.0 0.5365973215
H  H1  1  0.51190000  0.94446000  0.80016000  1.0 0.1226099038
H  H2  1  0.55603000  0.89871000  0.01409000  1.0 0.1938178043
H  H3  1  0.26737000  0.23583000  0.53664000  1.0 0.0997430945
H  H4  1  0.37573000  0.23299000  0.43481000  1.0 0.1371255766
H  H5  1  0.61507000  0.59993000  0.31841000  1.0 0.0695033769
H  H6  1  0.49660000  0.57890000  0.40982000  1.0 0.0997430945
H  H7  1  0.46867000  0.23469000  0.32006000  1.0 0.2358539055
H  H8  1  0.48347000  0.15627000  0.18098000  1.0 0.1473808239
H  H9  1  0.61609000  0.17233000  0.11607000  1.0 0.0997430945
H  H10  1  0.78736000  0.52586000  0.25328000  1.0 0.2654219518
H  H11  1  0.91073000  0.53097000  0.19026000  1.0 0.1772805254
H  H12  1  0.94446000  0.51190000  0.69984000  1.0 0.1226099038
H  H13  1  0.89871000  0.55603000  0.48591000  1.0 0.1938178043
H  H14  1  0.23583000  0.26737000  0.96336000  1.0 0.0997430945
H  H15  1  0.23299000  0.37573000  0.06519000  1.0 0.1371255766
H  H16  1  0.59993000  0.61507000  0.18159000  1.0 0.0695033769
H  H17  1  0.57890000  0.49660000  0.09018000  1.0 0.0997430945
H  H18  1  0.23469000  0.46867000  0.17994000  1.0 0.2358539055
H  H19  1  0.15627000  0.48347000  0.31902000  1.0 0.1473808239
H  H20  1  0.17233000  0.61609000  0.38393000  1.0 0.0997430945
H  H21  1  0.52586000  0.78736000  0.24672000  1.0 0.2654219518
H  H22  1  0.53097000  0.91073000  0.30974000  1.0 0.1772805254
H  H23  1  0.48810000  0.05554000  0.19984000  1.0 0.1226099038
H  H24  1  0.44397000  0.10129000  0.98591000  1.0 0.1938178043
H  H25  1  0.73263000  0.76417000  0.46336000  1.0 0.0997430945
H  H26  1  0.62427000  0.76701000  0.56519000  1.0 0.1371255766
H  H27  1  0.38493000  0.40007000  0.68159000  1.0 0.0695033769
H  H28  1  0.50340000  0.42110000  0.59018000  1.0 0.0997430945
H  H29  1  0.53133000  0.76531000  0.67994000  1.0 0.2358539055
H  H30  1  0.51653000  0.84373000  0.81902000  1.0 0.1473808239
H  H31  1  0.38391000  0.82767000  0.88393000  1.0 0.0997430945
H  H32  1  0.21264000  0.47414000  0.74672000  1.0 0.2654219518
H  H33  1  0.08927000  0.46903000  0.80974000  1.0 0.1772805254
H  H34  1  0.05554000  0.48810000  0.30016000  1.0 0.1226099038
H  H35  1  0.10129000  0.44397000  0.51409000  1.0 0.1938178043
H  H36  1  0.76417000  0.73263000  0.03664000  1.0 0.0997430945
H  H37  1  0.76701000  0.62427000  0.93481000  1.0 0.1371255766
H  H38  1  0.40007000  0.38493000  0.81841000  1.0 0.0695033769
H  H39  1  0.42110000  0.50340000  0.90982000  1.0 0.0997430945
H  H40  1  0.76531000  0.53133000  0.82006000  1.0 0.2343178699
H  H41  1  0.84373000  0.51653000  0.68098000  1.0 0.1473808239
H  H42  1  0.82767000  0.38391000  0.61607000  1.0 0.0997430945
H  H43  1  0.47414000  0.21264000  0.75328000  1.0 0.2654219518
H  H44  1  0.46903000  0.08927000  0.69026000  1.0 0.1772805254
C  C1  1  0.82919000  0.18709000  0.94201000  1.0 0.0997430945
C  C2  1  0.81147000  0.20985000  0.82858000  1.0 0.1109017289
C  C3  1  0.59868000  0.00888000  0.83930000  1.0 -0.0022412694
C  C4  1  0.62441000  0.98289000  0.96896000  1.0 -0.0550608982
C  C5  1  0.98463000  0.34037000  0.98542000  1.0 0.2343178699
C  C6  1  0.91227000  0.30531000  0.69113000  1.0 0.0695033769
C  C7  1  0.32422000  0.29392000  0.48249000  1.0 -0.0063147013
C  C8  1  0.40161000  0.30411000  0.42817000  1.0 -0.1680285831
C  C9  1  0.51131000  0.42025000  0.36173000  1.0 -0.0736658399
C  C10  1  0.54011000  0.52211000  0.35452000  1.0 -0.108359231
C  C11  1  0.45780000  0.50294000  0.41344000  1.0 -0.0277704162
C  C12  1  0.57945000  0.42417000  0.30760000  1.0 0.1226099038
C  C13  1  0.61691000  0.33703000  0.22754000  1.0 0.1668724704
C  C14  1  0.56651000  0.22951000  0.18346000  1.0 -0.2435792809
C  C15  1  0.64674000  0.24012000  0.14270000  1.0 -0.0415522618
C  C16  1  0.82578000  0.45756000  0.18914000  1.0 -0.0277704162
C  C17  1  0.75078000  0.45354000  0.23109000  1.0 -0.2120208082
C  C18  1  0.18709000  0.82919000  0.55799000  1.0 0.0997430945
C  C19  1  0.20985000  0.81147000  0.67142000  1.0 0.1109017289
C  C20  1  0.00888000  0.59868000  0.66070000  1.0 -0.0022412694
C  C21  1  0.98289000  0.62441000  0.53104000  1.0 -0.0516849204
C  C22  1  0.34037000  0.98463000  0.51458000  1.0 0.2343178699
C  C23  1  0.30531000  0.91227000  0.80887000  1.0 0.0695033769
C  C24  1  0.29392000  0.32422000  0.01751000  1.0 -0.0063147013
C  C25  1  0.30411000  0.40161000  0.07183000  1.0 -0.1680285831
C  C26  1  0.42025000  0.51131000  0.13827000  1.0 -0.0736658399
C  C27  1  0.52211000  0.54011000  0.14548000  1.0 -0.108359231
C  C28  1  0.50294000  0.45780000  0.08656000  1.0 -0.0277704162
C  C29  1  0.42417000  0.57945000  0.19240000  1.0 0.1226099038
C  C30  1  0.33703000  0.61691000  0.27246000  1.0 0.1668724704
C  C31  1  0.22951000  0.56651000  0.31654000  1.0 -0.2435792809
C  C32  1  0.24012000  0.64674000  0.35730000  1.0 -0.0415522618
C  C33  1  0.45756000  0.82578000  0.31086000  1.0 -0.0277704162
C  C34  1  0.45354000  0.75078000  0.26891000  1.0 -0.2120208082
C  C35  1  0.17081000  0.81291000  0.05799000  1.0 0.0997430945
C  C36  1  0.18853000  0.79015000  0.17142000  1.0 0.1109017289
C  C37  1  0.40132000  0.99112000  0.16070000  1.0 -0.0022412694
C  C38  1  0.37559000  0.01711000  0.03104000  1.0 -0.0516849204
C  C39  1  0.01537000  0.65963000  0.01458000  1.0 0.2343178699
C  C40  1  0.08773000  0.69469000  0.30887000  1.0 0.0695033769
C  C41  1  0.67578000  0.70608000  0.51751000  1.0 -0.0063147013
C  C42  1  0.59839000  0.69589000  0.57183000  1.0 -0.1680285831
C  C43  1  0.48869000  0.57975000  0.63827000  1.0 -0.0736658399
C  C44  1  0.45989000  0.47789000  0.64548000  1.0 -0.108359231
C  C45  1  0.54220000  0.49706000  0.58656000  1.0 -0.0277704162
C  C46  1  0.42055000  0.57583000  0.69240000  1.0 0.1226099038
C  C47  1  0.38309000  0.66297000  0.77246000  1.0 0.1668724704
C  C48  1  0.43349000  0.77049000  0.81654000  1.0 -0.2435792809
C  C49  1  0.35326000  0.75988000  0.85730000  1.0 -0.0415522618
C  C50  1  0.17422000  0.54244000  0.81086000  1.0 -0.0277704162
C  C51  1  0.24922000  0.54646000  0.76891000  1.0 -0.2120208082
C  C52  1  0.81291000  0.17081000  0.44201000  1.0 0.0997430945
C  C53  1  0.79015000  0.18853000  0.32858000  1.0 0.1109017289
C  C54  1  0.99112000  0.40132000  0.33930000  1.0 -0.0022412694
C  C55  1  0.01711000  0.37559000  0.46896000  1.0 -0.0550608982
C  C56  1  0.65963000  0.01537000  0.48542000  1.0 0.2343178699
C  C57  1  0.69469000  0.08773000  0.19113000  1.0 0.0695033769
C  C58  1  0.70608000  0.67578000  0.98249000  1.0 -0.0063147013
C  C59  1  0.69589000  0.59839000  0.92817000  1.0 -0.1680285831
C  C60  1  0.57975000  0.48869000  0.86173000  1.0 -0.0736658399
C  C61  1  0.47789000  0.45989000  0.85452000  1.0 -0.108359231
C  C62  1  0.49706000  0.54220000  0.91344000  1.0 -0.0277704162
C  C63  1  0.57583000  0.42055000  0.80760000  1.0 0.1226099038
C  C64  1  0.66297000  0.38309000  0.72754000  1.0 0.1668724704
C  C65  1  0.77049000  0.43349000  0.68346000  1.0 -0.2435792809
C  C66  1  0.75988000  0.35326000  0.64270000  1.0 -0.0415522618
C  C67  1  0.54244000  0.17422000  0.68914000  1.0 -0.0277704162
C  C68  1  0.54646000  0.24922000  0.73109000  1.0 -0.2120208082
N  N1  1  0.74204000  0.07078000  0.03623000  1.0 0.2820671747
N  N2  1  0.69119000  0.12197000  0.76429000  1.0 -0.2259310012
N  N3  1  0.35035000  0.39035000  0.47565000  1.0 -0.1974630703
N  N4  1  0.53120000  0.32156000  0.26718000  1.0 -0.0516849204
N  N5  1  0.77440000  0.35346000  0.14616000  1.0 -0.108359231
N  N6  1  0.07078000  0.74204000  0.46377000  1.0 0.2820671747
N  N7  1  0.12197000  0.69119000  0.73571000  1.0 -0.2259310012
N  N8  1  0.39035000  0.35035000  0.02435000  1.0 -0.1974630703
N  N9  1  0.32156000  0.53120000  0.23282000  1.0 -0.0516849204
N  N10  1  0.35346000  0.77440000  0.35384000  1.0 -0.108359231
N  N11  1  0.25796000  0.92922000  0.96377000  1.0 0.2820671747
N  N12  1  0.30881000  0.87803000  0.23571000  1.0 -0.2259310012
N  N13  1  0.64965000  0.60965000  0.52435000  1.0 -0.1974630703
N  N14  1  0.46880000  0.67844000  0.73282000  1.0 -0.0516849204
N  N15  1  0.22560000  0.64654000  0.85384000  1.0 -0.108359231
N  N16  1  0.92922000  0.25796000  0.53623000  1.0 0.2820671747
N  N17  1  0.87803000  0.30881000  0.26429000  1.0 -0.2259310012
N  N18  1  0.60965000  0.64965000  0.97565000  1.0 -0.1974630703
N  N19  1  0.67844000  0.46880000  0.76718000  1.0 -0.0516849204
N  N20  1  0.64654000  0.22560000  0.64616000  1.0 -0.108359231
O  O1  1  0.10535000  0.36847000  0.01587000  1.0 -0.5598787342
O  O2  1  0.01684000  0.44400000  0.97214000  1.0 -0.5119479646
O  O3  1  0.05025000  0.38139000  0.68924000  1.0 0.0014865973
O  O4  1  0.83456000  0.26804000  0.54951000  1.0 -0.2435792809
O  O5  1  0.69970000  0.50868000  0.30417000  1.0 -0.4556535979
O  O6  1  0.39180000  0.22732000  0.16586000  1.0 -0.5921365966
O  O7  1  0.76882000  0.01582000  0.94042000  1.0 -0.3133996104
O  O8  1  0.01703000  0.26385000  0.78712000  1.0 -0.4511021872
O  O9  1  0.17748000  0.01782000  0.35375000  1.0 -0.5598787342
O  O10  1  0.36847000  0.10535000  0.48413000  1.0 -0.5598787342
O  O11  1  0.44400000  0.01684000  0.52786000  1.0 -0.5119479646
O  O12  1  0.38139000  0.05025000  0.81076000  1.0 0.0014865973
O  O13  1  0.26804000  0.83456000  0.95049000  1.0 -0.2435792809
O  O14  1  0.50868000  0.69970000  0.19583000  1.0 -0.4556535979
O  O15  1  0.22732000  0.39180000  0.33414000  1.0 -0.5921365966
O  O16  1  0.01582000  0.76882000  0.55958000  1.0 -0.3133996104
O  O17  1  0.26385000  0.01703000  0.71288000  1.0 -0.4511021872
O  O18  1  0.01782000  0.17748000  0.14625000  1.0 -0.5598787342
O  O19  1  0.89465000  0.63153000  0.98413000  1.0 -0.5598787342
O  O20  1  0.98316000  0.55600000  0.02786000  1.0 -0.5119479646
O  O21  1  0.94975000  0.61861000  0.31076000  1.0 -0.0022412694
O  O22  1  0.16544000  0.73196000  0.45049000  1.0 -0.2435792809
O  O23  1  0.30030000  0.49132000  0.69583000  1.0 -0.4556535979
O  O24  1  0.60820000  0.77268000  0.83414000  1.0 -0.5921365966
O  O25  1  0.23118000  0.98418000  0.05958000  1.0 -0.3133996104
O  O26  1  0.98297000  0.73615000  0.21288000  1.0 -0.4511021872
O  O27  1  0.82252000  0.98218000  0.64625000  1.0 -0.5598787342
O  O28  1  0.63153000  0.89465000  0.51587000  1.0 -0.5598787342
O  O29  1  0.55600000  0.98316000  0.47214000  1.0 -0.5119479646
O  O30  1  0.61861000  0.94975000  0.18924000  1.0 -0.0022412694
O  O31  1  0.73196000  0.16544000  0.04951000  1.0 -0.2435792809
O  O32  1  0.49132000  0.30030000  0.80417000  1.0 -0.4556535979
O  O33  1  0.77268000  0.60820000  0.66586000  1.0 -0.5921365966
O  O34  1  0.98418000  0.23118000  0.44042000  1.0 -0.3133996104
O  O35  1  0.73615000  0.98297000  0.28712000  1.0 -0.4511021872
O  O36  1  0.98218000  0.82252000  0.85375000  1.0 -0.5598787342
