# DDEC6 charges by PACMAN v1.1 (https://github.com/mtap-research/PACMAN-charge/)
data_CUSXOE_ASR_pacman
_symmetry_space_group_name_H-M   'P 1'
_cell_length_a   52.02200000
_cell_length_b   52.02200000
_cell_length_c   42.31600000
_cell_angle_alpha   90.00000000
_cell_angle_beta   90.00000000
_cell_angle_gamma   120.00000000
_symmetry_Int_Tables_number   1
_chemical_formula_structural   Zn10H120C192O35
_chemical_formula_sum   'Zn40 H480 C768 O140'
_cell_volume   99176.62604513
_cell_formula_units_Z   4
loop_
 _symmetry_equiv_pos_site_id
 _symmetry_equiv_pos_as_xyz
  1  'x, y, z'
loop_
 _atom_site_type_symbol
 _atom_site_label
 _atom_site_symmetry_multiplicity
 _atom_site_fract_x
 _atom_site_fract_y
 _atom_site_fract_z
 _atom_site_occupancy
 _atom_site_charge
Zn  Zn1  1  0.20796000  0.35671000  0.25799000  1.0 0.8882393914
Zn  Zn2  1  0.64329000  0.85126000  0.25799000  1.0 0.8882393914
Zn  Zn3  1  0.14874000  0.79204000  0.25799000  1.0 0.8882393914
Zn  Zn4  1  0.64329000  0.79204000  0.24201000  1.0 0.8882393914
Zn  Zn5  1  0.14874000  0.35671000  0.24201000  1.0 0.8882393914
Zn  Zn6  1  0.20796000  0.85126000  0.24201000  1.0 0.8882393914
Zn  Zn7  1  0.79204000  0.64329000  0.74201000  1.0 0.8882393914
Zn  Zn8  1  0.35671000  0.14874000  0.74201000  1.0 0.8882393914
Zn  Zn9  1  0.85126000  0.20796000  0.74201000  1.0 0.8882393914
Zn  Zn10  1  0.35671000  0.20796000  0.75799000  1.0 0.8882393914
Zn  Zn11  1  0.85126000  0.64329000  0.75799000  1.0 0.8882393914
Zn  Zn12  1  0.79204000  0.14874000  0.75799000  1.0 0.8882393914
Zn  Zn13  1  0.14742000  0.30703000  0.28706000  1.0 0.9596044896
Zn  Zn14  1  0.69297000  0.84040000  0.28706000  1.0 0.9596044896
Zn  Zn15  1  0.15960000  0.85258000  0.28706000  1.0 0.9596044896
Zn  Zn16  1  0.69297000  0.85258000  0.21294000  1.0 0.9596044896
Zn  Zn17  1  0.15960000  0.30703000  0.21294000  1.0 0.9596044896
Zn  Zn18  1  0.14742000  0.84040000  0.21294000  1.0 0.9596044896
Zn  Zn19  1  0.85258000  0.69297000  0.71294000  1.0 0.9596044896
Zn  Zn20  1  0.30703000  0.15960000  0.71294000  1.0 0.9596044896
Zn  Zn21  1  0.84040000  0.14742000  0.71294000  1.0 0.9596044896
Zn  Zn22  1  0.30703000  0.14742000  0.78706000  1.0 0.9596044896
Zn  Zn23  1  0.84040000  0.69297000  0.78706000  1.0 0.9596044896
Zn  Zn24  1  0.85258000  0.15960000  0.78706000  1.0 0.9596044896
Zn  Zn25  1  0.36516000  0.66092000  0.72810000  1.0 0.5242620635
Zn  Zn26  1  0.33908000  0.70425000  0.72810000  1.0 0.5242620635
Zn  Zn27  1  0.29575000  0.63484000  0.72810000  1.0 0.5242620635
Zn  Zn28  1  0.33908000  0.63484000  0.77190000  1.0 0.5242620635
Zn  Zn29  1  0.29575000  0.66092000  0.77190000  1.0 0.5242620635
Zn  Zn30  1  0.36516000  0.70425000  0.77190000  1.0 0.5242620635
Zn  Zn31  1  0.63484000  0.33908000  0.27190000  1.0 0.5242620635
Zn  Zn32  1  0.66092000  0.29575000  0.27190000  1.0 0.5242620635
Zn  Zn33  1  0.70425000  0.36516000  0.27190000  1.0 0.5242620635
Zn  Zn34  1  0.66092000  0.36516000  0.22810000  1.0 0.5242620635
Zn  Zn35  1  0.70425000  0.33908000  0.22810000  1.0 0.5242620635
Zn  Zn36  1  0.63484000  0.29575000  0.22810000  1.0 0.5242620635
Zn  Zn37  1  0.33333333  0.66666667  0.70985000  1.0 0.3910337422
Zn  Zn38  1  0.33333333  0.66666667  0.79015000  1.0 0.3910337422
Zn  Zn39  1  0.66666667  0.33333333  0.29015000  1.0 0.3910337422
Zn  Zn40  1  0.66666667  0.33333333  0.20985000  1.0 0.3910337422
H  H1  1  0.28680000  0.35380000  0.55350000  1.0 0.1101232221
H  H2  1  0.64620000  0.93301000  0.55350000  1.0 0.1101232221
H  H3  1  0.06699000  0.71320000  0.55350000  1.0 0.1101232221
H  H4  1  0.64620000  0.71320000  0.94650000  1.0 0.1101232221
H  H5  1  0.06699000  0.35380000  0.94650000  1.0 0.1101232221
H  H6  1  0.28680000  0.93301000  0.94650000  1.0 0.1101232221
H  H7  1  0.71320000  0.64620000  0.44650000  1.0 0.1101232221
H  H8  1  0.35380000  0.06699000  0.44650000  1.0 0.1011852186
H  H9  1  0.93301000  0.28680000  0.44650000  1.0 0.1101232221
H  H10  1  0.35380000  0.28680000  0.05350000  1.0 0.1101232221
H  H11  1  0.93301000  0.64620000  0.05350000  1.0 0.1101232221
H  H12  1  0.71320000  0.06699000  0.05350000  1.0 0.1011852186
H  H13  1  0.31100000  0.40660000  0.63000000  1.0 0.1101232221
H  H14  1  0.59340000  0.90441000  0.63000000  1.0 0.1101232221
H  H15  1  0.09559000  0.68900000  0.63000000  1.0 0.1101232221
H  H16  1  0.59340000  0.68900000  0.87000000  1.0 0.1101232221
H  H17  1  0.09559000  0.40660000  0.87000000  1.0 0.1101232221
H  H18  1  0.31100000  0.90441000  0.87000000  1.0 0.1101232221
H  H19  1  0.68900000  0.59340000  0.37000000  1.0 0.1101232221
H  H20  1  0.40660000  0.09559000  0.37000000  1.0 0.1101232221
H  H21  1  0.90441000  0.31100000  0.37000000  1.0 0.1101232221
H  H22  1  0.40660000  0.31100000  0.13000000  1.0 0.1101232221
H  H23  1  0.90441000  0.59340000  0.13000000  1.0 0.1101232221
H  H24  1  0.68900000  0.09559000  0.13000000  1.0 0.1101232221
H  H25  1  0.28520000  0.43020000  0.55090000  1.0 0.1011852186
H  H26  1  0.56980000  0.85501000  0.55090000  1.0 0.1011852186
H  H27  1  0.14499000  0.71480000  0.55090000  1.0 0.1101232221
H  H28  1  0.56980000  0.71480000  0.94910000  1.0 0.1011852186
H  H29  1  0.14499000  0.43020000  0.94910000  1.0 0.1101232221
H  H30  1  0.28520000  0.85501000  0.94910000  1.0 0.1101232221
H  H31  1  0.71480000  0.56980000  0.44910000  1.0 0.1101232221
H  H32  1  0.43020000  0.14499000  0.44910000  1.0 0.1011852186
H  H33  1  0.85501000  0.28520000  0.44910000  1.0 0.1101232221
H  H34  1  0.43020000  0.28520000  0.05090000  1.0 0.1101232221
H  H35  1  0.85501000  0.56980000  0.05090000  1.0 0.1101232221
H  H36  1  0.71480000  0.14499000  0.05090000  1.0 0.1101232221
H  H37  1  0.22910000  0.32870000  0.46730000  1.0 0.1101232221
H  H38  1  0.67130000  0.90041000  0.46730000  1.0 0.1101232221
H  H39  1  0.09959000  0.77090000  0.46730000  1.0 0.1101232221
H  H40  1  0.67130000  0.77090000  0.03270000  1.0 0.1101232221
H  H41  1  0.09959000  0.32870000  0.03270000  1.0 0.1101232221
H  H42  1  0.22910000  0.90041000  0.03270000  1.0 0.1101232221
H  H43  1  0.77090000  0.67130000  0.53270000  1.0 0.1101232221
H  H44  1  0.32870000  0.09959000  0.53270000  1.0 0.1101232221
H  H45  1  0.90041000  0.22910000  0.53270000  1.0 0.1101232221
H  H46  1  0.32870000  0.22910000  0.96730000  1.0 0.1101232221
H  H47  1  0.90041000  0.67130000  0.96730000  1.0 0.1101232221
H  H48  1  0.77090000  0.09959000  0.96730000  1.0 0.1101232221
H  H49  1  0.24740000  0.33900000  0.51850000  1.0 0.1101232221
H  H50  1  0.66100000  0.90841000  0.51850000  1.0 0.1101232221
H  H51  1  0.09159000  0.75260000  0.51850000  1.0 0.1101232221
H  H52  1  0.66100000  0.75260000  0.98150000  1.0 0.1101232221
H  H53  1  0.09159000  0.33900000  0.98150000  1.0 0.1101232221
H  H54  1  0.24740000  0.90841000  0.98150000  1.0 0.1101232221
H  H55  1  0.75260000  0.66100000  0.48150000  1.0 0.1101232221
H  H56  1  0.33900000  0.09159000  0.48150000  1.0 0.1101232221
H  H57  1  0.90841000  0.24740000  0.48150000  1.0 0.1101232221
H  H58  1  0.33900000  0.24740000  0.01850000  1.0 0.1101232221
H  H59  1  0.90841000  0.66100000  0.01850000  1.0 0.1101232221
H  H60  1  0.75260000  0.09159000  0.01850000  1.0 0.1101232221
H  H61  1  0.29190000  0.42610000  0.49830000  1.0 0.1201670456
H  H62  1  0.57390000  0.86581000  0.49830000  1.0 0.1201670456
H  H63  1  0.13419000  0.70810000  0.49830000  1.0 0.1201670456
H  H64  1  0.57390000  0.70810000  0.00170000  1.0 0.1201670456
H  H65  1  0.13419000  0.42610000  0.00170000  1.0 0.1201670456
H  H66  1  0.29190000  0.86581000  0.00170000  1.0 0.1201670456
H  H67  1  0.70810000  0.57390000  0.50170000  1.0 0.1201670456
H  H68  1  0.42610000  0.13419000  0.50170000  1.0 0.1201670456
H  H69  1  0.86581000  0.29190000  0.50170000  1.0 0.1201670456
H  H70  1  0.42610000  0.29190000  0.99830000  1.0 0.1201670456
H  H71  1  0.86581000  0.57390000  0.99830000  1.0 0.1201670456
H  H72  1  0.70810000  0.13419000  0.99830000  1.0 0.1201670456
H  H73  1  0.27360000  0.41580000  0.44710000  1.0 0.1101232221
H  H74  1  0.58420000  0.85781000  0.44710000  1.0 0.1101232221
H  H75  1  0.14219000  0.72640000  0.44710000  1.0 0.1101232221
H  H76  1  0.58420000  0.72640000  0.05290000  1.0 0.1101232221
H  H77  1  0.14219000  0.41580000  0.05290000  1.0 0.1101232221
H  H78  1  0.27360000  0.85781000  0.05290000  1.0 0.1101232221
H  H79  1  0.72640000  0.58420000  0.55290000  1.0 0.1101232221
H  H80  1  0.41580000  0.14219000  0.55290000  1.0 0.1101232221
H  H81  1  0.85781000  0.27360000  0.55290000  1.0 0.1101232221
H  H82  1  0.41580000  0.27360000  0.94710000  1.0 0.1101232221
H  H83  1  0.85781000  0.58420000  0.94710000  1.0 0.1101232221
H  H84  1  0.72640000  0.14219000  0.94710000  1.0 0.1101232221
H  H85  1  0.17790000  0.32040000  0.37960000  1.0 0.1201670456
H  H86  1  0.67960000  0.85751000  0.37960000  1.0 0.1201670456
H  H87  1  0.14249000  0.82210000  0.37960000  1.0 0.1201670456
H  H88  1  0.67960000  0.82210000  0.12040000  1.0 0.1201670456
H  H89  1  0.14249000  0.32040000  0.12040000  1.0 0.1201670456
H  H90  1  0.17790000  0.85751000  0.12040000  1.0 0.1201670456
H  H91  1  0.82210000  0.67960000  0.62040000  1.0 0.1201670456
H  H92  1  0.32040000  0.14249000  0.62040000  1.0 0.1201670456
H  H93  1  0.85751000  0.17790000  0.62040000  1.0 0.1201670456
H  H94  1  0.32040000  0.17790000  0.87960000  1.0 0.1201670456
H  H95  1  0.85751000  0.67960000  0.87960000  1.0 0.1201670456
H  H96  1  0.82210000  0.14249000  0.87960000  1.0 0.1201670456
H  H97  1  0.19770000  0.33140000  0.43020000  1.0 0.1101232221
H  H98  1  0.66860000  0.86631000  0.43020000  1.0 0.1101232221
H  H99  1  0.13369000  0.80230000  0.43020000  1.0 0.1101232221
H  H100  1  0.66860000  0.80230000  0.06980000  1.0 0.1101232221
H  H101  1  0.13369000  0.33140000  0.06980000  1.0 0.1101232221
H  H102  1  0.19770000  0.86631000  0.06980000  1.0 0.1101232221
H  H103  1  0.80230000  0.66860000  0.56980000  1.0 0.1101232221
H  H104  1  0.33140000  0.13369000  0.56980000  1.0 0.1101232221
H  H105  1  0.86631000  0.19770000  0.56980000  1.0 0.1101232221
H  H106  1  0.33140000  0.19770000  0.93020000  1.0 0.1101232221
H  H107  1  0.86631000  0.66860000  0.93020000  1.0 0.1101232221
H  H108  1  0.80230000  0.13369000  0.93020000  1.0 0.1101232221
H  H109  1  0.27550000  0.39480000  0.39490000  1.0 0.1101232221
H  H110  1  0.60520000  0.88071000  0.39490000  1.0 0.1101232221
H  H111  1  0.11929000  0.72450000  0.39490000  1.0 0.1101232221
H  H112  1  0.60520000  0.72450000  0.10510000  1.0 0.1101232221
H  H113  1  0.11929000  0.39480000  0.10510000  1.0 0.1101232221
H  H114  1  0.27550000  0.88071000  0.10510000  1.0 0.1101232221
H  H115  1  0.72450000  0.60520000  0.60510000  1.0 0.1101232221
H  H116  1  0.39480000  0.11929000  0.60510000  1.0 0.1101232221
H  H117  1  0.88071000  0.27550000  0.60510000  1.0 0.1101232221
H  H118  1  0.39480000  0.27550000  0.89490000  1.0 0.1101232221
H  H119  1  0.88071000  0.60520000  0.89490000  1.0 0.1101232221
H  H120  1  0.72450000  0.11929000  0.89490000  1.0 0.1101232221
H  H121  1  0.25570000  0.38380000  0.34430000  1.0 0.1280539719
H  H122  1  0.61620000  0.87191000  0.34430000  1.0 0.1280539719
H  H123  1  0.12809000  0.74430000  0.34430000  1.0 0.1280539719
H  H124  1  0.61620000  0.74430000  0.15570000  1.0 0.1280539719
H  H125  1  0.12809000  0.38380000  0.15570000  1.0 0.1280539719
H  H126  1  0.25570000  0.87191000  0.15570000  1.0 0.1280539719
H  H127  1  0.74430000  0.61620000  0.65570000  1.0 0.1280539719
H  H128  1  0.38380000  0.12809000  0.65570000  1.0 0.1280539719
H  H129  1  0.87191000  0.25570000  0.65570000  1.0 0.1280539719
H  H130  1  0.38380000  0.25570000  0.84430000  1.0 0.1280539719
H  H131  1  0.87191000  0.61620000  0.84430000  1.0 0.1280539719
H  H132  1  0.74430000  0.12809000  0.84430000  1.0 0.1280539719
H  H133  1  0.28270000  0.32300000  0.58190000  1.0 0.1101232221
H  H134  1  0.67700000  0.95971000  0.58190000  1.0 0.1101232221
H  H135  1  0.04029000  0.71730000  0.58190000  1.0 0.1101232221
H  H136  1  0.67700000  0.71730000  0.91810000  1.0 0.1101232221
H  H137  1  0.04029000  0.32300000  0.91810000  1.0 0.1101232221
H  H138  1  0.28270000  0.95971000  0.91810000  1.0 0.1101232221
H  H139  1  0.71730000  0.67700000  0.41810000  1.0 0.1101232221
H  H140  1  0.32300000  0.04029000  0.41810000  1.0 0.1101232221
H  H141  1  0.95971000  0.28270000  0.41810000  1.0 0.1101232221
H  H142  1  0.32300000  0.28270000  0.08190000  1.0 0.1101232221
H  H143  1  0.95971000  0.67700000  0.08190000  1.0 0.1101232221
H  H144  1  0.71730000  0.04029000  0.08190000  1.0 0.1101232221
H  H145  1  0.28870000  0.28730000  0.60850000  1.0 0.1101232221
H  H146  1  0.71270000  0.00141000  0.60850000  1.0 0.1101232221
H  H147  1  0.99859000  0.71130000  0.60850000  1.0 0.1101232221
H  H148  1  0.71270000  0.71130000  0.89150000  1.0 0.1101232221
H  H149  1  0.99859000  0.28730000  0.89150000  1.0 0.1101232221
H  H150  1  0.28870000  0.00141000  0.89150000  1.0 0.1101232221
H  H151  1  0.71130000  0.71270000  0.39150000  1.0 0.1101232221
H  H152  1  0.28730000  0.99859000  0.39150000  1.0 0.1101232221
H  H153  1  0.00141000  0.28870000  0.39150000  1.0 0.1101232221
H  H154  1  0.28730000  0.28870000  0.10850000  1.0 0.1101232221
H  H155  1  0.00141000  0.71270000  0.10850000  1.0 0.1101232221
H  H156  1  0.71130000  0.99859000  0.10850000  1.0 0.1101232221
H  H157  1  0.33660000  0.34720000  0.67530000  1.0 0.1101232221
H  H158  1  0.65280000  0.98941000  0.67530000  1.0 0.1101232221
H  H159  1  0.01059000  0.66340000  0.67530000  1.0 0.1101232221
H  H160  1  0.65280000  0.66340000  0.82470000  1.0 0.1101232221
H  H161  1  0.01059000  0.34720000  0.82470000  1.0 0.1101232221
H  H162  1  0.33660000  0.98941000  0.82470000  1.0 0.1101232221
H  H163  1  0.66340000  0.65280000  0.32470000  1.0 0.1101232221
H  H164  1  0.34720000  0.01059000  0.32470000  1.0 0.1101232221
H  H165  1  0.98941000  0.33660000  0.32470000  1.0 0.1101232221
H  H166  1  0.34720000  0.33660000  0.17530000  1.0 0.1101232221
H  H167  1  0.98941000  0.65280000  0.17530000  1.0 0.1101232221
H  H168  1  0.66340000  0.01059000  0.17530000  1.0 0.1101232221
H  H169  1  0.33060000  0.38290000  0.64870000  1.0 0.1201670456
H  H170  1  0.61710000  0.94771000  0.64870000  1.0 0.1201670456
H  H171  1  0.05229000  0.66940000  0.64870000  1.0 0.1201670456
H  H172  1  0.61710000  0.66940000  0.85130000  1.0 0.1201670456
H  H173  1  0.05229000  0.38290000  0.85130000  1.0 0.1201670456
H  H174  1  0.33060000  0.94771000  0.85130000  1.0 0.1201670456
H  H175  1  0.66940000  0.61710000  0.35130000  1.0 0.1201670456
H  H176  1  0.38290000  0.05229000  0.35130000  1.0 0.1201670456
H  H177  1  0.94771000  0.33060000  0.35130000  1.0 0.1201670456
H  H178  1  0.38290000  0.33060000  0.14870000  1.0 0.1201670456
H  H179  1  0.94771000  0.61710000  0.14870000  1.0 0.1201670456
H  H180  1  0.66940000  0.05229000  0.14870000  1.0 0.1201670456
H  H181  1  0.29210000  0.25140000  0.63260000  1.0 0.1101232221
H  H182  1  0.74860000  0.04071000  0.63260000  1.0 0.1101232221
H  H183  1  0.95929000  0.70790000  0.63260000  1.0 0.1101232221
H  H184  1  0.74860000  0.70790000  0.86740000  1.0 0.1101232221
H  H185  1  0.95929000  0.25140000  0.86740000  1.0 0.1101232221
H  H186  1  0.29210000  0.04071000  0.86740000  1.0 0.1101232221
H  H187  1  0.70790000  0.74860000  0.36740000  1.0 0.1101232221
H  H188  1  0.25140000  0.95929000  0.36740000  1.0 0.1101232221
H  H189  1  0.04071000  0.29210000  0.36740000  1.0 0.1101232221
H  H190  1  0.25140000  0.29210000  0.13260000  1.0 0.1101232221
H  H191  1  0.04071000  0.74860000  0.13260000  1.0 0.1101232221
H  H192  1  0.70790000  0.95929000  0.13260000  1.0 0.1101232221
H  H193  1  0.30130000  0.21970000  0.66290000  1.0 0.1280539719
H  H194  1  0.78030000  0.08161000  0.66290000  1.0 0.1280539719
H  H195  1  0.91839000  0.69870000  0.66290000  1.0 0.1280539719
H  H196  1  0.78030000  0.69870000  0.83710000  1.0 0.1280539719
H  H197  1  0.91839000  0.21970000  0.83710000  1.0 0.1280539719
H  H198  1  0.30130000  0.08161000  0.83710000  1.0 0.1280539719
H  H199  1  0.69870000  0.78030000  0.33710000  1.0 0.1280539719
H  H200  1  0.21970000  0.91839000  0.33710000  1.0 0.1280539719
H  H201  1  0.08161000  0.30130000  0.33710000  1.0 0.1280539719
H  H202  1  0.21970000  0.30130000  0.16290000  1.0 0.1280539719
H  H203  1  0.08161000  0.78030000  0.16290000  1.0 0.1280539719
H  H204  1  0.69870000  0.91839000  0.16290000  1.0 0.1280539719
H  H205  1  0.35320000  0.28740000  0.72070000  1.0 0.1201670456
H  H206  1  0.71260000  0.06581000  0.72070000  1.0 0.1201670456
H  H207  1  0.93419000  0.64680000  0.72070000  1.0 0.1201670456
H  H208  1  0.71260000  0.64680000  0.77930000  1.0 0.1201670456
H  H209  1  0.93419000  0.28740000  0.77930000  1.0 0.1201670456
H  H210  1  0.35320000  0.06581000  0.77930000  1.0 0.1201670456
H  H211  1  0.64680000  0.71260000  0.27930000  1.0 0.1201670456
H  H212  1  0.28740000  0.93419000  0.27930000  1.0 0.1201670456
H  H213  1  0.06581000  0.35320000  0.27930000  1.0 0.1201670456
H  H214  1  0.28740000  0.35320000  0.22070000  1.0 0.1201670456
H  H215  1  0.06581000  0.71260000  0.22070000  1.0 0.1201670456
H  H216  1  0.64680000  0.93419000  0.22070000  1.0 0.1201670456
H  H217  1  0.34400000  0.31910000  0.69040000  1.0 0.1101232221
H  H218  1  0.68090000  0.02491000  0.69040000  1.0 0.1101232221
H  H219  1  0.97509000  0.65600000  0.69040000  1.0 0.1101232221
H  H220  1  0.68090000  0.65600000  0.80960000  1.0 0.1101232221
H  H221  1  0.97509000  0.31910000  0.80960000  1.0 0.1101232221
H  H222  1  0.34400000  0.02491000  0.80960000  1.0 0.1101232221
H  H223  1  0.65600000  0.68090000  0.30960000  1.0 0.1101232221
H  H224  1  0.31910000  0.97509000  0.30960000  1.0 0.1101232221
H  H225  1  0.02491000  0.34400000  0.30960000  1.0 0.1101232221
H  H226  1  0.31910000  0.34400000  0.19040000  1.0 0.1101232221
H  H227  1  0.02491000  0.68090000  0.19040000  1.0 0.1101232221
H  H228  1  0.65600000  0.97509000  0.19040000  1.0 0.1101232221
H  H229  1  0.34160000  0.45970000  0.63340000  1.0 0.1011852186
H  H230  1  0.54030000  0.88191000  0.63340000  1.0 0.1011852186
H  H231  1  0.11809000  0.65840000  0.63340000  1.0 0.1011852186
H  H232  1  0.54030000  0.65840000  0.86660000  1.0 0.1011852186
H  H233  1  0.11809000  0.45970000  0.86660000  1.0 0.1011852186
H  H234  1  0.34160000  0.88191000  0.86660000  1.0 0.1011852186
H  H235  1  0.65840000  0.54030000  0.36660000  1.0 0.1011852186
H  H236  1  0.45970000  0.11809000  0.36660000  1.0 0.1011852186
H  H237  1  0.88191000  0.34160000  0.36660000  1.0 0.1011852186
H  H238  1  0.45970000  0.34160000  0.13340000  1.0 0.1011852186
H  H239  1  0.88191000  0.54030000  0.13340000  1.0 0.1011852186
H  H240  1  0.65840000  0.11809000  0.13340000  1.0 0.1011852186
H  H241  1  0.34940000  0.50280000  0.65820000  1.0 0.1011852186
H  H242  1  0.49720000  0.84661000  0.65820000  1.0 0.1011852186
H  H243  1  0.15339000  0.65060000  0.65820000  1.0 0.1011852186
H  H244  1  0.49720000  0.65060000  0.84180000  1.0 0.1011852186
H  H245  1  0.15339000  0.50280000  0.84180000  1.0 0.1011852186
H  H246  1  0.34940000  0.84661000  0.84180000  1.0 0.1011852186
H  H247  1  0.65060000  0.49720000  0.34180000  1.0 0.1011852186
H  H248  1  0.50280000  0.15339000  0.34180000  1.0 0.1011852186
H  H249  1  0.84661000  0.34940000  0.34180000  1.0 0.1011852186
H  H250  1  0.50280000  0.34940000  0.15820000  1.0 0.1011852186
H  H251  1  0.84661000  0.49720000  0.15820000  1.0 0.1011852186
H  H252  1  0.65060000  0.15339000  0.15820000  1.0 0.1011852186
H  H253  1  0.27830000  0.49650000  0.61350000  1.0 0.070579978
H  H254  1  0.50350000  0.78181000  0.61350000  1.0 0.070579978
H  H255  1  0.21819000  0.72170000  0.61350000  1.0 0.070579978
H  H256  1  0.50350000  0.72170000  0.88650000  1.0 0.070579978
H  H257  1  0.21819000  0.49650000  0.88650000  1.0 0.070579978
H  H258  1  0.27830000  0.78181000  0.88650000  1.0 0.070579978
H  H259  1  0.72170000  0.50350000  0.38650000  1.0 0.070579978
H  H260  1  0.49650000  0.21819000  0.38650000  1.0 0.070579978
H  H261  1  0.78181000  0.27830000  0.38650000  1.0 0.070579978
H  H262  1  0.49650000  0.27830000  0.11350000  1.0 0.070579978
H  H263  1  0.78181000  0.50350000  0.11350000  1.0 0.070579978
H  H264  1  0.72170000  0.21819000  0.11350000  1.0 0.070579978
H  H265  1  0.27060000  0.45350000  0.58870000  1.0 0.1011852186
H  H266  1  0.54650000  0.81711000  0.58870000  1.0 0.1011852186
H  H267  1  0.18289000  0.72940000  0.58870000  1.0 0.1011852186
H  H268  1  0.54650000  0.72940000  0.91130000  1.0 0.1011852186
H  H269  1  0.18289000  0.45350000  0.91130000  1.0 0.1011852186
H  H270  1  0.27060000  0.81711000  0.91130000  1.0 0.1011852186
H  H271  1  0.72940000  0.54650000  0.41130000  1.0 0.1011852186
H  H272  1  0.45350000  0.18289000  0.41130000  1.0 0.1011852186
H  H273  1  0.81711000  0.27060000  0.41130000  1.0 0.1011852186
H  H274  1  0.45350000  0.27060000  0.08870000  1.0 0.1011852186
H  H275  1  0.81711000  0.54650000  0.08870000  1.0 0.1011852186
H  H276  1  0.72940000  0.18289000  0.08870000  1.0 0.1011852186
H  H277  1  0.35430000  0.53740000  0.67810000  1.0 0.1101232221
H  H278  1  0.46260000  0.81691000  0.67810000  1.0 0.1101232221
H  H279  1  0.18309000  0.64570000  0.67810000  1.0 0.1101232221
H  H280  1  0.46260000  0.64570000  0.82190000  1.0 0.1101232221
H  H281  1  0.18309000  0.53740000  0.82190000  1.0 0.1101232221
H  H282  1  0.35430000  0.81691000  0.82190000  1.0 0.1101232221
H  H283  1  0.64570000  0.46260000  0.32190000  1.0 0.1101232221
H  H284  1  0.53740000  0.18309000  0.32190000  1.0 0.1101232221
H  H285  1  0.81691000  0.35430000  0.32190000  1.0 0.1101232221
H  H286  1  0.53740000  0.35430000  0.17810000  1.0 0.1101232221
H  H287  1  0.81691000  0.46260000  0.17810000  1.0 0.1101232221
H  H288  1  0.64570000  0.18309000  0.17810000  1.0 0.1101232221
H  H289  1  0.36210000  0.58070000  0.70230000  1.0 0.1201670456
H  H290  1  0.41930000  0.78141000  0.70230000  1.0 0.1201670456
H  H291  1  0.21859000  0.63790000  0.70230000  1.0 0.1201670456
H  H292  1  0.41930000  0.63790000  0.79770000  1.0 0.1201670456
H  H293  1  0.21859000  0.58070000  0.79770000  1.0 0.1201670456
H  H294  1  0.36210000  0.78141000  0.79770000  1.0 0.1201670456
H  H295  1  0.63790000  0.41930000  0.29770000  1.0 0.1201670456
H  H296  1  0.58070000  0.21859000  0.29770000  1.0 0.1201670456
H  H297  1  0.78141000  0.36210000  0.29770000  1.0 0.1201670456
H  H298  1  0.58070000  0.36210000  0.20230000  1.0 0.1201670456
H  H299  1  0.78141000  0.41930000  0.20230000  1.0 0.1201670456
H  H300  1  0.63790000  0.21859000  0.20230000  1.0 0.1201670456
H  H301  1  0.28860000  0.57170000  0.66080000  1.0 0.1280539719
H  H302  1  0.42830000  0.71691000  0.66080000  1.0 0.1280539719
H  H303  1  0.28309000  0.71140000  0.66080000  1.0 0.1280539719
H  H304  1  0.42830000  0.71140000  0.83920000  1.0 0.1280539719
H  H305  1  0.28309000  0.57170000  0.83920000  1.0 0.1280539719
H  H306  1  0.28860000  0.71691000  0.83920000  1.0 0.1280539719
H  H307  1  0.71140000  0.42830000  0.33920000  1.0 0.1280539719
H  H308  1  0.57170000  0.28309000  0.33920000  1.0 0.1280539719
H  H309  1  0.71691000  0.28860000  0.33920000  1.0 0.1280539719
H  H310  1  0.57170000  0.28860000  0.16080000  1.0 0.1280539719
H  H311  1  0.71691000  0.42830000  0.16080000  1.0 0.1280539719
H  H312  1  0.71140000  0.28309000  0.16080000  1.0 0.1280539719
H  H313  1  0.28080000  0.52840000  0.63660000  1.0 0.1201670456
H  H314  1  0.47160000  0.75241000  0.63660000  1.0 0.1201670456
H  H315  1  0.24759000  0.71920000  0.63660000  1.0 0.1201670456
H  H316  1  0.47160000  0.71920000  0.86340000  1.0 0.1201670456
H  H317  1  0.24759000  0.52840000  0.86340000  1.0 0.1201670456
H  H318  1  0.28080000  0.75241000  0.86340000  1.0 0.1201670456
H  H319  1  0.71920000  0.47160000  0.36340000  1.0 0.1201670456
H  H320  1  0.52840000  0.24759000  0.36340000  1.0 0.1201670456
H  H321  1  0.75241000  0.28080000  0.36340000  1.0 0.1201670456
H  H322  1  0.52840000  0.28080000  0.13660000  1.0 0.1201670456
H  H323  1  0.75241000  0.47160000  0.13660000  1.0 0.1201670456
H  H324  1  0.71920000  0.24759000  0.13660000  1.0 0.1201670456
H  H325  1  0.26190000  0.44900000  0.24560000  1.0 0.1280539719
H  H326  1  0.55100000  0.81291000  0.24560000  1.0 0.1280539719
H  H327  1  0.18709000  0.73810000  0.24560000  1.0 0.1280539719
H  H328  1  0.55100000  0.73810000  0.25440000  1.0 0.1280539719
H  H329  1  0.18709000  0.44900000  0.25440000  1.0 0.1280539719
H  H330  1  0.26190000  0.81291000  0.25440000  1.0 0.1280539719
H  H331  1  0.73810000  0.55100000  0.75440000  1.0 0.1280539719
H  H332  1  0.44900000  0.18709000  0.75440000  1.0 0.1280539719
H  H333  1  0.81291000  0.26190000  0.75440000  1.0 0.1280539719
H  H334  1  0.44900000  0.26190000  0.74560000  1.0 0.1280539719
H  H335  1  0.81291000  0.55100000  0.74560000  1.0 0.1280539719
H  H336  1  0.73810000  0.18709000  0.74560000  1.0 0.1280539719
H  H337  1  0.28790000  0.49960000  0.24560000  1.0 0.1101232221
H  H338  1  0.50040000  0.78831000  0.24560000  1.0 0.1101232221
H  H339  1  0.21169000  0.71210000  0.24560000  1.0 0.1101232221
H  H340  1  0.50040000  0.71210000  0.25440000  1.0 0.1101232221
H  H341  1  0.21169000  0.49960000  0.25440000  1.0 0.1101232221
H  H342  1  0.28790000  0.78831000  0.25440000  1.0 0.1101232221
H  H343  1  0.71210000  0.50040000  0.75440000  1.0 0.1101232221
H  H344  1  0.49960000  0.21169000  0.75440000  1.0 0.1101232221
H  H345  1  0.78831000  0.28790000  0.75440000  1.0 0.1101232221
H  H346  1  0.49960000  0.28790000  0.74560000  1.0 0.1101232221
H  H347  1  0.78831000  0.50040000  0.74560000  1.0 0.1101232221
H  H348  1  0.71210000  0.21169000  0.74560000  1.0 0.1101232221
H  H349  1  0.31060000  0.54760000  0.23990000  1.0 0.1201670456
H  H350  1  0.45240000  0.76301000  0.23990000  1.0 0.1201670456
H  H351  1  0.23699000  0.68940000  0.23990000  1.0 0.1201670456
H  H352  1  0.45240000  0.68940000  0.26010000  1.0 0.1201670456
H  H353  1  0.23699000  0.54760000  0.26010000  1.0 0.1201670456
H  H354  1  0.31060000  0.76301000  0.26010000  1.0 0.1201670456
H  H355  1  0.68940000  0.45240000  0.76010000  1.0 0.1201670456
H  H356  1  0.54760000  0.23699000  0.76010000  1.0 0.1201670456
H  H357  1  0.76301000  0.31060000  0.76010000  1.0 0.1201670456
H  H358  1  0.54760000  0.31060000  0.73990000  1.0 0.1201670456
H  H359  1  0.76301000  0.45240000  0.73990000  1.0 0.1201670456
H  H360  1  0.68940000  0.23699000  0.73990000  1.0 0.1201670456
H  H361  1  0.33650000  0.59800000  0.24690000  1.0 0.1201670456
H  H362  1  0.40200000  0.73851000  0.24690000  1.0 0.1201670456
H  H363  1  0.26149000  0.66350000  0.24690000  1.0 0.1201670456
H  H364  1  0.40200000  0.66350000  0.25310000  1.0 0.1201670456
H  H365  1  0.26149000  0.59800000  0.25310000  1.0 0.1201670456
H  H366  1  0.33650000  0.73851000  0.25310000  1.0 0.1201670456
H  H367  1  0.66350000  0.40200000  0.75310000  1.0 0.1201670456
H  H368  1  0.59800000  0.26149000  0.75310000  1.0 0.1201670456
H  H369  1  0.73851000  0.33650000  0.75310000  1.0 0.1201670456
H  H370  1  0.59800000  0.33650000  0.74690000  1.0 0.1201670456
H  H371  1  0.73851000  0.40200000  0.74690000  1.0 0.1201670456
H  H372  1  0.66350000  0.26149000  0.74690000  1.0 0.1201670456
H  H373  1  0.35870000  0.64130000  0.25000000  1.0 0.1101232221
H  H374  1  0.35870000  0.71741000  0.25000000  1.0 0.1101232221
H  H375  1  0.28259000  0.64130000  0.25000000  1.0 0.1101232221
H  H376  1  0.64130000  0.35870000  0.75000000  1.0 0.1101232221
H  H377  1  0.64130000  0.28259000  0.75000000  1.0 0.1101232221
H  H378  1  0.71741000  0.35870000  0.75000000  1.0 0.1101232221
H  H379  1  0.11540000  0.21670000  0.20430000  1.0 0.1201670456
H  H380  1  0.78330000  0.89871000  0.20430000  1.0 0.1201670456
H  H381  1  0.10129000  0.88460000  0.20430000  1.0 0.1201670456
H  H382  1  0.78330000  0.88460000  0.29570000  1.0 0.1201670456
H  H383  1  0.10129000  0.21670000  0.29570000  1.0 0.1201670456
H  H384  1  0.11540000  0.89871000  0.29570000  1.0 0.1201670456
H  H385  1  0.88460000  0.78330000  0.79570000  1.0 0.1201670456
H  H386  1  0.21670000  0.10129000  0.79570000  1.0 0.1201670456
H  H387  1  0.89871000  0.11540000  0.79570000  1.0 0.1201670456
H  H388  1  0.21670000  0.11540000  0.70430000  1.0 0.1201670456
H  H389  1  0.89871000  0.78330000  0.70430000  1.0 0.1201670456
H  H390  1  0.88460000  0.10129000  0.70430000  1.0 0.1201670456
H  H391  1  0.08760000  0.16510000  0.20380000  1.0 0.1201670456
H  H392  1  0.83490000  0.92251000  0.20380000  1.0 0.1201670456
H  H393  1  0.07749000  0.91240000  0.20380000  1.0 0.1201670456
H  H394  1  0.83490000  0.91240000  0.29620000  1.0 0.1201670456
H  H395  1  0.07749000  0.16510000  0.29620000  1.0 0.1201670456
H  H396  1  0.08760000  0.92251000  0.29620000  1.0 0.1201670456
H  H397  1  0.91240000  0.83490000  0.79620000  1.0 0.1201670456
H  H398  1  0.16510000  0.07749000  0.79620000  1.0 0.1201670456
H  H399  1  0.92251000  0.08760000  0.79620000  1.0 0.1201670456
H  H400  1  0.16510000  0.08760000  0.70380000  1.0 0.1201670456
H  H401  1  0.92251000  0.83490000  0.70380000  1.0 0.1201670456
H  H402  1  0.91240000  0.07749000  0.70380000  1.0 0.1201670456
H  H403  1  0.02320000  0.11950000  0.26200000  1.0 0.1201670456
H  H404  1  0.88050000  0.90371000  0.26200000  1.0 0.1201670456
H  H405  1  0.09629000  0.97680000  0.26200000  1.0 0.1201670456
H  H406  1  0.88050000  0.97680000  0.23800000  1.0 0.1201670456
H  H407  1  0.09629000  0.11950000  0.23800000  1.0 0.1201670456
H  H408  1  0.02320000  0.90371000  0.23800000  1.0 0.1201670456
H  H409  1  0.97680000  0.88050000  0.73800000  1.0 0.1201670456
H  H410  1  0.11950000  0.09629000  0.73800000  1.0 0.1201670456
H  H411  1  0.90371000  0.02320000  0.73800000  1.0 0.1201670456
H  H412  1  0.11950000  0.02320000  0.76200000  1.0 0.1201670456
H  H413  1  0.90371000  0.88050000  0.76200000  1.0 0.1201670456
H  H414  1  0.97680000  0.09629000  0.76200000  1.0 0.1201670456
H  H415  1  0.99980000  0.06900000  0.26790000  1.0 0.1201670456
H  H416  1  0.93100000  0.93081000  0.26790000  1.0 0.1201670456
H  H417  1  0.06919000  0.00020000  0.26790000  1.0 0.1201670456
H  H418  1  0.93100000  0.00020000  0.23210000  1.0 0.1201670456
H  H419  1  0.06919000  0.06900000  0.23210000  1.0 0.1201670456
H  H420  1  0.99980000  0.93081000  0.23210000  1.0 0.1201670456
H  H421  1  0.00020000  0.93100000  0.73210000  1.0 0.1201670456
H  H422  1  0.06900000  0.06919000  0.73210000  1.0 0.1201670456
H  H423  1  0.93081000  0.99980000  0.73210000  1.0 0.1201670456
H  H424  1  0.06900000  0.99980000  0.76790000  1.0 0.1201670456
H  H425  1  0.93081000  0.93100000  0.76790000  1.0 0.1201670456
H  H426  1  0.00020000  0.06919000  0.76790000  1.0 0.1201670456
H  H427  1  0.05080000  0.02540000  0.25000000  1.0 0.1101232221
H  H428  1  0.97460000  0.02540000  0.25000000  1.0 0.1101232221
H  H429  1  0.97460000  0.94920000  0.25000000  1.0 0.1101232221
H  H430  1  0.94920000  0.97460000  0.75000000  1.0 0.1101232221
H  H431  1  0.02540000  0.97460000  0.75000000  1.0 0.1101232221
H  H432  1  0.02540000  0.05080000  0.75000000  1.0 0.1101232221
H  H433  1  0.30270000  0.43970000  0.65390000  1.0 0.1011852186
H  H434  1  0.56030000  0.86301000  0.65390000  1.0 0.1011852186
H  H435  1  0.13699000  0.69730000  0.65390000  1.0 0.1011852186
H  H436  1  0.56030000  0.69730000  0.84610000  1.0 0.1011852186
H  H437  1  0.13699000  0.43970000  0.84610000  1.0 0.1011852186
H  H438  1  0.30270000  0.86301000  0.84610000  1.0 0.1011852186
H  H439  1  0.69730000  0.56030000  0.34610000  1.0 0.1011852186
H  H440  1  0.43970000  0.13699000  0.34610000  1.0 0.1011852186
H  H441  1  0.86301000  0.30270000  0.34610000  1.0 0.1011852186
H  H442  1  0.43970000  0.30270000  0.15390000  1.0 0.1011852186
H  H443  1  0.86301000  0.56030000  0.15390000  1.0 0.1011852186
H  H444  1  0.69730000  0.13699000  0.15390000  1.0 0.1011852186
H  H445  1  0.31150000  0.48370000  0.67430000  1.0 0.1011852186
H  H446  1  0.51630000  0.82781000  0.67430000  1.0 0.1011852186
H  H447  1  0.17219000  0.68850000  0.67430000  1.0 0.1011852186
H  H448  1  0.51630000  0.68850000  0.82570000  1.0 0.1011852186
H  H449  1  0.17219000  0.48370000  0.82570000  1.0 0.1011852186
H  H450  1  0.31150000  0.82781000  0.82570000  1.0 0.1011852186
H  H451  1  0.68850000  0.51630000  0.32570000  1.0 0.1011852186
H  H452  1  0.48370000  0.17219000  0.32570000  1.0 0.1011852186
H  H453  1  0.82781000  0.31150000  0.32570000  1.0 0.1011852186
H  H454  1  0.48370000  0.31150000  0.17430000  1.0 0.1011852186
H  H455  1  0.82781000  0.51630000  0.17430000  1.0 0.1011852186
H  H456  1  0.68850000  0.17219000  0.17430000  1.0 0.1011852186
H  H457  1  0.30190000  0.51120000  0.59830000  1.0 0.0615865192
H  H458  1  0.48880000  0.79071000  0.59830000  1.0 0.0615865192
H  H459  1  0.20929000  0.69810000  0.59830000  1.0 0.0615865192
H  H460  1  0.48880000  0.69810000  0.90170000  1.0 0.0615865192
H  H461  1  0.20929000  0.51120000  0.90170000  1.0 0.0615865192
H  H462  1  0.30190000  0.79071000  0.90170000  1.0 0.0615865192
H  H463  1  0.69810000  0.48880000  0.40170000  1.0 0.0615865192
H  H464  1  0.51120000  0.20929000  0.40170000  1.0 0.0615865192
H  H465  1  0.79071000  0.30190000  0.40170000  1.0 0.0615865192
H  H466  1  0.51120000  0.30190000  0.09830000  1.0 0.0615865192
H  H467  1  0.79071000  0.48880000  0.09830000  1.0 0.0615865192
H  H468  1  0.69810000  0.20929000  0.09830000  1.0 0.0615865192
H  H469  1  0.31130000  0.47780000  0.56990000  1.0 0.1011852186
H  H470  1  0.52220000  0.83351000  0.56990000  1.0 0.1011852186
H  H471  1  0.16649000  0.68870000  0.56990000  1.0 0.1011852186
H  H472  1  0.52220000  0.68870000  0.93010000  1.0 0.1011852186
H  H473  1  0.16649000  0.47780000  0.93010000  1.0 0.1011852186
H  H474  1  0.31130000  0.83351000  0.93010000  1.0 0.1011852186
H  H475  1  0.68870000  0.52220000  0.43010000  1.0 0.1011852186
H  H476  1  0.47780000  0.16649000  0.43010000  1.0 0.1011852186
H  H477  1  0.83351000  0.31130000  0.43010000  1.0 0.1011852186
H  H478  1  0.47780000  0.31130000  0.06990000  1.0 0.1011852186
H  H479  1  0.83351000  0.52220000  0.06990000  1.0 0.1011852186
H  H480  1  0.68870000  0.16649000  0.06990000  1.0 0.1011852186
C  C1  1  0.28431000  0.39102000  0.54708000  1.0 0.0808086574
C  C2  1  0.60898000  0.89330000  0.54708000  1.0 0.0808086574
C  C3  1  0.10670000  0.71569000  0.54708000  1.0 0.0808086574
C  C4  1  0.60898000  0.71569000  0.95292000  1.0 0.0808086574
C  C5  1  0.10670000  0.39102000  0.95292000  1.0 0.0808086574
C  C6  1  0.28431000  0.89330000  0.95292000  1.0 0.0808086574
C  C7  1  0.71569000  0.60898000  0.45292000  1.0 0.0808086574
C  C8  1  0.39102000  0.10670000  0.45292000  1.0 0.0808086574
C  C9  1  0.89330000  0.28431000  0.45292000  1.0 0.0808086574
C  C10  1  0.39102000  0.28431000  0.04708000  1.0 0.0808086574
C  C11  1  0.89330000  0.60898000  0.04708000  1.0 0.0808086574
C  C12  1  0.71569000  0.10670000  0.04708000  1.0 0.0808086574
C  C13  1  0.28979000  0.37105000  0.56337000  1.0 -0.2084494912
C  C14  1  0.62895000  0.91875000  0.56337000  1.0 -0.2084494912
C  C15  1  0.08125000  0.71021000  0.56337000  1.0 -0.2084494912
C  C16  1  0.62895000  0.71021000  0.93663000  1.0 -0.2084494912
C  C17  1  0.08125000  0.37105000  0.93663000  1.0 -0.2084494912
C  C18  1  0.28979000  0.91875000  0.93663000  1.0 -0.2084494912
C  C19  1  0.71021000  0.62895000  0.43663000  1.0 -0.2043459586
C  C20  1  0.37105000  0.08125000  0.43663000  1.0 -0.2043459586
C  C21  1  0.91875000  0.28979000  0.43663000  1.0 -0.2084494912
C  C22  1  0.37105000  0.28979000  0.06337000  1.0 -0.2084494912
C  C23  1  0.91875000  0.62895000  0.06337000  1.0 -0.2084494912
C  C24  1  0.71021000  0.08125000  0.06337000  1.0 -0.2084494912
C  C25  1  0.29979000  0.37688000  0.59442000  1.0 0.0808086574
C  C26  1  0.62312000  0.92292000  0.59442000  1.0 0.0808086574
C  C27  1  0.07708000  0.70021000  0.59442000  1.0 0.0808086574
C  C28  1  0.62312000  0.70021000  0.90558000  1.0 0.0808086574
C  C29  1  0.07708000  0.37688000  0.90558000  1.0 0.0808086574
C  C30  1  0.29979000  0.92292000  0.90558000  1.0 0.0808086574
C  C31  1  0.70021000  0.62312000  0.40558000  1.0 0.0808086574
C  C32  1  0.37688000  0.07708000  0.40558000  1.0 0.0808086574
C  C33  1  0.92292000  0.29979000  0.40558000  1.0 0.0808086574
C  C34  1  0.37688000  0.29979000  0.09442000  1.0 0.0808086574
C  C35  1  0.92292000  0.62312000  0.09442000  1.0 0.0808086574
C  C36  1  0.70021000  0.07708000  0.09442000  1.0 0.0808086574
C  C37  1  0.30431000  0.40268000  0.60919000  1.0 -0.2084494912
C  C38  1  0.59732000  0.90164000  0.60919000  1.0 -0.2084494912
C  C39  1  0.09836000  0.69569000  0.60919000  1.0 -0.2084494912
C  C40  1  0.59732000  0.69569000  0.89081000  1.0 -0.2084494912
C  C41  1  0.09836000  0.40268000  0.89081000  1.0 -0.2084494912
C  C42  1  0.30431000  0.90164000  0.89081000  1.0 -0.2084494912
C  C43  1  0.69569000  0.59732000  0.39081000  1.0 -0.2084494912
C  C44  1  0.40268000  0.09836000  0.39081000  1.0 -0.2084494912
C  C45  1  0.90164000  0.30431000  0.39081000  1.0 -0.2084494912
C  C46  1  0.40268000  0.30431000  0.10919000  1.0 -0.2084494912
C  C47  1  0.90164000  0.59732000  0.10919000  1.0 -0.2084494912
C  C48  1  0.69569000  0.09836000  0.10919000  1.0 -0.2084494912
C  C49  1  0.29883000  0.42265000  0.59290000  1.0 0.070579978
C  C50  1  0.57735000  0.87619000  0.59290000  1.0 0.070579978
C  C51  1  0.12381000  0.70117000  0.59290000  1.0 0.070579978
C  C52  1  0.57735000  0.70117000  0.90710000  1.0 0.070579978
C  C53  1  0.12381000  0.42265000  0.90710000  1.0 0.070579978
C  C54  1  0.29883000  0.87619000  0.90710000  1.0 0.070579978
C  C55  1  0.70117000  0.57735000  0.40710000  1.0 0.0808086574
C  C56  1  0.42265000  0.12381000  0.40710000  1.0 0.070579978
C  C57  1  0.87619000  0.29883000  0.40710000  1.0 0.070579978
C  C58  1  0.42265000  0.29883000  0.09290000  1.0 0.070579978
C  C59  1  0.87619000  0.57735000  0.09290000  1.0 0.0808086574
C  C60  1  0.70117000  0.12381000  0.09290000  1.0 0.070579978
C  C61  1  0.28883000  0.41682000  0.56185000  1.0 -0.2192024387
C  C62  1  0.58318000  0.87202000  0.56185000  1.0 -0.2192024387
C  C63  1  0.12798000  0.71117000  0.56185000  1.0 -0.2192024387
C  C64  1  0.58318000  0.71117000  0.93815000  1.0 -0.2192024387
C  C65  1  0.12798000  0.41682000  0.93815000  1.0 -0.2192024387
C  C66  1  0.28883000  0.87202000  0.93815000  1.0 -0.2192024387
C  C67  1  0.71117000  0.58318000  0.43815000  1.0 -0.2192024387
C  C68  1  0.41682000  0.12798000  0.43815000  1.0 -0.2192024387
C  C69  1  0.87202000  0.28883000  0.43815000  1.0 -0.2192024387
C  C70  1  0.41682000  0.28883000  0.06185000  1.0 -0.2192024387
C  C71  1  0.87202000  0.58318000  0.06185000  1.0 -0.2192024387
C  C72  1  0.71117000  0.12798000  0.06185000  1.0 -0.2192024387
C  C73  1  0.24957000  0.37122000  0.45209000  1.0 0.0615865192
C  C74  1  0.62878000  0.87836000  0.45209000  1.0 0.0615865192
C  C75  1  0.12164000  0.75043000  0.45209000  1.0 0.0615865192
C  C76  1  0.62878000  0.75043000  0.04791000  1.0 0.0615865192
C  C77  1  0.12164000  0.37122000  0.04791000  1.0 0.0615865192
C  C78  1  0.24957000  0.87836000  0.04791000  1.0 0.0615865192
C  C79  1  0.75043000  0.62878000  0.54791000  1.0 0.0615865192
C  C80  1  0.37122000  0.12164000  0.54791000  1.0 0.0615865192
C  C81  1  0.87836000  0.24957000  0.54791000  1.0 0.0615865192
C  C82  1  0.37122000  0.24957000  0.95209000  1.0 0.0615865192
C  C83  1  0.87836000  0.62878000  0.95209000  1.0 0.0615865192
C  C84  1  0.75043000  0.12164000  0.95209000  1.0 0.0615865192
C  C85  1  0.24170000  0.34820000  0.47351000  1.0 -0.1578691012
C  C86  1  0.65180000  0.89351000  0.47351000  1.0 -0.1507132258
C  C87  1  0.10649000  0.75830000  0.47351000  1.0 -0.1578691012
C  C88  1  0.65180000  0.75830000  0.02649000  1.0 -0.1507132258
C  C89  1  0.10649000  0.34820000  0.02649000  1.0 -0.1578691012
C  C90  1  0.24170000  0.89351000  0.02649000  1.0 -0.1578691012
C  C91  1  0.75830000  0.65180000  0.52649000  1.0 -0.1507132258
C  C92  1  0.34820000  0.10649000  0.52649000  1.0 -0.1507132258
C  C93  1  0.89351000  0.24170000  0.52649000  1.0 -0.1507132258
C  C94  1  0.34820000  0.24170000  0.97351000  1.0 -0.1578691012
C  C95  1  0.89351000  0.65180000  0.97351000  1.0 -0.1507132258
C  C96  1  0.75830000  0.10649000  0.97351000  1.0 -0.1507132258
C  C97  1  0.25263000  0.35439000  0.50420000  1.0 -0.1578691012
C  C98  1  0.64561000  0.89825000  0.50420000  1.0 -0.1578691012
C  C99  1  0.10175000  0.74737000  0.50420000  1.0 -0.1578691012
C  C100  1  0.64561000  0.74737000  0.99580000  1.0 -0.1578691012
C  C101  1  0.10175000  0.35439000  0.99580000  1.0 -0.1578691012
C  C102  1  0.25263000  0.89825000  0.99580000  1.0 -0.1578691012
C  C103  1  0.74737000  0.64561000  0.49580000  1.0 -0.1578691012
C  C104  1  0.35439000  0.10175000  0.49580000  1.0 -0.1578691012
C  C105  1  0.89825000  0.25263000  0.49580000  1.0 -0.1578691012
C  C106  1  0.35439000  0.25263000  0.00420000  1.0 -0.1578691012
C  C107  1  0.89825000  0.64561000  0.00420000  1.0 -0.1578691012
C  C108  1  0.74737000  0.10175000  0.00420000  1.0 -0.1578691012
C  C109  1  0.27143000  0.38358000  0.51350000  1.0 0.070579978
C  C110  1  0.61642000  0.88786000  0.51350000  1.0 0.070579978
C  C111  1  0.11214000  0.72857000  0.51350000  1.0 0.070579978
C  C112  1  0.61642000  0.72857000  0.98650000  1.0 0.070579978
C  C113  1  0.11214000  0.38358000  0.98650000  1.0 0.070579978
C  C114  1  0.27143000  0.88786000  0.98650000  1.0 0.070579978
C  C115  1  0.72857000  0.61642000  0.48650000  1.0 0.070579978
C  C116  1  0.38358000  0.11214000  0.48650000  1.0 0.070579978
C  C117  1  0.88786000  0.27143000  0.48650000  1.0 0.070579978
C  C118  1  0.38358000  0.27143000  0.01350000  1.0 0.070579978
C  C119  1  0.88786000  0.61642000  0.01350000  1.0 0.070579978
C  C120  1  0.72857000  0.11214000  0.01350000  1.0 0.070579978
C  C121  1  0.27929000  0.40658000  0.49209000  1.0 -0.1507132258
C  C122  1  0.59342000  0.87272000  0.49209000  1.0 -0.1578691012
C  C123  1  0.12728000  0.72071000  0.49209000  1.0 -0.1578691012
C  C124  1  0.59342000  0.72071000  0.00791000  1.0 -0.1578691012
C  C125  1  0.12728000  0.40658000  0.00791000  1.0 -0.1507132258
C  C126  1  0.27929000  0.87272000  0.00791000  1.0 -0.1578691012
C  C127  1  0.72071000  0.59342000  0.50791000  1.0 -0.1507132258
C  C128  1  0.40658000  0.12728000  0.50791000  1.0 -0.1507132258
C  C129  1  0.87272000  0.27929000  0.50791000  1.0 -0.1578691012
C  C130  1  0.40658000  0.27929000  0.99209000  1.0 -0.1578691012
C  C131  1  0.87272000  0.59342000  0.99209000  1.0 -0.1507132258
C  C132  1  0.72071000  0.12728000  0.99209000  1.0 -0.1507132258
C  C133  1  0.26837000  0.40041000  0.46138000  1.0 -0.1507132258
C  C134  1  0.59959000  0.86797000  0.46138000  1.0 -0.1507132258
C  C135  1  0.13203000  0.73163000  0.46138000  1.0 -0.1507132258
C  C136  1  0.59959000  0.73163000  0.03862000  1.0 -0.1507132258
C  C137  1  0.13203000  0.40041000  0.03862000  1.0 -0.1507132258
C  C138  1  0.26837000  0.86797000  0.03862000  1.0 -0.1507132258
C  C139  1  0.73163000  0.59959000  0.53862000  1.0 -0.1507132258
C  C140  1  0.40041000  0.13203000  0.53862000  1.0 -0.1507132258
C  C141  1  0.86797000  0.26837000  0.53862000  1.0 -0.1507132258
C  C142  1  0.40041000  0.26837000  0.96138000  1.0 -0.1507132258
C  C143  1  0.86797000  0.59959000  0.96138000  1.0 -0.1507132258
C  C144  1  0.73163000  0.13203000  0.96138000  1.0 -0.1507132258
C  C145  1  0.21481000  0.35098000  0.35695000  1.0 -0.0422121678
C  C146  1  0.64902000  0.86384000  0.35695000  1.0 -0.0422121678
C  C147  1  0.13616000  0.78519000  0.35695000  1.0 -0.0422121678
C  C148  1  0.64902000  0.78519000  0.14305000  1.0 -0.0422121678
C  C149  1  0.13616000  0.35098000  0.14305000  1.0 -0.0422121678
C  C150  1  0.21481000  0.86384000  0.14305000  1.0 -0.0422121678
C  C151  1  0.78519000  0.64902000  0.64305000  1.0 -0.0422121678
C  C152  1  0.35098000  0.13616000  0.64305000  1.0 -0.0422121678
C  C153  1  0.86384000  0.21481000  0.64305000  1.0 -0.0422121678
C  C154  1  0.35098000  0.21481000  0.85695000  1.0 -0.0422121678
C  C155  1  0.86384000  0.64902000  0.85695000  1.0 -0.0422121678
C  C156  1  0.78519000  0.13616000  0.85695000  1.0 -0.0422121678
C  C157  1  0.19745000  0.33527000  0.38269000  1.0 -0.0985000099
C  C158  1  0.66473000  0.86219000  0.38269000  1.0 -0.0985000099
C  C159  1  0.13781000  0.80255000  0.38269000  1.0 -0.0985000099
C  C160  1  0.66473000  0.80255000  0.11731000  1.0 -0.0985000099
C  C161  1  0.13781000  0.33527000  0.11731000  1.0 -0.0985000099
C  C162  1  0.19745000  0.86219000  0.11731000  1.0 -0.0985000099
C  C163  1  0.80255000  0.66473000  0.61731000  1.0 -0.0985000099
C  C164  1  0.33527000  0.13781000  0.61731000  1.0 -0.0985000099
C  C165  1  0.86219000  0.19745000  0.61731000  1.0 -0.0985000099
C  C166  1  0.33527000  0.19745000  0.88269000  1.0 -0.0985000099
C  C167  1  0.86219000  0.66473000  0.88269000  1.0 -0.0985000099
C  C168  1  0.80255000  0.13781000  0.88269000  1.0 -0.0985000099
C  C169  1  0.20933000  0.34187000  0.41300000  1.0 -0.1507132258
C  C170  1  0.65813000  0.86747000  0.41300000  1.0 -0.1507132258
C  C171  1  0.13253000  0.79067000  0.41300000  1.0 -0.1507132258
C  C172  1  0.65813000  0.79067000  0.08700000  1.0 -0.1507132258
C  C173  1  0.13253000  0.34187000  0.08700000  1.0 -0.1507132258
C  C174  1  0.20933000  0.86747000  0.08700000  1.0 -0.1507132258
C  C175  1  0.79067000  0.65813000  0.58700000  1.0 -0.1507132258
C  C176  1  0.34187000  0.13253000  0.58700000  1.0 -0.1507132258
C  C177  1  0.86747000  0.20933000  0.58700000  1.0 -0.1507132258
C  C178  1  0.34187000  0.20933000  0.91300000  1.0 -0.1507132258
C  C179  1  0.86747000  0.65813000  0.91300000  1.0 -0.1507132258
C  C180  1  0.79067000  0.13253000  0.91300000  1.0 -0.1507132258
C  C181  1  0.23856000  0.36418000  0.41756000  1.0 0.070579978
C  C182  1  0.63582000  0.87439000  0.41756000  1.0 0.0808086574
C  C183  1  0.12561000  0.76144000  0.41756000  1.0 0.070579978
C  C184  1  0.63582000  0.76144000  0.08244000  1.0 0.070579978
C  C185  1  0.12561000  0.36418000  0.08244000  1.0 0.070579978
C  C186  1  0.23856000  0.87439000  0.08244000  1.0 0.070579978
C  C187  1  0.76144000  0.63582000  0.58244000  1.0 0.070579978
C  C188  1  0.36418000  0.12561000  0.58244000  1.0 0.070579978
C  C189  1  0.87439000  0.23856000  0.58244000  1.0 0.070579978
C  C190  1  0.36418000  0.23856000  0.91756000  1.0 0.070579978
C  C191  1  0.87439000  0.63582000  0.91756000  1.0 0.0808086574
C  C192  1  0.76144000  0.12561000  0.91756000  1.0 0.070579978
C  C193  1  0.25592000  0.37989000  0.39182000  1.0 -0.1578691012
C  C194  1  0.62011000  0.87604000  0.39182000  1.0 -0.1578691012
C  C195  1  0.12396000  0.74408000  0.39182000  1.0 -0.1578691012
C  C196  1  0.62011000  0.74408000  0.10818000  1.0 -0.1578691012
C  C197  1  0.12396000  0.37989000  0.10818000  1.0 -0.1578691012
C  C198  1  0.25592000  0.87604000  0.10818000  1.0 -0.1578691012
C  C199  1  0.74408000  0.62011000  0.60818000  1.0 -0.1578691012
C  C200  1  0.37989000  0.12396000  0.60818000  1.0 -0.1578691012
C  C201  1  0.87604000  0.25592000  0.60818000  1.0 -0.1578691012
C  C202  1  0.37989000  0.25592000  0.89182000  1.0 -0.1578691012
C  C203  1  0.87604000  0.62011000  0.89182000  1.0 -0.1578691012
C  C204  1  0.74408000  0.12396000  0.89182000  1.0 -0.1578691012
C  C205  1  0.24405000  0.37329000  0.36151000  1.0 -0.0887550114
C  C206  1  0.62671000  0.87077000  0.36151000  1.0 -0.0887550114
C  C207  1  0.12923000  0.75595000  0.36151000  1.0 -0.0887550114
C  C208  1  0.62671000  0.75595000  0.13849000  1.0 -0.0887550114
C  C209  1  0.12923000  0.37329000  0.13849000  1.0 -0.0887550114
C  C210  1  0.24405000  0.87077000  0.13849000  1.0 -0.0887550114
C  C211  1  0.75595000  0.62671000  0.63849000  1.0 -0.0887550114
C  C212  1  0.37329000  0.12923000  0.63849000  1.0 -0.0887550114
C  C213  1  0.87077000  0.24405000  0.63849000  1.0 -0.0887550114
C  C214  1  0.37329000  0.24405000  0.86151000  1.0 -0.0887550114
C  C215  1  0.87077000  0.62671000  0.86151000  1.0 -0.0887550114
C  C216  1  0.75595000  0.12923000  0.86151000  1.0 -0.0887550114
C  C217  1  0.20020000  0.34619000  0.32480000  1.0 0.5729414202
C  C218  1  0.65381000  0.85402000  0.32480000  1.0 0.5729414202
C  C219  1  0.14598000  0.79980000  0.32480000  1.0 0.5729414202
C  C220  1  0.65381000  0.79980000  0.17520000  1.0 0.5729414202
C  C221  1  0.14598000  0.34619000  0.17520000  1.0 0.5729414202
C  C222  1  0.20020000  0.85402000  0.17520000  1.0 0.5729414202
C  C223  1  0.79980000  0.65381000  0.67520000  1.0 0.5729414202
C  C224  1  0.34619000  0.14598000  0.67520000  1.0 0.5729414202
C  C225  1  0.85402000  0.20020000  0.67520000  1.0 0.5729414202
C  C226  1  0.34619000  0.20020000  0.82480000  1.0 0.5729414202
C  C227  1  0.85402000  0.65381000  0.82480000  1.0 0.5729414202
C  C228  1  0.79980000  0.14598000  0.82480000  1.0 0.5729414202
C  C229  1  0.30605000  0.35645000  0.61265000  1.0 0.070579978
C  C230  1  0.64355000  0.94961000  0.61265000  1.0 0.070579978
C  C231  1  0.05039000  0.69395000  0.61265000  1.0 0.070579978
C  C232  1  0.64355000  0.69395000  0.88735000  1.0 0.070579978
C  C233  1  0.05039000  0.35645000  0.88735000  1.0 0.070579978
C  C234  1  0.30605000  0.94961000  0.88735000  1.0 0.070579978
C  C235  1  0.69395000  0.64355000  0.38735000  1.0 0.070579978
C  C236  1  0.35645000  0.05039000  0.38735000  1.0 0.070579978
C  C237  1  0.94961000  0.30605000  0.38735000  1.0 0.070579978
C  C238  1  0.35645000  0.30605000  0.11265000  1.0 0.070579978
C  C239  1  0.94961000  0.64355000  0.11265000  1.0 0.070579978
C  C240  1  0.69395000  0.05039000  0.11265000  1.0 0.070579978
C  C241  1  0.29349000  0.32782000  0.60060000  1.0 -0.1578691012
C  C242  1  0.67218000  0.96568000  0.60060000  1.0 -0.1578691012
C  C243  1  0.03432000  0.70651000  0.60060000  1.0 -0.1578691012
C  C244  1  0.67218000  0.70651000  0.89940000  1.0 -0.1578691012
C  C245  1  0.03432000  0.32782000  0.89940000  1.0 -0.1578691012
C  C246  1  0.29349000  0.96568000  0.89940000  1.0 -0.1578691012
C  C247  1  0.70651000  0.67218000  0.39940000  1.0 -0.1578691012
C  C248  1  0.32782000  0.03432000  0.39940000  1.0 -0.1578691012
C  C249  1  0.96568000  0.29349000  0.39940000  1.0 -0.1578691012
C  C250  1  0.32782000  0.29349000  0.10060000  1.0 -0.1578691012
C  C251  1  0.96568000  0.67218000  0.10060000  1.0 -0.1578691012
C  C252  1  0.70651000  0.03432000  0.10060000  1.0 -0.1578691012
C  C253  1  0.29709000  0.30646000  0.61652000  1.0 -0.1578691012
C  C254  1  0.69354000  0.99064000  0.61652000  1.0 -0.1507132258
C  C255  1  0.00936000  0.70291000  0.61652000  1.0 -0.1507132258
C  C256  1  0.69354000  0.70291000  0.88348000  1.0 -0.1507132258
C  C257  1  0.00936000  0.30646000  0.88348000  1.0 -0.1507132258
C  C258  1  0.29709000  0.99064000  0.88348000  1.0 -0.1578691012
C  C259  1  0.70291000  0.69354000  0.38348000  1.0 -0.1507132258
C  C260  1  0.30646000  0.00936000  0.38348000  1.0 -0.1578691012
C  C261  1  0.99064000  0.29709000  0.38348000  1.0 -0.1507132258
C  C262  1  0.30646000  0.29709000  0.11652000  1.0 -0.1578691012
C  C263  1  0.99064000  0.69354000  0.11652000  1.0 -0.1507132258
C  C264  1  0.70291000  0.00936000  0.11652000  1.0 -0.1578691012
C  C265  1  0.31324000  0.31372000  0.64449000  1.0 0.070579978
C  C266  1  0.68628000  0.99953000  0.64449000  1.0 0.070579978
C  C267  1  0.00047000  0.68676000  0.64449000  1.0 0.070579978
C  C268  1  0.68628000  0.68676000  0.85551000  1.0 0.070579978
C  C269  1  0.00047000  0.31372000  0.85551000  1.0 0.070579978
C  C270  1  0.31324000  0.99953000  0.85551000  1.0 0.070579978
C  C271  1  0.68676000  0.68628000  0.35551000  1.0 0.070579978
C  C272  1  0.31372000  0.00047000  0.35551000  1.0 0.070579978
C  C273  1  0.99953000  0.31324000  0.35551000  1.0 0.070579978
C  C274  1  0.31372000  0.31324000  0.14449000  1.0 0.070579978
C  C275  1  0.99953000  0.68628000  0.14449000  1.0 0.070579978
C  C276  1  0.68676000  0.00047000  0.14449000  1.0 0.070579978
C  C277  1  0.32580000  0.34235000  0.65654000  1.0 -0.1578691012
C  C278  1  0.65765000  0.98346000  0.65654000  1.0 -0.1578691012
C  C279  1  0.01654000  0.67420000  0.65654000  1.0 -0.1578691012
C  C280  1  0.65765000  0.67420000  0.84346000  1.0 -0.1578691012
C  C281  1  0.01654000  0.34235000  0.84346000  1.0 -0.1578691012
C  C282  1  0.32580000  0.98346000  0.84346000  1.0 -0.1578691012
C  C283  1  0.67420000  0.65765000  0.34346000  1.0 -0.1578691012
C  C284  1  0.34235000  0.01654000  0.34346000  1.0 -0.1578691012
C  C285  1  0.98346000  0.32580000  0.34346000  1.0 -0.1578691012
C  C286  1  0.34235000  0.32580000  0.15654000  1.0 -0.1578691012
C  C287  1  0.98346000  0.65765000  0.15654000  1.0 -0.1578691012
C  C288  1  0.67420000  0.01654000  0.15654000  1.0 -0.1578691012
C  C289  1  0.32220000  0.36372000  0.64062000  1.0 -0.1578691012
C  C290  1  0.63628000  0.95849000  0.64062000  1.0 -0.1578691012
C  C291  1  0.04151000  0.67780000  0.64062000  1.0 -0.1578691012
C  C292  1  0.63628000  0.67780000  0.85938000  1.0 -0.1578691012
C  C293  1  0.04151000  0.36372000  0.85938000  1.0 -0.1578691012
C  C294  1  0.32220000  0.95849000  0.85938000  1.0 -0.1578691012
C  C295  1  0.67780000  0.63628000  0.35938000  1.0 -0.1578691012
C  C296  1  0.36372000  0.04151000  0.35938000  1.0 -0.1578691012
C  C297  1  0.95849000  0.32220000  0.35938000  1.0 -0.1578691012
C  C298  1  0.36372000  0.32220000  0.14062000  1.0 -0.1578691012
C  C299  1  0.95849000  0.63628000  0.14062000  1.0 -0.1578691012
C  C300  1  0.67780000  0.04151000  0.14062000  1.0 -0.1578691012
C  C301  1  0.31712000  0.28841000  0.65852000  1.0 0.0808086574
C  C302  1  0.71159000  0.02872000  0.65852000  1.0 0.0808086574
C  C303  1  0.97128000  0.68288000  0.65852000  1.0 0.0808086574
C  C304  1  0.71159000  0.68288000  0.84148000  1.0 0.0808086574
C  C305  1  0.97128000  0.28841000  0.84148000  1.0 0.0808086574
C  C306  1  0.31712000  0.02872000  0.84148000  1.0 0.0808086574
C  C307  1  0.68288000  0.71159000  0.34148000  1.0 0.0808086574
C  C308  1  0.28841000  0.97128000  0.34148000  1.0 0.0808086574
C  C309  1  0.02872000  0.31712000  0.34148000  1.0 0.0808086574
C  C310  1  0.28841000  0.31712000  0.15852000  1.0 0.0808086574
C  C311  1  0.02872000  0.71159000  0.15852000  1.0 0.0808086574
C  C312  1  0.68288000  0.97128000  0.15852000  1.0 0.0808086574
C  C313  1  0.30435000  0.25865000  0.65027000  1.0 -0.165836797
C  C314  1  0.74135000  0.04571000  0.65027000  1.0 -0.1578691012
C  C315  1  0.95429000  0.69565000  0.65027000  1.0 -0.165836797
C  C316  1  0.74135000  0.69565000  0.84973000  1.0 -0.165836797
C  C317  1  0.95429000  0.25865000  0.84973000  1.0 -0.165836797
C  C318  1  0.30435000  0.04571000  0.84973000  1.0 -0.1578691012
C  C319  1  0.69565000  0.74135000  0.34973000  1.0 -0.165836797
C  C320  1  0.25865000  0.95429000  0.34973000  1.0 -0.165836797
C  C321  1  0.04571000  0.30435000  0.34973000  1.0 -0.165836797
C  C322  1  0.25865000  0.30435000  0.15027000  1.0 -0.165836797
C  C323  1  0.04571000  0.74135000  0.15027000  1.0 -0.165836797
C  C324  1  0.69565000  0.95429000  0.15027000  1.0 -0.165836797
C  C325  1  0.30987000  0.23965000  0.66839000  1.0 -0.1124212553
C  C326  1  0.76035000  0.07023000  0.66839000  1.0 -0.1124212553
C  C327  1  0.92977000  0.69013000  0.66839000  1.0 -0.1124212553
C  C328  1  0.76035000  0.69013000  0.83161000  1.0 -0.1124212553
C  C329  1  0.92977000  0.23965000  0.83161000  1.0 -0.1124212553
C  C330  1  0.30987000  0.07023000  0.83161000  1.0 -0.1124212553
C  C331  1  0.69013000  0.76035000  0.33161000  1.0 -0.1124212553
C  C332  1  0.23965000  0.92977000  0.33161000  1.0 -0.1124212553
C  C333  1  0.07023000  0.30987000  0.33161000  1.0 -0.1124212553
C  C334  1  0.23965000  0.30987000  0.16839000  1.0 -0.1124212553
C  C335  1  0.07023000  0.76035000  0.16839000  1.0 -0.1124212553
C  C336  1  0.69013000  0.92977000  0.16839000  1.0 -0.1124212553
C  C337  1  0.32816000  0.25040000  0.69477000  1.0 -0.0422121678
C  C338  1  0.74960000  0.07777000  0.69477000  1.0 -0.0342318488
C  C339  1  0.92223000  0.67184000  0.69477000  1.0 -0.0342318488
C  C340  1  0.74960000  0.67184000  0.80523000  1.0 -0.0342318488
C  C341  1  0.92223000  0.25040000  0.80523000  1.0 -0.0422121678
C  C342  1  0.32816000  0.07777000  0.80523000  1.0 -0.0422121678
C  C343  1  0.67184000  0.74960000  0.30523000  1.0 -0.0342318488
C  C344  1  0.25040000  0.92223000  0.30523000  1.0 -0.0342318488
C  C345  1  0.07777000  0.32816000  0.30523000  1.0 -0.0342318488
C  C346  1  0.25040000  0.32816000  0.19477000  1.0 -0.0342318488
C  C347  1  0.07777000  0.74960000  0.19477000  1.0 -0.0342318488
C  C348  1  0.67184000  0.92223000  0.19477000  1.0 -0.0342318488
C  C349  1  0.34093000  0.28017000  0.70302000  1.0 -0.0887550114
C  C350  1  0.71983000  0.06077000  0.70302000  1.0 -0.0887550114
C  C351  1  0.93923000  0.65907000  0.70302000  1.0 -0.0887550114
C  C352  1  0.71983000  0.65907000  0.79698000  1.0 -0.0887550114
C  C353  1  0.93923000  0.28017000  0.79698000  1.0 -0.0887550114
C  C354  1  0.34093000  0.06077000  0.79698000  1.0 -0.0887550114
C  C355  1  0.65907000  0.71983000  0.29698000  1.0 -0.0887550114
C  C356  1  0.28017000  0.93923000  0.29698000  1.0 -0.0887550114
C  C357  1  0.06077000  0.34093000  0.29698000  1.0 -0.0887550114
C  C358  1  0.28017000  0.34093000  0.20302000  1.0 -0.0887550114
C  C359  1  0.06077000  0.71983000  0.20302000  1.0 -0.0887550114
C  C360  1  0.65907000  0.93923000  0.20302000  1.0 -0.0887550114
C  C361  1  0.33541000  0.29917000  0.68490000  1.0 -0.1578691012
C  C362  1  0.70083000  0.03625000  0.68490000  1.0 -0.1578691012
C  C363  1  0.96375000  0.66459000  0.68490000  1.0 -0.1578691012
C  C364  1  0.70083000  0.66459000  0.81510000  1.0 -0.1578691012
C  C365  1  0.96375000  0.29917000  0.81510000  1.0 -0.1578691012
C  C366  1  0.33541000  0.03625000  0.81510000  1.0 -0.1578691012
C  C367  1  0.66459000  0.70083000  0.31510000  1.0 -0.1578691012
C  C368  1  0.29917000  0.96375000  0.31510000  1.0 -0.1578691012
C  C369  1  0.03625000  0.33541000  0.31510000  1.0 -0.1578691012
C  C370  1  0.29917000  0.33541000  0.18490000  1.0 -0.1578691012
C  C371  1  0.03625000  0.70083000  0.18490000  1.0 -0.1578691012
C  C372  1  0.66459000  0.96375000  0.18490000  1.0 -0.1578691012
C  C373  1  0.22500000  0.32991000  0.21005000  1.0 0.5910204411
C  C374  1  0.67009000  0.89510000  0.21005000  1.0 0.5910204411
C  C375  1  0.10490000  0.77500000  0.21005000  1.0 0.5910204411
C  C376  1  0.67009000  0.77500000  0.28995000  1.0 0.5910204411
C  C377  1  0.10490000  0.32991000  0.28995000  1.0 0.5910204411
C  C378  1  0.22500000  0.89510000  0.28995000  1.0 0.5910204411
C  C379  1  0.77500000  0.67009000  0.78995000  1.0 0.5910204411
C  C380  1  0.32991000  0.10490000  0.78995000  1.0 0.5910204411
C  C381  1  0.89510000  0.22500000  0.78995000  1.0 0.5910204411
C  C382  1  0.32991000  0.22500000  0.71005000  1.0 0.5910204411
C  C383  1  0.89510000  0.67009000  0.71005000  1.0 0.5910204411
C  C384  1  0.77500000  0.10490000  0.71005000  1.0 0.5910204411
C  C385  1  0.30530000  0.45231000  0.60860000  1.0 0.0103486997
C  C386  1  0.54769000  0.85300000  0.60860000  1.0 0.0103486997
C  C387  1  0.14700000  0.69470000  0.60860000  1.0 0.0103486997
C  C388  1  0.54769000  0.69470000  0.89140000  1.0 0.0103486997
C  C389  1  0.14700000  0.45231000  0.89140000  1.0 0.0103486997
C  C390  1  0.30530000  0.85300000  0.89140000  1.0 0.0103486997
C  C391  1  0.69470000  0.54769000  0.39140000  1.0 0.0103486997
C  C392  1  0.45231000  0.14700000  0.39140000  1.0 0.0103486997
C  C393  1  0.85300000  0.30530000  0.39140000  1.0 0.0103486997
C  C394  1  0.45231000  0.30530000  0.10860000  1.0 0.0103486997
C  C395  1  0.85300000  0.54769000  0.10860000  1.0 0.0103486997
C  C396  1  0.69470000  0.14700000  0.10860000  1.0 0.0103486997
C  C397  1  0.32890000  0.46710000  0.62940000  1.0 -0.0887550114
C  C398  1  0.53290000  0.86181000  0.62940000  1.0 -0.0887550114
C  C399  1  0.13819000  0.67110000  0.62940000  1.0 -0.0887550114
C  C400  1  0.53290000  0.67110000  0.87060000  1.0 -0.0887550114
C  C401  1  0.13819000  0.46710000  0.87060000  1.0 -0.0887550114
C  C402  1  0.32890000  0.86181000  0.87060000  1.0 -0.0887550114
C  C403  1  0.67110000  0.53290000  0.37060000  1.0 -0.0887550114
C  C404  1  0.46710000  0.13819000  0.37060000  1.0 -0.0887550114
C  C405  1  0.86181000  0.32890000  0.37060000  1.0 -0.0887550114
C  C406  1  0.46710000  0.32890000  0.12940000  1.0 -0.0887550114
C  C407  1  0.86181000  0.53290000  0.12940000  1.0 -0.0887550114
C  C408  1  0.67110000  0.13819000  0.12940000  1.0 -0.0887550114
C  C409  1  0.33360000  0.49290000  0.64430000  1.0 -0.0697689689
C  C410  1  0.50710000  0.84071000  0.64430000  1.0 -0.0697689689
C  C411  1  0.15929000  0.66640000  0.64430000  1.0 -0.0697689689
C  C412  1  0.50710000  0.66640000  0.85570000  1.0 -0.0697689689
C  C413  1  0.15929000  0.49290000  0.85570000  1.0 -0.0697689689
C  C414  1  0.33360000  0.84071000  0.85570000  1.0 -0.0697689689
C  C415  1  0.66640000  0.50710000  0.35570000  1.0 -0.0801137112
C  C416  1  0.49290000  0.15929000  0.35570000  1.0 -0.0697689689
C  C417  1  0.84071000  0.33360000  0.35570000  1.0 -0.0697689689
C  C418  1  0.49290000  0.33360000  0.14430000  1.0 -0.0697689689
C  C419  1  0.84071000  0.50710000  0.14430000  1.0 -0.0697689689
C  C420  1  0.66640000  0.15929000  0.14430000  1.0 -0.0697689689
C  C421  1  0.31460000  0.50390000  0.63840000  1.0 -0.0014327428
C  C422  1  0.49610000  0.81071000  0.63840000  1.0 -0.0014327428
C  C423  1  0.18929000  0.68540000  0.63840000  1.0 -0.0014327428
C  C424  1  0.49610000  0.68540000  0.86160000  1.0 -0.0014327428
C  C425  1  0.18929000  0.50390000  0.86160000  1.0 -0.0014327428
C  C426  1  0.31460000  0.81071000  0.86160000  1.0 -0.0014327428
C  C427  1  0.68540000  0.49610000  0.36160000  1.0 -0.0014327428
C  C428  1  0.50390000  0.18929000  0.36160000  1.0 -0.0014327428
C  C429  1  0.81071000  0.31460000  0.36160000  1.0 -0.0014327428
C  C430  1  0.50390000  0.31460000  0.13840000  1.0 -0.0014327428
C  C431  1  0.81071000  0.49610000  0.13840000  1.0 -0.0014327428
C  C432  1  0.68540000  0.18929000  0.13840000  1.0 -0.0014327428
C  C433  1  0.29100000  0.48910000  0.61750000  1.0 -0.0597976465
C  C434  1  0.51090000  0.80191000  0.61750000  1.0 -0.0597976465
C  C435  1  0.19809000  0.70900000  0.61750000  1.0 -0.0597976465
C  C436  1  0.51090000  0.70900000  0.88250000  1.0 -0.0597976465
C  C437  1  0.19809000  0.48910000  0.88250000  1.0 -0.0597976465
C  C438  1  0.29100000  0.80191000  0.88250000  1.0 -0.0597976465
C  C439  1  0.70900000  0.51090000  0.38250000  1.0 -0.0597976465
C  C440  1  0.48910000  0.19809000  0.38250000  1.0 -0.0597976465
C  C441  1  0.80191000  0.29100000  0.38250000  1.0 -0.0597976465
C  C442  1  0.48910000  0.29100000  0.11750000  1.0 -0.0597976465
C  C443  1  0.80191000  0.51090000  0.11750000  1.0 -0.0597976465
C  C444  1  0.70900000  0.19809000  0.11750000  1.0 -0.0597976465
C  C445  1  0.28640000  0.46330000  0.60260000  1.0 -0.0517113213
C  C446  1  0.53670000  0.82311000  0.60260000  1.0 -0.0517113213
C  C447  1  0.17689000  0.71360000  0.60260000  1.0 -0.0517113213
C  C448  1  0.53670000  0.71360000  0.89740000  1.0 -0.0517113213
C  C449  1  0.17689000  0.46330000  0.89740000  1.0 -0.0517113213
C  C450  1  0.28640000  0.82311000  0.89740000  1.0 -0.0517113213
C  C451  1  0.71360000  0.53670000  0.39740000  1.0 -0.0517113213
C  C452  1  0.46330000  0.17689000  0.39740000  1.0 -0.0517113213
C  C453  1  0.82311000  0.28640000  0.39740000  1.0 -0.0517113213
C  C454  1  0.46330000  0.28640000  0.10260000  1.0 -0.0517113213
C  C455  1  0.82311000  0.53670000  0.10260000  1.0 -0.0517113213
C  C456  1  0.71360000  0.17689000  0.10260000  1.0 -0.0517113213
C  C457  1  0.31676000  0.52858000  0.65497000  1.0 0.0484928193
C  C458  1  0.47142000  0.78819000  0.65497000  1.0 0.0484928193
C  C459  1  0.21181000  0.68324000  0.65497000  1.0 0.0484928193
C  C460  1  0.47142000  0.68324000  0.84503000  1.0 0.0484928193
C  C461  1  0.21181000  0.52858000  0.84503000  1.0 0.0484928193
C  C462  1  0.31676000  0.78819000  0.84503000  1.0 0.0484928193
C  C463  1  0.68324000  0.47142000  0.34503000  1.0 0.0484928193
C  C464  1  0.52858000  0.21181000  0.34503000  1.0 0.0484928193
C  C465  1  0.78819000  0.31676000  0.34503000  1.0 0.0484928193
C  C466  1  0.52858000  0.31676000  0.15497000  1.0 0.0484928193
C  C467  1  0.78819000  0.47142000  0.15497000  1.0 0.0484928193
C  C468  1  0.68324000  0.21181000  0.15497000  1.0 0.0484928193
C  C469  1  0.34114000  0.54427000  0.67465000  1.0 -0.1578691012
C  C470  1  0.45573000  0.79688000  0.67465000  1.0 -0.1578691012
C  C471  1  0.20312000  0.65886000  0.67465000  1.0 -0.1578691012
C  C472  1  0.45573000  0.65886000  0.82535000  1.0 -0.1578691012
C  C473  1  0.20312000  0.54427000  0.82535000  1.0 -0.1578691012
C  C474  1  0.34114000  0.79688000  0.82535000  1.0 -0.1578691012
C  C475  1  0.65886000  0.45573000  0.32535000  1.0 -0.1578691012
C  C476  1  0.54427000  0.20312000  0.32535000  1.0 -0.1578691012
C  C477  1  0.79688000  0.34114000  0.32535000  1.0 -0.1578691012
C  C478  1  0.54427000  0.34114000  0.17465000  1.0 -0.1578691012
C  C479  1  0.79688000  0.45573000  0.17465000  1.0 -0.1578691012
C  C480  1  0.65886000  0.20312000  0.17465000  1.0 -0.1578691012
C  C481  1  0.34581000  0.57024000  0.68914000  1.0 -0.1193253991
C  C482  1  0.42976000  0.77558000  0.68914000  1.0 -0.1193253991
C  C483  1  0.22442000  0.65419000  0.68914000  1.0 -0.1193253991
C  C484  1  0.42976000  0.65419000  0.81086000  1.0 -0.1193253991
C  C485  1  0.22442000  0.57024000  0.81086000  1.0 -0.1193253991
C  C486  1  0.34581000  0.77558000  0.81086000  1.0 -0.1193253991
C  C487  1  0.65419000  0.42976000  0.31086000  1.0 -0.1193253991
C  C488  1  0.57024000  0.22442000  0.31086000  1.0 -0.1193253991
C  C489  1  0.77558000  0.34581000  0.31086000  1.0 -0.1193253991
C  C490  1  0.57024000  0.34581000  0.18914000  1.0 -0.1193253991
C  C491  1  0.77558000  0.42976000  0.18914000  1.0 -0.1193253991
C  C492  1  0.65419000  0.22442000  0.18914000  1.0 -0.1193253991
C  C493  1  0.32612000  0.58053000  0.68395000  1.0 -0.0697689689
C  C494  1  0.41947000  0.74560000  0.68395000  1.0 -0.0697689689
C  C495  1  0.25440000  0.67388000  0.68395000  1.0 -0.0697689689
C  C496  1  0.41947000  0.67388000  0.81605000  1.0 -0.0697689689
C  C497  1  0.25440000  0.58053000  0.81605000  1.0 -0.0697689689
C  C498  1  0.32612000  0.74560000  0.81605000  1.0 -0.0697689689
C  C499  1  0.67388000  0.41947000  0.31605000  1.0 -0.0697689689
C  C500  1  0.58053000  0.25440000  0.31605000  1.0 -0.0697689689
C  C501  1  0.74560000  0.32612000  0.31605000  1.0 -0.0697689689
C  C502  1  0.58053000  0.32612000  0.18395000  1.0 -0.0697689689
C  C503  1  0.74560000  0.41947000  0.18395000  1.0 -0.0697689689
C  C504  1  0.67388000  0.25440000  0.18395000  1.0 -0.0697689689
C  C505  1  0.30175000  0.56484000  0.66427000  1.0 -0.0887550114
C  C506  1  0.43516000  0.73692000  0.66427000  1.0 -0.0887550114
C  C507  1  0.26308000  0.69825000  0.66427000  1.0 -0.0887550114
C  C508  1  0.43516000  0.69825000  0.83573000  1.0 -0.0887550114
C  C509  1  0.26308000  0.56484000  0.83573000  1.0 -0.0887550114
C  C510  1  0.30175000  0.73692000  0.83573000  1.0 -0.0887550114
C  C511  1  0.69825000  0.43516000  0.33573000  1.0 -0.0887550114
C  C512  1  0.56484000  0.26308000  0.33573000  1.0 -0.0887550114
C  C513  1  0.73692000  0.30175000  0.33573000  1.0 -0.0887550114
C  C514  1  0.56484000  0.30175000  0.16427000  1.0 -0.0887550114
C  C515  1  0.73692000  0.43516000  0.16427000  1.0 -0.0887550114
C  C516  1  0.69825000  0.26308000  0.16427000  1.0 -0.0887550114
C  C517  1  0.29707000  0.53886000  0.64979000  1.0 -0.165836797
C  C518  1  0.46114000  0.75822000  0.64979000  1.0 -0.165836797
C  C519  1  0.24178000  0.70293000  0.64979000  1.0 -0.165836797
C  C520  1  0.46114000  0.70293000  0.85021000  1.0 -0.165836797
C  C521  1  0.24178000  0.53886000  0.85021000  1.0 -0.165836797
C  C522  1  0.29707000  0.75822000  0.85021000  1.0 -0.165836797
C  C523  1  0.70293000  0.46114000  0.35021000  1.0 -0.165836797
C  C524  1  0.53886000  0.24178000  0.35021000  1.0 -0.165836797
C  C525  1  0.75822000  0.29707000  0.35021000  1.0 -0.165836797
C  C526  1  0.53886000  0.29707000  0.14979000  1.0 -0.165836797
C  C527  1  0.75822000  0.46114000  0.14979000  1.0 -0.165836797
C  C528  1  0.70293000  0.24178000  0.14979000  1.0 -0.165836797
C  C529  1  0.33040000  0.60620000  0.70440000  1.0 0.3910337422
C  C530  1  0.39380000  0.72421000  0.70440000  1.0 0.3910337422
C  C531  1  0.27579000  0.66960000  0.70440000  1.0 0.3910337422
C  C532  1  0.39380000  0.66960000  0.79560000  1.0 0.3910337422
C  C533  1  0.27579000  0.60620000  0.79560000  1.0 0.3910337422
C  C534  1  0.33040000  0.72421000  0.79560000  1.0 0.3910337422
C  C535  1  0.66960000  0.39380000  0.29560000  1.0 0.3910337422
C  C536  1  0.60620000  0.27579000  0.29560000  1.0 0.3910337422
C  C537  1  0.72421000  0.33040000  0.29560000  1.0 0.3910337422
C  C538  1  0.60620000  0.33040000  0.20440000  1.0 0.3910337422
C  C539  1  0.72421000  0.39380000  0.20440000  1.0 0.3910337422
C  C540  1  0.66960000  0.27579000  0.20440000  1.0 0.3910337422
C  C541  1  0.20515000  0.41030000  0.25000000  1.0 0.5910204411
C  C542  1  0.58970000  0.79485000  0.25000000  1.0 0.5910204411
C  C543  1  0.20515000  0.79485000  0.25000000  1.0 0.5910204411
C  C544  1  0.79485000  0.58970000  0.75000000  1.0 0.5910204411
C  C545  1  0.41030000  0.20515000  0.75000000  1.0 0.5910204411
C  C546  1  0.79485000  0.20515000  0.75000000  1.0 0.5910204411
C  C547  1  0.22170000  0.44340000  0.25000000  1.0 -0.0422121678
C  C548  1  0.55660000  0.77830000  0.25000000  1.0 -0.0422121678
C  C549  1  0.22170000  0.77830000  0.25000000  1.0 -0.0422121678
C  C550  1  0.77830000  0.55660000  0.75000000  1.0 -0.0422121678
C  C551  1  0.44340000  0.22170000  0.75000000  1.0 -0.0422121678
C  C552  1  0.77830000  0.22170000  0.75000000  1.0 -0.0422121678
C  C553  1  0.25154000  0.45922000  0.24744000  1.0 -0.0985000099
C  C554  1  0.54078000  0.79233000  0.24744000  1.0 -0.0985000099
C  C555  1  0.20767000  0.74846000  0.24744000  1.0 -0.0985000099
C  C556  1  0.54078000  0.74846000  0.25256000  1.0 -0.0985000099
C  C557  1  0.20767000  0.45922000  0.25256000  1.0 -0.0985000099
C  C558  1  0.25154000  0.79233000  0.25256000  1.0 -0.0985000099
C  C559  1  0.74846000  0.54078000  0.75256000  1.0 -0.0985000099
C  C560  1  0.45922000  0.20767000  0.75256000  1.0 -0.0985000099
C  C561  1  0.79233000  0.25154000  0.75256000  1.0 -0.0985000099
C  C562  1  0.45922000  0.25154000  0.74744000  1.0 -0.0985000099
C  C563  1  0.79233000  0.54078000  0.74744000  1.0 -0.0985000099
C  C564  1  0.74846000  0.20767000  0.74744000  1.0 -0.0985000099
C  C565  1  0.26733000  0.48989000  0.24739000  1.0 -0.1578691012
C  C566  1  0.51011000  0.77745000  0.24739000  1.0 -0.1578691012
C  C567  1  0.22255000  0.73267000  0.24739000  1.0 -0.1578691012
C  C568  1  0.51011000  0.73267000  0.25261000  1.0 -0.1578691012
C  C569  1  0.22255000  0.48989000  0.25261000  1.0 -0.1578691012
C  C570  1  0.26733000  0.77745000  0.25261000  1.0 -0.1578691012
C  C571  1  0.73267000  0.51011000  0.75261000  1.0 -0.1578691012
C  C572  1  0.48989000  0.22255000  0.75261000  1.0 -0.1578691012
C  C573  1  0.77745000  0.26733000  0.75261000  1.0 -0.1578691012
C  C574  1  0.48989000  0.26733000  0.74739000  1.0 -0.1578691012
C  C575  1  0.77745000  0.51011000  0.74739000  1.0 -0.1578691012
C  C576  1  0.73267000  0.22255000  0.74739000  1.0 -0.1578691012
C  C577  1  0.25335000  0.50670000  0.25000000  1.0 0.0808086574
C  C578  1  0.49330000  0.74665000  0.25000000  1.0 0.0808086574
C  C579  1  0.25335000  0.74665000  0.25000000  1.0 0.0808086574
C  C580  1  0.74665000  0.49330000  0.75000000  1.0 0.0808086574
C  C581  1  0.50670000  0.25335000  0.75000000  1.0 0.0808086574
C  C582  1  0.74665000  0.25335000  0.75000000  1.0 0.0808086574
C  C583  1  0.27095000  0.54190000  0.25000000  1.0 0.0615865192
C  C584  1  0.45810000  0.72905000  0.25000000  1.0 0.0615865192
C  C585  1  0.27095000  0.72905000  0.25000000  1.0 0.0615865192
C  C586  1  0.72905000  0.45810000  0.75000000  1.0 0.0615865192
C  C587  1  0.54190000  0.27095000  0.75000000  1.0 0.0615865192
C  C588  1  0.72905000  0.27095000  0.75000000  1.0 0.0615865192
C  C589  1  0.30049000  0.55750000  0.24500000  1.0 -0.1578691012
C  C590  1  0.44250000  0.74300000  0.24500000  1.0 -0.1578691012
C  C591  1  0.25700000  0.69951000  0.24500000  1.0 -0.1578691012
C  C592  1  0.44250000  0.69951000  0.25500000  1.0 -0.1578691012
C  C593  1  0.25700000  0.55750000  0.25500000  1.0 -0.1578691012
C  C594  1  0.30049000  0.74300000  0.25500000  1.0 -0.1578691012
C  C595  1  0.69951000  0.44250000  0.75500000  1.0 -0.1578691012
C  C596  1  0.55750000  0.25700000  0.75500000  1.0 -0.1578691012
C  C597  1  0.74300000  0.30049000  0.75500000  1.0 -0.1578691012
C  C598  1  0.55750000  0.30049000  0.74500000  1.0 -0.1578691012
C  C599  1  0.74300000  0.44250000  0.74500000  1.0 -0.1578691012
C  C600  1  0.69951000  0.25700000  0.74500000  1.0 -0.1578691012
C  C601  1  0.31591000  0.58787000  0.24730000  1.0 -0.1507132258
C  C602  1  0.41213000  0.72805000  0.24730000  1.0 -0.1507132258
C  C603  1  0.27195000  0.68409000  0.24730000  1.0 -0.1507132258
C  C604  1  0.41213000  0.68409000  0.25270000  1.0 -0.1507132258
C  C605  1  0.27195000  0.58787000  0.25270000  1.0 -0.1507132258
C  C606  1  0.31591000  0.72805000  0.25270000  1.0 -0.1507132258
C  C607  1  0.68409000  0.41213000  0.75270000  1.0 -0.1507132258
C  C608  1  0.58787000  0.27195000  0.75270000  1.0 -0.1507132258
C  C609  1  0.72805000  0.31591000  0.75270000  1.0 -0.1507132258
C  C610  1  0.58787000  0.31591000  0.74730000  1.0 -0.1507132258
C  C611  1  0.72805000  0.41213000  0.74730000  1.0 -0.1507132258
C  C612  1  0.68409000  0.27195000  0.74730000  1.0 -0.1507132258
C  C613  1  0.30155000  0.60310000  0.25000000  1.0 0.0615865192
C  C614  1  0.39690000  0.69845000  0.25000000  1.0 0.0615865192
C  C615  1  0.30155000  0.69845000  0.25000000  1.0 0.0615865192
C  C616  1  0.69845000  0.39690000  0.75000000  1.0 0.0615865192
C  C617  1  0.60310000  0.30155000  0.75000000  1.0 0.0615865192
C  C618  1  0.69845000  0.30155000  0.75000000  1.0 0.0615865192
C  C619  1  0.31829000  0.63658000  0.25000000  1.0 0.070579978
C  C620  1  0.36342000  0.68171000  0.25000000  1.0 0.070579978
C  C621  1  0.31829000  0.68171000  0.25000000  1.0 0.070579978
C  C622  1  0.68171000  0.36342000  0.75000000  1.0 0.070579978
C  C623  1  0.63658000  0.31829000  0.75000000  1.0 0.070579978
C  C624  1  0.68171000  0.31829000  0.75000000  1.0 0.070579978
C  C625  1  0.34837000  0.65163000  0.25000000  1.0 -0.1915178749
C  C626  1  0.34837000  0.69675000  0.25000000  1.0 -0.1915178749
C  C627  1  0.30325000  0.65163000  0.25000000  1.0 -0.1915178749
C  C628  1  0.65163000  0.34837000  0.75000000  1.0 -0.1915178749
C  C629  1  0.65163000  0.30325000  0.75000000  1.0 -0.1915178749
C  C630  1  0.69675000  0.34837000  0.75000000  1.0 -0.1915178749
C  C631  1  0.12695000  0.25390000  0.25000000  1.0 0.5791948763
C  C632  1  0.74610000  0.87305000  0.25000000  1.0 0.5791948763
C  C633  1  0.12695000  0.87305000  0.25000000  1.0 0.5791948763
C  C634  1  0.87305000  0.74610000  0.75000000  1.0 0.5791948763
C  C635  1  0.25390000  0.12695000  0.75000000  1.0 0.5791948763
C  C636  1  0.87305000  0.12695000  0.75000000  1.0 0.5791948763
C  C637  1  0.11020000  0.22040000  0.25000000  1.0 -0.0517113213
C  C638  1  0.77960000  0.88980000  0.25000000  1.0 -0.0517113213
C  C639  1  0.11020000  0.88980000  0.25000000  1.0 -0.0517113213
C  C640  1  0.88980000  0.77960000  0.75000000  1.0 -0.0517113213
C  C641  1  0.22040000  0.11020000  0.75000000  1.0 -0.0517113213
C  C642  1  0.88980000  0.11020000  0.75000000  1.0 -0.0517113213
C  C643  1  0.10700000  0.20630000  0.22281000  1.0 -0.0887550114
C  C644  1  0.79370000  0.90071000  0.22281000  1.0 -0.0887550114
C  C645  1  0.09929000  0.89300000  0.22281000  1.0 -0.0887550114
C  C646  1  0.79370000  0.89300000  0.27719000  1.0 -0.0887550114
C  C647  1  0.09929000  0.20630000  0.27719000  1.0 -0.0887550114
C  C648  1  0.10700000  0.90071000  0.27719000  1.0 -0.0887550114
C  C649  1  0.89300000  0.79370000  0.77719000  1.0 -0.0887550114
C  C650  1  0.20630000  0.09929000  0.77719000  1.0 -0.0887550114
C  C651  1  0.90071000  0.10700000  0.77719000  1.0 -0.0887550114
C  C652  1  0.20630000  0.10700000  0.72281000  1.0 -0.0887550114
C  C653  1  0.90071000  0.79370000  0.72281000  1.0 -0.0887550114
C  C654  1  0.89300000  0.09929000  0.72281000  1.0 -0.0887550114
C  C655  1  0.09090000  0.17520000  0.22279000  1.0 -0.1578691012
C  C656  1  0.82480000  0.91571000  0.22279000  1.0 -0.1578691012
C  C657  1  0.08429000  0.90910000  0.22279000  1.0 -0.1578691012
C  C658  1  0.82480000  0.90910000  0.27721000  1.0 -0.1578691012
C  C659  1  0.08429000  0.17520000  0.27721000  1.0 -0.1578691012
C  C660  1  0.09090000  0.91571000  0.27721000  1.0 -0.1578691012
C  C661  1  0.90910000  0.82480000  0.77721000  1.0 -0.1578691012
C  C662  1  0.17520000  0.08429000  0.77721000  1.0 -0.1578691012
C  C663  1  0.91571000  0.09090000  0.77721000  1.0 -0.1578691012
C  C664  1  0.17520000  0.09090000  0.72279000  1.0 -0.1578691012
C  C665  1  0.91571000  0.82480000  0.72279000  1.0 -0.1578691012
C  C666  1  0.90910000  0.08429000  0.72279000  1.0 -0.1578691012
C  C667  1  0.07975000  0.15950000  0.25000000  1.0 0.0808086574
C  C668  1  0.84050000  0.92025000  0.25000000  1.0 0.0808086574
C  C669  1  0.07975000  0.92025000  0.25000000  1.0 0.0808086574
C  C670  1  0.92025000  0.84050000  0.75000000  1.0 0.0808086574
C  C671  1  0.15950000  0.07975000  0.75000000  1.0 0.0808086574
C  C672  1  0.92025000  0.07975000  0.75000000  1.0 0.0808086574
C  C673  1  0.06250000  0.12500000  0.25000000  1.0 0.0615865192
C  C674  1  0.87500000  0.93750000  0.25000000  1.0 0.0615865192
C  C675  1  0.06250000  0.93750000  0.25000000  1.0 0.0615865192
C  C676  1  0.93750000  0.87500000  0.75000000  1.0 0.0615865192
C  C677  1  0.12500000  0.06250000  0.75000000  1.0 0.0615865192
C  C678  1  0.93750000  0.06250000  0.75000000  1.0 0.0615865192
C  C679  1  0.03344000  0.10950000  0.25790000  1.0 -0.1507132258
C  C680  1  0.89050000  0.92395000  0.25790000  1.0 -0.1507132258
C  C681  1  0.07605000  0.96656000  0.25790000  1.0 -0.1507132258
C  C682  1  0.89050000  0.96656000  0.24210000  1.0 -0.1507132258
C  C683  1  0.07605000  0.10950000  0.24210000  1.0 -0.1507132258
C  C684  1  0.03344000  0.92395000  0.24210000  1.0 -0.1507132258
C  C685  1  0.96656000  0.89050000  0.74210000  1.0 -0.1507132258
C  C686  1  0.10950000  0.07605000  0.74210000  1.0 -0.1507132258
C  C687  1  0.92395000  0.03344000  0.74210000  1.0 -0.1507132258
C  C688  1  0.10950000  0.03344000  0.75790000  1.0 -0.1507132258
C  C689  1  0.92395000  0.89050000  0.75790000  1.0 -0.1507132258
C  C690  1  0.96656000  0.07605000  0.75790000  1.0 -0.1507132258
C  C691  1  0.01900000  0.07940000  0.25980000  1.0 -0.1507132258
C  C692  1  0.92060000  0.93961000  0.25980000  1.0 -0.1507132258
C  C693  1  0.06039000  0.98100000  0.25980000  1.0 -0.1507132258
C  C694  1  0.92060000  0.98100000  0.24020000  1.0 -0.1507132258
C  C695  1  0.06039000  0.07940000  0.24020000  1.0 -0.1507132258
C  C696  1  0.01900000  0.93961000  0.24020000  1.0 -0.1507132258
C  C697  1  0.98100000  0.92060000  0.74020000  1.0 -0.1507132258
C  C698  1  0.07940000  0.06039000  0.74020000  1.0 -0.1507132258
C  C699  1  0.93961000  0.01900000  0.74020000  1.0 -0.1507132258
C  C700  1  0.07940000  0.01900000  0.75980000  1.0 -0.1507132258
C  C701  1  0.93961000  0.92060000  0.75980000  1.0 -0.1507132258
C  C702  1  0.98100000  0.06039000  0.75980000  1.0 -0.1507132258
C  C703  1  0.03265000  0.06530000  0.25000000  1.0 0.0374321984
C  C704  1  0.93470000  0.96735000  0.25000000  1.0 0.0374321984
C  C705  1  0.03265000  0.96735000  0.25000000  1.0 0.0374321984
C  C706  1  0.96735000  0.93470000  0.75000000  1.0 0.0374321984
C  C707  1  0.06530000  0.03265000  0.75000000  1.0 0.0374321984
C  C708  1  0.96735000  0.03265000  0.75000000  1.0 0.0374321984
C  C709  1  0.01496000  0.02993000  0.25000000  1.0 0.0808086574
C  C710  1  0.97007000  0.98504000  0.25000000  1.0 0.0808086574
C  C711  1  0.01496000  0.98504000  0.25000000  1.0 0.0808086574
C  C712  1  0.98504000  0.97007000  0.75000000  1.0 0.0808086574
C  C713  1  0.02993000  0.01496000  0.75000000  1.0 0.0808086574
C  C714  1  0.98504000  0.01496000  0.75000000  1.0 0.0808086574
C  C715  1  0.03016000  0.01508000  0.25000000  1.0 -0.1915178749
C  C716  1  0.98492000  0.01508000  0.25000000  1.0 -0.1915178749
C  C717  1  0.98492000  0.96984000  0.25000000  1.0 -0.1915178749
C  C718  1  0.96984000  0.98492000  0.75000000  1.0 -0.1915178749
C  C719  1  0.01508000  0.98492000  0.75000000  1.0 -0.1915178749
C  C720  1  0.01508000  0.03016000  0.75000000  1.0 -0.1915178749
C  C721  1  0.30570000  0.45520000  0.64060000  1.0 -0.0887550114
C  C722  1  0.54480000  0.85051000  0.64060000  1.0 -0.0887550114
C  C723  1  0.14949000  0.69430000  0.64060000  1.0 -0.0887550114
C  C724  1  0.54480000  0.69430000  0.85940000  1.0 -0.0887550114
C  C725  1  0.14949000  0.45520000  0.85940000  1.0 -0.0887550114
C  C726  1  0.30570000  0.85051000  0.85940000  1.0 -0.0887550114
C  C727  1  0.69430000  0.54480000  0.35940000  1.0 -0.0801137112
C  C728  1  0.45520000  0.14949000  0.35940000  1.0 -0.0887550114
C  C729  1  0.85051000  0.30570000  0.35940000  1.0 -0.0801137112
C  C730  1  0.45520000  0.30570000  0.14060000  1.0 -0.0801137112
C  C731  1  0.85051000  0.54480000  0.14060000  1.0 -0.0801137112
C  C732  1  0.69430000  0.14949000  0.14060000  1.0 -0.0887550114
C  C733  1  0.31090000  0.48220000  0.65240000  1.0 -0.0597976465
C  C734  1  0.51780000  0.82871000  0.65240000  1.0 -0.0597976465
C  C735  1  0.17129000  0.68910000  0.65240000  1.0 -0.0597976465
C  C736  1  0.51780000  0.68910000  0.84760000  1.0 -0.0597976465
C  C737  1  0.17129000  0.48220000  0.84760000  1.0 -0.0597976465
C  C738  1  0.31090000  0.82871000  0.84760000  1.0 -0.0597976465
C  C739  1  0.68910000  0.51780000  0.34760000  1.0 -0.0597976465
C  C740  1  0.48220000  0.17129000  0.34760000  1.0 -0.0597976465
C  C741  1  0.82871000  0.31090000  0.34760000  1.0 -0.0597976465
C  C742  1  0.48220000  0.31090000  0.15240000  1.0 -0.0597976465
C  C743  1  0.82871000  0.51780000  0.15240000  1.0 -0.0597976465
C  C744  1  0.68910000  0.17129000  0.15240000  1.0 -0.0597976465
C  C745  1  0.30770000  0.49920000  0.60870000  1.0 -0.0597976465
C  C746  1  0.50080000  0.80851000  0.60870000  1.0 -0.0597976465
C  C747  1  0.19149000  0.69230000  0.60870000  1.0 -0.0597976465
C  C748  1  0.50080000  0.69230000  0.89130000  1.0 -0.0597976465
C  C749  1  0.19149000  0.49920000  0.89130000  1.0 -0.0597976465
C  C750  1  0.30770000  0.80851000  0.89130000  1.0 -0.0517113213
C  C751  1  0.69230000  0.50080000  0.39130000  1.0 -0.0517113213
C  C752  1  0.49920000  0.19149000  0.39130000  1.0 -0.0517113213
C  C753  1  0.80851000  0.30770000  0.39130000  1.0 -0.0597976465
C  C754  1  0.49920000  0.30770000  0.10870000  1.0 -0.0597976465
C  C755  1  0.80851000  0.50080000  0.10870000  1.0 -0.0597976465
C  C756  1  0.69230000  0.19149000  0.10870000  1.0 -0.0597976465
C  C757  1  0.30860000  0.47660000  0.59160000  1.0 -0.0887550114
C  C758  1  0.52340000  0.83201000  0.59160000  1.0 -0.0887550114
C  C759  1  0.16799000  0.69140000  0.59160000  1.0 -0.0887550114
C  C760  1  0.52340000  0.69140000  0.90840000  1.0 -0.0887550114
C  C761  1  0.16799000  0.47660000  0.90840000  1.0 -0.0887550114
C  C762  1  0.30860000  0.83201000  0.90840000  1.0 -0.0887550114
C  C763  1  0.69140000  0.52340000  0.40840000  1.0 -0.0887550114
C  C764  1  0.47660000  0.16799000  0.40840000  1.0 -0.0887550114
C  C765  1  0.83201000  0.30860000  0.40840000  1.0 -0.0887550114
C  C766  1  0.47660000  0.30860000  0.09160000  1.0 -0.0887550114
C  C767  1  0.83201000  0.52340000  0.09160000  1.0 -0.0887550114
C  C768  1  0.69140000  0.16799000  0.09160000  1.0 -0.0887550114
O  O1  1  0.17654000  0.32442000  0.32146000  1.0 -0.4310959848
O  O2  1  0.67558000  0.85213000  0.32146000  1.0 -0.4310959848
O  O3  1  0.14787000  0.82346000  0.32146000  1.0 -0.4310959848
O  O4  1  0.67558000  0.82346000  0.17854000  1.0 -0.4310959848
O  O5  1  0.14787000  0.32442000  0.17854000  1.0 -0.4310959848
O  O6  1  0.17654000  0.85213000  0.17854000  1.0 -0.4310959848
O  O7  1  0.82346000  0.67558000  0.67854000  1.0 -0.4310959848
O  O8  1  0.32442000  0.14787000  0.67854000  1.0 -0.4310959848
O  O9  1  0.85213000  0.17654000  0.67854000  1.0 -0.4310959848
O  O10  1  0.32442000  0.17654000  0.82146000  1.0 -0.4310959848
O  O11  1  0.85213000  0.67558000  0.82146000  1.0 -0.4310959848
O  O12  1  0.82346000  0.14787000  0.82146000  1.0 -0.4310959848
O  O13  1  0.21832000  0.35699000  0.30295000  1.0 -0.4602477006
O  O14  1  0.64301000  0.86134000  0.30295000  1.0 -0.4602477006
O  O15  1  0.13866000  0.78168000  0.30295000  1.0 -0.4602477006
O  O16  1  0.64301000  0.78168000  0.19705000  1.0 -0.4602477006
O  O17  1  0.13866000  0.35699000  0.19705000  1.0 -0.4602477006
O  O18  1  0.21832000  0.86134000  0.19705000  1.0 -0.4602477006
O  O19  1  0.78168000  0.64301000  0.69705000  1.0 -0.4602477006
O  O20  1  0.35699000  0.13866000  0.69705000  1.0 -0.4602477006
O  O21  1  0.86134000  0.21832000  0.69705000  1.0 -0.4602477006
O  O22  1  0.35699000  0.21832000  0.80295000  1.0 -0.4602477006
O  O23  1  0.86134000  0.64301000  0.80295000  1.0 -0.4602477006
O  O24  1  0.78168000  0.13866000  0.80295000  1.0 -0.4602477006
O  O25  1  0.23388000  0.34757000  0.23179000  1.0 -0.4683713602
O  O26  1  0.65243000  0.88632000  0.23179000  1.0 -0.4683713602
O  O27  1  0.11368000  0.76612000  0.23179000  1.0 -0.4683713602
O  O28  1  0.65243000  0.76612000  0.26821000  1.0 -0.4683713602
O  O29  1  0.11368000  0.34757000  0.26821000  1.0 -0.4683713602
O  O30  1  0.23388000  0.88632000  0.26821000  1.0 -0.4683713602
O  O31  1  0.76612000  0.65243000  0.76821000  1.0 -0.4683713602
O  O32  1  0.34757000  0.11368000  0.76821000  1.0 -0.4683713602
O  O33  1  0.88632000  0.23388000  0.76821000  1.0 -0.4683713602
O  O34  1  0.34757000  0.23388000  0.73179000  1.0 -0.4683713602
O  O35  1  0.88632000  0.65243000  0.73179000  1.0 -0.4683713602
O  O36  1  0.76612000  0.11368000  0.73179000  1.0 -0.4683713602
O  O37  1  0.11605000  0.31443000  0.29999000  1.0 -0.5520129673
O  O38  1  0.68557000  0.80163000  0.29999000  1.0 -0.5520129673
O  O39  1  0.19837000  0.88395000  0.29999000  1.0 -0.5520129673
O  O40  1  0.68557000  0.88395000  0.20001000  1.0 -0.5520129673
O  O41  1  0.19837000  0.31443000  0.20001000  1.0 -0.5520129673
O  O42  1  0.11605000  0.80163000  0.20001000  1.0 -0.5520129673
O  O43  1  0.88395000  0.68557000  0.70001000  1.0 -0.5520129673
O  O44  1  0.31443000  0.19837000  0.70001000  1.0 -0.5520129673
O  O45  1  0.80163000  0.11605000  0.70001000  1.0 -0.5520129673
O  O46  1  0.31443000  0.11605000  0.79999000  1.0 -0.5520129673
O  O47  1  0.80163000  0.68557000  0.79999000  1.0 -0.5520129673
O  O48  1  0.88395000  0.19837000  0.79999000  1.0 -0.5520129673
O  O49  1  0.33101000  0.62854000  0.69092000  1.0 -0.1915178749
O  O50  1  0.37146000  0.70248000  0.69092000  1.0 -0.1915178749
O  O51  1  0.29752000  0.66899000  0.69092000  1.0 -0.1915178749
O  O52  1  0.37146000  0.66899000  0.80908000  1.0 -0.1915178749
O  O53  1  0.29752000  0.62854000  0.80908000  1.0 -0.1915178749
O  O54  1  0.33101000  0.70248000  0.80908000  1.0 -0.1915178749
O  O55  1  0.66899000  0.37146000  0.30908000  1.0 -0.1915178749
O  O56  1  0.62854000  0.29752000  0.30908000  1.0 -0.1915178749
O  O57  1  0.70248000  0.33101000  0.30908000  1.0 -0.1915178749
O  O58  1  0.62854000  0.33101000  0.19092000  1.0 -0.1915178749
O  O59  1  0.70248000  0.37146000  0.19092000  1.0 -0.1915178749
O  O60  1  0.66899000  0.29752000  0.19092000  1.0 -0.1915178749
O  O61  1  0.33910000  0.61155000  0.73345000  1.0 -0.2192024387
O  O62  1  0.38845000  0.72756000  0.73345000  1.0 -0.2192024387
O  O63  1  0.27244000  0.66090000  0.73345000  1.0 -0.2192024387
O  O64  1  0.38845000  0.66090000  0.76655000  1.0 -0.2192024387
O  O65  1  0.27244000  0.61155000  0.76655000  1.0 -0.2192024387
O  O66  1  0.33910000  0.72756000  0.76655000  1.0 -0.2192024387
O  O67  1  0.66090000  0.38845000  0.26655000  1.0 -0.2192024387
O  O68  1  0.61155000  0.27244000  0.26655000  1.0 -0.2192024387
O  O69  1  0.72756000  0.33910000  0.26655000  1.0 -0.2192024387
O  O70  1  0.61155000  0.33910000  0.23345000  1.0 -0.2192024387
O  O71  1  0.72756000  0.38845000  0.23345000  1.0 -0.2192024387
O  O72  1  0.66090000  0.27244000  0.23345000  1.0 -0.2192024387
O  O73  1  0.22039000  0.39862000  0.24841000  1.0 -0.5010375999
O  O74  1  0.60138000  0.82178000  0.24841000  1.0 -0.5010375999
O  O75  1  0.17822000  0.77961000  0.24841000  1.0 -0.5010375999
O  O76  1  0.60138000  0.77961000  0.25159000  1.0 -0.5010375999
O  O77  1  0.17822000  0.39862000  0.25159000  1.0 -0.5010375999
O  O78  1  0.22039000  0.82178000  0.25159000  1.0 -0.5010375999
O  O79  1  0.77961000  0.60138000  0.75159000  1.0 -0.5010375999
O  O80  1  0.39862000  0.17822000  0.75159000  1.0 -0.5010375999
O  O81  1  0.82178000  0.22039000  0.75159000  1.0 -0.5010375999
O  O82  1  0.39862000  0.22039000  0.74841000  1.0 -0.5010375999
O  O83  1  0.82178000  0.60138000  0.74841000  1.0 -0.5010375999
O  O84  1  0.77961000  0.17822000  0.74841000  1.0 -0.5010375999
O  O85  1  0.12827000  0.26587000  0.27560000  1.0 -0.4683713602
O  O86  1  0.73413000  0.86241000  0.27560000  1.0 -0.4602477006
O  O87  1  0.13759000  0.87173000  0.27560000  1.0 -0.4683713602
O  O88  1  0.73413000  0.87173000  0.22440000  1.0 -0.4683713602
O  O89  1  0.13759000  0.26587000  0.22440000  1.0 -0.4683713602
O  O90  1  0.12827000  0.86241000  0.22440000  1.0 -0.4683713602
O  O91  1  0.87173000  0.73413000  0.72440000  1.0 -0.4683713602
O  O92  1  0.26587000  0.13759000  0.72440000  1.0 -0.4683713602
O  O93  1  0.86241000  0.12827000  0.72440000  1.0 -0.4602477006
O  O94  1  0.26587000  0.12827000  0.77560000  1.0 -0.4602477006
O  O95  1  0.86241000  0.73413000  0.77560000  1.0 -0.4683713602
O  O96  1  0.87173000  0.13759000  0.77560000  1.0 -0.4683713602
O  O97  1  0.33333333  0.66666667  0.75000000  1.0 -0.7086984091
O  O98  1  0.66666667  0.33333333  0.25000000  1.0 -0.7086984091
O  O99  1  0.16659000  0.33319000  0.25000000  1.0 -0.5147026054
O  O100  1  0.66681000  0.83341000  0.25000000  1.0 -0.5153034798
O  O101  1  0.16659000  0.83341000  0.25000000  1.0 -0.5153034798
O  O102  1  0.83341000  0.66681000  0.75000000  1.0 -0.5147026054
O  O103  1  0.33319000  0.16659000  0.75000000  1.0 -0.5147026054
O  O104  1  0.83341000  0.16659000  0.75000000  1.0 -0.5153034798
O  O105  1  0.18239000  0.31056000  0.26933000  1.0 -0.5792830708
O  O106  1  0.68944000  0.87184000  0.26933000  1.0 -0.5792830708
O  O107  1  0.12816000  0.81761000  0.26933000  1.0 -0.5792830708
O  O108  1  0.68944000  0.81761000  0.23067000  1.0 -0.5792830708
O  O109  1  0.12816000  0.31056000  0.23067000  1.0 -0.5792830708
O  O110  1  0.18239000  0.87184000  0.23067000  1.0 -0.5792830708
O  O111  1  0.81761000  0.68944000  0.73067000  1.0 -0.5792830708
O  O112  1  0.31056000  0.12816000  0.73067000  1.0 -0.5792830708
O  O113  1  0.87184000  0.18239000  0.73067000  1.0 -0.5792830708
O  O114  1  0.31056000  0.18239000  0.76933000  1.0 -0.5792830708
O  O115  1  0.87184000  0.68944000  0.76933000  1.0 -0.5792830708
O  O116  1  0.81761000  0.12816000  0.76933000  1.0 -0.5792830708
O  O117  1  0.30530000  0.60720000  0.70460000  1.0 -0.281105297
O  O118  1  0.39280000  0.69811000  0.70460000  1.0 -0.281105297
O  O119  1  0.30189000  0.69470000  0.70460000  1.0 -0.281105297
O  O120  1  0.39280000  0.69470000  0.79540000  1.0 -0.281105297
O  O121  1  0.30189000  0.60720000  0.79540000  1.0 -0.281105297
O  O122  1  0.30530000  0.69811000  0.79540000  1.0 -0.281105297
O  O123  1  0.69470000  0.39280000  0.29540000  1.0 -0.281105297
O  O124  1  0.60720000  0.30189000  0.29540000  1.0 -0.281105297
O  O125  1  0.69811000  0.30530000  0.29540000  1.0 -0.281105297
O  O126  1  0.60720000  0.30530000  0.20460000  1.0 -0.281105297
O  O127  1  0.69811000  0.39280000  0.20460000  1.0 -0.281105297
O  O128  1  0.69470000  0.30189000  0.20460000  1.0 -0.281105297
O  O129  1  0.35290000  0.62476000  0.70980000  1.0 -0.0597976465
O  O130  1  0.37524000  0.72815000  0.70980000  1.0 -0.0597976465
O  O131  1  0.27185000  0.64710000  0.70980000  1.0 -0.0597976465
O  O132  1  0.37524000  0.64710000  0.79020000  1.0 -0.0597976465
O  O133  1  0.27185000  0.62476000  0.79020000  1.0 -0.0597976465
O  O134  1  0.35290000  0.72815000  0.79020000  1.0 -0.0597976465
O  O135  1  0.64710000  0.37524000  0.29020000  1.0 -0.0597976465
O  O136  1  0.62476000  0.27185000  0.29020000  1.0 -0.0597976465
O  O137  1  0.72815000  0.35290000  0.29020000  1.0 -0.0597976465
O  O138  1  0.62476000  0.35290000  0.20980000  1.0 -0.0597976465
O  O139  1  0.72815000  0.37524000  0.20980000  1.0 -0.0597976465
O  O140  1  0.64710000  0.27185000  0.20980000  1.0 -0.0597976465
