# DDEC6 charges by PACMAN v1.1 (https://github.com/mtap-research/PACMAN-charge/)
data_CUTBIE_ASR_pacman
_symmetry_space_group_name_H-M   'P 1'
_cell_length_a   17.76940000
_cell_length_b   17.76940000
_cell_length_c   13.17890000
_cell_angle_alpha   85.25120000
_cell_angle_beta   94.74880000
_cell_angle_gamma   129.30900000
_symmetry_Int_Tables_number   1
_chemical_formula_structural   LaC17(NO2)3
_chemical_formula_sum   'La4 C68 N12 O24'
_cell_volume   3206.19744863
_cell_formula_units_Z   4
loop_
 _symmetry_equiv_pos_site_id
 _symmetry_equiv_pos_as_xyz
  1  'x, y, z'
loop_
 _atom_site_type_symbol
 _atom_site_label
 _atom_site_symmetry_multiplicity
 _atom_site_fract_x
 _atom_site_fract_y
 _atom_site_fract_z
 _atom_site_occupancy
 _atom_site_charge
La  La1  1  0.39460000  0.01836000  0.47139000  1.0 1.8490953791
La  La2  1  0.01836000  0.39460000  0.02861000  1.0 1.8490953791
La  La3  1  0.60540000  0.98164000  0.52861000  1.0 1.8490953791
La  La4  1  0.98164000  0.60540000  0.97139000  1.0 1.8490953791
C  C1  1  0.38421000  0.24359000  0.56800000  1.0 -0.0511239394
C  C2  1  0.24359000  0.38421000  0.93200000  1.0 -0.0511239394
C  C3  1  0.61579000  0.75641000  0.43200000  1.0 -0.0511239394
C  C4  1  0.75641000  0.61579000  0.06800000  1.0 -0.0511239394
C  C5  1  0.47072000  0.33888000  0.56900000  1.0 0.0484570247
C  C6  1  0.33888000  0.47072000  0.93100000  1.0 0.0484570247
C  C7  1  0.52928000  0.66112000  0.43100000  1.0 0.0484570247
C  C8  1  0.66112000  0.52928000  0.06900000  1.0 0.0484570247
C  C9  1  0.47123000  0.41329000  0.59560000  1.0 0.0300715331
C  C10  1  0.41329000  0.47123000  0.90440000  1.0 0.0300715331
C  C11  1  0.52877000  0.58671000  0.40440000  1.0 0.0300715331
C  C12  1  0.58671000  0.52877000  0.09560000  1.0 0.0300715331
C  C13  1  0.38525000  0.39245000  0.62107000  1.0 0.0366957264
C  C14  1  0.39245000  0.38525000  0.87893000  1.0 0.0366957264
C  C15  1  0.61475000  0.60755000  0.37893000  1.0 0.0366957264
C  C16  1  0.60755000  0.61475000  0.12107000  1.0 0.0366957264
C  C17  1  0.29874000  0.29718000  0.62000000  1.0 -0.0328404535
C  C18  1  0.29718000  0.29874000  0.88000000  1.0 -0.0328404535
C  C19  1  0.70126000  0.70282000  0.38000000  1.0 -0.0328404535
C  C20  1  0.70282000  0.70126000  0.12000000  1.0 -0.0328404535
C  C21  1  0.29822000  0.22276000  0.59350000  1.0 0.0300715331
C  C22  1  0.22276000  0.29822000  0.90650000  1.0 0.0366957264
C  C23  1  0.70178000  0.77724000  0.40650000  1.0 0.0300715331
C  C24  1  0.77724000  0.70178000  0.09350000  1.0 0.0300715331
C  C25  1  0.38401000  0.46795000  0.64667000  1.0 0.1212946607
C  C26  1  0.46795000  0.38401000  0.85333000  1.0 0.1212946607
C  C27  1  0.61599000  0.53205000  0.35333000  1.0 0.1212946607
C  C28  1  0.53205000  0.61599000  0.14667000  1.0 0.1212946607
C  C29  1  0.30809000  0.47295000  0.65470000  1.0 -0.0978356813
C  C30  1  0.47295000  0.30809000  0.84530000  1.0 -0.0978356813
C  C31  1  0.69191000  0.52705000  0.34530000  1.0 -0.0978356813
C  C32  1  0.52705000  0.69191000  0.15470000  1.0 -0.0978356813
C  C33  1  0.31125000  0.61135000  0.68560000  1.0 0.1564960862
C  C34  1  0.61135000  0.31125000  0.81440000  1.0 0.1564960862
C  C35  1  0.68875000  0.38865000  0.31440000  1.0 0.1564960862
C  C36  1  0.38865000  0.68875000  0.18560000  1.0 0.1564960862
C  C37  1  0.34968000  0.70032000  0.63580000  1.0 -0.0736307157
C  C38  1  0.70032000  0.34968000  0.86420000  1.0 -0.0788465199
C  C39  1  0.65032000  0.29968000  0.36420000  1.0 -0.0736307157
C  C40  1  0.29968000  0.65032000  0.13580000  1.0 -0.0736307157
C  C41  1  0.30776000  0.74384000  0.64570000  1.0 -0.0431348569
C  C42  1  0.74384000  0.30776000  0.85430000  1.0 -0.0431348569
C  C43  1  0.69224000  0.25616000  0.35430000  1.0 -0.0431348569
C  C44  1  0.25616000  0.69224000  0.14570000  1.0 -0.0431348569
C  C45  1  0.22731000  0.69829000  0.70540000  1.0 0.0776236887
C  C46  1  0.69829000  0.22731000  0.79460000  1.0 0.0776236887
C  C47  1  0.77269000  0.30171000  0.29460000  1.0 0.0776236887
C  C48  1  0.30171000  0.77269000  0.20540000  1.0 0.0776236887
C  C49  1  0.18888000  0.60932000  0.75520000  1.0 -0.0431348569
C  C50  1  0.60932000  0.18888000  0.74480000  1.0 -0.0431348569
C  C51  1  0.81112000  0.39068000  0.24480000  1.0 -0.0431348569
C  C52  1  0.39068000  0.81112000  0.25520000  1.0 -0.0431348569
C  C53  1  0.23080000  0.56580000  0.74530000  1.0 -0.0788465199
C  C54  1  0.56580000  0.23080000  0.75470000  1.0 -0.0788465199
C  C55  1  0.76920000  0.43420000  0.25470000  1.0 -0.0788465199
C  C56  1  0.43420000  0.76920000  0.24530000  1.0 -0.0788465199
C  C57  1  0.38410000  0.16510000  0.53550000  1.0 0.6103115725
C  C58  1  0.16510000  0.38410000  0.96450000  1.0 0.6103115725
C  C59  1  0.61590000  0.83490000  0.46450000  1.0 0.6103115725
C  C60  1  0.83490000  0.61590000  0.03550000  1.0 0.6103115725
C  C61  1  0.34680000  0.83880000  0.59180000  1.0 0.6462042975
C  C62  1  0.83880000  0.34680000  0.90820000  1.0 0.6462042975
C  C63  1  0.65320000  0.16120000  0.40820000  1.0 0.6462042975
C  C64  1  0.16120000  0.65320000  0.09180000  1.0 0.6462042975
C  C65  1  0.10370000  0.56190000  0.82280000  1.0 0.6562558162
C  C66  1  0.56190000  0.10370000  0.67720000  1.0 0.6562558162
C  C67  1  0.89630000  0.43810000  0.17720000  1.0 0.6562558162
C  C68  1  0.43810000  0.89630000  0.32280000  1.0 0.6562558162
N  N1  1  0.35129000  0.57031000  0.67530000  1.0 0.1212946607
N  N2  1  0.57031000  0.35129000  0.82470000  1.0 0.12607037
N  N3  1  0.64871000  0.42969000  0.32470000  1.0 0.1212946607
N  N4  1  0.42969000  0.64871000  0.17530000  1.0 0.1212946607
N  N5  1  0.45389000  0.62545000  0.68010000  1.0 -0.0881471159
N  N6  1  0.62545000  0.45389000  0.81990000  1.0 -0.0881471159
N  N7  1  0.54611000  0.37455000  0.31990000  1.0 -0.0881471159
N  N8  1  0.37455000  0.54611000  0.18010000  1.0 -0.0881471159
N  N9  1  0.47413000  0.56219000  0.66240000  1.0 -0.2234262144
N  N10  1  0.56219000  0.47413000  0.83760000  1.0 -0.2234262144
N  N11  1  0.52587000  0.43781000  0.33760000  1.0 -0.2234262144
N  N12  1  0.43781000  0.52587000  0.16240000  1.0 -0.2234262144
O  O1  1  0.46307000  0.19053000  0.50280000  1.0 -0.593077161
O  O2  1  0.19053000  0.46307000  0.99720000  1.0 -0.593077161
O  O3  1  0.53693000  0.80947000  0.49720000  1.0 -0.593077161
O  O4  1  0.80947000  0.53693000  0.00280000  1.0 -0.593077161
O  O5  1  0.30840000  0.07720000  0.54170000  1.0 -0.593077161
O  O6  1  0.07720000  0.30840000  0.95830000  1.0 -0.5965759111
O  O7  1  0.69160000  0.92280000  0.45830000  1.0 -0.593077161
O  O8  1  0.92280000  0.69160000  0.04170000  1.0 -0.593077161
O  O9  1  0.42959000  0.89021000  0.55340000  1.0 -0.677425052
O  O10  1  0.89021000  0.42959000  0.94660000  1.0 -0.677425052
O  O11  1  0.57041000  0.10979000  0.44660000  1.0 -0.677425052
O  O12  1  0.10979000  0.57041000  0.05340000  1.0 -0.677425052
O  O13  1  0.29474000  0.86366000  0.58280000  1.0 -0.5714472187
O  O14  1  0.86366000  0.29474000  0.91720000  1.0 -0.5714472187
O  O15  1  0.70526000  0.13634000  0.41720000  1.0 -0.5714472187
O  O16  1  0.13634000  0.70526000  0.08280000  1.0 -0.5714472187
O  O17  1  0.06398000  0.47622000  0.85550000  1.0 -0.5965759111
O  O18  1  0.47622000  0.06398000  0.64450000  1.0 -0.5965759111
O  O19  1  0.93602000  0.52378000  0.14450000  1.0 -0.5965759111
O  O20  1  0.52378000  0.93602000  0.35550000  1.0 -0.5965759111
O  O21  1  0.07946000  0.61094000  0.84150000  1.0 -0.620820458
O  O22  1  0.61094000  0.07946000  0.65850000  1.0 -0.620820458
O  O23  1  0.92054000  0.38906000  0.15850000  1.0 -0.620820458
O  O24  1  0.38906000  0.92054000  0.34150000  1.0 -0.620820458
