# DDEC6 charges by PACMAN v1.1 (https://github.com/mtap-research/PACMAN-charge/)
data_CUTFUT_ion_pacman
_symmetry_space_group_name_H-M   'P 1'
_cell_length_a   13.65810000
_cell_length_b   32.41560000
_cell_length_c   40.57910000
_cell_angle_alpha   90.00000000
_cell_angle_beta   90.00000000
_cell_angle_gamma   90.00000000
_symmetry_Int_Tables_number   1
_chemical_formula_structural   AgBH48C46SN3(OF)3
_chemical_formula_sum   'Ag12 B12 H576 C552 S12 N36 O36 F36'
_cell_volume   17965.80838613
_cell_formula_units_Z   12
loop_
 _symmetry_equiv_pos_site_id
 _symmetry_equiv_pos_as_xyz
  1  'x, y, z'
loop_
 _atom_site_type_symbol
 _atom_site_label
 _atom_site_symmetry_multiplicity
 _atom_site_fract_x
 _atom_site_fract_y
 _atom_site_fract_z
 _atom_site_occupancy
 _atom_site_charge
Ag  Ag1  1  0.68412000  0.30431000  0.86983000  1.0 0.2833608677
Ag  Ag2  1  0.81588000  0.69569000  0.36983000  1.0 0.2833608677
Ag  Ag3  1  0.31588000  0.80431000  0.63017000  1.0 0.2833608677
Ag  Ag4  1  0.18412000  0.19569000  0.13017000  1.0 0.2833608677
Ag  Ag5  1  0.26426000  0.75548000  0.99934000  1.0 0.320755436
Ag  Ag6  1  0.23574000  0.24452000  0.49934000  1.0 0.320755436
Ag  Ag7  1  0.73574000  0.25548000  0.50066000  1.0 0.320755436
Ag  Ag8  1  0.76426000  0.74452000  0.00066000  1.0 0.320755436
Ag  Ag9  1  0.94873000  0.28693000  0.12361000  1.0 0.320755436
Ag  Ag10  1  0.55127000  0.71307000  0.62361000  1.0 0.320755436
Ag  Ag11  1  0.05127000  0.78693000  0.37639000  1.0 0.320755436
Ag  Ag12  1  0.44873000  0.21307000  0.87639000  1.0 0.320755436
B  B1  1  0.31340000  0.41950000  0.00220000  1.0 0.398585989
B  B2  1  0.18660000  0.58050000  0.50220000  1.0 0.398585989
B  B3  1  0.68660000  0.91950000  0.49780000  1.0 0.398585989
B  B4  1  0.81340000  0.08050000  0.99780000  1.0 0.398585989
B  B5  1  0.71770000  0.09140000  0.66270000  1.0 0.4192325164
B  B6  1  0.78230000  0.90860000  0.16270000  1.0 0.4192325164
B  B7  1  0.28230000  0.59140000  0.83730000  1.0 0.4192325164
B  B8  1  0.21770000  0.40860000  0.33730000  1.0 0.4192325164
B  B9  1  0.78010000  0.91390000  0.82490000  1.0 0.4115964387
B  B10  1  0.71990000  0.08610000  0.32490000  1.0 0.4115964387
B  B11  1  0.21990000  0.41390000  0.67510000  1.0 0.4115964387
B  B12  1  0.28010000  0.58610000  0.17510000  1.0 0.4115964387
H  H1  1  0.80310000  0.27430000  0.93540000  1.0 0.1209274655
H  H2  1  0.69690000  0.72570000  0.43540000  1.0 0.1209274655
H  H3  1  0.19690000  0.77430000  0.56460000  1.0 0.1209274655
H  H4  1  0.30310000  0.22570000  0.06460000  1.0 0.1209274655
H  H5  1  0.93400000  0.29560000  0.96760000  1.0 0.1310340497
H  H6  1  0.56600000  0.70440000  0.46760000  1.0 0.1310340497
H  H7  1  0.06600000  0.79560000  0.53240000  1.0 0.1310340497
H  H8  1  0.43400000  0.20440000  0.03240000  1.0 0.1310340497
H  H9  1  0.00610000  0.37960000  0.89900000  1.0 0.148852681
H  H10  1  0.49390000  0.62040000  0.39900000  1.0 0.148852681
H  H11  1  0.99390000  0.87960000  0.60100000  1.0 0.148852681
H  H12  1  0.50610000  0.12040000  0.10100000  1.0 0.148852681
H  H13  1  0.87520000  0.35830000  0.86680000  1.0 0.0995671492
H  H14  1  0.62480000  0.64170000  0.36680000  1.0 0.0995671492
H  H15  1  0.12480000  0.85830000  0.63320000  1.0 0.0995671492
H  H16  1  0.37520000  0.14170000  0.13320000  1.0 0.0995671492
H  H17  1  0.24450000  0.30570000  0.91810000  1.0 0.1310340497
H  H18  1  0.25550000  0.69430000  0.41810000  1.0 0.1310340497
H  H19  1  0.75550000  0.80570000  0.58190000  1.0 0.1310340497
H  H20  1  0.74450000  0.19430000  0.08190000  1.0 0.1310340497
H  H21  1  0.14400000  0.31770000  0.90210000  1.0 0.1310340497
H  H22  1  0.35600000  0.68230000  0.40210000  1.0 0.1310340497
H  H23  1  0.85600000  0.81770000  0.59790000  1.0 0.1310340497
H  H24  1  0.64400000  0.18230000  0.09790000  1.0 0.1310340497
H  H25  1  0.14770000  0.28460000  0.93020000  1.0 0.1392767183
H  H26  1  0.35230000  0.71540000  0.43020000  1.0 0.1392767183
H  H27  1  0.85230000  0.78460000  0.56980000  1.0 0.1392767183
H  H28  1  0.64770000  0.21540000  0.06980000  1.0 0.1392767183
H  H29  1  0.34310000  0.33500000  0.93470000  1.0 0.1310340497
H  H30  1  0.15690000  0.66500000  0.43470000  1.0 0.1310340497
H  H31  1  0.65690000  0.83500000  0.56530000  1.0 0.1310340497
H  H32  1  0.84310000  0.16500000  0.06530000  1.0 0.1310340497
H  H33  1  0.38310000  0.34490000  0.97000000  1.0 0.1392767183
H  H34  1  0.11690000  0.65510000  0.47000000  1.0 0.1392767183
H  H35  1  0.61690000  0.84490000  0.53000000  1.0 0.1392767183
H  H36  1  0.88310000  0.15510000  0.03000000  1.0 0.1392767183
H  H37  1  0.37340000  0.38020000  0.94380000  1.0 0.1100369205
H  H38  1  0.12660000  0.61980000  0.44380000  1.0 0.1100369205
H  H39  1  0.62660000  0.88020000  0.55620000  1.0 0.1100369205
H  H40  1  0.87340000  0.11980000  0.05620000  1.0 0.1100369205
H  H41  1  0.03800000  0.43410000  0.03230000  1.0 0.1310340497
H  H42  1  0.46200000  0.56590000  0.53230000  1.0 0.1310340497
H  H43  1  0.96200000  0.93410000  0.46770000  1.0 0.1310340497
H  H44  1  0.53800000  0.06590000  0.96770000  1.0 0.1310340497
H  H45  1  0.13280000  0.45860000  0.02260000  1.0 0.1392767183
H  H46  1  0.36720000  0.54140000  0.52260000  1.0 0.1392767183
H  H47  1  0.86720000  0.95860000  0.47740000  1.0 0.1392767183
H  H48  1  0.63280000  0.04140000  0.97740000  1.0 0.1392767183
H  H49  1  0.13930000  0.42170000  0.04740000  1.0 0.1310340497
H  H50  1  0.36070000  0.57830000  0.54740000  1.0 0.1310340497
H  H51  1  0.86070000  0.92170000  0.45260000  1.0 0.1310340497
H  H52  1  0.63930000  0.07830000  0.95260000  1.0 0.1310340497
H  H53  1  0.94070000  0.41010000  0.01250000  1.0 0.1310340497
H  H54  1  0.55930000  0.58990000  0.51250000  1.0 0.1310340497
H  H55  1  0.05930000  0.91010000  0.48750000  1.0 0.1310340497
H  H56  1  0.44070000  0.08990000  0.98750000  1.0 0.1310340497
H  H57  1  0.90820000  0.36610000  0.00080000  1.0 0.1310340497
H  H58  1  0.59180000  0.63390000  0.50080000  1.0 0.1310340497
H  H59  1  0.09180000  0.86610000  0.49920000  1.0 0.1310340497
H  H60  1  0.40820000  0.13390000  0.99920000  1.0 0.1310340497
H  H61  1  0.90560000  0.40320000  0.97610000  1.0 0.1310340497
H  H62  1  0.59440000  0.59680000  0.47610000  1.0 0.1310340497
H  H63  1  0.09440000  0.90320000  0.52390000  1.0 0.1310340497
H  H64  1  0.40560000  0.09680000  0.02390000  1.0 0.1310340497
H  H65  1  0.76730000  0.34390000  0.12910000  1.0 0.1209274655
H  H66  1  0.73270000  0.65610000  0.62910000  1.0 0.1209274655
H  H67  1  0.23270000  0.84390000  0.37090000  1.0 0.1209274655
H  H68  1  0.26730000  0.15610000  0.87090000  1.0 0.1209274655
H  H69  1  0.63390000  0.37060000  0.10080000  1.0 0.1392767183
H  H70  1  0.86610000  0.62940000  0.60080000  1.0 0.1392767183
H  H71  1  0.36610000  0.87060000  0.39920000  1.0 0.1392767183
H  H72  1  0.13390000  0.12940000  0.89920000  1.0 0.1392767183
H  H73  1  0.71080000  0.30550000  0.02060000  1.0 0.1392767183
H  H74  1  0.78920000  0.69450000  0.52060000  1.0 0.1392767183
H  H75  1  0.28920000  0.80550000  0.47940000  1.0 0.1392767183
H  H76  1  0.21080000  0.19450000  0.97940000  1.0 0.1392767183
H  H77  1  0.84410000  0.27880000  0.04890000  1.0 0.1100369205
H  H78  1  0.65590000  0.72120000  0.54890000  1.0 0.1100369205
H  H79  1  0.15590000  0.77880000  0.45110000  1.0 0.1100369205
H  H80  1  0.34410000  0.22120000  0.95110000  1.0 0.1100369205
H  H81  1  0.68700000  0.42330000  0.99270000  1.0 0.1392767183
H  H82  1  0.81300000  0.57670000  0.49270000  1.0 0.1392767183
H  H83  1  0.31300000  0.92330000  0.50730000  1.0 0.1392767183
H  H84  1  0.18700000  0.07670000  0.00730000  1.0 0.1310340497
H  H85  1  0.72290000  0.37850000  0.00090000  1.0 0.1310340497
H  H86  1  0.77710000  0.62150000  0.50090000  1.0 0.1310340497
H  H87  1  0.27710000  0.87850000  0.49910000  1.0 0.1310340497
H  H88  1  0.22290000  0.12150000  0.99910000  1.0 0.1310340497
H  H89  1  0.72220000  0.41250000  0.02840000  1.0 0.1310340497
H  H90  1  0.77780000  0.58750000  0.52840000  1.0 0.1310340497
H  H91  1  0.27780000  0.91250000  0.47160000  1.0 0.1310340497
H  H92  1  0.22220000  0.08750000  0.97160000  1.0 0.1310340497
H  H93  1  0.57350000  0.44590000  0.97440000  1.0 0.1310340497
H  H94  1  0.92650000  0.55410000  0.47440000  1.0 0.1310340497
H  H95  1  0.42650000  0.94590000  0.52560000  1.0 0.1310340497
H  H96  1  0.07350000  0.05410000  0.02560000  1.0 0.1310340497
H  H97  1  0.47450000  0.46560000  0.98600000  1.0 0.1310340497
H  H98  1  0.02550000  0.53440000  0.48600000  1.0 0.1310340497
H  H99  1  0.52550000  0.96560000  0.51400000  1.0 0.1310340497
H  H100  1  0.97450000  0.03440000  0.01400000  1.0 0.1310340497
H  H101  1  0.47430000  0.43100000  0.95900000  1.0 0.1310340497
H  H102  1  0.02570000  0.56900000  0.45900000  1.0 0.1310340497
H  H103  1  0.52570000  0.93100000  0.54100000  1.0 0.1310340497
H  H104  1  0.97430000  0.06900000  0.04100000  1.0 0.1310340497
H  H105  1  0.29900000  0.32810000  0.06560000  1.0 0.1310340497
H  H106  1  0.20100000  0.67190000  0.56560000  1.0 0.1310340497
H  H107  1  0.70100000  0.82810000  0.43440000  1.0 0.1310340497
H  H108  1  0.79900000  0.17190000  0.93440000  1.0 0.1310340497
H  H109  1  0.25890000  0.33970000  0.03060000  1.0 0.1392767183
H  H110  1  0.24110000  0.66030000  0.53060000  1.0 0.1392767183
H  H111  1  0.74110000  0.83970000  0.46940000  1.0 0.1392767183
H  H112  1  0.75890000  0.16030000  0.96940000  1.0 0.1392767183
H  H113  1  0.25860000  0.37260000  0.05890000  1.0 0.1209274655
H  H114  1  0.24140000  0.62740000  0.55890000  1.0 0.1209274655
H  H115  1  0.74140000  0.87260000  0.44110000  1.0 0.1209274655
H  H116  1  0.75860000  0.12740000  0.94110000  1.0 0.1209274655
H  H117  1  0.41160000  0.29920000  0.07910000  1.0 0.1310340497
H  H118  1  0.08840000  0.70080000  0.57910000  1.0 0.1310340497
H  H119  1  0.58840000  0.79920000  0.42090000  1.0 0.1310340497
H  H120  1  0.91160000  0.20080000  0.92090000  1.0 0.1310340497
H  H121  1  0.51000000  0.31380000  0.09520000  1.0 0.1310340497
H  H122  1  0.99000000  0.68620000  0.59520000  1.0 0.1310340497
H  H123  1  0.49000000  0.81380000  0.40480000  1.0 0.1310340497
H  H124  1  0.01000000  0.18620000  0.90480000  1.0 0.1310340497
H  H125  1  0.51190000  0.28370000  0.06500000  1.0 0.1310340497
H  H126  1  0.98810000  0.71630000  0.56500000  1.0 0.1310340497
H  H127  1  0.48810000  0.78370000  0.43500000  1.0 0.1310340497
H  H128  1  0.01190000  0.21630000  0.93500000  1.0 0.1310340497
H  H129  1  0.18100000  0.67900000  0.03880000  1.0 0.1209274655
H  H130  1  0.31900000  0.32100000  0.53880000  1.0 0.1209274655
H  H131  1  0.81900000  0.17900000  0.46120000  1.0 0.1209274655
H  H132  1  0.68100000  0.82100000  0.96120000  1.0 0.1209274655
H  H133  1  0.19020000  0.60760000  0.04110000  1.0 0.148852681
H  H134  1  0.30980000  0.39240000  0.54110000  1.0 0.148852681
H  H135  1  0.80980000  0.10760000  0.45890000  1.0 0.148852681
H  H136  1  0.69020000  0.89240000  0.95890000  1.0 0.148852681
H  H137  1  0.38720000  0.60850000  0.96750000  1.0 0.1392767183
H  H138  1  0.11280000  0.39150000  0.46750000  1.0 0.1392767183
H  H139  1  0.61280000  0.10850000  0.53250000  1.0 0.1392767183
H  H140  1  0.88720000  0.89150000  0.03250000  1.0 0.1392767183
H  H141  1  0.37790000  0.67990000  0.96520000  1.0 0.1209274655
H  H142  1  0.12210000  0.32010000  0.46520000  1.0 0.1209274655
H  H143  1  0.62210000  0.17990000  0.53480000  1.0 0.1209274655
H  H144  1  0.87790000  0.82010000  0.03480000  1.0 0.1209274655
H  H145  1  0.20720000  0.58500000  0.95330000  1.0 0.1209274655
H  H146  1  0.29280000  0.41500000  0.45330000  1.0 0.1209274655
H  H147  1  0.79280000  0.08500000  0.54670000  1.0 0.1209274655
H  H148  1  0.70720000  0.91500000  0.04670000  1.0 0.1209274655
H  H149  1  0.14170000  0.54620000  0.94660000  1.0 0.1392767183
H  H150  1  0.35830000  0.45380000  0.44660000  1.0 0.1392767183
H  H151  1  0.85830000  0.04620000  0.55340000  1.0 0.1392767183
H  H152  1  0.64170000  0.95380000  0.05340000  1.0 0.1392767183
H  H153  1  0.24140000  0.55150000  0.92790000  1.0 0.1310340497
H  H154  1  0.25860000  0.44850000  0.42790000  1.0 0.1310340497
H  H155  1  0.75860000  0.05150000  0.57210000  1.0 0.1310340497
H  H156  1  0.74140000  0.94850000  0.07210000  1.0 0.1310340497
H  H157  1  0.22150000  0.48840000  0.92740000  1.0 0.1310340497
H  H158  1  0.27850000  0.51160000  0.42740000  1.0 0.1310340497
H  H159  1  0.77850000  0.98840000  0.57260000  1.0 0.1310340497
H  H160  1  0.72150000  0.01160000  0.07260000  1.0 0.1310340497
H  H161  1  0.18820000  0.44970000  0.94760000  1.0 0.1392767183
H  H162  1  0.31180000  0.55030000  0.44760000  1.0 0.1392767183
H  H163  1  0.81180000  0.94970000  0.55240000  1.0 0.1392767183
H  H164  1  0.68820000  0.05030000  0.05240000  1.0 0.1392767183
H  H165  1  0.29670000  0.45330000  0.93530000  1.0 0.1392767183
H  H166  1  0.20330000  0.54670000  0.43530000  1.0 0.1392767183
H  H167  1  0.70330000  0.95330000  0.56470000  1.0 0.1392767183
H  H168  1  0.79670000  0.04670000  0.06470000  1.0 0.1392767183
H  H169  1  0.38210000  0.48510000  0.08000000  1.0 0.1310340497
H  H170  1  0.11790000  0.51490000  0.58000000  1.0 0.1310340497
H  H171  1  0.61790000  0.98510000  0.42000000  1.0 0.1310340497
H  H172  1  0.88210000  0.01490000  0.92000000  1.0 0.1310340497
H  H173  1  0.41960000  0.44900000  0.05770000  1.0 0.1392767183
H  H174  1  0.08040000  0.55100000  0.55770000  1.0 0.1392767183
H  H175  1  0.58040000  0.94900000  0.44230000  1.0 0.1392767183
H  H176  1  0.91960000  0.05100000  0.94230000  1.0 0.1310340497
H  H177  1  0.31110000  0.44910000  0.07030000  1.0 0.1310340497
H  H178  1  0.18890000  0.55090000  0.57030000  1.0 0.1310340497
H  H179  1  0.68890000  0.94910000  0.42970000  1.0 0.1310340497
H  H180  1  0.81110000  0.05090000  0.92970000  1.0 0.1310340497
H  H181  1  0.40400000  0.54150000  0.07640000  1.0 0.1310340497
H  H182  1  0.09600000  0.45850000  0.57640000  1.0 0.1310340497
H  H183  1  0.59600000  0.04150000  0.42360000  1.0 0.1310340497
H  H184  1  0.90400000  0.95850000  0.92360000  1.0 0.1310340497
H  H185  1  0.33300000  0.57820000  0.06840000  1.0 0.1310340497
H  H186  1  0.16700000  0.42180000  0.56840000  1.0 0.1310340497
H  H187  1  0.66700000  0.07820000  0.43160000  1.0 0.1310340497
H  H188  1  0.83300000  0.92180000  0.93160000  1.0 0.1310340497
H  H189  1  0.43410000  0.57490000  0.05030000  1.0 0.1392767183
H  H190  1  0.06590000  0.42510000  0.55030000  1.0 0.1392767183
H  H191  1  0.56590000  0.07490000  0.44970000  1.0 0.1310340497
H  H192  1  0.93410000  0.92510000  0.94970000  1.0 0.1392767183
H  H193  1  0.62920000  0.29810000  0.79330000  1.0 0.1100369205
H  H194  1  0.87080000  0.70190000  0.29330000  1.0 0.1100369205
H  H195  1  0.37080000  0.79810000  0.70670000  1.0 0.1100369205
H  H196  1  0.12920000  0.20190000  0.20670000  1.0 0.1100369205
H  H197  1  0.63690000  0.25040000  0.75070000  1.0 0.148852681
H  H198  1  0.86310000  0.74960000  0.25070000  1.0 0.148852681
H  H199  1  0.36310000  0.75040000  0.74930000  1.0 0.148852681
H  H200  1  0.13690000  0.24960000  0.24930000  1.0 0.148852681
H  H201  1  0.72040000  0.16290000  0.81500000  1.0 0.1392767183
H  H202  1  0.77960000  0.83710000  0.31500000  1.0 0.1392767183
H  H203  1  0.27960000  0.66290000  0.68500000  1.0 0.1392767183
H  H204  1  0.22040000  0.33710000  0.18500000  1.0 0.1392767183
H  H205  1  0.71270000  0.21060000  0.85760000  1.0 0.1209274655
H  H206  1  0.78730000  0.78940000  0.35760000  1.0 0.1209274655
H  H207  1  0.28730000  0.71060000  0.64240000  1.0 0.1209274655
H  H208  1  0.21270000  0.28940000  0.14240000  1.0 0.1209274655
H  H209  1  0.85050000  0.19060000  0.77610000  1.0 0.1100369205
H  H210  1  0.64950000  0.80940000  0.27610000  1.0 0.1100369205
H  H211  1  0.14950000  0.69060000  0.72390000  1.0 0.1100369205
H  H212  1  0.35050000  0.30940000  0.22390000  1.0 0.1100369205
H  H213  1  0.91270000  0.18740000  0.74370000  1.0 0.1392767183
H  H214  1  0.58730000  0.81260000  0.24370000  1.0 0.1392767183
H  H215  1  0.08730000  0.68740000  0.75630000  1.0 0.1392767183
H  H216  1  0.41270000  0.31260000  0.25630000  1.0 0.1392767183
H  H217  1  0.90700000  0.14980000  0.76790000  1.0 0.1310340497
H  H218  1  0.59300000  0.85020000  0.26790000  1.0 0.1392767183
H  H219  1  0.09300000  0.64980000  0.73210000  1.0 0.1310340497
H  H220  1  0.40700000  0.35020000  0.23210000  1.0 0.1392767183
H  H221  1  0.89190000  0.09450000  0.68840000  1.0 0.1209274655
H  H222  1  0.60810000  0.90550000  0.18840000  1.0 0.1209274655
H  H223  1  0.10810000  0.59450000  0.81160000  1.0 0.1209274655
H  H224  1  0.39190000  0.40550000  0.31160000  1.0 0.1209274655
H  H225  1  0.91540000  0.09790000  0.72620000  1.0 0.1392767183
H  H226  1  0.58460000  0.90210000  0.22620000  1.0 0.1392767183
H  H227  1  0.08460000  0.59790000  0.77380000  1.0 0.1392767183
H  H228  1  0.41540000  0.40210000  0.27380000  1.0 0.1392767183
H  H229  1  0.93750000  0.13520000  0.70270000  1.0 0.1392767183
H  H230  1  0.56250000  0.86480000  0.20270000  1.0 0.1392767183
H  H231  1  0.06250000  0.63520000  0.79730000  1.0 0.1392767183
H  H232  1  0.43750000  0.36480000  0.29730000  1.0 0.1392767183
H  H233  1  0.53250000  0.10010000  0.67210000  1.0 0.1209274655
H  H234  1  0.96750000  0.89990000  0.17210000  1.0 0.1209274655
H  H235  1  0.46750000  0.60010000  0.82790000  1.0 0.1209274655
H  H236  1  0.03250000  0.39990000  0.32790000  1.0 0.1209274655
H  H237  1  0.48460000  0.14190000  0.68290000  1.0 0.1310340497
H  H238  1  0.01540000  0.85810000  0.18290000  1.0 0.1310340497
H  H239  1  0.51540000  0.64190000  0.81710000  1.0 0.1310340497
H  H240  1  0.98460000  0.35810000  0.31710000  1.0 0.1310340497
H  H241  1  0.47720000  0.10320000  0.70580000  1.0 0.148852681
H  H242  1  0.02280000  0.89680000  0.20580000  1.0 0.148852681
H  H243  1  0.52280000  0.60320000  0.79420000  1.0 0.148852681
H  H244  1  0.97720000  0.39680000  0.29420000  1.0 0.148852681
H  H245  1  0.51170000  0.18550000  0.76670000  1.0 0.1100369205
H  H246  1  0.98830000  0.81450000  0.26670000  1.0 0.1100369205
H  H247  1  0.48830000  0.68550000  0.73330000  1.0 0.1100369205
H  H248  1  0.01170000  0.31450000  0.23330000  1.0 0.1100369205
H  H249  1  0.47140000  0.14320000  0.75370000  1.0 0.148852681
H  H250  1  0.02860000  0.85680000  0.25370000  1.0 0.148852681
H  H251  1  0.52860000  0.64320000  0.74630000  1.0 0.148852681
H  H252  1  0.97140000  0.35680000  0.24630000  1.0 0.148852681
H  H253  1  0.47070000  0.18220000  0.73070000  1.0 0.1310340497
H  H254  1  0.02930000  0.81780000  0.23070000  1.0 0.1310340497
H  H255  1  0.52930000  0.68220000  0.76930000  1.0 0.1310340497
H  H256  1  0.97070000  0.31780000  0.26930000  1.0 0.1310340497
H  H257  1  0.21980000  0.20680000  0.57010000  1.0 0.1209274655
H  H258  1  0.28020000  0.79320000  0.07010000  1.0 0.1209274655
H  H259  1  0.78020000  0.70680000  0.92990000  1.0 0.1209274655
H  H260  1  0.71980000  0.29320000  0.42990000  1.0 0.1209274655
H  H261  1  0.11370000  0.17210000  0.60510000  1.0 0.1392767183
H  H262  1  0.38630000  0.82790000  0.10510000  1.0 0.1392767183
H  H263  1  0.88630000  0.67210000  0.89490000  1.0 0.1392767183
H  H264  1  0.61370000  0.32790000  0.39490000  1.0 0.1392767183
H  H265  1  0.92010000  0.16030000  0.53110000  1.0 0.1310340497
H  H266  1  0.57990000  0.83970000  0.03110000  1.0 0.1310340497
H  H267  1  0.07990000  0.66030000  0.96890000  1.0 0.1310340497
H  H268  1  0.42010000  0.33970000  0.46890000  1.0 0.1310340497
H  H269  1  0.02630000  0.19500000  0.49610000  1.0 0.1209274655
H  H270  1  0.47370000  0.80500000  0.99610000  1.0 0.1209274655
H  H271  1  0.97370000  0.69500000  0.00390000  1.0 0.1209274655
H  H272  1  0.52630000  0.30500000  0.50390000  1.0 0.1209274655
H  H273  1  0.77870000  0.22280000  0.60380000  1.0 0.1209274655
H  H274  1  0.72130000  0.77720000  0.10380000  1.0 0.1209274655
H  H275  1  0.22130000  0.72280000  0.89620000  1.0 0.1209274655
H  H276  1  0.27870000  0.27720000  0.39620000  1.0 0.1209274655
H  H277  1  0.83330000  0.21340000  0.57070000  1.0 0.1209274655
H  H278  1  0.66666667  0.78660000  0.07070000  1.0 0.1209274655
H  H279  1  0.16670000  0.71340000  0.92930000  1.0 0.1209274655
H  H280  1  0.33333333  0.28660000  0.42930000  1.0 0.1209274655
H  H281  1  0.89250000  0.22840000  0.60150000  1.0 0.1392767183
H  H282  1  0.60750000  0.77160000  0.10150000  1.0 0.1392767183
H  H283  1  0.10750000  0.72840000  0.89850000  1.0 0.1392767183
H  H284  1  0.39250000  0.27160000  0.39850000  1.0 0.1392767183
H  H285  1  0.65180000  0.16200000  0.65000000  1.0 0.1310340497
H  H286  1  0.84820000  0.83800000  0.15000000  1.0 0.1310340497
H  H287  1  0.34820000  0.66200000  0.85000000  1.0 0.1310340497
H  H288  1  0.15180000  0.33800000  0.35000000  1.0 0.1310340497
H  H289  1  0.65680000  0.18270000  0.61510000  1.0 0.1310340497
H  H290  1  0.84320000  0.81730000  0.11510000  1.0 0.1310340497
H  H291  1  0.34320000  0.68270000  0.88490000  1.0 0.1310340497
H  H292  1  0.15680000  0.31730000  0.38490000  1.0 0.1310340497
H  H293  1  0.71390000  0.20220000  0.64480000  1.0 0.1310340497
H  H294  1  0.78610000  0.79780000  0.14480000  1.0 0.1310340497
H  H295  1  0.28610000  0.70220000  0.85520000  1.0 0.1310340497
H  H296  1  0.21390000  0.29780000  0.35520000  1.0 0.1310340497
H  H297  1  0.83350000  0.03360000  0.65030000  1.0 0.1209274655
H  H298  1  0.66650000  0.96640000  0.15030000  1.0 0.1209274655
H  H299  1  0.16650000  0.53360000  0.84970000  1.0 0.1209274655
H  H300  1  0.33350000  0.46640000  0.34970000  1.0 0.1209274655
H  H301  1  0.94720000  0.03990000  0.64880000  1.0 0.1392767183
H  H302  1  0.55280000  0.96010000  0.14880000  1.0 0.1392767183
H  H303  1  0.05280000  0.53990000  0.85120000  1.0 0.1392767183
H  H304  1  0.44720000  0.46010000  0.35120000  1.0 0.1392767183
H  H305  1  0.89060000  0.02430000  0.61760000  1.0 0.1310340497
H  H306  1  0.60940000  0.97570000  0.11760000  1.0 0.1310340497
H  H307  1  0.10940000  0.52430000  0.88240000  1.0 0.1310340497
H  H308  1  0.39060000  0.47570000  0.38240000  1.0 0.1310340497
H  H309  1  0.02790000  0.05100000  0.60180000  1.0 0.1209274655
H  H310  1  0.47210000  0.94900000  0.10180000  1.0 0.1209274655
H  H311  1  0.97210000  0.55100000  0.89820000  1.0 0.1209274655
H  H312  1  0.52790000  0.44900000  0.39820000  1.0 0.1209274655
H  H313  1  0.08870000  0.09190000  0.59870000  1.0 0.1209274655
H  H314  1  0.41130000  0.90810000  0.09870000  1.0 0.1209274655
H  H315  1  0.91130000  0.59190000  0.90130000  1.0 0.1209274655
H  H316  1  0.58870000  0.40810000  0.40130000  1.0 0.1209274655
H  H317  1  0.02420000  0.07680000  0.56910000  1.0 0.1310340497
H  H318  1  0.47580000  0.92320000  0.06910000  1.0 0.1310340497
H  H319  1  0.97580000  0.57680000  0.93090000  1.0 0.1310340497
H  H320  1  0.52420000  0.42320000  0.43090000  1.0 0.1310340497
H  H321  1  0.31260000  0.88690000  0.67100000  1.0 0.0995671492
H  H322  1  0.18740000  0.11310000  0.17100000  1.0 0.0995671492
H  H323  1  0.68740000  0.38690000  0.82900000  1.0 0.0995671492
H  H324  1  0.81260000  0.61310000  0.32900000  1.0 0.0995671492
H  H325  1  0.39600000  0.94880000  0.67720000  1.0 0.148852681
H  H326  1  0.10400000  0.05120000  0.17720000  1.0 0.148852681
H  H327  1  0.60400000  0.44880000  0.82280000  1.0 0.148852681
H  H328  1  0.89600000  0.55120000  0.32280000  1.0 0.148852681
H  H329  1  0.57060000  0.91900000  0.60120000  1.0 0.1392767183
H  H330  1  0.92940000  0.08100000  0.10120000  1.0 0.1392767183
H  H331  1  0.42940000  0.41900000  0.89880000  1.0 0.1392767183
H  H332  1  0.07060000  0.58100000  0.39880000  1.0 0.1392767183
H  H333  1  0.48720000  0.85710000  0.59500000  1.0 0.1209274655
H  H334  1  0.01280000  0.14290000  0.09500000  1.0 0.1209274655
H  H335  1  0.51280000  0.35710000  0.90500000  1.0 0.1209274655
H  H336  1  0.98720000  0.64290000  0.40500000  1.0 0.1209274655
H  H337  1  0.43570000  0.03430000  0.59100000  1.0 0.1310340497
H  H338  1  0.06430000  0.96570000  0.09100000  1.0 0.1310340497
H  H339  1  0.56430000  0.53430000  0.90900000  1.0 0.1310340497
H  H340  1  0.93570000  0.46570000  0.40900000  1.0 0.1310340497
H  H341  1  0.42090000  0.98730000  0.59860000  1.0 0.1209274655
H  H342  1  0.07910000  0.01270000  0.09860000  1.0 0.1209274655
H  H343  1  0.57910000  0.48730000  0.90140000  1.0 0.1209274655
H  H344  1  0.92090000  0.51270000  0.40140000  1.0 0.1209274655
H  H345  1  0.50450000  0.00150000  0.57460000  1.0 0.1310340497
H  H346  1  0.99550000  0.99850000  0.07460000  1.0 0.1310340497
H  H347  1  0.49550000  0.50150000  0.92540000  1.0 0.1310340497
H  H348  1  0.00450000  0.49850000  0.42540000  1.0 0.1310340497
H  H349  1  0.53760000  0.07760000  0.58690000  1.0 0.1310340497
H  H350  1  0.96240000  0.92240000  0.08690000  1.0 0.1310340497
H  H351  1  0.46240000  0.57760000  0.91310000  1.0 0.1310340497
H  H352  1  0.03760000  0.42240000  0.41310000  1.0 0.1310340497
H  H353  1  0.64160000  0.09370000  0.59690000  1.0 0.1310340497
H  H354  1  0.85840000  0.90630000  0.09690000  1.0 0.1310340497
H  H355  1  0.35840000  0.59370000  0.90310000  1.0 0.1310340497
H  H356  1  0.14160000  0.40630000  0.40310000  1.0 0.1310340497
H  H357  1  0.54930000  0.10700000  0.61730000  1.0 0.1392767183
H  H358  1  0.95070000  0.89300000  0.11730000  1.0 0.1392767183
H  H359  1  0.45070000  0.60700000  0.88270000  1.0 0.1392767183
H  H360  1  0.04930000  0.39300000  0.38270000  1.0 0.1392767183
H  H361  1  0.72870000  0.99570000  0.72090000  1.0 0.1310340497
H  H362  1  0.77130000  0.00430000  0.22090000  1.0 0.1310340497
H  H363  1  0.27130000  0.49570000  0.77910000  1.0 0.1310340497
H  H364  1  0.22870000  0.50430000  0.27910000  1.0 0.1310340497
H  H365  1  0.71080000  0.04340000  0.72270000  1.0 0.1392767183
H  H366  1  0.78920000  0.95660000  0.22270000  1.0 0.1392767183
H  H367  1  0.28920000  0.54340000  0.77730000  1.0 0.1392767183
H  H368  1  0.21080000  0.45660000  0.27730000  1.0 0.1392767183
H  H369  1  0.79740000  0.02590000  0.70150000  1.0 0.1392767183
H  H370  1  0.70260000  0.97410000  0.20150000  1.0 0.1392767183
H  H371  1  0.20260000  0.52590000  0.79850000  1.0 0.1392767183
H  H372  1  0.29740000  0.47410000  0.29850000  1.0 0.1392767183
H  H373  1  0.66440000  0.95070000  0.71380000  1.0 0.1310340497
H  H374  1  0.83560000  0.04930000  0.21380000  1.0 0.1310340497
H  H375  1  0.33560000  0.45070000  0.78620000  1.0 0.1310340497
H  H376  1  0.16440000  0.54930000  0.28620000  1.0 0.1310340497
H  H377  1  0.64480000  0.92160000  0.68370000  1.0 0.1310340497
H  H378  1  0.85520000  0.07840000  0.18370000  1.0 0.1310340497
H  H379  1  0.35520000  0.42160000  0.81630000  1.0 0.1310340497
H  H380  1  0.14480000  0.57840000  0.31630000  1.0 0.1310340497
H  H381  1  0.55690000  0.93810000  0.70470000  1.0 0.1310340497
H  H382  1  0.94310000  0.06190000  0.20470000  1.0 0.1310340497
H  H383  1  0.44310000  0.43810000  0.79530000  1.0 0.1310340497
H  H384  1  0.05690000  0.56190000  0.29530000  1.0 0.1310340497
H  H385  1  0.26930000  0.79710000  0.92820000  1.0 0.1209274655
H  H386  1  0.23070000  0.20290000  0.42820000  1.0 0.1209274655
H  H387  1  0.73070000  0.29710000  0.57180000  1.0 0.1209274655
H  H388  1  0.76930000  0.70290000  0.07180000  1.0 0.1209274655
H  H389  1  0.16860000  0.82840000  0.88960000  1.0 0.1392767183
H  H390  1  0.33140000  0.17160000  0.38960000  1.0 0.1392767183
H  H391  1  0.83140000  0.32840000  0.61040000  1.0 0.1392767183
H  H392  1  0.66860000  0.67160000  0.11040000  1.0 0.1392767183
H  H393  1  0.94420000  0.82400000  0.95350000  1.0 0.1310340497
H  H394  1  0.55580000  0.17600000  0.45350000  1.0 0.1310340497
H  H395  1  0.05580000  0.32400000  0.54650000  1.0 0.1310340497
H  H396  1  0.44420000  0.67600000  0.04650000  1.0 0.1310340497
H  H397  1  0.04500000  0.79270000  0.99220000  1.0 0.1209274655
H  H398  1  0.45500000  0.20730000  0.49220000  1.0 0.1209274655
H  H399  1  0.95500000  0.29270000  0.50780000  1.0 0.1209274655
H  H400  1  0.54500000  0.70730000  0.00780000  1.0 0.1209274655
H  H401  1  0.10180000  0.93830000  0.88570000  1.0 0.1209274655
H  H402  1  0.39820000  0.06170000  0.38570000  1.0 0.1209274655
H  H403  1  0.89820000  0.43830000  0.61430000  1.0 0.1209274655
H  H404  1  0.60180000  0.56170000  0.11430000  1.0 0.1209274655
H  H405  1  0.15250000  0.89560000  0.89190000  1.0 0.1100369205
H  H406  1  0.34750000  0.10440000  0.39190000  1.0 0.1100369205
H  H407  1  0.84750000  0.39560000  0.60810000  1.0 0.1100369205
H  H408  1  0.65250000  0.60440000  0.10810000  1.0 0.1100369205
H  H409  1  0.08740000  0.91550000  0.91940000  1.0 0.1310340497
H  H410  1  0.41260000  0.08450000  0.41940000  1.0 0.1310340497
H  H411  1  0.91260000  0.41550000  0.58060000  1.0 0.1310340497
H  H412  1  0.58740000  0.58450000  0.08060000  1.0 0.1310340497
H  H413  1  0.91730000  0.96070000  0.83440000  1.0 0.1209274655
H  H414  1  0.58270000  0.03930000  0.33440000  1.0 0.1209274655
H  H415  1  0.08270000  0.46070000  0.66560000  1.0 0.1209274655
H  H416  1  0.41730000  0.53930000  0.16560000  1.0 0.1209274655
H  H417  1  0.02960000  0.95160000  0.83780000  1.0 0.1392767183
H  H418  1  0.47040000  0.04840000  0.33780000  1.0 0.1392767183
H  H419  1  0.97040000  0.45160000  0.66220000  1.0 0.1392767183
H  H420  1  0.52960000  0.54840000  0.16220000  1.0 0.1392767183
H  H421  1  0.97150000  0.97010000  0.86770000  1.0 0.1310340497
H  H422  1  0.52850000  0.02990000  0.36770000  1.0 0.1310340497
H  H423  1  0.02850000  0.47010000  0.63230000  1.0 0.1310340497
H  H424  1  0.47150000  0.52990000  0.13230000  1.0 0.1310340497
H  H425  1  0.73570000  0.80270000  0.85770000  1.0 0.1392767183
H  H426  1  0.76430000  0.19730000  0.35770000  1.0 0.1392767183
H  H427  1  0.26430000  0.30270000  0.64230000  1.0 0.1392767183
H  H428  1  0.23570000  0.69730000  0.14230000  1.0 0.1392767183
H  H429  1  0.73690000  0.82920000  0.82550000  1.0 0.1209274655
H  H430  1  0.76310000  0.17080000  0.32550000  1.0 0.1209274655
H  H431  1  0.26310000  0.32920000  0.67450000  1.0 0.1209274655
H  H432  1  0.23690000  0.67080000  0.17450000  1.0 0.1209274655
H  H433  1  0.68390000  0.84580000  0.85710000  1.0 0.1310340497
H  H434  1  0.81610000  0.15420000  0.35710000  1.0 0.1310340497
H  H435  1  0.31610000  0.34580000  0.64290000  1.0 0.1310340497
H  H436  1  0.18390000  0.65420000  0.14290000  1.0 0.1310340497
H  H437  1  0.82460000  0.77510000  0.88360000  1.0 0.1392767183
H  H438  1  0.67540000  0.22490000  0.38360000  1.0 0.1392767183
H  H439  1  0.17540000  0.27510000  0.61640000  1.0 0.1392767183
H  H440  1  0.32460000  0.72490000  0.11640000  1.0 0.1392767183
H  H441  1  0.87400000  0.78590000  0.91740000  1.0 0.1209274655
H  H442  1  0.62600000  0.21410000  0.41740000  1.0 0.1209274655
H  H443  1  0.12600000  0.28590000  0.58260000  1.0 0.1209274655
H  H444  1  0.37400000  0.71410000  0.08260000  1.0 0.1209274655
H  H445  1  0.93770000  0.76900000  0.88820000  1.0 0.1310340497
H  H446  1  0.56230000  0.23100000  0.38820000  1.0 0.1310340497
H  H447  1  0.06230000  0.26900000  0.61180000  1.0 0.1310340497
H  H448  1  0.43770000  0.73100000  0.11180000  1.0 0.1310340497
H  H449  1  0.63610000  0.15780000  0.90200000  1.0 0.1209274655
H  H450  1  0.86390000  0.84220000  0.40200000  1.0 0.1209274655
H  H451  1  0.36390000  0.65780000  0.59800000  1.0 0.1209274655
H  H452  1  0.13610000  0.34220000  0.09800000  1.0 0.1209274655
H  H453  1  0.70900000  0.09450000  0.89150000  1.0 0.1392767183
H  H454  1  0.79100000  0.90550000  0.39150000  1.0 0.1392767183
H  H455  1  0.29100000  0.59450000  0.60850000  1.0 0.1392767183
H  H456  1  0.20900000  0.40550000  0.10850000  1.0 0.1392767183
H  H457  1  0.51100000  0.07240000  0.82040000  1.0 0.1574446176
H  H458  1  0.98900000  0.92760000  0.32040000  1.0 0.1574446176
H  H459  1  0.48900000  0.57240000  0.67960000  1.0 0.1574446176
H  H460  1  0.01100000  0.42760000  0.17960000  1.0 0.1574446176
H  H461  1  0.43810000  0.13570000  0.83090000  1.0 0.1209274655
H  H462  1  0.06190000  0.86430000  0.33090000  1.0 0.1209274655
H  H463  1  0.56190000  0.63570000  0.66910000  1.0 0.1209274655
H  H464  1  0.93810000  0.36430000  0.16910000  1.0 0.1209274655
H  H465  1  0.83300000  0.01020000  0.77090000  1.0 0.1310340497
H  H466  1  0.66700000  0.98980000  0.27090000  1.0 0.1310340497
H  H467  1  0.16700000  0.51020000  0.72910000  1.0 0.1310340497
H  H468  1  0.33300000  0.48980000  0.22910000  1.0 0.1310340497
H  H469  1  0.79320000  0.96490000  0.76860000  1.0 0.1310340497
H  H470  1  0.70680000  0.03510000  0.26860000  1.0 0.1310340497
H  H471  1  0.20680000  0.46490000  0.73140000  1.0 0.1310340497
H  H472  1  0.29320000  0.53510000  0.23140000  1.0 0.1310340497
H  H473  1  0.88710000  0.97450000  0.78950000  1.0 0.1310340497
H  H474  1  0.61290000  0.02550000  0.28950000  1.0 0.1310340497
H  H475  1  0.11290000  0.47450000  0.71050000  1.0 0.1310340497
H  H476  1  0.38710000  0.52550000  0.21050000  1.0 0.1310340497
H  H477  1  0.78820000  0.05880000  0.77970000  1.0 0.1310340497
H  H478  1  0.71180000  0.94120000  0.27970000  1.0 0.1310340497
H  H479  1  0.21180000  0.55880000  0.72030000  1.0 0.1310340497
H  H480  1  0.28820000  0.44120000  0.22030000  1.0 0.1310340497
H  H481  1  0.78080000  0.08800000  0.81040000  1.0 0.1310340497
H  H482  1  0.71920000  0.91200000  0.31040000  1.0 0.1310340497
H  H483  1  0.21920000  0.58800000  0.68960000  1.0 0.1310340497
H  H484  1  0.28080000  0.41200000  0.18960000  1.0 0.1310340497
H  H485  1  0.68760000  0.07900000  0.78900000  1.0 0.1310340497
H  H486  1  0.81240000  0.92100000  0.28900000  1.0 0.1310340497
H  H487  1  0.31240000  0.57900000  0.71100000  1.0 0.1310340497
H  H488  1  0.18760000  0.42100000  0.21100000  1.0 0.1310340497
H  H489  1  0.57360000  0.98630000  0.91210000  1.0 0.1310340497
H  H490  1  0.92640000  0.01370000  0.41210000  1.0 0.1310340497
H  H491  1  0.42640000  0.48630000  0.58790000  1.0 0.1310340497
H  H492  1  0.07360000  0.51370000  0.08790000  1.0 0.1310340497
H  H493  1  0.51600000  0.01940000  0.89170000  1.0 0.1392767183
H  H494  1  0.98400000  0.98060000  0.39170000  1.0 0.1392767183
H  H495  1  0.48400000  0.51940000  0.60830000  1.0 0.1392767183
H  H496  1  0.01600000  0.48060000  0.10830000  1.0 0.1392767183
H  H497  1  0.60730000  0.03250000  0.91270000  1.0 0.1209274655
H  H498  1  0.89270000  0.96750000  0.41270000  1.0 0.1209274655
H  H499  1  0.39270000  0.53250000  0.58730000  1.0 0.1209274655
H  H500  1  0.10730000  0.46750000  0.08730000  1.0 0.1209274655
H  H501  1  0.62900000  0.93450000  0.90330000  1.0 0.1310340497
H  H502  1  0.87100000  0.06550000  0.40330000  1.0 0.1310340497
H  H503  1  0.37100000  0.43450000  0.59670000  1.0 0.1310340497
H  H504  1  0.12900000  0.56550000  0.09670000  1.0 0.1310340497
H  H505  1  0.72670000  0.91380000  0.89160000  1.0 0.1310340497
H  H506  1  0.77330000  0.08620000  0.39160000  1.0 0.1310340497
H  H507  1  0.27330000  0.41380000  0.60840000  1.0 0.1310340497
H  H508  1  0.22670000  0.58620000  0.10840000  1.0 0.1310340497
H  H509  1  0.62940000  0.90610000  0.87200000  1.0 0.1310340497
H  H510  1  0.87060000  0.09390000  0.37200000  1.0 0.1310340497
H  H511  1  0.37060000  0.40610000  0.62800000  1.0 0.1310340497
H  H512  1  0.12940000  0.59390000  0.12800000  1.0 0.1310340497
H  H513  1  0.60910000  0.71730000  0.69980000  1.0 0.1209274655
H  H514  1  0.89090000  0.28270000  0.19980000  1.0 0.1209274655
H  H515  1  0.39090000  0.21730000  0.80020000  1.0 0.1209274655
H  H516  1  0.10910000  0.78270000  0.30020000  1.0 0.1209274655
H  H517  1  0.66050000  0.76400000  0.73950000  1.0 0.148852681
H  H518  1  0.83950000  0.23600000  0.23950000  1.0 0.148852681
H  H519  1  0.33950000  0.26400000  0.76050000  1.0 0.148852681
H  H520  1  0.16050000  0.73600000  0.26050000  1.0 0.148852681
H  H521  1  0.64900000  0.85530000  0.67270000  1.0 0.1392767183
H  H522  1  0.85100000  0.14470000  0.17270000  1.0 0.1392767183
H  H523  1  0.35100000  0.35530000  0.82730000  1.0 0.1392767183
H  H524  1  0.14900000  0.64470000  0.32730000  1.0 0.1392767183
H  H525  1  0.59770000  0.80860000  0.63290000  1.0 0.1100369205
H  H526  1  0.90230000  0.19140000  0.13290000  1.0 0.1100369205
H  H527  1  0.40230000  0.30860000  0.86710000  1.0 0.1100369205
H  H528  1  0.09770000  0.69140000  0.36710000  1.0 0.1100369205
H  H529  1  0.47160000  0.87470000  0.76020000  1.0 0.1310340497
H  H530  1  0.02840000  0.12530000  0.26020000  1.0 0.1310340497
H  H531  1  0.52840000  0.37470000  0.73980000  1.0 0.1310340497
H  H532  1  0.97160000  0.62530000  0.23980000  1.0 0.1310340497
H  H533  1  0.49570000  0.83070000  0.74650000  1.0 0.1209274655
H  H534  1  0.00430000  0.16930000  0.24650000  1.0 0.1209274655
H  H535  1  0.50430000  0.33070000  0.75350000  1.0 0.1209274655
H  H536  1  0.99570000  0.66930000  0.25350000  1.0 0.1209274655
H  H537  1  0.50550000  0.86940000  0.72360000  1.0 0.1209274655
H  H538  1  0.99450000  0.13060000  0.22360000  1.0 0.1209274655
H  H539  1  0.49450000  0.36940000  0.77640000  1.0 0.1209274655
H  H540  1  0.00550000  0.63060000  0.27640000  1.0 0.1209274655
H  H541  1  0.50990000  0.90390000  0.79600000  1.0 0.1209274655
H  H542  1  0.99010000  0.09610000  0.29600000  1.0 0.1209274655
H  H543  1  0.49010000  0.40390000  0.70400000  1.0 0.1209274655
H  H544  1  0.00990000  0.59610000  0.20400000  1.0 0.1209274655
H  H545  1  0.58430000  0.93950000  0.80350000  1.0 0.1310340497
H  H546  1  0.91570000  0.06050000  0.30350000  1.0 0.1392767183
H  H547  1  0.41570000  0.43950000  0.69650000  1.0 0.1310340497
H  H548  1  0.08430000  0.56050000  0.19650000  1.0 0.1392767183
H  H549  1  0.57860000  0.90120000  0.82690000  1.0 0.1310340497
H  H550  1  0.92140000  0.09880000  0.32690000  1.0 0.1310340497
H  H551  1  0.42140000  0.40120000  0.67310000  1.0 0.1310340497
H  H552  1  0.07860000  0.59880000  0.17310000  1.0 0.1310340497
H  H553  1  0.94160000  0.89540000  0.79620000  1.0 0.1209274655
H  H554  1  0.55840000  0.10460000  0.29620000  1.0 0.1209274655
H  H555  1  0.05840000  0.39540000  0.70380000  1.0 0.1209274655
H  H556  1  0.44160000  0.60460000  0.20380000  1.0 0.1209274655
H  H557  1  0.96390000  0.88710000  0.75880000  1.0 0.1310340497
H  H558  1  0.53610000  0.11290000  0.25880000  1.0 0.1310340497
H  H559  1  0.03610000  0.38710000  0.74120000  1.0 0.1310340497
H  H560  1  0.46390000  0.61290000  0.24120000  1.0 0.1310340497
H  H561  1  0.95840000  0.85010000  0.78370000  1.0 0.1310340497
H  H562  1  0.54160000  0.14990000  0.28370000  1.0 0.1310340497
H  H563  1  0.04160000  0.35010000  0.71630000  1.0 0.1310340497
H  H564  1  0.45840000  0.64990000  0.21630000  1.0 0.1310340497
H  H565  1  0.93120000  0.83430000  0.73210000  1.0 0.1100369205
H  H566  1  0.56880000  0.16570000  0.23210000  1.0 0.1100369205
H  H567  1  0.06880000  0.33430000  0.76790000  1.0 0.1100369205
H  H568  1  0.43120000  0.66570000  0.26790000  1.0 0.1100369205
H  H569  1  0.86260000  0.83740000  0.70130000  1.0 0.1209274655
H  H570  1  0.63740000  0.16260000  0.20130000  1.0 0.1209274655
H  H571  1  0.13740000  0.33740000  0.79870000  1.0 0.1209274655
H  H572  1  0.36260000  0.66260000  0.29870000  1.0 0.1209274655
H  H573  1  0.85800000  0.79840000  0.72410000  1.0 0.1310340497
H  H574  1  0.64200000  0.20160000  0.22410000  1.0 0.1310340497
H  H575  1  0.14200000  0.29840000  0.77590000  1.0 0.1310340497
H  H576  1  0.35800000  0.70160000  0.27590000  1.0 0.1310340497
C  C1  1  0.84380000  0.29540000  0.92810000  1.0 0.0794844182
C  C2  1  0.65620000  0.70460000  0.42810000  1.0 0.0794844182
C  C3  1  0.15620000  0.79540000  0.57190000  1.0 0.0794844182
C  C4  1  0.34380000  0.20460000  0.07190000  1.0 0.0794844182
C  C5  1  0.92220000  0.30810000  0.94740000  1.0 -0.1806236308
C  C6  1  0.57780000  0.69190000  0.44740000  1.0 -0.1806236308
C  C7  1  0.07780000  0.80810000  0.55260000  1.0 -0.1889986876
C  C8  1  0.42220000  0.19190000  0.05260000  1.0 -0.1806236308
C  C9  1  0.98300000  0.33970000  0.93650000  1.0 0.1310340497
C  C10  1  0.51700000  0.66030000  0.43650000  1.0 0.1310340497
C  C11  1  0.01700000  0.83970000  0.56350000  1.0 0.1310340497
C  C12  1  0.48300000  0.16030000  0.06350000  1.0 0.1310340497
C  C13  1  0.96540000  0.35850000  0.90630000  1.0 -0.1806236308
C  C14  1  0.53460000  0.64150000  0.40630000  1.0 -0.1806236308
C  C15  1  0.03460000  0.85850000  0.59370000  1.0 -0.1806236308
C  C16  1  0.46540000  0.14150000  0.09370000  1.0 -0.1806236308
C  C17  1  0.88700000  0.34570000  0.88700000  1.0 0.0524107053
C  C18  1  0.61300000  0.65430000  0.38700000  1.0 0.0524107053
C  C19  1  0.11300000  0.84570000  0.61300000  1.0 0.0524107053
C  C20  1  0.38700000  0.15430000  0.11300000  1.0 0.0524107053
C  C21  1  0.06520000  0.35440000  0.95780000  1.0 -0.0727559674
C  C22  1  0.43480000  0.64560000  0.45780000  1.0 -0.0727559674
C  C23  1  0.93480000  0.85440000  0.54220000  1.0 -0.0727559674
C  C24  1  0.56520000  0.14560000  0.04220000  1.0 -0.0727559674
C  C25  1  0.04600000  0.38160000  0.98390000  1.0 0.0524107053
C  C26  1  0.45400000  0.61840000  0.48390000  1.0 0.0524107053
C  C27  1  0.95400000  0.88160000  0.51610000  1.0 0.0524107053
C  C28  1  0.54600000  0.11840000  0.01610000  1.0 0.0524107053
C  C29  1  0.12460000  0.40150000  0.99880000  1.0 0.1209274655
C  C30  1  0.37540000  0.59850000  0.49880000  1.0 0.1209274655
C  C31  1  0.87540000  0.90150000  0.50120000  1.0 0.1209274655
C  C32  1  0.62460000  0.09850000  0.00120000  1.0 0.1209274655
C  C33  1  0.22450000  0.39240000  0.98820000  1.0 -0.2200091879
C  C34  1  0.27550000  0.60760000  0.48820000  1.0 -0.2200091879
C  C35  1  0.77550000  0.89240000  0.51180000  1.0 -0.2200091879
C  C36  1  0.72450000  0.10760000  0.01180000  1.0 -0.2200091879
C  C37  1  0.23960000  0.36400000  0.96390000  1.0 0.0995671492
C  C38  1  0.26040000  0.63600000  0.46390000  1.0 0.0995671492
C  C39  1  0.76040000  0.86400000  0.53610000  1.0 0.0995671492
C  C40  1  0.73960000  0.13600000  0.03610000  1.0 0.0995671492
C  C41  1  0.16210000  0.34460000  0.94860000  1.0 0.0688220546
C  C42  1  0.33790000  0.65540000  0.44860000  1.0 0.0688220546
C  C43  1  0.83790000  0.84460000  0.55140000  1.0 0.0688220546
C  C44  1  0.66210000  0.15540000  0.05140000  1.0 0.0688220546
C  C45  1  0.17590000  0.30970000  0.92220000  1.0 -0.438857365
C  C46  1  0.32410000  0.69030000  0.42220000  1.0 -0.438857365
C  C47  1  0.82410000  0.80970000  0.57780000  1.0 -0.438857365
C  C48  1  0.67590000  0.19030000  0.07780000  1.0 -0.438857365
C  C49  1  0.34470000  0.35520000  0.95190000  1.0 -0.449109477
C  C50  1  0.15530000  0.64480000  0.45190000  1.0 -0.449109477
C  C51  1  0.65530000  0.85520000  0.54810000  1.0 -0.449109477
C  C52  1  0.84470000  0.14480000  0.04810000  1.0 -0.449109477
C  C53  1  0.10700000  0.43190000  0.02810000  1.0 -0.449109477
C  C54  1  0.39300000  0.56810000  0.52810000  1.0 -0.449109477
C  C55  1  0.89300000  0.93190000  0.47190000  1.0 -0.4593503724
C  C56  1  0.60700000  0.06810000  0.97190000  1.0 -0.449109477
C  C57  1  0.94020000  0.39120000  0.99430000  1.0 -0.429460915
C  C58  1  0.55980000  0.60880000  0.49430000  1.0 -0.429460915
C  C59  1  0.05980000  0.89120000  0.50570000  1.0 -0.429460915
C  C60  1  0.44020000  0.10880000  0.00570000  1.0 -0.429460915
C  C61  1  0.75600000  0.33620000  0.10740000  1.0 0.0688220546
C  C62  1  0.74400000  0.66380000  0.60740000  1.0 0.0688220546
C  C63  1  0.24400000  0.83620000  0.39260000  1.0 0.0688220546
C  C64  1  0.25600000  0.16380000  0.89260000  1.0 0.0688220546
C  C65  1  0.67610000  0.35220000  0.09040000  1.0 -0.1698836492
C  C66  1  0.82390000  0.64780000  0.59040000  1.0 -0.1698836492
C  C67  1  0.32390000  0.85220000  0.40960000  1.0 -0.1698836492
C  C68  1  0.17610000  0.14780000  0.90960000  1.0 -0.1698836492
C  C69  1  0.65910000  0.34070000  0.05790000  1.0 0.1209274655
C  C70  1  0.84090000  0.65930000  0.55790000  1.0 0.1209274655
C  C71  1  0.34090000  0.84070000  0.44210000  1.0 0.1209274655
C  C72  1  0.15910000  0.15930000  0.94210000  1.0 0.1209274655
C  C73  1  0.72210000  0.31320000  0.04240000  1.0 -0.1889986876
C  C74  1  0.77790000  0.68680000  0.54240000  1.0 -0.1889986876
C  C75  1  0.27790000  0.81320000  0.45760000  1.0 -0.1889986876
C  C76  1  0.22210000  0.18680000  0.95760000  1.0 -0.1889986876
C  C77  1  0.80200000  0.29720000  0.05930000  1.0 0.0688220546
C  C78  1  0.69800000  0.70280000  0.55930000  1.0 0.0688220546
C  C79  1  0.19800000  0.79720000  0.44070000  1.0 0.0688220546
C  C80  1  0.30200000  0.20280000  0.94070000  1.0 0.0688220546
C  C81  1  0.57110000  0.35900000  0.04200000  1.0 -0.0752925809
C  C82  1  0.92890000  0.64100000  0.54200000  1.0 -0.0752925809
C  C83  1  0.42890000  0.85900000  0.45800000  1.0 -0.0752925809
C  C84  1  0.07110000  0.14100000  0.95800000  1.0 -0.0752925809
C  C85  1  0.48170000  0.34500000  0.05040000  1.0 0.0592206549
C  C86  1  0.01830000  0.65500000  0.55040000  1.0 0.0592206549
C  C87  1  0.51830000  0.84500000  0.44960000  1.0 0.0592206549
C  C88  1  0.98170000  0.15500000  0.94960000  1.0 0.0592206549
C  C89  1  0.39700000  0.36400000  0.03910000  1.0 0.1310340497
C  C90  1  0.10300000  0.63600000  0.53910000  1.0 0.1310340497
C  C91  1  0.60300000  0.86400000  0.46090000  1.0 0.1209274655
C  C92  1  0.89700000  0.13600000  0.96090000  1.0 0.1209274655
C  C93  1  0.40280000  0.39630000  0.01550000  1.0 -0.226808093
C  C94  1  0.09720000  0.60370000  0.51550000  1.0 -0.226808093
C  C95  1  0.59720000  0.89630000  0.48450000  1.0 -0.226808093
C  C96  1  0.90280000  0.10370000  0.98450000  1.0 -0.226808093
C  C97  1  0.49670000  0.40880000  0.00470000  1.0 0.1310340497
C  C98  1  0.00330000  0.59120000  0.50470000  1.0 0.1310340497
C  C99  1  0.50330000  0.90880000  0.49530000  1.0 0.1310340497
C  C100  1  0.99670000  0.09120000  0.99530000  1.0 0.1310340497
C  C101  1  0.58270000  0.38980000  0.01880000  1.0 0.0915456429
C  C102  1  0.91730000  0.61020000  0.51880000  1.0 0.0915456429
C  C103  1  0.41730000  0.88980000  0.48120000  1.0 0.0915456429
C  C104  1  0.08270000  0.11020000  0.98120000  1.0 0.0915456429
C  C105  1  0.68880000  0.40220000  0.00930000  1.0 -0.429460915
C  C106  1  0.81120000  0.59780000  0.50930000  1.0 -0.429460915
C  C107  1  0.31120000  0.90220000  0.49070000  1.0 -0.429460915
C  C108  1  0.18880000  0.09780000  0.99070000  1.0 -0.429460915
C  C109  1  0.50550000  0.44060000  0.97870000  1.0 -0.4593503724
C  C110  1  0.99450000  0.55940000  0.47870000  1.0 -0.4593503724
C  C111  1  0.49450000  0.94060000  0.52130000  1.0 -0.4593503724
C  C112  1  0.00550000  0.05940000  0.02130000  1.0 -0.4593503724
C  C113  1  0.29360000  0.34980000  0.04960000  1.0 -0.4593503724
C  C114  1  0.20640000  0.65020000  0.54960000  1.0 -0.4593503724
C  C115  1  0.70640000  0.84980000  0.45040000  1.0 -0.4593503724
C  C116  1  0.79360000  0.15020000  0.95040000  1.0 -0.4593503724
C  C117  1  0.47850000  0.30660000  0.07480000  1.0 -0.429460915
C  C118  1  0.02150000  0.69340000  0.57480000  1.0 -0.429460915
C  C119  1  0.52150000  0.80660000  0.42520000  1.0 -0.429460915
C  C120  1  0.97850000  0.19340000  0.92520000  1.0 -0.429460915
C  C121  1  0.22230000  0.66490000  0.02450000  1.0 0.0592206549
C  C122  1  0.27770000  0.33510000  0.52450000  1.0 0.0592206549
C  C123  1  0.77770000  0.16490000  0.47550000  1.0 0.0592206549
C  C124  1  0.72230000  0.83510000  0.97550000  1.0 0.0592206549
C  C125  1  0.22790000  0.62210000  0.02590000  1.0 -0.1889986876
C  C126  1  0.27210000  0.37790000  0.52590000  1.0 -0.1889986876
C  C127  1  0.77210000  0.12210000  0.47410000  1.0 -0.1889986876
C  C128  1  0.72790000  0.87790000  0.97410000  1.0 -0.1889986876
C  C129  1  0.28960000  0.60100000  0.00450000  1.0 0.1209274655
C  C130  1  0.21040000  0.39900000  0.50450000  1.0 0.1209274655
C  C131  1  0.71040000  0.10100000  0.49550000  1.0 0.1209274655
C  C132  1  0.78960000  0.89900000  0.99550000  1.0 0.1209274655
C  C133  1  0.34590000  0.62260000  0.98180000  1.0 -0.1889986876
C  C134  1  0.15410000  0.37740000  0.48180000  1.0 -0.1889986876
C  C135  1  0.65410000  0.12260000  0.51820000  1.0 -0.1889986876
C  C136  1  0.84590000  0.87740000  0.01820000  1.0 -0.1889986876
C  C137  1  0.34030000  0.66540000  0.98040000  1.0 0.0524107053
C  C138  1  0.15970000  0.33460000  0.48040000  1.0 0.0592206549
C  C139  1  0.65970000  0.16540000  0.51960000  1.0 0.0592206549
C  C140  1  0.84030000  0.83460000  0.01960000  1.0 0.0592206549
C  C141  1  0.29610000  0.55470000  0.00420000  1.0 -0.0636711746
C  C142  1  0.20390000  0.44530000  0.50420000  1.0 -0.0636711746
C  C143  1  0.70390000  0.05470000  0.49580000  1.0 -0.0636711746
C  C144  1  0.79610000  0.94530000  0.99580000  1.0 -0.0636711746
C  C145  1  0.33160000  0.53310000  0.03140000  1.0 0.0592206549
C  C146  1  0.16840000  0.46690000  0.53140000  1.0 0.0592206549
C  C147  1  0.66840000  0.03310000  0.46860000  1.0 0.0592206549
C  C148  1  0.83160000  0.96690000  0.96860000  1.0 0.0592206549
C  C149  1  0.33170000  0.49090000  0.03120000  1.0 0.0995671492
C  C150  1  0.16830000  0.50910000  0.53120000  1.0 0.0995671492
C  C151  1  0.66830000  0.99090000  0.46880000  1.0 0.0995671492
C  C152  1  0.83170000  0.00910000  0.96880000  1.0 0.0995671492
C  C153  1  0.30150000  0.46780000  0.00430000  1.0 -0.2200091879
C  C154  1  0.19850000  0.53220000  0.50430000  1.0 -0.2200091879
C  C155  1  0.69850000  0.96780000  0.49570000  1.0 -0.2200091879
C  C156  1  0.80150000  0.03220000  0.99570000  1.0 -0.2200091879
C  C157  1  0.26890000  0.49030000  0.97540000  1.0 0.1100369205
C  C158  1  0.23110000  0.50970000  0.47540000  1.0 0.1100369205
C  C159  1  0.73110000  0.99030000  0.52460000  1.0 0.1100369205
C  C160  1  0.76890000  0.00970000  0.02460000  1.0 0.1100369205
C  C161  1  0.26080000  0.53260000  0.97630000  1.0 0.0688220546
C  C162  1  0.23920000  0.46740000  0.47630000  1.0 0.0688220546
C  C163  1  0.73920000  0.03260000  0.52370000  1.0 0.0688220546
C  C164  1  0.76080000  0.96740000  0.02370000  1.0 0.0688220546
C  C165  1  0.20770000  0.55600000  0.94840000  1.0 -0.449109477
C  C166  1  0.29230000  0.44400000  0.44840000  1.0 -0.449109477
C  C167  1  0.79230000  0.05600000  0.55160000  1.0 -0.449109477
C  C168  1  0.70770000  0.94400000  0.05160000  1.0 -0.449109477
C  C169  1  0.24130000  0.46840000  0.94350000  1.0 -0.4729275118
C  C170  1  0.25870000  0.53160000  0.44350000  1.0 -0.4729275118
C  C171  1  0.75870000  0.96840000  0.55650000  1.0 -0.4729275118
C  C172  1  0.74130000  0.03160000  0.05650000  1.0 -0.4729275118
C  C173  1  0.36430000  0.46610000  0.06290000  1.0 -0.449109477
C  C174  1  0.13570000  0.53390000  0.56290000  1.0 -0.449109477
C  C175  1  0.63570000  0.96610000  0.43710000  1.0 -0.449109477
C  C176  1  0.86430000  0.03390000  0.93710000  1.0 -0.449109477
C  C177  1  0.38040000  0.55950000  0.05930000  1.0 -0.438857365
C  C178  1  0.11960000  0.44050000  0.55930000  1.0 -0.438857365
C  C179  1  0.61960000  0.05950000  0.44070000  1.0 -0.438857365
C  C180  1  0.88040000  0.94050000  0.94070000  1.0 -0.438857365
C  C181  1  0.64750000  0.27100000  0.79770000  1.0 0.0524107053
C  C182  1  0.85250000  0.72900000  0.29770000  1.0 0.0524107053
C  C183  1  0.35250000  0.77100000  0.70230000  1.0 0.0524107053
C  C184  1  0.14750000  0.22900000  0.20230000  1.0 0.0524107053
C  C185  1  0.65210000  0.24240000  0.77215000  1.0 -0.1889986876
C  C186  1  0.84790000  0.75760000  0.27215000  1.0 -0.1889986876
C  C187  1  0.34790000  0.74240000  0.72785000  1.0 -0.1889986876
C  C188  1  0.15210000  0.25760000  0.22785000  1.0 -0.1889986876
C  C189  1  0.67940000  0.20190000  0.77860000  1.0 0.1392767183
C  C190  1  0.82060000  0.79810000  0.27860000  1.0 0.1392767183
C  C191  1  0.32060000  0.70190000  0.72140000  1.0 0.1392767183
C  C192  1  0.17940000  0.29810000  0.22140000  1.0 0.1392767183
C  C193  1  0.70210000  0.19000000  0.81060000  1.0 -0.1806236308
C  C194  1  0.79790000  0.81000000  0.31060000  1.0 -0.1806236308
C  C195  1  0.29790000  0.69000000  0.68940000  1.0 -0.1806236308
C  C196  1  0.20210000  0.31000000  0.18940000  1.0 -0.1806236308
C  C197  1  0.69750000  0.21860000  0.83615000  1.0 0.0592206549
C  C198  1  0.80250000  0.78140000  0.33615000  1.0 0.0592206549
C  C199  1  0.30250000  0.71860000  0.66385000  1.0 0.0592206549
C  C200  1  0.19750000  0.28140000  0.16385000  1.0 0.0592206549
C  C201  1  0.68750000  0.17030000  0.75000000  1.0 -0.0509650017
C  C202  1  0.81250000  0.82970000  0.25000000  1.0 -0.0509650017
C  C203  1  0.31250000  0.67030000  0.75000000  1.0 -0.0509650017
C  C204  1  0.18750000  0.32970000  0.25000000  1.0 -0.0509650017
C  C205  1  0.60550000  0.15690000  0.73560000  1.0 0.0524107053
C  C206  1  0.89450000  0.84310000  0.23560000  1.0 0.0524107053
C  C207  1  0.39450000  0.65690000  0.76440000  1.0 0.0592206549
C  C208  1  0.10550000  0.34310000  0.26440000  1.0 0.0524107053
C  C209  1  0.61270000  0.13010000  0.70730000  1.0 0.1392767183
C  C210  1  0.88730000  0.86990000  0.20730000  1.0 0.1392767183
C  C211  1  0.38730000  0.63010000  0.79270000  1.0 0.1392767183
C  C212  1  0.11270000  0.36990000  0.29270000  1.0 0.1392767183
C  C213  1  0.70670000  0.11670000  0.69700000  1.0 -0.2492057692
C  C214  1  0.79330000  0.88330000  0.19700000  1.0 -0.2492057692
C  C215  1  0.29330000  0.61670000  0.80300000  1.0 -0.2492057692
C  C216  1  0.20670000  0.38330000  0.30300000  1.0 -0.2492057692
C  C217  1  0.78920000  0.13000000  0.71350000  1.0 0.0995671492
C  C218  1  0.71080000  0.87000000  0.21350000  1.0 0.0995671492
C  C219  1  0.21080000  0.63000000  0.78650000  1.0 0.0995671492
C  C220  1  0.28920000  0.37000000  0.28650000  1.0 0.0995671492
C  C221  1  0.78530000  0.15700000  0.74100000  1.0 0.0688220546
C  C222  1  0.71470000  0.84300000  0.24100000  1.0 0.0688220546
C  C223  1  0.21470000  0.65700000  0.75900000  1.0 0.0688220546
C  C224  1  0.28530000  0.34300000  0.25900000  1.0 0.0688220546
C  C225  1  0.87130000  0.17260000  0.75870000  1.0 -0.438857365
C  C226  1  0.62870000  0.82740000  0.25870000  1.0 -0.438857365
C  C227  1  0.12870000  0.67260000  0.74130000  1.0 -0.438857365
C  C228  1  0.37130000  0.32740000  0.24130000  1.0 -0.438857365
C  C229  1  0.89350000  0.11280000  0.70710000  1.0 -0.438857365
C  C230  1  0.60650000  0.88720000  0.20710000  1.0 -0.438857365
C  C231  1  0.10650000  0.61280000  0.79290000  1.0 -0.438857365
C  C232  1  0.39350000  0.38720000  0.29290000  1.0 -0.438857365
C  C233  1  0.51810000  0.11770000  0.69050000  1.0 -0.4593503724
C  C234  1  0.98190000  0.88230000  0.19050000  1.0 -0.4593503724
C  C235  1  0.48190000  0.61770000  0.80950000  1.0 -0.4593503724
C  C236  1  0.01810000  0.38230000  0.30950000  1.0 -0.4593503724
C  C237  1  0.50600000  0.16790000  0.74780000  1.0 -0.429460915
C  C238  1  0.99400000  0.83210000  0.24780000  1.0 -0.429460915
C  C239  1  0.49400000  0.66790000  0.75220000  1.0 -0.429460915
C  C240  1  0.00600000  0.33210000  0.25220000  1.0 -0.429460915
C  C241  1  0.15980000  0.19740000  0.56230000  1.0 0.0688220546
C  C242  1  0.34020000  0.80260000  0.06230000  1.0 0.0688220546
C  C243  1  0.84020000  0.69740000  0.93770000  1.0 0.0688220546
C  C244  1  0.65980000  0.30260000  0.43770000  1.0 0.0688220546
C  C245  1  0.09620000  0.17670000  0.58320000  1.0 -0.1806236308
C  C246  1  0.40380000  0.82330000  0.08320000  1.0 -0.1806236308
C  C247  1  0.90380000  0.67670000  0.91680000  1.0 -0.1806236308
C  C248  1  0.59620000  0.32330000  0.41680000  1.0 -0.1806236308
C  C249  1  0.00640000  0.16270000  0.57160000  1.0 0.1209274655
C  C250  1  0.49360000  0.83730000  0.07160000  1.0 0.1209274655
C  C251  1  0.99360000  0.66270000  0.92840000  1.0 0.1209274655
C  C252  1  0.50640000  0.33730000  0.42840000  1.0 0.1209274655
C  C253  1  0.98020000  0.16960000  0.53890000  1.0 -0.1889986876
C  C254  1  0.51980000  0.83040000  0.03890000  1.0 -0.1889986876
C  C255  1  0.01980000  0.66960000  0.96110000  1.0 -0.1889986876
C  C256  1  0.48020000  0.33040000  0.46110000  1.0 -0.1889986876
C  C257  1  0.04380000  0.19040000  0.51790000  1.0 0.0688220546
C  C258  1  0.45620000  0.80960000  0.01790000  1.0 0.0688220546
C  C259  1  0.95620000  0.69040000  0.98210000  1.0 0.0688220546
C  C260  1  0.54380000  0.30960000  0.48210000  1.0 0.0688220546
C  C261  1  0.93310000  0.14330000  0.59430000  1.0 -0.0509650017
C  C262  1  0.56690000  0.85670000  0.09430000  1.0 -0.0509650017
C  C263  1  0.06690000  0.64330000  0.90570000  1.0 -0.0509650017
C  C264  1  0.43310000  0.35670000  0.40570000  1.0 -0.0509650017
C  C265  1  0.94280000  0.10260000  0.60600000  1.0 0.0524107053
C  C266  1  0.55720000  0.89740000  0.10600000  1.0 0.0524107053
C  C267  1  0.05720000  0.60260000  0.89400000  1.0 0.0524107053
C  C268  1  0.44280000  0.39740000  0.39400000  1.0 0.0524107053
C  C269  1  0.87250000  0.08560000  0.62570000  1.0 0.0995671492
C  C270  1  0.62750000  0.91440000  0.12570000  1.0 0.0995671492
C  C271  1  0.12750000  0.58560000  0.87430000  1.0 0.0995671492
C  C272  1  0.37250000  0.41440000  0.37430000  1.0 0.0995671492
C  C273  1  0.79310000  0.10990000  0.63720000  1.0 -0.2200091879
C  C274  1  0.70690000  0.89010000  0.13720000  1.0 -0.2200091879
C  C275  1  0.20690000  0.60990000  0.86280000  1.0 -0.2200091879
C  C276  1  0.29310000  0.39010000  0.36280000  1.0 -0.226808093
C  C277  1  0.78360000  0.15020000  0.62620000  1.0 0.1100369205
C  C278  1  0.71640000  0.84980000  0.12620000  1.0 0.1100369205
C  C279  1  0.21640000  0.65020000  0.87380000  1.0 0.1100369205
C  C280  1  0.28360000  0.34980000  0.37380000  1.0 0.1100369205
C  C281  1  0.85230000  0.16720000  0.60510000  1.0 0.0688220546
C  C282  1  0.64770000  0.83280000  0.10510000  1.0 0.0688220546
C  C283  1  0.14770000  0.66720000  0.89490000  1.0 0.0688220546
C  C284  1  0.35230000  0.33280000  0.39490000  1.0 0.0688220546
C  C285  1  0.83780000  0.21220000  0.59420000  1.0 -0.449109477
C  C286  1  0.66220000  0.78780000  0.09420000  1.0 -0.449109477
C  C287  1  0.16220000  0.71220000  0.90580000  1.0 -0.449109477
C  C288  1  0.33780000  0.28780000  0.40580000  1.0 -0.449109477
C  C289  1  0.69290000  0.17680000  0.63490000  1.0 -0.449109477
C  C290  1  0.80710000  0.82320000  0.13490000  1.0 -0.449109477
C  C291  1  0.30710000  0.67680000  0.86510000  1.0 -0.449109477
C  C292  1  0.19290000  0.32320000  0.36510000  1.0 -0.449109477
C  C293  1  0.88730000  0.04190000  0.63660000  1.0 -0.449109477
C  C294  1  0.61270000  0.95810000  0.13660000  1.0 -0.449109477
C  C295  1  0.11270000  0.54190000  0.86340000  1.0 -0.449109477
C  C296  1  0.38730000  0.45810000  0.36340000  1.0 -0.449109477
C  C297  1  0.02880000  0.07840000  0.59270000  1.0 -0.4197604905
C  C298  1  0.47120000  0.92160000  0.09270000  1.0 -0.4197604905
C  C299  1  0.97120000  0.57840000  0.90730000  1.0 -0.4197604905
C  C300  1  0.52880000  0.42160000  0.40730000  1.0 -0.4197604905
C  C301  1  0.36430000  0.89340000  0.65700000  1.0 0.0426092556
C  C302  1  0.13570000  0.10660000  0.15700000  1.0 0.0426092556
C  C303  1  0.63570000  0.39340000  0.84300000  1.0 0.0426092556
C  C304  1  0.86430000  0.60660000  0.34300000  1.0 0.0426092556
C  C305  1  0.41430000  0.93040000  0.66070000  1.0 -0.1806236308
C  C306  1  0.08570000  0.06960000  0.16070000  1.0 -0.1806236308
C  C307  1  0.58570000  0.43040000  0.83930000  1.0 -0.1806236308
C  C308  1  0.91430000  0.56960000  0.33930000  1.0 -0.1806236308
C  C309  1  0.49160000  0.94000000  0.63980000  1.0 0.1310340497
C  C310  1  0.00840000  0.06000000  0.13980000  1.0 0.1310340497
C  C311  1  0.50840000  0.44000000  0.86020000  1.0 0.1310340497
C  C312  1  0.99160000  0.56000000  0.36020000  1.0 0.1310340497
C  C313  1  0.51890000  0.91250000  0.61520000  1.0 -0.1806236308
C  C314  1  0.98110000  0.08750000  0.11520000  1.0 -0.1806236308
C  C315  1  0.48110000  0.41250000  0.88480000  1.0 -0.1806236308
C  C316  1  0.01890000  0.58750000  0.38480000  1.0 -0.1806236308
C  C317  1  0.46890000  0.87550000  0.61150000  1.0 0.0688220546
C  C318  1  0.03110000  0.12450000  0.11150000  1.0 0.0688220546
C  C319  1  0.53110000  0.37550000  0.88850000  1.0 0.0688220546
C  C320  1  0.96890000  0.62450000  0.38850000  1.0 0.0688220546
C  C321  1  0.54650000  0.97980000  0.64440000  1.0 -0.0440924067
C  C322  1  0.95350000  0.02020000  0.14440000  1.0 -0.0440924067
C  C323  1  0.45350000  0.47980000  0.85560000  1.0 -0.0440924067
C  C324  1  0.04650000  0.52020000  0.35560000  1.0 -0.0440924067
C  C325  1  0.61250000  0.98280000  0.67310000  1.0 0.0688220546
C  C326  1  0.88750000  0.01720000  0.17310000  1.0 0.0688220546
C  C327  1  0.38750000  0.48280000  0.82690000  1.0 0.0688220546
C  C328  1  0.11250000  0.51720000  0.32690000  1.0 0.0688220546
C  C329  1  0.66260000  0.01830000  0.67830000  1.0 0.0915456429
C  C330  1  0.83740000  0.98170000  0.17830000  1.0 0.0915456429
C  C331  1  0.33740000  0.51830000  0.82170000  1.0 0.0915456429
C  C332  1  0.16260000  0.48170000  0.32170000  1.0 0.0915456429
C  C333  1  0.65470000  0.05170000  0.65690000  1.0 -0.2200091879
C  C334  1  0.84530000  0.94830000  0.15690000  1.0 -0.2200091879
C  C335  1  0.34530000  0.55170000  0.84310000  1.0 -0.2200091879
C  C336  1  0.15470000  0.44830000  0.34310000  1.0 -0.2200091879
C  C337  1  0.59280000  0.04680000  0.62810000  1.0 0.1100369205
C  C338  1  0.90720000  0.95320000  0.12810000  1.0 0.1100369205
C  C339  1  0.40720000  0.54680000  0.87190000  1.0 0.1100369205
C  C340  1  0.09280000  0.45320000  0.37190000  1.0 0.1100369205
C  C341  1  0.53880000  0.01180000  0.62330000  1.0 0.0426092556
C  C342  1  0.96120000  0.98820000  0.12330000  1.0 0.0426092556
C  C343  1  0.46120000  0.51180000  0.87670000  1.0 0.0426092556
C  C344  1  0.03880000  0.48820000  0.37670000  1.0 0.0426092556
C  C345  1  0.46840000  0.00840000  0.59420000  1.0 -0.429460915
C  C346  1  0.03160000  0.99160000  0.09420000  1.0 -0.429460915
C  C347  1  0.53160000  0.50840000  0.90580000  1.0 -0.429460915
C  C348  1  0.96840000  0.49160000  0.40580000  1.0 -0.429460915
C  C349  1  0.57900000  0.08500000  0.60510000  1.0 -0.4593503724
C  C350  1  0.92100000  0.91500000  0.10510000  1.0 -0.4593503724
C  C351  1  0.42100000  0.58500000  0.89490000  1.0 -0.4593503724
C  C352  1  0.07900000  0.41500000  0.39490000  1.0 -0.4593503724
C  C353  1  0.73150000  0.02110000  0.70880000  1.0 -0.438857365
C  C354  1  0.76850000  0.97890000  0.20880000  1.0 -0.438857365
C  C355  1  0.26850000  0.52110000  0.79120000  1.0 -0.438857365
C  C356  1  0.23150000  0.47890000  0.29120000  1.0 -0.438857365
C  C357  1  0.62040000  0.94470000  0.69600000  1.0 -0.4593503724
C  C358  1  0.87960000  0.05530000  0.19600000  1.0 -0.4593503724
C  C359  1  0.37960000  0.44470000  0.80400000  1.0 -0.4593503724
C  C360  1  0.12040000  0.55530000  0.30400000  1.0 -0.4593503724
C  C361  1  0.20420000  0.80250000  0.93330000  1.0 0.0592206549
C  C362  1  0.29580000  0.19750000  0.43330000  1.0 0.0592206549
C  C363  1  0.79580000  0.30250000  0.56670000  1.0 0.0592206549
C  C364  1  0.70420000  0.69750000  0.06670000  1.0 0.0592206549
C  C365  1  0.14380000  0.82120000  0.91010000  1.0 -0.1806236308
C  C366  1  0.35620000  0.17880000  0.41010000  1.0 -0.1806236308
C  C367  1  0.85620000  0.32120000  0.58990000  1.0 -0.1806236308
C  C368  1  0.64380000  0.67880000  0.08990000  1.0 -0.1806236308
C  C369  1  0.04640000  0.82930000  0.91770000  1.0 0.1100369205
C  C370  1  0.45360000  0.17070000  0.41770000  1.0 0.1100369205
C  C371  1  0.95360000  0.32930000  0.58230000  1.0 0.1100369205
C  C372  1  0.54640000  0.67070000  0.08230000  1.0 0.1100369205
C  C373  1  0.00940000  0.81860000  0.94850000  1.0 -0.1806236308
C  C374  1  0.49060000  0.18140000  0.44850000  1.0 -0.1806236308
C  C375  1  0.99060000  0.31860000  0.55150000  1.0 -0.1806236308
C  C376  1  0.50940000  0.68140000  0.05150000  1.0 -0.1806236308
C  C377  1  0.06980000  0.79990000  0.97160000  1.0 0.0688220546
C  C378  1  0.43020000  0.20010000  0.47160000  1.0 0.0688220546
C  C379  1  0.93020000  0.29990000  0.52840000  1.0 0.0688220546
C  C380  1  0.56980000  0.70010000  0.02840000  1.0 0.0688220546
C  C381  1  0.98260000  0.85070000  0.89450000  1.0 -0.0509650017
C  C382  1  0.51740000  0.14930000  0.39450000  1.0 -0.0509650017
C  C383  1  0.01740000  0.35070000  0.60550000  1.0 -0.0509650017
C  C384  1  0.48260000  0.64930000  0.10550000  1.0 -0.0509650017
C  C385  1  0.90040000  0.83080000  0.88170000  1.0 0.0688220546
C  C386  1  0.59960000  0.16920000  0.38170000  1.0 0.0688220546
C  C387  1  0.09960000  0.33080000  0.61830000  1.0 0.0688220546
C  C388  1  0.40040000  0.66920000  0.11830000  1.0 0.0688220546
C  C389  1  0.83480000  0.85100000  0.86040000  1.0 0.1100369205
C  C390  1  0.66520000  0.14900000  0.36040000  1.0 0.1100369205
C  C391  1  0.16520000  0.35100000  0.63960000  1.0 0.1100369205
C  C392  1  0.33480000  0.64900000  0.13960000  1.0 0.1100369205
C  C393  1  0.85640000  0.89080000  0.84930000  1.0 -0.226808093
C  C394  1  0.64360000  0.10920000  0.34930000  1.0 -0.226808093
C  C395  1  0.14360000  0.39080000  0.65070000  1.0 -0.226808093
C  C396  1  0.35640000  0.60920000  0.15070000  1.0 -0.226808093
C  C397  1  0.94580000  0.91000000  0.86070000  1.0 0.0915456429
C  C398  1  0.55420000  0.09000000  0.36070000  1.0 0.0915456429
C  C399  1  0.05420000  0.41000000  0.63930000  1.0 0.0915456429
C  C400  1  0.44580000  0.59000000  0.13930000  1.0 0.0915456429
C  C401  1  0.00800000  0.89050000  0.88260000  1.0 0.0592206549
C  C402  1  0.49200000  0.10950000  0.38260000  1.0 0.0592206549
C  C403  1  0.99200000  0.39050000  0.61740000  1.0 0.0592206549
C  C404  1  0.50800000  0.60950000  0.11740000  1.0 0.0592206549
C  C405  1  0.09510000  0.91190000  0.89610000  1.0 -0.429460915
C  C406  1  0.40490000  0.08810000  0.39610000  1.0 -0.4197604905
C  C407  1  0.90490000  0.41190000  0.60390000  1.0 -0.4197604905
C  C408  1  0.59510000  0.58810000  0.10390000  1.0 -0.429460915
C  C409  1  0.96790000  0.95170000  0.84920000  1.0 -0.449109477
C  C410  1  0.53210000  0.04830000  0.34920000  1.0 -0.449109477
C  C411  1  0.03210000  0.45170000  0.65080000  1.0 -0.449109477
C  C412  1  0.46790000  0.54830000  0.15080000  1.0 -0.449109477
C  C413  1  0.73870000  0.83020000  0.84910000  1.0 -0.449109477
C  C414  1  0.76130000  0.16980000  0.34910000  1.0 -0.449109477
C  C415  1  0.26130000  0.33020000  0.65090000  1.0 -0.449109477
C  C416  1  0.23870000  0.66980000  0.15090000  1.0 -0.449109477
C  C417  1  0.88240000  0.78590000  0.89390000  1.0 -0.449109477
C  C418  1  0.61760000  0.21410000  0.39390000  1.0 -0.449109477
C  C419  1  0.11760000  0.28590000  0.60610000  1.0 -0.449109477
C  C420  1  0.38240000  0.71410000  0.10610000  1.0 -0.449109477
C  C421  1  0.61100000  0.14070000  0.88560000  1.0 0.0592206549
C  C422  1  0.88900000  0.85930000  0.38560000  1.0 0.0592206549
C  C423  1  0.38900000  0.64070000  0.61440000  1.0 0.0592206549
C  C424  1  0.11100000  0.35930000  0.11440000  1.0 0.0592206549
C  C425  1  0.65470000  0.10280000  0.87940000  1.0 -0.1889986876
C  C426  1  0.84530000  0.89720000  0.37940000  1.0 -0.1889986876
C  C427  1  0.34530000  0.60280000  0.62060000  1.0 -0.1889986876
C  C428  1  0.15470000  0.39720000  0.12060000  1.0 -0.1889986876
C  C429  1  0.61730000  0.07720000  0.85490000  1.0 0.1310340497
C  C430  1  0.88270000  0.92280000  0.35490000  1.0 0.1310340497
C  C431  1  0.38270000  0.57720000  0.64510000  1.0 0.1310340497
C  C432  1  0.11730000  0.42280000  0.14510000  1.0 0.1310340497
C  C433  1  0.53610000  0.08950000  0.83680000  1.0 -0.1608612026
C  C434  1  0.96390000  0.91050000  0.33680000  1.0 -0.1608612026
C  C435  1  0.46390000  0.58950000  0.66320000  1.0 -0.1608612026
C  C436  1  0.03610000  0.41050000  0.16320000  1.0 -0.1608612026
C  C437  1  0.49240000  0.12740000  0.84300000  1.0 0.0794844182
C  C438  1  0.00760000  0.87260000  0.34300000  1.0 0.0794844182
C  C439  1  0.50760000  0.62740000  0.65700000  1.0 0.0794844182
C  C440  1  0.99240000  0.37260000  0.15700000  1.0 0.0794844182
C  C441  1  0.66530000  0.03570000  0.84670000  1.0 -0.0636711746
C  C442  1  0.83470000  0.96430000  0.34670000  1.0 -0.0636711746
C  C443  1  0.33470000  0.53570000  0.65330000  1.0 -0.0636711746
C  C444  1  0.16530000  0.46430000  0.15330000  1.0 -0.0636711746
C  C445  1  0.64680000  0.00290000  0.86940000  1.0 0.0794844182
C  C446  1  0.85320000  0.99710000  0.36940000  1.0 0.0794844182
C  C447  1  0.35320000  0.50290000  0.63060000  1.0 0.0794844182
C  C448  1  0.14680000  0.49710000  0.13060000  1.0 0.0794844182
C  C449  1  0.68830000  0.96370000  0.86250000  1.0 0.0995671492
C  C450  1  0.81170000  0.03630000  0.36250000  1.0 0.0995671492
C  C451  1  0.31170000  0.46370000  0.63750000  1.0 0.0995671492
C  C452  1  0.18830000  0.53630000  0.13750000  1.0 0.0995671492
C  C453  1  0.74250000  0.95830000  0.83420000  1.0 -0.2200091879
C  C454  1  0.75750000  0.04170000  0.33420000  1.0 -0.2200091879
C  C455  1  0.25750000  0.45830000  0.66580000  1.0 -0.2200091879
C  C456  1  0.24250000  0.54170000  0.16580000  1.0 -0.2200091879
C  C457  1  0.75960000  0.99240000  0.81340000  1.0 0.0995671492
C  C458  1  0.74040000  0.00760000  0.31340000  1.0 0.0995671492
C  C459  1  0.24040000  0.49240000  0.68660000  1.0 0.0995671492
C  C460  1  0.25960000  0.50760000  0.18660000  1.0 0.0995671492
C  C461  1  0.72290000  0.03000000  0.81980000  1.0 0.0524107053
C  C462  1  0.77710000  0.97000000  0.31980000  1.0 0.0524107053
C  C463  1  0.27710000  0.53000000  0.68020000  1.0 0.0524107053
C  C464  1  0.22290000  0.47000000  0.18020000  1.0 0.0524107053
C  C465  1  0.82440000  0.98480000  0.78270000  1.0 -0.449109477
C  C466  1  0.67560000  0.01520000  0.28270000  1.0 -0.449109477
C  C467  1  0.17560000  0.48480000  0.71730000  1.0 -0.449109477
C  C468  1  0.32440000  0.51520000  0.21730000  1.0 -0.449109477
C  C469  1  0.74720000  0.06750000  0.79760000  1.0 -0.429460915
C  C470  1  0.75280000  0.93250000  0.29760000  1.0 -0.429460915
C  C471  1  0.25280000  0.56750000  0.70240000  1.0 -0.429460915
C  C472  1  0.24720000  0.43250000  0.20240000  1.0 -0.429460915
C  C473  1  0.57950000  0.01100000  0.89930000  1.0 -0.438857365
C  C474  1  0.92050000  0.98900000  0.39930000  1.0 -0.438857365
C  C475  1  0.42050000  0.51100000  0.60070000  1.0 -0.438857365
C  C476  1  0.07950000  0.48900000  0.10070000  1.0 -0.438857365
C  C477  1  0.66630000  0.92600000  0.88440000  1.0 -0.4593503724
C  C478  1  0.83370000  0.07400000  0.38440000  1.0 -0.4593503724
C  C479  1  0.33370000  0.42600000  0.61560000  1.0 -0.4593503724
C  C480  1  0.16630000  0.57400000  0.11560000  1.0 -0.4593503724
C  C481  1  0.61710000  0.74490000  0.69440000  1.0 0.0688220546
C  C482  1  0.88290000  0.25510000  0.19440000  1.0 0.0688220546
C  C483  1  0.38290000  0.24490000  0.80560000  1.0 0.0688220546
C  C484  1  0.11710000  0.75510000  0.30560000  1.0 0.0688220546
C  C485  1  0.64790000  0.77290000  0.71816000  1.0 -0.1889986876
C  C486  1  0.85210000  0.22710000  0.21816000  1.0 -0.1889986876
C  C487  1  0.35210000  0.27290000  0.78184000  1.0 -0.1889986876
C  C488  1  0.14790000  0.72710000  0.28184000  1.0 -0.1889986876
C  C489  1  0.65980000  0.81430000  0.71000000  1.0 0.1209274655
C  C490  1  0.84020000  0.18570000  0.21000000  1.0 0.1209274655
C  C491  1  0.34020000  0.31430000  0.79000000  1.0 0.1209274655
C  C492  1  0.15980000  0.68570000  0.29000000  1.0 0.1209274655
C  C493  1  0.64100000  0.82770000  0.67810000  1.0 -0.198379207
C  C494  1  0.85900000  0.17230000  0.17810000  1.0 -0.198379207
C  C495  1  0.35900000  0.32770000  0.82190000  1.0 -0.198379207
C  C496  1  0.14100000  0.67230000  0.32190000  1.0 -0.198379207
C  C497  1  0.61020000  0.79970000  0.65430000  1.0 0.0592206549
C  C498  1  0.88980000  0.20030000  0.15430000  1.0 0.0592206549
C  C499  1  0.38980000  0.29970000  0.84570000  1.0 0.0592206549
C  C500  1  0.11020000  0.70030000  0.34570000  1.0 0.0592206549
C  C501  1  0.68930000  0.84290000  0.73720000  1.0 -0.0509650017
C  C502  1  0.81070000  0.15710000  0.23720000  1.0 -0.0509650017
C  C503  1  0.31070000  0.34290000  0.76280000  1.0 -0.0509650017
C  C504  1  0.18930000  0.65710000  0.26280000  1.0 -0.0509650017
C  C505  1  0.79080000  0.84830000  0.74420000  1.0 0.0426092556
C  C506  1  0.70920000  0.15170000  0.24420000  1.0 0.0426092556
C  C507  1  0.20920000  0.34830000  0.75580000  1.0 0.0426092556
C  C508  1  0.29080000  0.65170000  0.25580000  1.0 0.0426092556
C  C509  1  0.81950000  0.87230000  0.77110000  1.0 0.1100369205
C  C510  1  0.68050000  0.12770000  0.27110000  1.0 0.1100369205
C  C511  1  0.18050000  0.37230000  0.72890000  1.0 0.1100369205
C  C512  1  0.31950000  0.62770000  0.22890000  1.0 0.1100369205
C  C513  1  0.74730000  0.89230000  0.79140000  1.0 -0.2395014898
C  C514  1  0.75270000  0.10770000  0.29140000  1.0 -0.2395014898
C  C515  1  0.25270000  0.39230000  0.70860000  1.0 -0.2395014898
C  C516  1  0.24730000  0.60770000  0.20860000  1.0 -0.2395014898
C  C517  1  0.65290000  0.88790000  0.78330000  1.0 0.0995671492
C  C518  1  0.84710000  0.11210000  0.28330000  1.0 0.0995671492
C  C519  1  0.34710000  0.38790000  0.71670000  1.0 0.0995671492
C  C520  1  0.15290000  0.61210000  0.21670000  1.0 0.0995671492
C  C521  1  0.62090000  0.86450000  0.75650000  1.0 0.0592206549
C  C522  1  0.87910000  0.13550000  0.25650000  1.0 0.0592206549
C  C523  1  0.37910000  0.36450000  0.74350000  1.0 0.0592206549
C  C524  1  0.12090000  0.63550000  0.24350000  1.0 0.0592206549
C  C525  1  0.51320000  0.85930000  0.74570000  1.0 -0.438857365
C  C526  1  0.98680000  0.14070000  0.24570000  1.0 -0.438857365
C  C527  1  0.48680000  0.35930000  0.75430000  1.0 -0.438857365
C  C528  1  0.01320000  0.64070000  0.25430000  1.0 -0.438857365
C  C529  1  0.57380000  0.91030000  0.80450000  1.0 -0.438857365
C  C530  1  0.92620000  0.08970000  0.30450000  1.0 -0.429460915
C  C531  1  0.42620000  0.41030000  0.69550000  1.0 -0.429460915
C  C532  1  0.07380000  0.58970000  0.19550000  1.0 -0.429460915
C  C533  1  0.93170000  0.87660000  0.77810000  1.0 -0.438857365
C  C534  1  0.56830000  0.12340000  0.27810000  1.0 -0.438857365
C  C535  1  0.06830000  0.37660000  0.72190000  1.0 -0.438857365
C  C536  1  0.43170000  0.62340000  0.22190000  1.0 -0.438857365
C  C537  1  0.86750000  0.82780000  0.72360000  1.0 -0.4197604905
C  C538  1  0.63250000  0.17220000  0.22360000  1.0 -0.4197604905
C  C539  1  0.13250000  0.32780000  0.77640000  1.0 -0.4197604905
C  C540  1  0.36750000  0.67220000  0.27640000  1.0 -0.4197604905
C  C541  1  0.06500000  0.25930000  0.02800000  1.0 0.4810768653
C  C542  1  0.43500000  0.74070000  0.52800000  1.0 0.4810768653
C  C543  1  0.93500000  0.75930000  0.47200000  1.0 0.4810768653
C  C544  1  0.56500000  0.24070000  0.97200000  1.0 0.4810768653
C  C545  1  0.13170000  0.10740000  0.79400000  1.0 0.4416329403
C  C546  1  0.36830000  0.89260000  0.29400000  1.0 0.4416329403
C  C547  1  0.86830000  0.60740000  0.70600000  1.0 0.4416329403
C  C548  1  0.63170000  0.39260000  0.20600000  1.0 0.4416329403
C  C549  1  0.55570000  0.72110000  0.89920000  1.0 0.4537023668
C  C550  1  0.94430000  0.27890000  0.39920000  1.0 0.4537023668
C  C551  1  0.44430000  0.22110000  0.60080000  1.0 0.4537023668
C  C552  1  0.05570000  0.77890000  0.10080000  1.0 0.4537023668
S  S1  1  0.07140000  0.23331000  0.06626000  1.0 0.9651848515
S  S2  1  0.42860000  0.76669000  0.56626000  1.0 0.9651848515
S  S3  1  0.92860000  0.73331000  0.43374000  1.0 0.9651848515
S  S4  1  0.57140000  0.26669000  0.93374000  1.0 0.9651848515
S  S5  1  0.25770000  0.11130000  0.78540000  1.0 0.9907682975
S  S6  1  0.24230000  0.88870000  0.28540000  1.0 0.9907682975
S  S7  1  0.74230000  0.61130000  0.71460000  1.0 0.9907682975
S  S8  1  0.75770000  0.38870000  0.21460000  1.0 0.9907682975
S  S9  1  0.53640000  0.75200000  0.93286000  1.0 1.0005388846
S  S10  1  0.96360000  0.24800000  0.43286000  1.0 1.0005388846
S  S11  1  0.46360000  0.25200000  0.56714000  1.0 1.0005388846
S  S12  1  0.03640000  0.74800000  0.06714000  1.0 1.0005388846
N  N1  1  0.82620000  0.31420000  0.89790000  1.0 -0.198379207
N  N2  1  0.67380000  0.68580000  0.39790000  1.0 -0.198379207
N  N3  1  0.17380000  0.81420000  0.60210000  1.0 -0.198379207
N  N4  1  0.32620000  0.18580000  0.10210000  1.0 -0.198379207
N  N5  1  0.81890000  0.30870000  0.09180000  1.0 -0.2200091879
N  N6  1  0.68110000  0.69130000  0.59180000  1.0 -0.2200091879
N  N7  1  0.18110000  0.80870000  0.40820000  1.0 -0.2200091879
N  N8  1  0.31890000  0.19130000  0.90820000  1.0 -0.2200091879
N  N9  1  0.27850000  0.68650000  0.00180000  1.0 -0.2395014898
N  N10  1  0.22150000  0.31350000  0.50180000  1.0 -0.2395014898
N  N11  1  0.72150000  0.18650000  0.49820000  1.0 -0.2395014898
N  N12  1  0.77850000  0.81350000  0.99820000  1.0 -0.2395014898
N  N13  1  0.67020000  0.25910000  0.82970000  1.0 -0.2108311514
N  N14  1  0.82980000  0.74090000  0.32970000  1.0 -0.2108311514
N  N15  1  0.32980000  0.75910000  0.67030000  1.0 -0.2108311514
N  N16  1  0.17020000  0.24090000  0.17030000  1.0 -0.2108311514
N  N17  1  0.13360000  0.20430000  0.52960000  1.0 -0.2108311514
N  N18  1  0.36640000  0.79570000  0.02960000  1.0 -0.2108311514
N  N19  1  0.86640000  0.70430000  0.97040000  1.0 -0.2108311514
N  N20  1  0.63360000  0.29570000  0.47040000  1.0 -0.2108311514
N  N21  1  0.39160000  0.86590000  0.63240000  1.0 -0.2200091879
N  N22  1  0.10840000  0.13410000  0.13240000  1.0 -0.2200091879
N  N23  1  0.60840000  0.36590000  0.86760000  1.0 -0.2200091879
N  N24  1  0.89160000  0.63410000  0.36760000  1.0 -0.2200091879
N  N25  1  0.16710000  0.79180000  0.96400000  1.0 -0.198379207
N  N26  1  0.33290000  0.20820000  0.46400000  1.0 -0.198379207
N  N27  1  0.83290000  0.29180000  0.53600000  1.0 -0.198379207
N  N28  1  0.66710000  0.70820000  0.03600000  1.0 -0.198379207
N  N29  1  0.52990000  0.15300000  0.86740000  1.0 -0.2395014898
N  N30  1  0.97010000  0.84700000  0.36740000  1.0 -0.2395014898
N  N31  1  0.47010000  0.65300000  0.63260000  1.0 -0.2395014898
N  N32  1  0.02990000  0.34700000  0.13260000  1.0 -0.2395014898
N  N33  1  0.59830000  0.75830000  0.66240000  1.0 -0.226808093
N  N34  1  0.90170000  0.24170000  0.16240000  1.0 -0.2200091879
N  N35  1  0.40170000  0.25830000  0.83760000  1.0 -0.2200091879
N  N36  1  0.09830000  0.74170000  0.33760000  1.0 -0.2200091879
O  O1  1  0.14060000  0.25810000  0.08530000  1.0 -0.5766591696
O  O2  1  0.35940000  0.74190000  0.58530000  1.0 -0.5766591696
O  O3  1  0.85940000  0.75810000  0.41470000  1.0 -0.5766591696
O  O4  1  0.64060000  0.24190000  0.91470000  1.0 -0.5766591696
O  O5  1  0.11060000  0.19190000  0.05600000  1.0 -0.5640583049
O  O6  1  0.38940000  0.80810000  0.55600000  1.0 -0.5640583049
O  O7  1  0.88940000  0.69190000  0.44400000  1.0 -0.5640583049
O  O8  1  0.61060000  0.30810000  0.94400000  1.0 -0.5640583049
O  O9  1  0.97310000  0.23160000  0.07800000  1.0 -0.5473713588
O  O10  1  0.52690000  0.76840000  0.57800000  1.0 -0.5473713588
O  O11  1  0.02690000  0.73160000  0.42200000  1.0 -0.5473713588
O  O12  1  0.47310000  0.26840000  0.92200000  1.0 -0.5473713588
O  O13  1  0.27300000  0.10480000  0.74850000  1.0 -0.5319848816
O  O14  1  0.31500000  0.07750000  0.80290000  1.0 -0.571289153
O  O15  1  0.29700000  0.15200000  0.79610000  1.0 -0.5894948681
O  O16  1  0.22700000  0.89520000  0.24850000  1.0 -0.5319848816
O  O17  1  0.18500000  0.92250000  0.30290000  1.0 -0.571289153
O  O18  1  0.20300000  0.84800000  0.29610000  1.0 -0.5894948681
O  O19  1  0.72700000  0.60480000  0.75150000  1.0 -0.5319848816
O  O20  1  0.68500000  0.57750000  0.69710000  1.0 -0.571289153
O  O21  1  0.70300000  0.65200000  0.70390000  1.0 -0.5766591696
O  O22  1  0.77300000  0.39520000  0.25150000  1.0 -0.5319848816
O  O23  1  0.81500000  0.42250000  0.19710000  1.0 -0.571289153
O  O24  1  0.79700000  0.34800000  0.20390000  1.0 -0.5894948681
O  O25  1  0.56400000  0.79270000  0.91910000  1.0 -0.571289153
O  O26  1  0.61200000  0.74300000  0.95580000  1.0 -0.5766591696
O  O27  1  0.43610000  0.74840000  0.94370000  1.0 -0.5894948681
O  O28  1  0.93600000  0.20730000  0.41910000  1.0 -0.571289153
O  O29  1  0.88800000  0.25700000  0.45580000  1.0 -0.571289153
O  O30  1  0.06390000  0.25160000  0.44370000  1.0 -0.5894948681
O  O31  1  0.43600000  0.29270000  0.58090000  1.0 -0.571289153
O  O32  1  0.38800000  0.24300000  0.54420000  1.0 -0.571289153
O  O33  1  0.56390000  0.24840000  0.55630000  1.0 -0.5894948681
O  O34  1  0.06400000  0.70730000  0.08090000  1.0 -0.571289153
O  O35  1  0.11200000  0.75700000  0.04420000  1.0 -0.5766591696
O  O36  1  0.93610000  0.75160000  0.05630000  1.0 -0.5894948681
F  F1  1  0.03660000  0.29880000  0.03340000  1.0 -0.1889986876
F  F2  1  0.46340000  0.70120000  0.53340000  1.0 -0.1889986876
F  F3  1  0.96340000  0.79880000  0.46660000  1.0 -0.1889986876
F  F4  1  0.53660000  0.20120000  0.96660000  1.0 -0.1889986876
F  F5  1  0.15690000  0.26060000  0.01440000  1.0 -0.1889986876
F  F6  1  0.34310000  0.73940000  0.51440000  1.0 -0.1889986876
F  F7  1  0.84310000  0.76060000  0.48560000  1.0 -0.1889986876
F  F8  1  0.65690000  0.23940000  0.98560000  1.0 -0.1889986876
F  F9  1  0.00790000  0.24260000  0.00690000  1.0 -0.1698836492
F  F10  1  0.49210000  0.75740000  0.50690000  1.0 -0.1698836492
F  F11  1  0.99210000  0.74260000  0.49310000  1.0 -0.1698836492
F  F12  1  0.50790000  0.25740000  0.99310000  1.0 -0.1698836492
F  F13  1  0.07120000  0.13040000  0.77540000  1.0 -0.1608612026
F  F14  1  0.08630000  0.07130000  0.79080000  1.0 -0.1698836492
F  F15  1  0.09440000  0.11830000  0.82370000  1.0 -0.1698836492
F  F16  1  0.42880000  0.86960000  0.27540000  1.0 -0.1608612026
F  F17  1  0.41370000  0.92870000  0.29080000  1.0 -0.1698836492
F  F18  1  0.40560000  0.88170000  0.32370000  1.0 -0.1698836492
F  F19  1  0.92880000  0.63040000  0.72460000  1.0 -0.1608612026
F  F20  1  0.91370000  0.57130000  0.70920000  1.0 -0.1698836492
F  F21  1  0.90560000  0.61830000  0.67630000  1.0 -0.1806236308
F  F22  1  0.57120000  0.36960000  0.22460000  1.0 -0.1608612026
F  F23  1  0.58630000  0.42870000  0.20920000  1.0 -0.1698836492
F  F24  1  0.59440000  0.38170000  0.17630000  1.0 -0.1806236308
F  F25  1  0.50530000  0.73000000  0.87090000  1.0 -0.1889986876
F  F26  1  0.52940000  0.68210000  0.90880000  1.0 -0.198379207
F  F27  1  0.65360000  0.71800000  0.88950000  1.0 -0.198379207
F  F28  1  0.99470000  0.27000000  0.37090000  1.0 -0.1889986876
F  F29  1  0.97060000  0.31790000  0.40880000  1.0 -0.198379207
F  F30  1  0.84640000  0.28200000  0.38950000  1.0 -0.198379207
F  F31  1  0.49470000  0.23000000  0.62910000  1.0 -0.1889986876
F  F32  1  0.47060000  0.18210000  0.59120000  1.0 -0.198379207
F  F33  1  0.34640000  0.21800000  0.61050000  1.0 -0.198379207
F  F34  1  0.00530000  0.77000000  0.12910000  1.0 -0.1889986876
F  F35  1  0.02940000  0.81790000  0.09120000  1.0 -0.198379207
F  F36  1  0.15360000  0.78200000  0.11050000  1.0 -0.198379207
