# DDEC6 charges by PACMAN v1.1 (https://github.com/mtap-research/PACMAN-charge/)
data_CUVHIL01_ASR_pacman
_symmetry_space_group_name_H-M   'P 1'
_cell_length_a   21.38070000
_cell_length_b   21.38070000
_cell_length_c   21.38070000
_cell_angle_alpha   116.77000000
_cell_angle_beta   116.77000000
_cell_angle_gamma   116.77000000
_symmetry_Int_Tables_number   1
_chemical_formula_structural   NdHC9I3NO6
_chemical_formula_sum   'Nd6 H6 C54 I18 N6 O36'
_cell_volume   4464.45139264
_cell_formula_units_Z   6
loop_
 _symmetry_equiv_pos_site_id
 _symmetry_equiv_pos_as_xyz
  1  'x, y, z'
loop_
 _atom_site_type_symbol
 _atom_site_label
 _atom_site_symmetry_multiplicity
 _atom_site_fract_x
 _atom_site_fract_y
 _atom_site_fract_z
 _atom_site_occupancy
 _atom_site_charge
Nd  Nd1  1  0.55527000  0.47559000  0.94580000  1.0 2.0591507948
Nd  Nd2  1  0.47559000  0.94580000  0.55527000  1.0 2.0591507948
Nd  Nd3  1  0.94580000  0.55527000  0.47559000  1.0 2.0591507948
Nd  Nd4  1  0.44473000  0.52441000  0.05420000  1.0 2.0591507948
Nd  Nd5  1  0.52441000  0.05420000  0.44473000  1.0 2.0591507948
Nd  Nd6  1  0.05420000  0.44473000  0.52441000  1.0 2.0591507948
H  H1  1  0.21000000  0.22200000  0.71200000  1.0 0.0838080789
H  H2  1  0.22200000  0.71200000  0.21000000  1.0 0.0838080789
H  H3  1  0.71200000  0.21000000  0.22200000  1.0 0.0838080789
H  H4  1  0.79000000  0.77800000  0.28800000  1.0 0.0838080789
H  H5  1  0.77800000  0.28800000  0.79000000  1.0 0.0838080789
H  H6  1  0.28800000  0.79000000  0.77800000  1.0 0.0838080789
C  C1  1  0.52340000  0.62760000  0.98150000  1.0 0.6538816488
C  C2  1  0.62760000  0.98150000  0.52340000  1.0 0.6538816488
C  C3  1  0.98150000  0.52340000  0.62760000  1.0 0.6538816488
C  C4  1  0.47660000  0.37240000  0.01850000  1.0 0.6538816488
C  C5  1  0.37240000  0.01850000  0.47660000  1.0 0.6538816488
C  C6  1  0.01850000  0.47660000  0.37240000  1.0 0.6538816488
C  C7  1  0.53230000  0.69950000  0.97600000  1.0 -0.0398106831
C  C8  1  0.69950000  0.97600000  0.53230000  1.0 -0.0398106831
C  C9  1  0.97600000  0.53230000  0.69950000  1.0 -0.0398106831
C  C10  1  0.46770000  0.30050000  0.02400000  1.0 -0.0398106831
C  C11  1  0.30050000  0.02400000  0.46770000  1.0 -0.0398106831
C  C12  1  0.02400000  0.46770000  0.30050000  1.0 -0.0398106831
C  C13  1  0.42800000  0.63710000  0.86970000  1.0 -0.0314942938
C  C14  1  0.63710000  0.86970000  0.42800000  1.0 -0.0314942938
C  C15  1  0.86970000  0.42800000  0.63710000  1.0 -0.0314942938
C  C16  1  0.57200000  0.36290000  0.13030000  1.0 -0.0314942938
C  C17  1  0.36290000  0.13030000  0.57200000  1.0 -0.0314942938
C  C18  1  0.13030000  0.57200000  0.36290000  1.0 -0.0314942938
C  C19  1  0.42918000  0.70228000  0.86868000  1.0 -0.0174808264
C  C20  1  0.70228000  0.86868000  0.42918000  1.0 -0.0174808264
C  C21  1  0.86868000  0.42918000  0.70228000  1.0 -0.0174808264
C  C22  1  0.57082000  0.29772000  0.13132000  1.0 -0.0174808264
C  C23  1  0.29772000  0.13132000  0.57082000  1.0 -0.0174808264
C  C24  1  0.13132000  0.57082000  0.29772000  1.0 -0.0174808264
C  C25  1  0.30570000  0.62700000  0.75220000  1.0 0.5778219299
C  C26  1  0.62700000  0.75220000  0.30570000  1.0 0.5778219299
C  C27  1  0.75220000  0.30570000  0.62700000  1.0 0.5778219299
C  C28  1  0.69430000  0.37300000  0.24780000  1.0 0.5778219299
C  C29  1  0.37300000  0.24780000  0.69430000  1.0 0.5778219299
C  C30  1  0.24780000  0.69430000  0.37300000  1.0 0.5778219299
C  C31  1  0.53310000  0.82680000  0.97120000  1.0 -0.0398106831
C  C32  1  0.82680000  0.97120000  0.53310000  1.0 -0.0398106831
C  C33  1  0.97120000  0.53310000  0.82680000  1.0 -0.0398106831
C  C34  1  0.46690000  0.17320000  0.02880000  1.0 -0.0398106831
C  C35  1  0.17320000  0.02880000  0.46690000  1.0 -0.0398106831
C  C36  1  0.02880000  0.46690000  0.17320000  1.0 -0.0398106831
C  C37  1  0.64340000  0.89510000  0.08090000  1.0 0.2199644591
C  C38  1  0.89510000  0.08090000  0.64340000  1.0 0.2199644591
C  C39  1  0.08090000  0.64340000  0.89510000  1.0 0.2199644591
C  C40  1  0.35660000  0.10490000  0.91910000  1.0 0.2199644591
C  C41  1  0.10490000  0.91910000  0.35660000  1.0 0.2199644591
C  C42  1  0.91910000  0.35660000  0.10490000  1.0 0.2199644591
C  C43  1  0.63610000  0.82450000  0.07630000  1.0 -0.0493187095
C  C44  1  0.82450000  0.07630000  0.63610000  1.0 -0.0493187095
C  C45  1  0.07630000  0.63610000  0.82450000  1.0 -0.0493187095
C  C46  1  0.36390000  0.17550000  0.92370000  1.0 -0.0493187095
C  C47  1  0.17550000  0.92370000  0.36390000  1.0 -0.0493187095
C  C48  1  0.92370000  0.36390000  0.17550000  1.0 -0.0493187095
C  C49  1  0.26750000  0.30540000  0.79340000  1.0 0.5114476677
C  C50  1  0.30540000  0.79340000  0.26750000  1.0 0.5114476677
C  C51  1  0.79340000  0.26750000  0.30540000  1.0 0.5114476677
C  C52  1  0.73250000  0.69460000  0.20660000  1.0 0.5114476677
C  C53  1  0.69460000  0.20660000  0.73250000  1.0 0.5114476677
C  C54  1  0.20660000  0.73250000  0.69460000  1.0 0.5114476677
I  I1  1  0.27552000  0.44542000  0.71028000  1.0 0.0317144352
I  I2  1  0.44542000  0.71028000  0.27552000  1.0 0.0317144352
I  I3  1  0.71028000  0.27552000  0.44542000  1.0 0.0363644245
I  I4  1  0.72448000  0.55458000  0.28972000  1.0 0.0363644245
I  I5  1  0.55458000  0.28972000  0.72448000  1.0 0.0317144352
I  I6  1  0.28972000  0.72448000  0.55458000  1.0 0.0317144352
I  I7  1  0.53178000  0.92354000  0.96941000  1.0 0.0033768605
I  I8  1  0.92354000  0.96941000  0.53178000  1.0 0.0033768605
I  I9  1  0.96941000  0.53178000  0.92354000  1.0 0.0033768605
I  I10  1  0.46822000  0.07646000  0.03059000  1.0 0.0052208995
I  I11  1  0.07646000  0.03059000  0.46822000  1.0 0.0033768605
I  I12  1  0.03059000  0.46822000  0.07646000  1.0 0.0052208995
I  I13  1  0.79431000  0.91509000  0.23220000  1.0 0.0052208995
I  I14  1  0.91509000  0.23220000  0.79431000  1.0 0.0033768605
I  I15  1  0.23220000  0.79431000  0.91509000  1.0 0.0033768605
I  I16  1  0.20569000  0.08491000  0.76780000  1.0 0.0033768605
I  I17  1  0.08491000  0.76780000  0.20569000  1.0 0.0033768605
I  I18  1  0.76780000  0.20569000  0.08491000  1.0 0.0052208995
N  N1  1  0.74610000  0.01900000  0.18190000  1.0 -0.3585194155
N  N2  1  0.01900000  0.18190000  0.74610000  1.0 -0.3468209311
N  N3  1  0.18190000  0.74610000  0.01900000  1.0 -0.3468209311
N  N4  1  0.25390000  0.98100000  0.81810000  1.0 -0.3468209311
N  N5  1  0.98100000  0.81810000  0.25390000  1.0 -0.3585194155
N  N6  1  0.81810000  0.25390000  0.98100000  1.0 -0.3585194155
O  O1  1  0.55779000  0.59804000  0.96167000  1.0 -0.6421620254
O  O2  1  0.59804000  0.96167000  0.55779000  1.0 -0.6421620254
O  O3  1  0.96167000  0.55779000  0.59804000  1.0 -0.6421620254
O  O4  1  0.44221000  0.40196000  0.03833000  1.0 -0.6421620254
O  O5  1  0.40196000  0.03833000  0.44221000  1.0 -0.6421620254
O  O6  1  0.03833000  0.44221000  0.40196000  1.0 -0.6421620254
O  O7  1  0.47817000  0.60379000  0.00284000  1.0 -0.6346736554
O  O8  1  0.60379000  0.00284000  0.47817000  1.0 -0.6346736554
O  O9  1  0.00284000  0.47817000  0.60379000  1.0 -0.6346736554
O  O10  1  0.52183000  0.39621000  0.99716000  1.0 -0.6346736554
O  O11  1  0.39621000  0.99716000  0.52183000  1.0 -0.6421620254
O  O12  1  0.99716000  0.52183000  0.39621000  1.0 -0.6346736554
O  O13  1  0.28350000  0.60000000  0.67390000  1.0 -0.5868866686
O  O14  1  0.60000000  0.67390000  0.28350000  1.0 -0.5784297249
O  O15  1  0.67390000  0.28350000  0.60000000  1.0 -0.5868866686
O  O16  1  0.71650000  0.40000000  0.32610000  1.0 -0.5868866686
O  O17  1  0.40000000  0.32610000  0.71650000  1.0 -0.5868866686
O  O18  1  0.32610000  0.71650000  0.40000000  1.0 -0.5868866686
O  O19  1  0.23550000  0.59700000  0.74380000  1.0 -0.5784297249
O  O20  1  0.59700000  0.74380000  0.23550000  1.0 -0.5784297249
O  O21  1  0.74380000  0.23550000  0.59700000  1.0 -0.5784297249
O  O22  1  0.76450000  0.40300000  0.25620000  1.0 -0.5784297249
O  O23  1  0.40300000  0.25620000  0.76450000  1.0 -0.5784297249
O  O24  1  0.25620000  0.76450000  0.40300000  1.0 -0.5784297249
O  O25  1  0.37700000  0.38438000  0.86892000  1.0 -0.6465501193
O  O26  1  0.38438000  0.86892000  0.37700000  1.0 -0.6421620254
O  O27  1  0.86892000  0.37700000  0.38438000  1.0 -0.6421620254
O  O28  1  0.62300000  0.61562000  0.13108000  1.0 -0.6421620254
O  O29  1  0.61562000  0.13108000  0.62300000  1.0 -0.6421620254
O  O30  1  0.13108000  0.62300000  0.61562000  1.0 -0.6421620254
O  O31  1  0.23050000  0.31250000  0.82420000  1.0 -0.5318527027
O  O32  1  0.31250000  0.82420000  0.23050000  1.0 -0.5318527027
O  O33  1  0.82420000  0.23050000  0.31250000  1.0 -0.5318527027
O  O34  1  0.76950000  0.68750000  0.17580000  1.0 -0.5318527027
O  O35  1  0.68750000  0.17580000  0.76950000  1.0 -0.5318527027
O  O36  1  0.17580000  0.76950000  0.68750000  1.0 -0.5318527027
