# DDEC6 charges by PACMAN v1.1 (https://github.com/mtap-research/PACMAN-charge/)
data_CUVHEH_FSR_pacman
_symmetry_space_group_name_H-M   'P 1'
_cell_length_a   21.37680000
_cell_length_b   21.37680000
_cell_length_c   21.37680000
_cell_angle_alpha   116.75200000
_cell_angle_beta   116.75200000
_cell_angle_gamma   116.75200000
_symmetry_Int_Tables_number   1
_chemical_formula_structural   NdH14C15I3N3O8
_chemical_formula_sum   'Nd6 H84 C90 I18 N18 O48'
_cell_volume   4473.74551585
_cell_formula_units_Z   6
loop_
 _symmetry_equiv_pos_site_id
 _symmetry_equiv_pos_as_xyz
  1  'x, y, z'
loop_
 _atom_site_type_symbol
 _atom_site_label
 _atom_site_symmetry_multiplicity
 _atom_site_fract_x
 _atom_site_fract_y
 _atom_site_fract_z
 _atom_site_occupancy
 _atom_site_charge
Nd  Nd1  1  0.44504000  0.05468000  0.52511000  1.0 2.0580524719
Nd  Nd2  1  0.05468000  0.52511000  0.44504000  1.0 2.0580524719
Nd  Nd3  1  0.52511000  0.44504000  0.05468000  1.0 2.0580524719
Nd  Nd4  1  0.55496000  0.94532000  0.47489000  1.0 2.0580524719
Nd  Nd5  1  0.94532000  0.47489000  0.55496000  1.0 2.0580524719
Nd  Nd6  1  0.47489000  0.55496000  0.94532000  1.0 2.0580524719
H  H1  1  0.25030000  0.95310000  0.27950000  1.0 0.0971097727
H  H2  1  0.95310000  0.27950000  0.25030000  1.0 0.0971097727
H  H3  1  0.27950000  0.25030000  0.95310000  1.0 0.0971097727
H  H4  1  0.74970000  0.04690000  0.72050000  1.0 0.0971097727
H  H5  1  0.04690000  0.72050000  0.74970000  1.0 0.0971097727
H  H6  1  0.72050000  0.74970000  0.04690000  1.0 0.0971097727
H  H7  1  0.13710000  0.90090000  0.13620000  1.0 0.1081799608
H  H8  1  0.90090000  0.13620000  0.13710000  1.0 0.1081799608
H  H9  1  0.13620000  0.13710000  0.90090000  1.0 0.1081799608
H  H10  1  0.86290000  0.09910000  0.86380000  1.0 0.1081799608
H  H11  1  0.09910000  0.86380000  0.86290000  1.0 0.1081799608
H  H12  1  0.86380000  0.86290000  0.09910000  1.0 0.1081799608
H  H13  1  0.03350000  0.85580000  0.10520000  1.0 0.1297619951
H  H14  1  0.85580000  0.10520000  0.03350000  1.0 0.1297619951
H  H15  1  0.10520000  0.03350000  0.85580000  1.0 0.1297619951
H  H16  1  0.96650000  0.14420000  0.89480000  1.0 0.1297619951
H  H17  1  0.14420000  0.89480000  0.96650000  1.0 0.1297619951
H  H18  1  0.89480000  0.96650000  0.14420000  1.0 0.1297619951
H  H19  1  0.12030000  0.96810000  0.14970000  1.0 0.1222205209
H  H20  1  0.96810000  0.14970000  0.12030000  1.0 0.1222205209
H  H21  1  0.14970000  0.12030000  0.96810000  1.0 0.1222205209
H  H22  1  0.87970000  0.03190000  0.85030000  1.0 0.1222205209
H  H23  1  0.03190000  0.85030000  0.87970000  1.0 0.1222205209
H  H24  1  0.85030000  0.87970000  0.03190000  1.0 0.1222205209
H  H25  1  0.26690000  0.12760000  0.44480000  1.0 0.1222205209
H  H26  1  0.12760000  0.44480000  0.26690000  1.0 0.1222205209
H  H27  1  0.44480000  0.26690000  0.12760000  1.0 0.1222205209
H  H28  1  0.73310000  0.87240000  0.55520000  1.0 0.1222205209
H  H29  1  0.87240000  0.55520000  0.73310000  1.0 0.1222205209
H  H30  1  0.55520000  0.73310000  0.87240000  1.0 0.1222205209
H  H31  1  0.20680000  0.12420000  0.36370000  1.0 0.1297619951
H  H32  1  0.12420000  0.36370000  0.20680000  1.0 0.1297619951
H  H33  1  0.36370000  0.20680000  0.12420000  1.0 0.1297619951
H  H34  1  0.79320000  0.87580000  0.63630000  1.0 0.1297619951
H  H35  1  0.87580000  0.63630000  0.79320000  1.0 0.1297619951
H  H36  1  0.63630000  0.79320000  0.87580000  1.0 0.1297619951
H  H37  1  0.12450000  0.01530000  0.32480000  1.0 0.1081799608
H  H38  1  0.01530000  0.32480000  0.12450000  1.0 0.1081799608
H  H39  1  0.32480000  0.12450000  0.01530000  1.0 0.1081799608
H  H40  1  0.87550000  0.98470000  0.67520000  1.0 0.1081799608
H  H41  1  0.98470000  0.67520000  0.87550000  1.0 0.1081799608
H  H42  1  0.67520000  0.87550000  0.98470000  1.0 0.1081799608
H  H43  1  0.29750000  0.90270000  0.52960000  1.0 0.0971097727
H  H44  1  0.90270000  0.52960000  0.29750000  1.0 0.0971097727
H  H45  1  0.52960000  0.29750000  0.90270000  1.0 0.0971097727
H  H46  1  0.70250000  0.09730000  0.47040000  1.0 0.0971097727
H  H47  1  0.09730000  0.47040000  0.70250000  1.0 0.0971097727
H  H48  1  0.47040000  0.70250000  0.09730000  1.0 0.0971097727
H  H49  1  0.21310000  0.00280000  0.53550000  1.0 0.1297619951
H  H50  1  0.00280000  0.53550000  0.21310000  1.0 0.1297619951
H  H51  1  0.53550000  0.21310000  0.00280000  1.0 0.1297619951
H  H52  1  0.78690000  0.99720000  0.46450000  1.0 0.1297619951
H  H53  1  0.99720000  0.46450000  0.78690000  1.0 0.1297619951
H  H54  1  0.46450000  0.78690000  0.99720000  1.0 0.1297619951
H  H55  1  0.10540000  0.90220000  0.48880000  1.0 0.1297619951
H  H56  1  0.90220000  0.48880000  0.10540000  1.0 0.1297619951
H  H57  1  0.48880000  0.10540000  0.90220000  1.0 0.1297619951
H  H58  1  0.89460000  0.09780000  0.51120000  1.0 0.1297619951
H  H59  1  0.09780000  0.51120000  0.89460000  1.0 0.1297619951
H  H60  1  0.51120000  0.89460000  0.09780000  1.0 0.1297619951
H  H61  1  0.23560000  0.02770000  0.62910000  1.0 0.1297619951
H  H62  1  0.02770000  0.62910000  0.23560000  1.0 0.1297619951
H  H63  1  0.62910000  0.23560000  0.02770000  1.0 0.1297619951
H  H64  1  0.76440000  0.97230000  0.37090000  1.0 0.1297619951
H  H65  1  0.97230000  0.37090000  0.76440000  1.0 0.1297619951
H  H66  1  0.37090000  0.76440000  0.97230000  1.0 0.1297619951
H  H67  1  0.21930000  0.83280000  0.55920000  1.0 0.1396081514
H  H68  1  0.83280000  0.55920000  0.21930000  1.0 0.1396081514
H  H69  1  0.55920000  0.21930000  0.83280000  1.0 0.1396081514
H  H70  1  0.78070000  0.16720000  0.44080000  1.0 0.1396081514
H  H71  1  0.16720000  0.44080000  0.78070000  1.0 0.1396081514
H  H72  1  0.44080000  0.78070000  0.16720000  1.0 0.1396081514
H  H73  1  0.24070000  0.92020000  0.64510000  1.0 0.1396081514
H  H74  1  0.92020000  0.64510000  0.24070000  1.0 0.1396081514
H  H75  1  0.64510000  0.24070000  0.92020000  1.0 0.1396081514
H  H76  1  0.75930000  0.07980000  0.35490000  1.0 0.1396081514
H  H77  1  0.07980000  0.35490000  0.75930000  1.0 0.1396081514
H  H78  1  0.35490000  0.75930000  0.07980000  1.0 0.1396081514
H  H79  1  0.10990000  0.79440000  0.50510000  1.0 0.1297619951
H  H80  1  0.79440000  0.50510000  0.10990000  1.0 0.1297619951
H  H81  1  0.50510000  0.10990000  0.79440000  1.0 0.1297619951
H  H82  1  0.89010000  0.20560000  0.49490000  1.0 0.1297619951
H  H83  1  0.20560000  0.49490000  0.89010000  1.0 0.1297619951
H  H84  1  0.49490000  0.89010000  0.20560000  1.0 0.1297619951
C  C1  1  0.47721000  0.02005000  0.37324000  1.0 0.6321835634
C  C2  1  0.02005000  0.37324000  0.47721000  1.0 0.6321835634
C  C3  1  0.37324000  0.47721000  0.02005000  1.0 0.6321835634
C  C4  1  0.52279000  0.97995000  0.62676000  1.0 0.6321835634
C  C5  1  0.97995000  0.62676000  0.52279000  1.0 0.6321835634
C  C6  1  0.62676000  0.52279000  0.97995000  1.0 0.6321835634
C  C7  1  0.46753000  0.02581000  0.30156000  1.0 -0.0877842775
C  C8  1  0.02581000  0.30156000  0.46753000  1.0 -0.0877842775
C  C9  1  0.30156000  0.46753000  0.02581000  1.0 -0.0877842775
C  C10  1  0.53247000  0.97419000  0.69844000  1.0 -0.0877842775
C  C11  1  0.97419000  0.69844000  0.53247000  1.0 -0.0877842775
C  C12  1  0.69844000  0.53247000  0.97419000  1.0 -0.0877842775
C  C13  1  0.57121000  0.13136000  0.36293000  1.0 -0.0185954894
C  C14  1  0.13136000  0.36293000  0.57121000  1.0 -0.0185954894
C  C15  1  0.36293000  0.57121000  0.13136000  1.0 -0.0185954894
C  C16  1  0.42879000  0.86864000  0.63707000  1.0 -0.0185954894
C  C17  1  0.86864000  0.63707000  0.42879000  1.0 -0.0185954894
C  C18  1  0.63707000  0.42879000  0.86864000  1.0 -0.0185954894
C  C19  1  0.57243000  0.13429000  0.29968000  1.0 -0.0691865915
C  C20  1  0.13429000  0.29968000  0.57243000  1.0 -0.0691865915
C  C21  1  0.29968000  0.57243000  0.13429000  1.0 -0.0691865915
C  C22  1  0.42757000  0.86571000  0.70032000  1.0 -0.0691865915
C  C23  1  0.86571000  0.70032000  0.42757000  1.0 -0.0691865915
C  C24  1  0.70032000  0.42757000  0.86571000  1.0 -0.0691865915
C  C25  1  0.69262000  0.24680000  0.37088000  1.0 0.5518838283
C  C26  1  0.24680000  0.37088000  0.69262000  1.0 0.5518838283
C  C27  1  0.37088000  0.69262000  0.24680000  1.0 0.5518838283
C  C28  1  0.30738000  0.75320000  0.62912000  1.0 0.5518838283
C  C29  1  0.75320000  0.62912000  0.30738000  1.0 0.5518838283
C  C30  1  0.62912000  0.30738000  0.75320000  1.0 0.5518838283
C  C31  1  0.46619000  0.02979000  0.17262000  1.0 -0.0291334949
C  C32  1  0.02979000  0.17262000  0.46619000  1.0 -0.0291334949
C  C33  1  0.17262000  0.46619000  0.02979000  1.0 -0.0291334949
C  C34  1  0.53381000  0.97021000  0.82738000  1.0 -0.0291334949
C  C35  1  0.97021000  0.82738000  0.53381000  1.0 -0.0291334949
C  C36  1  0.82738000  0.53381000  0.97021000  1.0 -0.0291334949
C  C37  1  0.35700000  0.92190000  0.10560000  1.0 0.1668883455
C  C38  1  0.92190000  0.10560000  0.35700000  1.0 0.1668883455
C  C39  1  0.10560000  0.35700000  0.92190000  1.0 0.1668883455
C  C40  1  0.64300000  0.07810000  0.89440000  1.0 0.1668883455
C  C41  1  0.07810000  0.89440000  0.64300000  1.0 0.1668883455
C  C42  1  0.89440000  0.64300000  0.07810000  1.0 0.1668883455
C  C43  1  0.36185000  0.92434000  0.17511000  1.0 -0.0291334949
C  C44  1  0.92434000  0.17511000  0.36185000  1.0 -0.0291334949
C  C45  1  0.17511000  0.36185000  0.92434000  1.0 -0.0291334949
C  C46  1  0.63815000  0.07566000  0.82489000  1.0 -0.0291334949
C  C47  1  0.07566000  0.82489000  0.63815000  1.0 -0.0291334949
C  C48  1  0.82489000  0.63815000  0.07566000  1.0 -0.0291334949
C  C49  1  0.73160000  0.20440000  0.69440000  1.0 0.7685055054
C  C50  1  0.20440000  0.69440000  0.73160000  1.0 0.7685055054
C  C51  1  0.69440000  0.73160000  0.20440000  1.0 0.7685055054
C  C52  1  0.26840000  0.79560000  0.30560000  1.0 0.7685055054
C  C53  1  0.79560000  0.30560000  0.26840000  1.0 0.7685055054
C  C54  1  0.30560000  0.26840000  0.79560000  1.0 0.7685055054
C  C55  1  0.25790000  0.00000000  0.32760000  1.0 0.3202421979
C  C56  1  0.00000000  0.32760000  0.25790000  1.0 0.3202421979
C  C57  1  0.32760000  0.25790000  0.00000000  1.0 0.3202421979
C  C58  1  0.74210000  0.00000000  0.67240000  1.0 0.3202421979
C  C59  1  0.00000000  0.67240000  0.74210000  1.0 0.3202421979
C  C60  1  0.67240000  0.74210000  0.00000000  1.0 0.3202421979
C  C61  1  0.11550000  0.92630000  0.15820000  1.0 -0.3296374861
C  C62  1  0.92630000  0.15820000  0.11550000  1.0 -0.3296374861
C  C63  1  0.15820000  0.11550000  0.92630000  1.0 -0.3296374861
C  C64  1  0.88450000  0.07370000  0.84180000  1.0 -0.3296374861
C  C65  1  0.07370000  0.84180000  0.88450000  1.0 -0.3405250103
C  C66  1  0.84180000  0.88450000  0.07370000  1.0 -0.3296374861
C  C67  1  0.19940000  0.07590000  0.36270000  1.0 -0.3467949761
C  C68  1  0.07590000  0.36270000  0.19940000  1.0 -0.3467949761
C  C69  1  0.36270000  0.19940000  0.07590000  1.0 -0.3467949761
C  C70  1  0.80060000  0.92410000  0.63730000  1.0 -0.3467949761
C  C71  1  0.92410000  0.63730000  0.80060000  1.0 -0.3467949761
C  C72  1  0.63730000  0.80060000  0.92410000  1.0 -0.3467949761
C  C73  1  0.28000000  0.93580000  0.53200000  1.0 0.3202421979
C  C74  1  0.93580000  0.53200000  0.28000000  1.0 0.3202421979
C  C75  1  0.53200000  0.28000000  0.93580000  1.0 0.3146282252
C  C76  1  0.72000000  0.06420000  0.46800000  1.0 0.3146282252
C  C77  1  0.06420000  0.46800000  0.72000000  1.0 0.3202421979
C  C78  1  0.46800000  0.72000000  0.06420000  1.0 0.3146282252
C  C79  1  0.19140000  0.96670000  0.54980000  1.0 -0.3296374861
C  C80  1  0.96670000  0.54980000  0.19140000  1.0 -0.3296374861
C  C81  1  0.54980000  0.19140000  0.96670000  1.0 -0.3296374861
C  C82  1  0.80860000  0.03330000  0.45020000  1.0 -0.3296374861
C  C83  1  0.03330000  0.45020000  0.80860000  1.0 -0.3296374861
C  C84  1  0.45020000  0.80860000  0.03330000  1.0 -0.3296374861
C  C85  1  0.19560000  0.86170000  0.56510000  1.0 -0.3405250103
C  C86  1  0.86170000  0.56510000  0.19560000  1.0 -0.3405250103
C  C87  1  0.56510000  0.19560000  0.86170000  1.0 -0.3405250103
C  C88  1  0.80440000  0.13830000  0.43490000  1.0 -0.3405250103
C  C89  1  0.13830000  0.43490000  0.80440000  1.0 -0.3405250103
C  C90  1  0.43490000  0.80440000  0.13830000  1.0 -0.3405250103
I  I1  1  0.72486000  0.28954000  0.55435000  1.0 0.0642210957
I  I2  1  0.28954000  0.55435000  0.72486000  1.0 0.0669604358
I  I3  1  0.55435000  0.72486000  0.28954000  1.0 0.0669604358
I  I4  1  0.27514000  0.71046000  0.44565000  1.0 0.0669604358
I  I5  1  0.71046000  0.44565000  0.27514000  1.0 0.0669604358
I  I6  1  0.44565000  0.27514000  0.71046000  1.0 0.0642210957
I  I7  1  0.46820000  0.03153000  0.07602000  1.0 -0.0104678374
I  I8  1  0.03153000  0.07602000  0.46820000  1.0 -0.0104678374
I  I9  1  0.07602000  0.46820000  0.03153000  1.0 -0.0104678374
I  I10  1  0.53180000  0.96847000  0.92398000  1.0 -0.0104678374
I  I11  1  0.96847000  0.92398000  0.53180000  1.0 -0.0104678374
I  I12  1  0.92398000  0.53180000  0.96847000  1.0 -0.0104678374
I  I13  1  0.20366000  0.76993000  0.08464000  1.0 -0.0185954894
I  I14  1  0.76993000  0.08464000  0.20366000  1.0 -0.0185954894
I  I15  1  0.08464000  0.20366000  0.76993000  1.0 -0.0185954894
I  I16  1  0.79634000  0.23007000  0.91536000  1.0 -0.0185954894
I  I17  1  0.23007000  0.91536000  0.79634000  1.0 -0.0185954894
I  I18  1  0.91536000  0.79634000  0.23007000  1.0 -0.0185954894
N  N1  1  0.25307000  0.81970000  0.98083000  1.0 -0.3405250103
N  N2  1  0.81970000  0.98083000  0.25307000  1.0 -0.3405250103
N  N3  1  0.98083000  0.25307000  0.81970000  1.0 -0.3405250103
N  N4  1  0.74693000  0.18030000  0.01917000  1.0 -0.3405250103
N  N5  1  0.18030000  0.01917000  0.74693000  1.0 -0.3405250103
N  N6  1  0.01917000  0.74693000  0.18030000  1.0 -0.3405250103
N  N7  1  0.20000000  0.00880000  0.28580000  1.0 0.0381914859
N  N8  1  0.00880000  0.28580000  0.20000000  1.0 0.0381914859
N  N9  1  0.28580000  0.20000000  0.00880000  1.0 0.0381914859
N  N10  1  0.80000000  0.99120000  0.71420000  1.0 0.0381914859
N  N11  1  0.99120000  0.71420000  0.80000000  1.0 0.0381914859
N  N12  1  0.71420000  0.80000000  0.99120000  1.0 0.0381914859
N  N13  1  0.22140000  0.91870000  0.54440000  1.0 0.0213978071
N  N14  1  0.91870000  0.54440000  0.22140000  1.0 0.0213978071
N  N15  1  0.54440000  0.22140000  0.91870000  1.0 0.0213978071
N  N16  1  0.77860000  0.08130000  0.45560000  1.0 0.0213978071
N  N17  1  0.08130000  0.45560000  0.77860000  1.0 0.0213978071
N  N18  1  0.45560000  0.77860000  0.08130000  1.0 0.0213978071
O  O1  1  0.44234000  0.03836000  0.40270000  1.0 -0.6453816179
O  O2  1  0.03836000  0.40270000  0.44234000  1.0 -0.6453816179
O  O3  1  0.40270000  0.44234000  0.03836000  1.0 -0.6453816179
O  O4  1  0.55766000  0.96164000  0.59730000  1.0 -0.6453816179
O  O5  1  0.96164000  0.59730000  0.55766000  1.0 -0.6453816179
O  O6  1  0.59730000  0.55766000  0.96164000  1.0 -0.6453816179
O  O7  1  0.52107000  0.99731000  0.39532000  1.0 -0.6453816179
O  O8  1  0.99731000  0.39532000  0.52107000  1.0 -0.6453816179
O  O9  1  0.39532000  0.52107000  0.99731000  1.0 -0.6453816179
O  O10  1  0.47893000  0.00269000  0.60468000  1.0 -0.6453816179
O  O11  1  0.00269000  0.60468000  0.47893000  1.0 -0.6453816179
O  O12  1  0.60468000  0.47893000  0.00269000  1.0 -0.6453816179
O  O13  1  0.76378000  0.25454000  0.40148000  1.0 -0.6040789369
O  O14  1  0.25454000  0.40148000  0.76378000  1.0 -0.6040789369
O  O15  1  0.40148000  0.76378000  0.25454000  1.0 -0.6040789369
O  O16  1  0.23622000  0.74546000  0.59852000  1.0 -0.6040789369
O  O17  1  0.74546000  0.59852000  0.23622000  1.0 -0.6040789369
O  O18  1  0.59852000  0.23622000  0.74546000  1.0 -0.6040789369
O  O19  1  0.71874000  0.32887000  0.40219000  1.0 -0.5906610969
O  O20  1  0.32887000  0.40219000  0.71874000  1.0 -0.5906610969
O  O21  1  0.40219000  0.71874000  0.32887000  1.0 -0.5906610969
O  O22  1  0.28126000  0.67113000  0.59781000  1.0 -0.5906610969
O  O23  1  0.67113000  0.59781000  0.28126000  1.0 -0.5906610969
O  O24  1  0.59781000  0.28126000  0.67113000  1.0 -0.5906610969
O  O25  1  0.62217000  0.12933000  0.61400000  1.0 -0.6681939247
O  O26  1  0.12933000  0.61400000  0.62217000  1.0 -0.6681939247
O  O27  1  0.61400000  0.62217000  0.12933000  1.0 -0.6681939247
O  O28  1  0.37783000  0.87067000  0.38600000  1.0 -0.6681939247
O  O29  1  0.87067000  0.38600000  0.37783000  1.0 -0.6681939247
O  O30  1  0.38600000  0.37783000  0.87067000  1.0 -0.6681939247
O  O31  1  0.76990000  0.17600000  0.68720000  1.0 -0.568652807
O  O32  1  0.17600000  0.68720000  0.76990000  1.0 -0.568652807
O  O33  1  0.68720000  0.76990000  0.17600000  1.0 -0.568652807
O  O34  1  0.23010000  0.82400000  0.31280000  1.0 -0.568652807
O  O35  1  0.82400000  0.31280000  0.23010000  1.0 -0.568652807
O  O36  1  0.31280000  0.23010000  0.82400000  1.0 -0.568652807
O  O37  1  0.31959000  0.04795000  0.42316000  1.0 -0.4913368838
O  O38  1  0.04795000  0.42316000  0.31959000  1.0 -0.4848999265
O  O39  1  0.42316000  0.31959000  0.04795000  1.0 -0.4913368838
O  O40  1  0.68041000  0.95205000  0.57684000  1.0 -0.4913368838
O  O41  1  0.95205000  0.57684000  0.68041000  1.0 -0.4848999265
O  O42  1  0.57684000  0.68041000  0.95205000  1.0 -0.4848999265
O  O43  1  0.31323000  0.99099000  0.52338000  1.0 -0.4913368838
O  O44  1  0.99099000  0.52338000  0.31323000  1.0 -0.4913368838
O  O45  1  0.52338000  0.31323000  0.99099000  1.0 -0.4913368838
O  O46  1  0.68677000  0.00901000  0.47662000  1.0 -0.4913368838
O  O47  1  0.00901000  0.47662000  0.68677000  1.0 -0.4913368838
O  O48  1  0.47662000  0.68677000  0.00901000  1.0 -0.4913368838
