# DDEC6 charges by PACMAN v1.1 (https://github.com/mtap-research/PACMAN-charge/)
data_CUVHIL_ASR_pacman
_symmetry_space_group_name_H-M   'P 1'
_cell_length_a   21.37680000
_cell_length_b   21.37680000
_cell_length_c   21.37680000
_cell_angle_alpha   116.75200000
_cell_angle_beta   116.75200000
_cell_angle_gamma   116.75200000
_symmetry_Int_Tables_number   1
_chemical_formula_structural   NdC9I3NO6
_chemical_formula_sum   'Nd6 C54 I18 N6 O36'
_cell_volume   4473.74551585
_cell_formula_units_Z   6
loop_
 _symmetry_equiv_pos_site_id
 _symmetry_equiv_pos_as_xyz
  1  'x, y, z'
loop_
 _atom_site_type_symbol
 _atom_site_label
 _atom_site_symmetry_multiplicity
 _atom_site_fract_x
 _atom_site_fract_y
 _atom_site_fract_z
 _atom_site_occupancy
 _atom_site_charge
Nd  Nd1  1  0.44490000  0.05427000  0.52439000  1.0 2.0613013756
Nd  Nd2  1  0.05427000  0.52439000  0.44490000  1.0 2.0613013756
Nd  Nd3  1  0.52439000  0.44490000  0.05427000  1.0 2.0613013756
Nd  Nd4  1  0.55510000  0.94573000  0.47561000  1.0 2.0613013756
Nd  Nd5  1  0.94573000  0.47561000  0.55510000  1.0 2.0613013756
Nd  Nd6  1  0.47561000  0.55510000  0.94573000  1.0 2.0613013756
C  C1  1  0.47883000  0.02100000  0.37517000  1.0 0.659800316
C  C2  1  0.02100000  0.37517000  0.47883000  1.0 0.659800316
C  C3  1  0.37517000  0.47883000  0.02100000  1.0 0.659800316
C  C4  1  0.52117000  0.97900000  0.62483000  1.0 0.659800316
C  C5  1  0.97900000  0.62483000  0.52117000  1.0 0.659800316
C  C6  1  0.62483000  0.52117000  0.97900000  1.0 0.659800316
C  C7  1  0.46902000  0.02531000  0.30207000  1.0 -0.0455442899
C  C8  1  0.02531000  0.30207000  0.46902000  1.0 -0.0455442899
C  C9  1  0.30207000  0.46902000  0.02531000  1.0 -0.0455442899
C  C10  1  0.53098000  0.97469000  0.69793000  1.0 -0.0383918629
C  C11  1  0.97469000  0.69793000  0.53098000  1.0 -0.0455442899
C  C12  1  0.69793000  0.53098000  0.97469000  1.0 -0.0455442899
C  C13  1  0.57239000  0.13100000  0.36361000  1.0 -0.027594347
C  C14  1  0.13100000  0.36361000  0.57239000  1.0 -0.02430898
C  C15  1  0.36361000  0.57239000  0.13100000  1.0 -0.027594347
C  C16  1  0.42761000  0.86900000  0.63639000  1.0 -0.027594347
C  C17  1  0.86900000  0.63639000  0.42761000  1.0 -0.02430898
C  C18  1  0.63639000  0.42761000  0.86900000  1.0 -0.02430898
C  C19  1  0.57310000  0.13310000  0.30020000  1.0 -0.0383918629
C  C20  1  0.13310000  0.30020000  0.57310000  1.0 -0.0383918629
C  C21  1  0.30020000  0.57310000  0.13310000  1.0 -0.0383918629
C  C22  1  0.42690000  0.86690000  0.69980000  1.0 -0.0383918629
C  C23  1  0.86690000  0.69980000  0.42690000  1.0 -0.0383918629
C  C24  1  0.69980000  0.42690000  0.86690000  1.0 -0.0383918629
C  C25  1  0.69330000  0.24620000  0.37170000  1.0 0.5860212397
C  C26  1  0.24620000  0.37170000  0.69330000  1.0 0.5860212397
C  C27  1  0.37170000  0.69330000  0.24620000  1.0 0.5860212397
C  C28  1  0.30670000  0.75380000  0.62830000  1.0 0.5860212397
C  C29  1  0.75380000  0.62830000  0.30670000  1.0 0.5860212397
C  C30  1  0.62830000  0.30670000  0.75380000  1.0 0.5860212397
C  C31  1  0.46659000  0.02760000  0.17291000  1.0 -0.027594347
C  C32  1  0.02760000  0.17291000  0.46659000  1.0 -0.0383918629
C  C33  1  0.17291000  0.46659000  0.02760000  1.0 -0.0383918629
C  C34  1  0.53341000  0.97240000  0.82709000  1.0 -0.0383918629
C  C35  1  0.97240000  0.82709000  0.53341000  1.0 -0.0383918629
C  C36  1  0.82709000  0.53341000  0.97240000  1.0 -0.0383918629
C  C37  1  0.35775000  0.91880000  0.10525000  1.0 0.2177333659
C  C38  1  0.91880000  0.10525000  0.35775000  1.0 0.211806321
C  C39  1  0.10525000  0.35775000  0.91880000  1.0 0.211806321
C  C40  1  0.64225000  0.08120000  0.89475000  1.0 0.211806321
C  C41  1  0.08120000  0.89475000  0.64225000  1.0 0.211806321
C  C42  1  0.89475000  0.64225000  0.08120000  1.0 0.2177333659
C  C43  1  0.36305000  0.92260000  0.17505000  1.0 -0.0586784282
C  C44  1  0.92260000  0.17505000  0.36305000  1.0 -0.0586784282
C  C45  1  0.17505000  0.36305000  0.92260000  1.0 -0.0586784282
C  C46  1  0.63695000  0.07740000  0.82495000  1.0 -0.0586784282
C  C47  1  0.07740000  0.82495000  0.63695000  1.0 -0.0586784282
C  C48  1  0.82495000  0.63695000  0.07740000  1.0 -0.0586784282
C  C49  1  0.73170000  0.20440000  0.69460000  1.0 0.7106851867
C  C50  1  0.20440000  0.69460000  0.73170000  1.0 0.7106851867
C  C51  1  0.69460000  0.73170000  0.20440000  1.0 0.7174775055
C  C52  1  0.26830000  0.79560000  0.30540000  1.0 0.7106851867
C  C53  1  0.79560000  0.30540000  0.26830000  1.0 0.7106851867
C  C54  1  0.30540000  0.26830000  0.79560000  1.0 0.7106851867
I  I1  1  0.72570000  0.29020000  0.55529000  1.0 0.0233268862
I  I2  1  0.29020000  0.55529000  0.72570000  1.0 0.0233268862
I  I3  1  0.55529000  0.72570000  0.29020000  1.0 0.0233268862
I  I4  1  0.27430000  0.70980000  0.44471000  1.0 0.0233268862
I  I5  1  0.70980000  0.44471000  0.27430000  1.0 0.0233268862
I  I6  1  0.44471000  0.27430000  0.70980000  1.0 0.0233268862
I  I7  1  0.46831000  0.02936000  0.07656000  1.0 0.0233268862
I  I8  1  0.02936000  0.07656000  0.46831000  1.0 0.0233268862
I  I9  1  0.07656000  0.46831000  0.02936000  1.0 0.0233268862
I  I10  1  0.53169000  0.97064000  0.92344000  1.0 0.0233268862
I  I11  1  0.97064000  0.92344000  0.53169000  1.0 0.0233268862
I  I12  1  0.92344000  0.53169000  0.97064000  1.0 0.0233268862
I  I13  1  0.20633000  0.76737000  0.08522000  1.0 0.0083356054
I  I14  1  0.76737000  0.08522000  0.20633000  1.0 0.0083356054
I  I15  1  0.08522000  0.20633000  0.76737000  1.0 0.0083356054
I  I16  1  0.79367000  0.23263000  0.91478000  1.0 0.0083356054
I  I17  1  0.23263000  0.91478000  0.79367000  1.0 0.0083356054
I  I18  1  0.91478000  0.79367000  0.23263000  1.0 0.0083356054
N  N1  1  0.25524000  0.81720000  0.98176000  1.0 -0.385883207
N  N2  1  0.81720000  0.98176000  0.25524000  1.0 -0.3821852216
N  N3  1  0.98176000  0.25524000  0.81720000  1.0 -0.3821852216
N  N4  1  0.74476000  0.18280000  0.01824000  1.0 -0.3821852216
N  N5  1  0.18280000  0.01824000  0.74476000  1.0 -0.3821852216
N  N6  1  0.01824000  0.74476000  0.18280000  1.0 -0.3821852216
O  O1  1  0.44306000  0.03845000  0.40279000  1.0 -0.6410437424
O  O2  1  0.03845000  0.40279000  0.44306000  1.0 -0.6410437424
O  O3  1  0.40279000  0.44306000  0.03845000  1.0 -0.6410437424
O  O4  1  0.55694000  0.96155000  0.59721000  1.0 -0.6410437424
O  O5  1  0.96155000  0.59721000  0.55694000  1.0 -0.6410437424
O  O6  1  0.59721000  0.55694000  0.96155000  1.0 -0.6410437424
O  O7  1  0.52363000  0.99931000  0.39826000  1.0 -0.6410437424
O  O8  1  0.99931000  0.39826000  0.52363000  1.0 -0.6410437424
O  O9  1  0.39826000  0.52363000  0.99931000  1.0 -0.6410437424
O  O10  1  0.47637000  0.00069000  0.60174000  1.0 -0.6410437424
O  O11  1  0.00069000  0.60174000  0.47637000  1.0 -0.6410437424
O  O12  1  0.60174000  0.47637000  0.00069000  1.0 -0.6410437424
O  O13  1  0.76534000  0.25585000  0.40341000  1.0 -0.5972676226
O  O14  1  0.25585000  0.40341000  0.76534000  1.0 -0.5972676226
O  O15  1  0.40341000  0.76534000  0.25585000  1.0 -0.5972676226
O  O16  1  0.23466000  0.74415000  0.59659000  1.0 -0.5972676226
O  O17  1  0.74415000  0.59659000  0.23466000  1.0 -0.5972676226
O  O18  1  0.59659000  0.23466000  0.74415000  1.0 -0.5972676226
O  O19  1  0.71780000  0.32683000  0.40127000  1.0 -0.6061777322
O  O20  1  0.32683000  0.40127000  0.71780000  1.0 -0.6061777322
O  O21  1  0.40127000  0.71780000  0.32683000  1.0 -0.6061777322
O  O22  1  0.28220000  0.67317000  0.59873000  1.0 -0.6061777322
O  O23  1  0.67317000  0.59873000  0.28220000  1.0 -0.6061777322
O  O24  1  0.59873000  0.28220000  0.67317000  1.0 -0.6061777322
O  O25  1  0.62218000  0.12987000  0.61495000  1.0 -0.703608925
O  O26  1  0.12987000  0.61495000  0.62218000  1.0 -0.703608925
O  O27  1  0.61495000  0.62218000  0.12987000  1.0 -0.7055891403
O  O28  1  0.37782000  0.87013000  0.38505000  1.0 -0.703608925
O  O29  1  0.87013000  0.38505000  0.37782000  1.0 -0.703608925
O  O30  1  0.38505000  0.37782000  0.87013000  1.0 -0.7055891403
O  O31  1  0.76930000  0.17590000  0.68700000  1.0 -0.5111417123
O  O32  1  0.17590000  0.68700000  0.76930000  1.0 -0.5111417123
O  O33  1  0.68700000  0.76930000  0.17590000  1.0 -0.5111417123
O  O34  1  0.23070000  0.82410000  0.31300000  1.0 -0.5111417123
O  O35  1  0.82410000  0.31300000  0.23070000  1.0 -0.5111417123
O  O36  1  0.31300000  0.23070000  0.82410000  1.0 -0.5111417123
