# DDEC6 charges by PACMAN v1.1 (https://github.com/mtap-research/PACMAN-charge/)
data_CUVHIL02_ASR_pacman
_symmetry_space_group_name_H-M   'P 1'
_cell_length_a   11.68680000
_cell_length_b   21.39120000
_cell_length_c   21.39120000
_cell_angle_alpha   63.24010000
_cell_angle_beta   79.50720000
_cell_angle_gamma   100.49300000
_symmetry_Int_Tables_number   1
_chemical_formula_structural   NdH2C9I3NO6
_chemical_formula_sum   'Nd6 H12 C54 I18 N6 O36'
_cell_volume   4477.63287065
_cell_formula_units_Z   6
loop_
 _symmetry_equiv_pos_site_id
 _symmetry_equiv_pos_as_xyz
  1  'x, y, z'
loop_
 _atom_site_type_symbol
 _atom_site_label
 _atom_site_symmetry_multiplicity
 _atom_site_fract_x
 _atom_site_fract_y
 _atom_site_fract_z
 _atom_site_occupancy
 _atom_site_charge
Nd  Nd1  1  0.47542000  0.52965000  0.07999000  1.0 2.0380888011
Nd  Nd2  1  0.55541000  0.07999000  0.39036000  1.0 2.0380888011
Nd  Nd3  1  0.94577000  0.39036000  0.52965000  1.0 2.0380888011
Nd  Nd4  1  0.52458000  0.47035000  0.92001000  1.0 2.0380888011
Nd  Nd5  1  0.44459000  0.92001000  0.60964000  1.0 2.0380888011
Nd  Nd6  1  0.05423000  0.60964000  0.47035000  1.0 2.0380888011
H  H1  1  0.92866000  0.11797000  0.26545000  1.0 0.289959699
H  H2  1  0.92850000  0.18912000  0.29698000  1.0 0.289959699
H  H3  1  0.17327000  0.24225000  0.55753000  1.0 0.2694275405
H  H4  1  0.24632000  0.32018000  0.57295000  1.0 0.2826967315
H  H5  1  0.79095000  0.53312000  0.13517000  1.0 0.2988783942
H  H6  1  0.75913000  0.59736000  0.17191000  1.0 0.2826967315
H  H7  1  0.07150000  0.81088000  0.70302000  1.0 0.289959699
H  H8  1  0.07134000  0.88203000  0.73455000  1.0 0.2826967315
H  H9  1  0.75368000  0.67982000  0.42705000  1.0 0.2826967315
H  H10  1  0.82673000  0.75775000  0.44247000  1.0 0.2694275405
H  H11  1  0.24087000  0.40264000  0.82809000  1.0 0.2694275405
H  H12  1  0.20905000  0.46688000  0.86483000  1.0 0.289959699
C  C1  1  0.37070000  0.12500000  0.32190000  1.0 0.5711096849
C  C2  1  0.29990000  0.16490000  0.27210000  1.0 -0.0527010302
C  C3  1  0.36280000  0.23130000  0.20890000  1.0 -0.0305150442
C  C4  1  0.30110000  0.27610000  0.16580000  1.0 -0.0686662453
C  C5  1  0.37370000  0.35370000  0.10330000  1.0 0.6385312007
C  C6  1  0.17460000  0.25140000  0.18730000  1.0 -0.0602837377
C  C7  1  0.10520000  0.18340000  0.25220000  1.0 0.2129907683
C  C8  1  0.17210000  0.14300000  0.29280000  1.0 -0.0602837377
C  C9  1  0.30520000  0.51060000  0.96260000  1.0 0.6897315607
C  C10  1  0.69260000  0.32190000  0.55310000  1.0 0.5711096849
C  C11  1  0.57200000  0.27210000  0.56300000  1.0 -0.0527010302
C  C12  1  0.57170000  0.20890000  0.55980000  1.0 -0.0305150442
C  C13  1  0.46690000  0.16580000  0.55810000  1.0 -0.0686662453
C  C14  1  0.47700000  0.10330000  0.54300000  1.0 0.6385312007
C  C15  1  0.36190000  0.18730000  0.56130000  1.0 -0.0686662453
C  C16  1  0.35740000  0.25220000  0.56440000  1.0 0.2217890212
C  C17  1  0.46490000  0.29280000  0.56420000  1.0 -0.0602837377
C  C18  1  0.26780000  0.96260000  0.52680000  1.0 0.6967735216
C  C19  1  0.24570000  0.55310000  0.12500000  1.0 0.5711096849
C  C20  1  0.13500000  0.56300000  0.16490000  1.0 -0.0527010302
C  C21  1  0.13150000  0.55980000  0.23130000  1.0 -0.0371770988
C  C22  1  0.02500000  0.55810000  0.27610000  1.0 -0.0686662453
C  C23  1  0.02000000  0.54300000  0.35370000  1.0 0.6385312007
C  C24  1  0.92320000  0.56130000  0.25140000  1.0 -0.0686662453
C  C25  1  0.92180000  0.56440000  0.18340000  1.0 0.2217890212
C  C26  1  0.02910000  0.56420000  0.14300000  1.0 -0.0602837377
C  C27  1  0.79460000  0.52680000  0.51060000  1.0 0.6967735216
C  C28  1  0.62930000  0.87500000  0.67810000  1.0 0.5711096849
C  C29  1  0.70010000  0.83510000  0.72790000  1.0 -0.0527010302
C  C30  1  0.63720000  0.76870000  0.79110000  1.0 -0.0371770988
C  C31  1  0.69890000  0.72390000  0.83420000  1.0 -0.0602837377
C  C32  1  0.62630000  0.64630000  0.89670000  1.0 0.6385312007
C  C33  1  0.82540000  0.74860000  0.81270000  1.0 -0.0602837377
C  C34  1  0.89480000  0.81660000  0.74780000  1.0 0.2129907683
C  C35  1  0.82790000  0.85700000  0.70720000  1.0 -0.0602837377
C  C36  1  0.69480000  0.48940000  0.03740000  1.0 0.6897315607
C  C37  1  0.30740000  0.67810000  0.44690000  1.0 0.5711096849
C  C38  1  0.42800000  0.72790000  0.43700000  1.0 -0.0527010302
C  C39  1  0.42830000  0.79110000  0.44020000  1.0 -0.0371770988
C  C40  1  0.53310000  0.83420000  0.44190000  1.0 -0.0686662453
C  C41  1  0.52300000  0.89670000  0.45700000  1.0 0.6385312007
C  C42  1  0.63810000  0.81270000  0.43870000  1.0 -0.0686662453
C  C43  1  0.64260000  0.74780000  0.43560000  1.0 0.2217890212
C  C44  1  0.53510000  0.70720000  0.43580000  1.0 -0.0602837377
C  C45  1  0.73220000  0.03740000  0.47320000  1.0 0.6897315607
C  C46  1  0.75430000  0.44690000  0.87500000  1.0 0.5711096849
C  C47  1  0.86500000  0.43700000  0.83510000  1.0 -0.0527010302
C  C48  1  0.86850000  0.44020000  0.76870000  1.0 -0.0371770988
C  C49  1  0.97500000  0.44190000  0.72390000  1.0 -0.0686662453
C  C50  1  0.98000000  0.45700000  0.64630000  1.0 0.6385312007
C  C51  1  0.07680000  0.43870000  0.74860000  1.0 -0.0686662453
C  C52  1  0.07820000  0.43560000  0.81660000  1.0 0.2217890212
C  C53  1  0.97090000  0.43580000  0.85700000  1.0 -0.0602837377
C  C54  1  0.20540000  0.47320000  0.48940000  1.0 0.6897315607
I  I1  1  0.55441000  0.26505000  0.16981000  1.0 0.0034218925
I  I2  1  0.08419000  0.31569000  0.11974000  1.0 -0.0527010302
I  I3  1  0.07607000  0.04484000  0.39180000  1.0 -0.0126489922
I  I4  1  0.72422000  0.16981000  0.56514000  1.0 0.0034218925
I  I5  1  0.20393000  0.11974000  0.56457000  1.0 -0.0602837377
I  I6  1  0.46787000  0.39180000  0.56336000  1.0 -0.0305150442
I  I7  1  0.28936000  0.56514000  0.26505000  1.0 0.0068604242
I  I8  1  0.76850000  0.56457000  0.31569000  1.0 -0.0527010302
I  I9  1  0.03123000  0.56336000  0.04484000  1.0 -0.0204734708
I  I10  1  0.44559000  0.73495000  0.83019000  1.0 0.0068604242
I  I11  1  0.91581000  0.68431000  0.88026000  1.0 -0.0527010302
I  I12  1  0.92393000  0.95516000  0.60820000  1.0 -0.0126489922
I  I13  1  0.27578000  0.83019000  0.43486000  1.0 0.0034218925
I  I14  1  0.79607000  0.88026000  0.43543000  1.0 -0.0602837377
I  I15  1  0.53213000  0.60820000  0.43664000  1.0 -0.0204734708
I  I16  1  0.71064000  0.43486000  0.73495000  1.0 0.0068604242
I  I17  1  0.23150000  0.43543000  0.68431000  1.0 -0.0527010302
I  I18  1  0.96877000  0.43664000  0.95516000  1.0 -0.0204734708
N  N1  1  0.97920000  0.16210000  0.27290000  1.0 -0.5907625843
N  N2  1  0.25210000  0.27290000  0.56500000  1.0 -0.5692016556
N  N3  1  0.81710000  0.56500000  0.16210000  1.0 -0.5907625843
N  N4  1  0.02080000  0.83790000  0.72710000  1.0 -0.5833478544
N  N5  1  0.74790000  0.72710000  0.43500000  1.0 -0.5692016556
N  N6  1  0.18290000  0.43500000  0.83790000  1.0 -0.5833478544
O  O1  1  0.40243000  0.14693000  0.36144000  1.0 -0.5966926291
O  O2  1  0.40232000  0.07334000  0.31608000  1.0 -0.6364334955
O  O3  1  0.39545000  0.39858000  0.12493000  1.0 -0.6510057374
O  O4  1  0.40212000  0.36399000  0.03943000  1.0 -0.6617127135
O  O5  1  0.31300000  0.48830000  0.91780000  1.0 -0.5966926291
O  O6  1  0.38508000  0.51554000  0.99130000  1.0 -0.6617127135
O  O7  1  0.76387000  0.36144000  0.49163000  1.0 -0.5966926291
O  O8  1  0.71840000  0.31608000  0.61058000  1.0 -0.6364334955
O  O9  1  0.52038000  0.12493000  0.47649000  1.0 -0.6510057374
O  O10  1  0.44155000  0.03943000  0.59658000  1.0 -0.6617127135
O  O11  1  0.23080000  0.91780000  0.59390000  1.0 -0.5833478544
O  O12  1  0.37638000  0.99130000  0.49316000  1.0 -0.6510057374
O  O13  1  0.25550000  0.49163000  0.14693000  1.0 -0.5966926291
O  O14  1  0.32898000  0.61058000  0.07334000  1.0 -0.6364334955
O  O15  1  0.99687000  0.47649000  0.39858000  1.0 -0.6510057374
O  O16  1  0.03813000  0.59658000  0.36399000  1.0 -0.6617127135
O  O17  1  0.82470000  0.59390000  0.48830000  1.0 -0.5907625843
O  O18  1  0.86954000  0.49316000  0.51554000  1.0 -0.6617127135
O  O19  1  0.59757000  0.85307000  0.63856000  1.0 -0.5907625843
O  O20  1  0.59768000  0.92666000  0.68392000  1.0 -0.6364334955
O  O21  1  0.60455000  0.60142000  0.87507000  1.0 -0.6510057374
O  O22  1  0.59788000  0.63601000  0.96057000  1.0 -0.6617127135
O  O23  1  0.68700000  0.51170000  0.08220000  1.0 -0.5966926291
O  O24  1  0.61492000  0.48446000  0.00870000  1.0 -0.6617127135
O  O25  1  0.23613000  0.63856000  0.50837000  1.0 -0.5907625843
O  O26  1  0.28160000  0.68392000  0.38942000  1.0 -0.6342419162
O  O27  1  0.47962000  0.87507000  0.52351000  1.0 -0.6510057374
O  O28  1  0.55845000  0.96057000  0.40342000  1.0 -0.6617127135
O  O29  1  0.76920000  0.08220000  0.40610000  1.0 -0.5907625843
O  O30  1  0.62362000  0.00870000  0.50684000  1.0 -0.6510057374
O  O31  1  0.74450000  0.50837000  0.85307000  1.0 -0.5966926291
O  O32  1  0.67102000  0.38942000  0.92666000  1.0 -0.6364334955
O  O33  1  0.00313000  0.52351000  0.60142000  1.0 -0.6510057374
O  O34  1  0.96187000  0.40342000  0.63601000  1.0 -0.6617127135
O  O35  1  0.17530000  0.40610000  0.51170000  1.0 -0.5907625843
O  O36  1  0.13046000  0.50684000  0.48446000  1.0 -0.6617127135
