# DDEC6 charges by PACMAN v1.1 (https://github.com/mtap-research/PACMAN-charge/)
data_CUVVOG_FSR_pacman
_symmetry_space_group_name_H-M   'P 1'
_cell_length_a   15.96840000
_cell_length_b   15.96840000
_cell_length_c   33.64900000
_cell_angle_alpha   90.00000000
_cell_angle_beta   90.00000000
_cell_angle_gamma   120.00000000
_symmetry_Int_Tables_number   1
_chemical_formula_structural   ZnH16C24NO4
_chemical_formula_sum   'Zn12 H192 C288 N12 O48'
_cell_volume   7430.62936802
_cell_formula_units_Z   12
loop_
 _symmetry_equiv_pos_site_id
 _symmetry_equiv_pos_as_xyz
  1  'x, y, z'
loop_
 _atom_site_type_symbol
 _atom_site_label
 _atom_site_symmetry_multiplicity
 _atom_site_fract_x
 _atom_site_fract_y
 _atom_site_fract_z
 _atom_site_occupancy
 _atom_site_charge
Zn  Zn1  1  0.53190000  0.55007000  0.03182000  1.0 0.8602453529
Zn  Zn2  1  0.98183000  0.53190000  0.86515000  1.0 0.8602453529
Zn  Zn3  1  0.44993000  0.98183000  0.69849000  1.0 0.8602453529
Zn  Zn4  1  0.46810000  0.44993000  0.53182000  1.0 0.8602453529
Zn  Zn5  1  0.01817000  0.46810000  0.36515000  1.0 0.8602453529
Zn  Zn6  1  0.55007000  0.01817000  0.19849000  1.0 0.8602453529
Zn  Zn7  1  0.98183000  0.44993000  0.96818000  1.0 0.8602453529
Zn  Zn8  1  0.46810000  0.01817000  0.30151000  1.0 0.8602453529
Zn  Zn9  1  0.55007000  0.53190000  0.63485000  1.0 0.8602453529
Zn  Zn10  1  0.44993000  0.46810000  0.13485000  1.0 0.8602453529
Zn  Zn11  1  0.01817000  0.55007000  0.46818000  1.0 0.8602453529
Zn  Zn12  1  0.53190000  0.98183000  0.80151000  1.0 0.8602453529
H  H1  1  0.83600000  0.58910000  0.00930000  1.0 0.1185610151
H  H2  1  0.24690000  0.83600000  0.84263000  1.0 0.1185610151
H  H3  1  0.41090000  0.24690000  0.67597000  1.0 0.1185610151
H  H4  1  0.16400000  0.41090000  0.50930000  1.0 0.1185610151
H  H5  1  0.75310000  0.16400000  0.34263000  1.0 0.1185610151
H  H6  1  0.58910000  0.75310000  0.17597000  1.0 0.1185610151
H  H7  1  0.24690000  0.41090000  0.99070000  1.0 0.1185610151
H  H8  1  0.16400000  0.75310000  0.32403000  1.0 0.1185610151
H  H9  1  0.58910000  0.83600000  0.65737000  1.0 0.1185610151
H  H10  1  0.41090000  0.16400000  0.15737000  1.0 0.1185610151
H  H11  1  0.75310000  0.58910000  0.49070000  1.0 0.1185610151
H  H12  1  0.83600000  0.24690000  0.82403000  1.0 0.1185610151
H  H13  1  0.76010000  0.67530000  0.02680000  1.0 0.1314974437
H  H14  1  0.08480000  0.76010000  0.86013000  1.0 0.1314974437
H  H15  1  0.32470000  0.08480000  0.69347000  1.0 0.1314974437
H  H16  1  0.23990000  0.32470000  0.52680000  1.0 0.1314974437
H  H17  1  0.91520000  0.23990000  0.36013000  1.0 0.1314974437
H  H18  1  0.67530000  0.91520000  0.19347000  1.0 0.1314974437
H  H19  1  0.08480000  0.32470000  0.97320000  1.0 0.1314974437
H  H20  1  0.23990000  0.91520000  0.30653000  1.0 0.1314974437
H  H21  1  0.67530000  0.76010000  0.63987000  1.0 0.1314974437
H  H22  1  0.32470000  0.23990000  0.13987000  1.0 0.1314974437
H  H23  1  0.91520000  0.67530000  0.47320000  1.0 0.1314974437
H  H24  1  0.76010000  0.08480000  0.80653000  1.0 0.1314974437
H  H25  1  0.81450000  0.79530000  0.91800000  1.0 0.1111828285
H  H26  1  0.01920000  0.81450000  0.75133000  1.0 0.1111828285
H  H27  1  0.20470000  0.01920000  0.58467000  1.0 0.1111828285
H  H28  1  0.18550000  0.20470000  0.41800000  1.0 0.1111828285
H  H29  1  0.98080000  0.18550000  0.25133000  1.0 0.1111828285
H  H30  1  0.79530000  0.98080000  0.08467000  1.0 0.1111828285
H  H31  1  0.01920000  0.20470000  0.08200000  1.0 0.1111828285
H  H32  1  0.18550000  0.98080000  0.41533000  1.0 0.1111828285
H  H33  1  0.79530000  0.81450000  0.74867000  1.0 0.1111828285
H  H34  1  0.20470000  0.18550000  0.24867000  1.0 0.1111828285
H  H35  1  0.98080000  0.79530000  0.58200000  1.0 0.1111828285
H  H36  1  0.81450000  0.01920000  0.91533000  1.0 0.1111828285
H  H37  1  0.89050000  0.70910000  0.90060000  1.0 0.1111828285
H  H38  1  0.18140000  0.89050000  0.73393000  1.0 0.1111828285
H  H39  1  0.29090000  0.18140000  0.56727000  1.0 0.1111828285
H  H40  1  0.10950000  0.29090000  0.40060000  1.0 0.1111828285
H  H41  1  0.81860000  0.10950000  0.23393000  1.0 0.1111828285
H  H42  1  0.70910000  0.81860000  0.06727000  1.0 0.1111828285
H  H43  1  0.18140000  0.29090000  0.09940000  1.0 0.1111828285
H  H44  1  0.10950000  0.81860000  0.43273000  1.0 0.1111828285
H  H45  1  0.70910000  0.89050000  0.76607000  1.0 0.1111828285
H  H46  1  0.29090000  0.10950000  0.26607000  1.0 0.1111828285
H  H47  1  0.81860000  0.70910000  0.59940000  1.0 0.1111828285
H  H48  1  0.89050000  0.18140000  0.93273000  1.0 0.1111828285
H  H49  1  0.84230000  0.92970000  0.98560000  1.0 0.1185610151
H  H50  1  0.91260000  0.84230000  0.81893000  1.0 0.1185610151
H  H51  1  0.07030000  0.91260000  0.65227000  1.0 0.1185610151
H  H52  1  0.15770000  0.07030000  0.48560000  1.0 0.1185610151
H  H53  1  0.08740000  0.15770000  0.31893000  1.0 0.1185610151
H  H54  1  0.92970000  0.08740000  0.15227000  1.0 0.1185610151
H  H55  1  0.91260000  0.07030000  0.01440000  1.0 0.1185610151
H  H56  1  0.15770000  0.08740000  0.34773000  1.0 0.1185610151
H  H57  1  0.92970000  0.84230000  0.68107000  1.0 0.1185610151
H  H58  1  0.07030000  0.15770000  0.18107000  1.0 0.1185610151
H  H59  1  0.08740000  0.92970000  0.51440000  1.0 0.1185610151
H  H60  1  0.84230000  0.91260000  0.84773000  1.0 0.1185610151
H  H61  1  0.59550000  0.92580000  0.00710000  1.0 0.1185610151
H  H62  1  0.66970000  0.59550000  0.84043000  1.0 0.1185610151
H  H63  1  0.07420000  0.66970000  0.67377000  1.0 0.1185610151
H  H64  1  0.40450000  0.07420000  0.50710000  1.0 0.1185610151
H  H65  1  0.33030000  0.40450000  0.34043000  1.0 0.1185610151
H  H66  1  0.92580000  0.33030000  0.17377000  1.0 0.1185610151
H  H67  1  0.66970000  0.07420000  0.99290000  1.0 0.1185610151
H  H68  1  0.40450000  0.33030000  0.32623000  1.0 0.1185610151
H  H69  1  0.92580000  0.59550000  0.65957000  1.0 0.1185610151
H  H70  1  0.07420000  0.40450000  0.15957000  1.0 0.1185610151
H  H71  1  0.33030000  0.92580000  0.49290000  1.0 0.1185610151
H  H72  1  0.59550000  0.66970000  0.82623000  1.0 0.1185610151
H  H73  1  0.45220000  0.69770000  0.93950000  1.0 0.0845383415
H  H74  1  0.75450000  0.45220000  0.77283000  1.0 0.0845383415
H  H75  1  0.30230000  0.75450000  0.60617000  1.0 0.0845383415
H  H76  1  0.54780000  0.30230000  0.43950000  1.0 0.0845383415
H  H77  1  0.24550000  0.54780000  0.27283000  1.0 0.0845383415
H  H78  1  0.69770000  0.24550000  0.10617000  1.0 0.0845383415
H  H79  1  0.75450000  0.30230000  0.06050000  1.0 0.0845383415
H  H80  1  0.54780000  0.24550000  0.39383000  1.0 0.0845383415
H  H81  1  0.69770000  0.45220000  0.72717000  1.0 0.0845383415
H  H82  1  0.30230000  0.54780000  0.22717000  1.0 0.0845383415
H  H83  1  0.24550000  0.69770000  0.56050000  1.0 0.0845383415
H  H84  1  0.45220000  0.75450000  0.89383000  1.0 0.0845383415
H  H85  1  0.28390000  0.60260000  0.94090000  1.0 0.0905431305
H  H86  1  0.68130000  0.28390000  0.77423000  1.0 0.0905431305
H  H87  1  0.39740000  0.68130000  0.60757000  1.0 0.0905431305
H  H88  1  0.71610000  0.39740000  0.44090000  1.0 0.0905431305
H  H89  1  0.31870000  0.71610000  0.27423000  1.0 0.0905431305
H  H90  1  0.60260000  0.31870000  0.10757000  1.0 0.0905431305
H  H91  1  0.68130000  0.39740000  0.05910000  1.0 0.0905431305
H  H92  1  0.71610000  0.31870000  0.39243000  1.0 0.0905431305
H  H93  1  0.60260000  0.28390000  0.72577000  1.0 0.0905431305
H  H94  1  0.39740000  0.71610000  0.22577000  1.0 0.0905431305
H  H95  1  0.31870000  0.60260000  0.55910000  1.0 0.0905431305
H  H96  1  0.28390000  0.68130000  0.89243000  1.0 0.0905431305
H  H97  1  0.28330000  0.66666667  0.05670000  1.0 0.1003256971
H  H98  1  0.61663000  0.28330000  0.89003000  1.0 0.1003256971
H  H99  1  0.33333333  0.61663000  0.72337000  1.0 0.1003256971
H  H100  1  0.71670000  0.33333333  0.55670000  1.0 0.1003256971
H  H101  1  0.38337000  0.71670000  0.39003000  1.0 0.1003256971
H  H102  1  0.66666667  0.38337000  0.22337000  1.0 0.1003256971
H  H103  1  0.61663000  0.33333333  0.94330000  1.0 0.1003256971
H  H104  1  0.71670000  0.38337000  0.27663000  1.0 0.1003256971
H  H105  1  0.66666667  0.28330000  0.60997000  1.0 0.1003256971
H  H106  1  0.33333333  0.71670000  0.10997000  1.0 0.1003256971
H  H107  1  0.38337000  0.66666667  0.44330000  1.0 0.1003256971
H  H108  1  0.28330000  0.61663000  0.77663000  1.0 0.1003256971
H  H109  1  0.44980000  0.75930000  0.05530000  1.0 0.1003256971
H  H110  1  0.69050000  0.44980000  0.88863000  1.0 0.1003256971
H  H111  1  0.24070000  0.69050000  0.72197000  1.0 0.1003256971
H  H112  1  0.55020000  0.24070000  0.55530000  1.0 0.1003256971
H  H113  1  0.30950000  0.55020000  0.38863000  1.0 0.1003256971
H  H114  1  0.75930000  0.30950000  0.22197000  1.0 0.1003256971
H  H115  1  0.69050000  0.24070000  0.94470000  1.0 0.1003256971
H  H116  1  0.55020000  0.30950000  0.27803000  1.0 0.1003256971
H  H117  1  0.75930000  0.44980000  0.61137000  1.0 0.1003256971
H  H118  1  0.24070000  0.55020000  0.11137000  1.0 0.1003256971
H  H119  1  0.30950000  0.75930000  0.44470000  1.0 0.1003256971
H  H120  1  0.44980000  0.69050000  0.77803000  1.0 0.1003256971
H  H121  1  0.60610000  0.62340000  0.96750000  1.0 0.2862900555
H  H122  1  0.98270000  0.60610000  0.80083000  1.0 0.2862900555
H  H123  1  0.37660000  0.98270000  0.63417000  1.0 0.2862900555
H  H124  1  0.39390000  0.37660000  0.46750000  1.0 0.2862900555
H  H125  1  0.01730000  0.39390000  0.30083000  1.0 0.2862900555
H  H126  1  0.62340000  0.01730000  0.13417000  1.0 0.2862900555
H  H127  1  0.98270000  0.37660000  0.03250000  1.0 0.2862900555
H  H128  1  0.39390000  0.01730000  0.36583000  1.0 0.2862900555
H  H129  1  0.62340000  0.60610000  0.69917000  1.0 0.2862900555
H  H130  1  0.37660000  0.39390000  0.19917000  1.0 0.2862900555
H  H131  1  0.01730000  0.62340000  0.53250000  1.0 0.2862900555
H  H132  1  0.60610000  0.98270000  0.86583000  1.0 0.2862900555
H  H133  1  0.51720000  0.62580000  0.97040000  1.0 0.2669370085
H  H134  1  0.89140000  0.51720000  0.80373000  1.0 0.2669370085
H  H135  1  0.37420000  0.89140000  0.63707000  1.0 0.2669370085
H  H136  1  0.48280000  0.37420000  0.47040000  1.0 0.2669370085
H  H137  1  0.10860000  0.48280000  0.30373000  1.0 0.2669370085
H  H138  1  0.62580000  0.10860000  0.13707000  1.0 0.2669370085
H  H139  1  0.89140000  0.37420000  0.02960000  1.0 0.2669370085
H  H140  1  0.48280000  0.10860000  0.36293000  1.0 0.2669370085
H  H141  1  0.62580000  0.51720000  0.69627000  1.0 0.2669370085
H  H142  1  0.37420000  0.48280000  0.19627000  1.0 0.2669370085
H  H143  1  0.10860000  0.62580000  0.52960000  1.0 0.2669370085
H  H144  1  0.51720000  0.89140000  0.86293000  1.0 0.2669370085
H  H145  1  0.44330000  0.79180000  0.94720000  1.0 0.1003256971
H  H146  1  0.65150000  0.44330000  0.78053000  1.0 0.1003256971
H  H147  1  0.20820000  0.65150000  0.61387000  1.0 0.1003256971
H  H148  1  0.55670000  0.20820000  0.44720000  1.0 0.1003256971
H  H149  1  0.34850000  0.55670000  0.28053000  1.0 0.1003256971
H  H150  1  0.79180000  0.34850000  0.11387000  1.0 0.1003256971
H  H151  1  0.65150000  0.20820000  0.05280000  1.0 0.1003256971
H  H152  1  0.55670000  0.34850000  0.38613000  1.0 0.1003256971
H  H153  1  0.79180000  0.44330000  0.71947000  1.0 0.1003256971
H  H154  1  0.20820000  0.55670000  0.21947000  1.0 0.1003256971
H  H155  1  0.34850000  0.79180000  0.55280000  1.0 0.1003256971
H  H156  1  0.44330000  0.65150000  0.88613000  1.0 0.1003256971
H  H157  1  0.27540000  0.69750000  0.94830000  1.0 0.1003256971
H  H158  1  0.57790000  0.27540000  0.78163000  1.0 0.1003256971
H  H159  1  0.30250000  0.57790000  0.61497000  1.0 0.1003256971
H  H160  1  0.72460000  0.30250000  0.44830000  1.0 0.1003256971
H  H161  1  0.42210000  0.72460000  0.28163000  1.0 0.1003256971
H  H162  1  0.69750000  0.42210000  0.11497000  1.0 0.1003256971
H  H163  1  0.57790000  0.30250000  0.05170000  1.0 0.1003256971
H  H164  1  0.72460000  0.42210000  0.38503000  1.0 0.1003256971
H  H165  1  0.69750000  0.27540000  0.71837000  1.0 0.1003256971
H  H166  1  0.30250000  0.72460000  0.21837000  1.0 0.1003256971
H  H167  1  0.42210000  0.69750000  0.55170000  1.0 0.1003256971
H  H168  1  0.27540000  0.57790000  0.88503000  1.0 0.1003256971
H  H169  1  0.28970000  0.57220000  0.05010000  1.0 0.0905431305
H  H170  1  0.71750000  0.28970000  0.88343000  1.0 0.0905431305
H  H171  1  0.42780000  0.71750000  0.71677000  1.0 0.0905431305
H  H172  1  0.71030000  0.42780000  0.55010000  1.0 0.0905431305
H  H173  1  0.28250000  0.71030000  0.38343000  1.0 0.0905431305
H  H174  1  0.57220000  0.28250000  0.21677000  1.0 0.0905431305
H  H175  1  0.71750000  0.42780000  0.94990000  1.0 0.0905431305
H  H176  1  0.71030000  0.28250000  0.28323000  1.0 0.0905431305
H  H177  1  0.57220000  0.28970000  0.61657000  1.0 0.0905431305
H  H178  1  0.42780000  0.71030000  0.11657000  1.0 0.0905431305
H  H179  1  0.28250000  0.57220000  0.44990000  1.0 0.0905431305
H  H180  1  0.28970000  0.71750000  0.78323000  1.0 0.0905431305
H  H181  1  0.45770000  0.66690000  0.04920000  1.0 0.0905431305
H  H182  1  0.79080000  0.45770000  0.88253000  1.0 0.0905431305
H  H183  1  0.33310000  0.79080000  0.71587000  1.0 0.0905431305
H  H184  1  0.54230000  0.33310000  0.54920000  1.0 0.0905431305
H  H185  1  0.20920000  0.54230000  0.38253000  1.0 0.0905431305
H  H186  1  0.66690000  0.20920000  0.21587000  1.0 0.0905431305
H  H187  1  0.79080000  0.33310000  0.95080000  1.0 0.0905431305
H  H188  1  0.54230000  0.20920000  0.28413000  1.0 0.0905431305
H  H189  1  0.66690000  0.45770000  0.61747000  1.0 0.0905431305
H  H190  1  0.33310000  0.54230000  0.11747000  1.0 0.0905431305
H  H191  1  0.20920000  0.66690000  0.45080000  1.0 0.0905431305
H  H192  1  0.45770000  0.79080000  0.78413000  1.0 0.0905431305
C  C1  1  0.91430000  0.58190000  0.94230000  1.0 0.5739643435
C  C2  1  0.33240000  0.91430000  0.77563000  1.0 0.5739643435
C  C3  1  0.41810000  0.33240000  0.60897000  1.0 0.5739643435
C  C4  1  0.08570000  0.41810000  0.44230000  1.0 0.5739643435
C  C5  1  0.66760000  0.08570000  0.27563000  1.0 0.5739643435
C  C6  1  0.58190000  0.66760000  0.10897000  1.0 0.5739643435
C  C7  1  0.33240000  0.41810000  0.05770000  1.0 0.5739643435
C  C8  1  0.08570000  0.66760000  0.39103000  1.0 0.5739643435
C  C9  1  0.58190000  0.91430000  0.72437000  1.0 0.5739643435
C  C10  1  0.41810000  0.08570000  0.22437000  1.0 0.5739643435
C  C11  1  0.66760000  0.58190000  0.55770000  1.0 0.5739643435
C  C12  1  0.91430000  0.33240000  0.89103000  1.0 0.5739643435
C  C13  1  0.87080000  0.64050000  0.95320000  1.0 -0.0612878931
C  C14  1  0.23030000  0.87080000  0.78653000  1.0 -0.0612878931
C  C15  1  0.35950000  0.23030000  0.61987000  1.0 -0.0612878931
C  C16  1  0.12920000  0.35950000  0.45320000  1.0 -0.0612878931
C  C17  1  0.76970000  0.12920000  0.28653000  1.0 -0.0612878931
C  C18  1  0.64050000  0.76970000  0.11987000  1.0 -0.0612878931
C  C19  1  0.23030000  0.35950000  0.04680000  1.0 -0.0612878931
C  C20  1  0.12920000  0.76970000  0.38013000  1.0 -0.0612878931
C  C21  1  0.64050000  0.87080000  0.71347000  1.0 -0.0612878931
C  C22  1  0.35950000  0.12920000  0.21347000  1.0 -0.0612878931
C  C23  1  0.76970000  0.64050000  0.54680000  1.0 -0.0612878931
C  C24  1  0.87080000  0.23030000  0.88013000  1.0 -0.0612878931
C  C25  1  0.83170000  0.63040000  0.99100000  1.0 -0.0916003771
C  C26  1  0.20130000  0.83170000  0.82433000  1.0 -0.0916003771
C  C27  1  0.36960000  0.20130000  0.65767000  1.0 -0.0916003771
C  C28  1  0.16830000  0.36960000  0.49100000  1.0 -0.0916003771
C  C29  1  0.79870000  0.16830000  0.32433000  1.0 -0.0916003771
C  C30  1  0.63040000  0.79870000  0.15767000  1.0 -0.0916003771
C  C31  1  0.20130000  0.36960000  0.00900000  1.0 -0.0916003771
C  C32  1  0.16830000  0.79870000  0.34233000  1.0 -0.0916003771
C  C33  1  0.63040000  0.83170000  0.67567000  1.0 -0.0916003771
C  C34  1  0.36960000  0.16830000  0.17567000  1.0 -0.0916003771
C  C35  1  0.79870000  0.63040000  0.50900000  1.0 -0.0916003771
C  C36  1  0.83170000  0.20130000  0.84233000  1.0 -0.0916003771
C  C37  1  0.78620000  0.68210000  0.00147000  1.0 -0.1501853307
C  C38  1  0.10410000  0.78620000  0.83480000  1.0 -0.1501853307
C  C39  1  0.31790000  0.10410000  0.66814000  1.0 -0.1501853307
C  C40  1  0.21380000  0.31790000  0.50147000  1.0 -0.1501853307
C  C41  1  0.89590000  0.21380000  0.33480000  1.0 -0.1501853307
C  C42  1  0.68210000  0.89590000  0.16814000  1.0 -0.1501853307
C  C43  1  0.10410000  0.31790000  0.99853000  1.0 -0.1501853307
C  C44  1  0.21380000  0.89590000  0.33186000  1.0 -0.1501853307
C  C45  1  0.68210000  0.78620000  0.66520000  1.0 -0.1501853307
C  C46  1  0.31790000  0.21380000  0.16520000  1.0 -0.1501853307
C  C47  1  0.89590000  0.68210000  0.49853000  1.0 -0.1501853307
C  C48  1  0.78620000  0.10410000  0.83186000  1.0 -0.1501853307
C  C49  1  0.77980000  0.74390000  0.97410000  1.0 0.0905431305
C  C50  1  0.03590000  0.77980000  0.80743000  1.0 0.0905431305
C  C51  1  0.25610000  0.03590000  0.64077000  1.0 0.0905431305
C  C52  1  0.22020000  0.25610000  0.47410000  1.0 0.0905431305
C  C53  1  0.96410000  0.22020000  0.30743000  1.0 0.0905431305
C  C54  1  0.74390000  0.96410000  0.14077000  1.0 0.0905431305
C  C55  1  0.03590000  0.25610000  0.02590000  1.0 0.0905431305
C  C56  1  0.22020000  0.96410000  0.35923000  1.0 0.0905431305
C  C57  1  0.74390000  0.77980000  0.69257000  1.0 0.0905431305
C  C58  1  0.25610000  0.22020000  0.19257000  1.0 0.0905431305
C  C59  1  0.96410000  0.74390000  0.52590000  1.0 0.0905431305
C  C60  1  0.77980000  0.03590000  0.85923000  1.0 0.0905431305
C  C61  1  0.81880000  0.75400000  0.93630000  1.0 -0.1588266233
C  C62  1  0.06480000  0.81880000  0.76963000  1.0 -0.1588266233
C  C63  1  0.24600000  0.06480000  0.60297000  1.0 -0.1588266233
C  C64  1  0.18120000  0.24600000  0.43630000  1.0 -0.1588266233
C  C65  1  0.93520000  0.18120000  0.26963000  1.0 -0.1588266233
C  C66  1  0.75400000  0.93520000  0.10297000  1.0 -0.1588266233
C  C67  1  0.06480000  0.24600000  0.06370000  1.0 -0.1588266233
C  C68  1  0.18120000  0.93520000  0.39703000  1.0 -0.1588266233
C  C69  1  0.75400000  0.81880000  0.73037000  1.0 -0.1588266233
C  C70  1  0.24600000  0.18120000  0.23037000  1.0 -0.1588266233
C  C71  1  0.93520000  0.75400000  0.56370000  1.0 -0.1588266233
C  C72  1  0.81880000  0.06480000  0.89703000  1.0 -0.1588266233
C  C73  1  0.86440000  0.70230000  0.92588000  1.0 -0.0916003771
C  C74  1  0.16210000  0.86440000  0.75921000  1.0 -0.0916003771
C  C75  1  0.29770000  0.16210000  0.59255000  1.0 -0.0916003771
C  C76  1  0.13560000  0.29770000  0.42588000  1.0 -0.0916003771
C  C77  1  0.83790000  0.13560000  0.25921000  1.0 -0.0916003771
C  C78  1  0.70230000  0.83790000  0.09255000  1.0 -0.0916003771
C  C79  1  0.16210000  0.29770000  0.07412000  1.0 -0.0916003771
C  C80  1  0.13560000  0.83790000  0.40745000  1.0 -0.0916003771
C  C81  1  0.70230000  0.86440000  0.74079000  1.0 -0.0916003771
C  C82  1  0.29770000  0.13560000  0.24079000  1.0 -0.0916003771
C  C83  1  0.83790000  0.70230000  0.57412000  1.0 -0.0916003771
C  C84  1  0.86440000  0.16210000  0.90745000  1.0 -0.0916003771
C  C85  1  0.72430000  0.79620000  0.98350000  1.0 -0.009197514
C  C86  1  0.92810000  0.72430000  0.81683000  1.0 -0.009197514
C  C87  1  0.20380000  0.92810000  0.65017000  1.0 -0.009197514
C  C88  1  0.27570000  0.20380000  0.48350000  1.0 -0.009197514
C  C89  1  0.07190000  0.27570000  0.31683000  1.0 -0.009197514
C  C90  1  0.79620000  0.07190000  0.15017000  1.0 -0.009197514
C  C91  1  0.92810000  0.20380000  0.01650000  1.0 -0.009197514
C  C92  1  0.27570000  0.07190000  0.34983000  1.0 -0.009197514
C  C93  1  0.79620000  0.72430000  0.68317000  1.0 -0.009197514
C  C94  1  0.20380000  0.27570000  0.18317000  1.0 -0.009197514
C  C95  1  0.07190000  0.79620000  0.51650000  1.0 -0.009197514
C  C96  1  0.72430000  0.92810000  0.84983000  1.0 -0.009197514
C  C97  1  0.77530000  0.89600000  0.98810000  1.0 -0.2018385551
C  C98  1  0.87930000  0.77530000  0.82143000  1.0 -0.2018385551
C  C99  1  0.10400000  0.87930000  0.65477000  1.0 -0.2018385551
C  C100  1  0.22470000  0.10400000  0.48810000  1.0 -0.2018385551
C  C101  1  0.12070000  0.22470000  0.32143000  1.0 -0.2018385551
C  C102  1  0.89600000  0.12070000  0.15477000  1.0 -0.2018385551
C  C103  1  0.87930000  0.10400000  0.01190000  1.0 -0.2018385551
C  C104  1  0.22470000  0.12070000  0.34523000  1.0 -0.2018385551
C  C105  1  0.89600000  0.77530000  0.67857000  1.0 -0.2018385551
C  C106  1  0.10400000  0.22470000  0.17857000  1.0 -0.2018385551
C  C107  1  0.12070000  0.89600000  0.51190000  1.0 -0.2018385551
C  C108  1  0.77530000  0.87930000  0.84523000  1.0 -0.2018385551
C  C109  1  0.72610000  0.94630000  0.99670000  1.0 0.0651568687
C  C110  1  0.77980000  0.72610000  0.83003000  1.0 0.0651568687
C  C111  1  0.05370000  0.77980000  0.66337000  1.0 0.0651568687
C  C112  1  0.27390000  0.05370000  0.49670000  1.0 0.0651568687
C  C113  1  0.22020000  0.27390000  0.33003000  1.0 0.0651568687
C  C114  1  0.94630000  0.22020000  0.16337000  1.0 0.0651568687
C  C115  1  0.77980000  0.05370000  0.00330000  1.0 0.0651568687
C  C116  1  0.27390000  0.22020000  0.33663000  1.0 0.0651568687
C  C117  1  0.94630000  0.72610000  0.66997000  1.0 0.0651568687
C  C118  1  0.05370000  0.27390000  0.16997000  1.0 0.0651568687
C  C119  1  0.22020000  0.94630000  0.50330000  1.0 0.0651568687
C  C120  1  0.72610000  0.77980000  0.83663000  1.0 0.0651568687
C  C121  1  0.62820000  0.89300000  0.00070000  1.0 -0.2018385551
C  C122  1  0.73520000  0.62820000  0.83403000  1.0 -0.2018385551
C  C123  1  0.10700000  0.73520000  0.66737000  1.0 -0.2018385551
C  C124  1  0.37180000  0.10700000  0.50070000  1.0 -0.2018385551
C  C125  1  0.26480000  0.37180000  0.33403000  1.0 -0.2018385551
C  C126  1  0.89300000  0.26480000  0.16737000  1.0 -0.2018385551
C  C127  1  0.73520000  0.10700000  0.99930000  1.0 -0.2018385551
C  C128  1  0.37180000  0.26480000  0.33263000  1.0 -0.2018385551
C  C129  1  0.89300000  0.62820000  0.66597000  1.0 -0.2018385551
C  C130  1  0.10700000  0.37180000  0.16597000  1.0 -0.2018385551
C  C131  1  0.26480000  0.89300000  0.49930000  1.0 -0.2018385551
C  C132  1  0.62820000  0.73520000  0.83263000  1.0 -0.2018385551
C  C133  1  0.57350000  0.79320000  0.99600000  1.0 -0.1157023711
C  C134  1  0.78030000  0.57350000  0.82933000  1.0 -0.1157023711
C  C135  1  0.20680000  0.78030000  0.66267000  1.0 -0.1157023711
C  C136  1  0.42650000  0.20680000  0.49600000  1.0 -0.1157023711
C  C137  1  0.21970000  0.42650000  0.32933000  1.0 -0.1157023711
C  C138  1  0.79320000  0.21970000  0.16267000  1.0 -0.1138879945
C  C139  1  0.78030000  0.20680000  0.00400000  1.0 -0.1138879945
C  C140  1  0.42650000  0.21970000  0.33733000  1.0 -0.1157023711
C  C141  1  0.79320000  0.57350000  0.67067000  1.0 -0.1157023711
C  C142  1  0.20680000  0.42650000  0.17067000  1.0 -0.1157023711
C  C143  1  0.21970000  0.79320000  0.50400000  1.0 -0.1157023711
C  C144  1  0.57350000  0.78030000  0.83733000  1.0 -0.1157023711
C  C145  1  0.62530000  0.74210000  0.98690000  1.0 0.1366275559
C  C146  1  0.88320000  0.62530000  0.82023000  1.0 0.1366275559
C  C147  1  0.25790000  0.88320000  0.65357000  1.0 0.1366275559
C  C148  1  0.37470000  0.25790000  0.48690000  1.0 0.1366275559
C  C149  1  0.11680000  0.37470000  0.32023000  1.0 0.1366275559
C  C150  1  0.74210000  0.11680000  0.15357000  1.0 0.1366275559
C  C151  1  0.88320000  0.25790000  0.01310000  1.0 0.1366275559
C  C152  1  0.37470000  0.11680000  0.34643000  1.0 0.1366275559
C  C153  1  0.74210000  0.62530000  0.67977000  1.0 0.1366275559
C  C154  1  0.25790000  0.37470000  0.17977000  1.0 0.1366275559
C  C155  1  0.11680000  0.74210000  0.51310000  1.0 0.1366275559
C  C156  1  0.62530000  0.88320000  0.84643000  1.0 0.1366275559
C  C157  1  0.46830000  0.73920000  0.99800000  1.0 0.0396884913
C  C158  1  0.72910000  0.46830000  0.83133000  1.0 0.0396884913
C  C159  1  0.26080000  0.72910000  0.66467000  1.0 0.0396884913
C  C160  1  0.53170000  0.26080000  0.49800000  1.0 0.0396884913
C  C161  1  0.27090000  0.53170000  0.33133000  1.0 0.0396884913
C  C162  1  0.73920000  0.27090000  0.16467000  1.0 0.0396884913
C  C163  1  0.72910000  0.26080000  0.00200000  1.0 0.0396884913
C  C164  1  0.53170000  0.27090000  0.33533000  1.0 0.0396884913
C  C165  1  0.73920000  0.46830000  0.66867000  1.0 0.0396884913
C  C166  1  0.26080000  0.53170000  0.16867000  1.0 0.0396884913
C  C167  1  0.27090000  0.73920000  0.50200000  1.0 0.0396884913
C  C168  1  0.46830000  0.72910000  0.83533000  1.0 0.0396884913
C  C169  1  0.26600000  0.62500000  0.99910000  1.0 -0.0227200784
C  C170  1  0.64100000  0.26600000  0.83243000  1.0 -0.0227200784
C  C171  1  0.37500000  0.64100000  0.66577000  1.0 -0.0227200784
C  C172  1  0.73400000  0.37500000  0.49910000  1.0 -0.0227200784
C  C173  1  0.35900000  0.73400000  0.33243000  1.0 -0.0227200784
C  C174  1  0.62500000  0.35900000  0.16577000  1.0 -0.0227200784
C  C175  1  0.64100000  0.37500000  0.00090000  1.0 -0.0227200784
C  C176  1  0.73400000  0.35900000  0.33423000  1.0 -0.0227200784
C  C177  1  0.62500000  0.26600000  0.66757000  1.0 -0.0227200784
C  C178  1  0.37500000  0.73400000  0.16757000  1.0 -0.0227200784
C  C179  1  0.35900000  0.62500000  0.50090000  1.0 -0.0227200784
C  C180  1  0.26600000  0.64100000  0.83423000  1.0 -0.0227200784
C  C181  1  0.41840000  0.69140000  0.96290000  1.0 -0.077157638
C  C182  1  0.72700000  0.41840000  0.79623000  1.0 -0.077157638
C  C183  1  0.30860000  0.72700000  0.62957000  1.0 -0.077157638
C  C184  1  0.58160000  0.30860000  0.46290000  1.0 -0.077157638
C  C185  1  0.27300000  0.58160000  0.29623000  1.0 -0.077157638
C  C186  1  0.69140000  0.27300000  0.12957000  1.0 -0.077157638
C  C187  1  0.72700000  0.30860000  0.03710000  1.0 -0.077157638
C  C188  1  0.58160000  0.27300000  0.37043000  1.0 -0.077157638
C  C189  1  0.69140000  0.41840000  0.70377000  1.0 -0.077157638
C  C190  1  0.30860000  0.58160000  0.20377000  1.0 -0.077157638
C  C191  1  0.27300000  0.69140000  0.53710000  1.0 -0.077157638
C  C192  1  0.41840000  0.72700000  0.87043000  1.0 -0.077157638
C  C193  1  0.31730000  0.63440000  0.96370000  1.0 -0.0612878931
C  C194  1  0.68290000  0.31730000  0.79703000  1.0 -0.0612878931
C  C195  1  0.36560000  0.68290000  0.63037000  1.0 -0.0612878931
C  C196  1  0.68270000  0.36560000  0.46370000  1.0 -0.0612878931
C  C197  1  0.31710000  0.68270000  0.29703000  1.0 -0.0612878931
C  C198  1  0.63440000  0.31710000  0.13037000  1.0 -0.0612878931
C  C199  1  0.68290000  0.36560000  0.03630000  1.0 -0.0612878931
C  C200  1  0.68270000  0.31710000  0.36963000  1.0 -0.0612878931
C  C201  1  0.63440000  0.31730000  0.70297000  1.0 -0.0612878931
C  C202  1  0.36560000  0.68270000  0.20297000  1.0 -0.0612878931
C  C203  1  0.31710000  0.63440000  0.53630000  1.0 -0.0612878931
C  C204  1  0.31730000  0.68290000  0.86963000  1.0 -0.0612878931
C  C205  1  0.31650000  0.67240000  0.03330000  1.0 -0.0612878931
C  C206  1  0.64410000  0.31650000  0.86663000  1.0 -0.0612878931
C  C207  1  0.32760000  0.64410000  0.69997000  1.0 -0.0612878931
C  C208  1  0.68350000  0.32760000  0.53330000  1.0 -0.0612878931
C  C209  1  0.35590000  0.68350000  0.36663000  1.0 -0.0612878931
C  C210  1  0.67240000  0.35590000  0.19997000  1.0 -0.0612878931
C  C211  1  0.64410000  0.32760000  0.96670000  1.0 -0.0612878931
C  C212  1  0.68350000  0.35590000  0.30003000  1.0 -0.0612878931
C  C213  1  0.67240000  0.31650000  0.63337000  1.0 -0.0612878931
C  C214  1  0.32760000  0.68350000  0.13337000  1.0 -0.0612878931
C  C215  1  0.35590000  0.67240000  0.46670000  1.0 -0.0612878931
C  C216  1  0.31650000  0.64410000  0.80003000  1.0 -0.0612878931
C  C217  1  0.41670000  0.72830000  0.03230000  1.0 -0.0612878931
C  C218  1  0.68840000  0.41670000  0.86563000  1.0 -0.0612878931
C  C219  1  0.27170000  0.68840000  0.69897000  1.0 -0.0612878931
C  C220  1  0.58330000  0.27170000  0.53230000  1.0 -0.0612878931
C  C221  1  0.31160000  0.58330000  0.36563000  1.0 -0.0612878931
C  C222  1  0.72830000  0.31160000  0.19897000  1.0 -0.0612878931
C  C223  1  0.68840000  0.27170000  0.96770000  1.0 -0.0612878931
C  C224  1  0.58330000  0.31160000  0.30103000  1.0 -0.0612878931
C  C225  1  0.72830000  0.41670000  0.63437000  1.0 -0.0612878931
C  C226  1  0.27170000  0.58330000  0.13437000  1.0 -0.0612878931
C  C227  1  0.31160000  0.72830000  0.46770000  1.0 -0.0612878931
C  C228  1  0.41670000  0.68840000  0.80103000  1.0 -0.0612878931
C  C229  1  0.15840000  0.55820000  0.99970000  1.0 0.53495513
C  C230  1  0.60020000  0.15840000  0.83303000  1.0 0.5353832106
C  C231  1  0.44180000  0.60020000  0.66637000  1.0 0.53495513
C  C232  1  0.84160000  0.44180000  0.49970000  1.0 0.53495513
C  C233  1  0.39980000  0.84160000  0.33303000  1.0 0.53495513
C  C234  1  0.55820000  0.39980000  0.16637000  1.0 0.53495513
C  C235  1  0.60020000  0.44180000  0.00030000  1.0 0.53495513
C  C236  1  0.84160000  0.39980000  0.33363000  1.0 0.53495513
C  C237  1  0.55820000  0.15840000  0.66697000  1.0 0.5353832106
C  C238  1  0.44180000  0.84160000  0.16697000  1.0 0.53495513
C  C239  1  0.39980000  0.55820000  0.50030000  1.0 0.53495513
C  C240  1  0.15840000  0.60020000  0.83363000  1.0 0.5353832106
C  C241  1  0.41290000  0.74790000  0.96780000  1.0 -0.0612878931
C  C242  1  0.66500000  0.41290000  0.80113000  1.0 -0.0612878931
C  C243  1  0.25210000  0.66500000  0.63447000  1.0 -0.0612878931
C  C244  1  0.58710000  0.25210000  0.46780000  1.0 -0.0612878931
C  C245  1  0.33500000  0.58710000  0.30113000  1.0 -0.0612878931
C  C246  1  0.74790000  0.33500000  0.13447000  1.0 -0.0612878931
C  C247  1  0.66500000  0.25210000  0.03220000  1.0 -0.0612878931
C  C248  1  0.58710000  0.33500000  0.36553000  1.0 -0.0612878931
C  C249  1  0.74790000  0.41290000  0.69887000  1.0 -0.0612878931
C  C250  1  0.25210000  0.58710000  0.19887000  1.0 -0.0612878931
C  C251  1  0.33500000  0.74790000  0.53220000  1.0 -0.0612878931
C  C252  1  0.41290000  0.66500000  0.86553000  1.0 -0.0612878931
C  C253  1  0.31190000  0.69110000  0.96840000  1.0 -0.0612878931
C  C254  1  0.62080000  0.31190000  0.80173000  1.0 -0.0612878931
C  C255  1  0.30890000  0.62080000  0.63507000  1.0 -0.0612878931
C  C256  1  0.68810000  0.30890000  0.46840000  1.0 -0.0612878931
C  C257  1  0.37920000  0.68810000  0.30173000  1.0 -0.0612878931
C  C258  1  0.69110000  0.37920000  0.13507000  1.0 -0.0612878931
C  C259  1  0.62080000  0.30890000  0.03160000  1.0 -0.0612878931
C  C260  1  0.68810000  0.37920000  0.36493000  1.0 -0.0612878931
C  C261  1  0.69110000  0.31190000  0.69827000  1.0 -0.0612878931
C  C262  1  0.30890000  0.68810000  0.19827000  1.0 -0.0612878931
C  C263  1  0.37920000  0.69110000  0.53160000  1.0 -0.0612878931
C  C264  1  0.31190000  0.62080000  0.86493000  1.0 -0.0612878931
C  C265  1  0.32040000  0.61590000  0.02950000  1.0 -0.0612878931
C  C266  1  0.70450000  0.32040000  0.86283000  1.0 -0.0612878931
C  C267  1  0.38410000  0.70450000  0.69617000  1.0 -0.0612878931
C  C268  1  0.67960000  0.38410000  0.52950000  1.0 -0.0612878931
C  C269  1  0.29550000  0.67960000  0.36283000  1.0 -0.0612878931
C  C270  1  0.61590000  0.29550000  0.19617000  1.0 -0.0612878931
C  C271  1  0.70450000  0.38410000  0.97050000  1.0 -0.0612878931
C  C272  1  0.67960000  0.29550000  0.30383000  1.0 -0.0612878931
C  C273  1  0.61590000  0.32040000  0.63717000  1.0 -0.0612878931
C  C274  1  0.38410000  0.67960000  0.13717000  1.0 -0.0612878931
C  C275  1  0.29550000  0.61590000  0.47050000  1.0 -0.0612878931
C  C276  1  0.32040000  0.70450000  0.80383000  1.0 -0.0612878931
C  C277  1  0.42150000  0.67300000  0.02890000  1.0 -0.0612878931
C  C278  1  0.74850000  0.42150000  0.86223000  1.0 -0.0612878931
C  C279  1  0.32700000  0.74850000  0.69557000  1.0 -0.0612878931
C  C280  1  0.57850000  0.32700000  0.52890000  1.0 -0.0612878931
C  C281  1  0.25150000  0.57850000  0.36223000  1.0 -0.0612878931
C  C282  1  0.67300000  0.25150000  0.19557000  1.0 -0.0612878931
C  C283  1  0.74850000  0.32700000  0.97110000  1.0 -0.0612878931
C  C284  1  0.57850000  0.25150000  0.30443000  1.0 -0.0612878931
C  C285  1  0.67300000  0.42150000  0.63777000  1.0 -0.0612878931
C  C286  1  0.32700000  0.57850000  0.13777000  1.0 -0.0612878931
C  C287  1  0.25150000  0.67300000  0.47110000  1.0 -0.0612878931
C  C288  1  0.42150000  0.74850000  0.80443000  1.0 -0.0612878931
N  N1  1  0.57190000  0.64040000  0.98360000  1.0 -0.5683658262
N  N2  1  0.93150000  0.57190000  0.81693000  1.0 -0.5683658262
N  N3  1  0.35960000  0.93150000  0.65027000  1.0 -0.5683658262
N  N4  1  0.42810000  0.35960000  0.48360000  1.0 -0.5683658262
N  N5  1  0.06850000  0.42810000  0.31693000  1.0 -0.5683658262
N  N6  1  0.64040000  0.06850000  0.15027000  1.0 -0.5683658262
N  N7  1  0.93150000  0.35960000  0.01640000  1.0 -0.5683658262
N  N8  1  0.42810000  0.06850000  0.34973000  1.0 -0.5683658262
N  N9  1  0.64040000  0.57190000  0.68307000  1.0 -0.5683658262
N  N10  1  0.35960000  0.42810000  0.18307000  1.0 -0.5683658262
N  N11  1  0.06850000  0.64040000  0.51640000  1.0 -0.5683658262
N  N12  1  0.57190000  0.93150000  0.84973000  1.0 -0.5683658262
O  O1  1  0.11290000  0.53660000  0.03250000  1.0 -0.5444729864
O  O2  1  0.57630000  0.11290000  0.86583000  1.0 -0.5444729864
O  O3  1  0.46340000  0.57630000  0.69917000  1.0 -0.5444729864
O  O4  1  0.88710000  0.46340000  0.53250000  1.0 -0.5444729864
O  O5  1  0.42370000  0.88710000  0.36583000  1.0 -0.5444729864
O  O6  1  0.53660000  0.42370000  0.19917000  1.0 -0.5444729864
O  O7  1  0.57630000  0.46340000  0.96750000  1.0 -0.5444729864
O  O8  1  0.88710000  0.42370000  0.30083000  1.0 -0.5444729864
O  O9  1  0.53660000  0.11290000  0.63417000  1.0 -0.5444729864
O  O10  1  0.46340000  0.88710000  0.13417000  1.0 -0.5444729864
O  O11  1  0.42370000  0.53660000  0.46750000  1.0 -0.5444729864
O  O12  1  0.11290000  0.57630000  0.80083000  1.0 -0.5444729864
O  O13  1  0.12010000  0.52970000  0.96730000  1.0 -0.489941149
O  O14  1  0.59040000  0.12010000  0.80063000  1.0 -0.489941149
O  O15  1  0.47030000  0.59040000  0.63397000  1.0 -0.489941149
O  O16  1  0.87990000  0.47030000  0.46730000  1.0 -0.489941149
O  O17  1  0.40960000  0.87990000  0.30063000  1.0 -0.489941149
O  O18  1  0.52970000  0.40960000  0.13397000  1.0 -0.489941149
O  O19  1  0.59040000  0.47030000  0.03270000  1.0 -0.489941149
O  O20  1  0.87990000  0.40960000  0.36603000  1.0 -0.489941149
O  O21  1  0.52970000  0.12010000  0.69937000  1.0 -0.489941149
O  O22  1  0.47030000  0.87990000  0.19937000  1.0 -0.489941149
O  O23  1  0.40960000  0.52970000  0.53270000  1.0 -0.489941149
O  O24  1  0.12010000  0.59040000  0.86603000  1.0 -0.489941149
O  O25  1  0.91620000  0.52490000  0.96740000  1.0 -0.5514025231
O  O26  1  0.39130000  0.91620000  0.80073000  1.0 -0.5514025231
O  O27  1  0.47510000  0.39130000  0.63407000  1.0 -0.5514025231
O  O28  1  0.08380000  0.47510000  0.46740000  1.0 -0.5514025231
O  O29  1  0.60870000  0.08380000  0.30073000  1.0 -0.5514025231
O  O30  1  0.52490000  0.60870000  0.13407000  1.0 -0.5514025231
O  O31  1  0.39130000  0.47510000  0.03260000  1.0 -0.5514025231
O  O32  1  0.08380000  0.60870000  0.36593000  1.0 -0.5514025231
O  O33  1  0.52490000  0.91620000  0.69927000  1.0 -0.5514025231
O  O34  1  0.47510000  0.08380000  0.19927000  1.0 -0.5514025231
O  O35  1  0.60870000  0.52490000  0.53260000  1.0 -0.5514025231
O  O36  1  0.91620000  0.39130000  0.86593000  1.0 -0.5514025231
O  O37  1  0.94610000  0.59290000  0.90730000  1.0 -0.5566809714
O  O38  1  0.35320000  0.94610000  0.74063000  1.0 -0.5566809714
O  O39  1  0.40710000  0.35320000  0.57397000  1.0 -0.5566809714
O  O40  1  0.05390000  0.40710000  0.40730000  1.0 -0.5566809714
O  O41  1  0.64680000  0.05390000  0.24063000  1.0 -0.5566809714
O  O42  1  0.59290000  0.64680000  0.07397000  1.0 -0.5566809714
O  O43  1  0.35320000  0.40710000  0.09270000  1.0 -0.5566809714
O  O44  1  0.05390000  0.64680000  0.42603000  1.0 -0.5566809714
O  O45  1  0.59290000  0.94610000  0.75937000  1.0 -0.5566809714
O  O46  1  0.40710000  0.05390000  0.25937000  1.0 -0.5566809714
O  O47  1  0.64680000  0.59290000  0.59270000  1.0 -0.5566809714
O  O48  1  0.94610000  0.35320000  0.92603000  1.0 -0.5566809714
