# DDEC6 charges by PACMAN v1.1 (https://github.com/mtap-research/PACMAN-charge/)
data_CUWHUZ_FSR_pacman
_symmetry_space_group_name_H-M   'P 1'
_cell_length_a   23.14570000
_cell_length_b   23.14570000
_cell_length_c   23.14570000
_cell_angle_alpha   109.47100000
_cell_angle_beta   109.47100000
_cell_angle_gamma   109.47100000
_symmetry_Int_Tables_number   1
_chemical_formula_structural   TbH16C33N4O17
_chemical_formula_sum   'Tb6 H96 C198 N24 O102'
_cell_volume   9545.36667855
_cell_formula_units_Z   6
loop_
 _symmetry_equiv_pos_site_id
 _symmetry_equiv_pos_as_xyz
  1  'x, y, z'
loop_
 _atom_site_type_symbol
 _atom_site_label
 _atom_site_symmetry_multiplicity
 _atom_site_fract_x
 _atom_site_fract_y
 _atom_site_fract_z
 _atom_site_occupancy
 _atom_site_charge
Tb  Tb1  1  0.87297000  0.37297000  0.50000000  1.0 0.9391842901
Tb  Tb2  1  0.12703000  0.62703000  0.50000000  1.0 0.9316796878
Tb  Tb3  1  0.50000000  0.87297000  0.37297000  1.0 0.9391842901
Tb  Tb4  1  0.50000000  0.12703000  0.62703000  1.0 0.9391842901
Tb  Tb5  1  0.37297000  0.50000000  0.87297000  1.0 0.9316796878
Tb  Tb6  1  0.62703000  0.50000000  0.12703000  1.0 0.9316796878
H  H1  1  0.68420000  0.38780000  0.54000000  1.0 0.1141344933
H  H2  1  0.84780000  0.14420000  0.46000000  1.0 0.1141344933
H  H3  1  0.15220000  0.61220000  0.29640000  1.0 0.1141344933
H  H4  1  0.31580000  0.85580000  0.70360000  1.0 0.1165261353
H  H5  1  0.54000000  0.68420000  0.38780000  1.0 0.1141344933
H  H6  1  0.46000000  0.84780000  0.14420000  1.0 0.1141344933
H  H7  1  0.29640000  0.15220000  0.61220000  1.0 0.1141344933
H  H8  1  0.70360000  0.31580000  0.85580000  1.0 0.1141344933
H  H9  1  0.38780000  0.54000000  0.68420000  1.0 0.1165261353
H  H10  1  0.14420000  0.46000000  0.84780000  1.0 0.1141344933
H  H11  1  0.61220000  0.29640000  0.15220000  1.0 0.1165261353
H  H12  1  0.85580000  0.70360000  0.31580000  1.0 0.1141344933
H  H13  1  0.31580000  0.61220000  0.46000000  1.0 0.1141344933
H  H14  1  0.15220000  0.85580000  0.54000000  1.0 0.1165261353
H  H15  1  0.84780000  0.38780000  0.70360000  1.0 0.1141344933
H  H16  1  0.68420000  0.14420000  0.29640000  1.0 0.1141344933
H  H17  1  0.46000000  0.31580000  0.61220000  1.0 0.1141344933
H  H18  1  0.54000000  0.15220000  0.85580000  1.0 0.1165261353
H  H19  1  0.70360000  0.84780000  0.38780000  1.0 0.1165261353
H  H20  1  0.29640000  0.68420000  0.14420000  1.0 0.1141344933
H  H21  1  0.61220000  0.46000000  0.31580000  1.0 0.1141344933
H  H22  1  0.85580000  0.54000000  0.15220000  1.0 0.1141344933
H  H23  1  0.38780000  0.70360000  0.84780000  1.0 0.1141344933
H  H24  1  0.14420000  0.29640000  0.68420000  1.0 0.1165261353
H  H25  1  0.77290000  0.53440000  0.49690000  1.0 0.1141344933
H  H26  1  0.03750000  0.27600000  0.50310000  1.0 0.1141344933
H  H27  1  0.96250000  0.46560000  0.23850000  1.0 0.1141344933
H  H28  1  0.22710000  0.72400000  0.76150000  1.0 0.1141344933
H  H29  1  0.49690000  0.77290000  0.53440000  1.0 0.1141344933
H  H30  1  0.50310000  0.03750000  0.27600000  1.0 0.1141344933
H  H31  1  0.23850000  0.96250000  0.46560000  1.0 0.1141344933
H  H32  1  0.76150000  0.22710000  0.72400000  1.0 0.1141344933
H  H33  1  0.53440000  0.49690000  0.77290000  1.0 0.1141344933
H  H34  1  0.27600000  0.50310000  0.03750000  1.0 0.1141344933
H  H35  1  0.46560000  0.23850000  0.96250000  1.0 0.1141344933
H  H36  1  0.72400000  0.76150000  0.22710000  1.0 0.1141344933
H  H37  1  0.22710000  0.46560000  0.50310000  1.0 0.1141344933
H  H38  1  0.96250000  0.72400000  0.49690000  1.0 0.1141344933
H  H39  1  0.03750000  0.53440000  0.76150000  1.0 0.1141344933
H  H40  1  0.77290000  0.27600000  0.23850000  1.0 0.1141344933
H  H41  1  0.50310000  0.22710000  0.46560000  1.0 0.1141344933
H  H42  1  0.49690000  0.96250000  0.72400000  1.0 0.1141344933
H  H43  1  0.76150000  0.03750000  0.53440000  1.0 0.1141344933
H  H44  1  0.23850000  0.77290000  0.27600000  1.0 0.1141344933
H  H45  1  0.46560000  0.50310000  0.22710000  1.0 0.1141344933
H  H46  1  0.72400000  0.49690000  0.96250000  1.0 0.1141344933
H  H47  1  0.53440000  0.76150000  0.03750000  1.0 0.1141344933
H  H48  1  0.27600000  0.23850000  0.77290000  1.0 0.1141344933
H  H49  1  0.62080000  0.43950000  0.56770000  1.0 0.1141344933
H  H50  1  0.87180000  0.05310000  0.43230000  1.0 0.1141344933
H  H51  1  0.12820000  0.56050000  0.18130000  1.0 0.1141344933
H  H52  1  0.37920000  0.94690000  0.81870000  1.0 0.1141344933
H  H53  1  0.56770000  0.62080000  0.43950000  1.0 0.1141344933
H  H54  1  0.43230000  0.87180000  0.05310000  1.0 0.1141344933
H  H55  1  0.18130000  0.12820000  0.56050000  1.0 0.1141344933
H  H56  1  0.81870000  0.37920000  0.94690000  1.0 0.1141344933
H  H57  1  0.43950000  0.56770000  0.62080000  1.0 0.1141344933
H  H58  1  0.05310000  0.43230000  0.87180000  1.0 0.1141344933
H  H59  1  0.56050000  0.18130000  0.12820000  1.0 0.1141344933
H  H60  1  0.94690000  0.81870000  0.37920000  1.0 0.1141344933
H  H61  1  0.37920000  0.56050000  0.43230000  1.0 0.1141344933
H  H62  1  0.12820000  0.94690000  0.56770000  1.0 0.1141344933
H  H63  1  0.87180000  0.43950000  0.81870000  1.0 0.1141344933
H  H64  1  0.62080000  0.05310000  0.18130000  1.0 0.1141344933
H  H65  1  0.43230000  0.37920000  0.56050000  1.0 0.1141344933
H  H66  1  0.56770000  0.12820000  0.94690000  1.0 0.1141344933
H  H67  1  0.81870000  0.87180000  0.43950000  1.0 0.1141344933
H  H68  1  0.18130000  0.62080000  0.05310000  1.0 0.1141344933
H  H69  1  0.56050000  0.43230000  0.37920000  1.0 0.1141344933
H  H70  1  0.94690000  0.56770000  0.12820000  1.0 0.1141344933
H  H71  1  0.43950000  0.81870000  0.87180000  1.0 0.1141344933
H  H72  1  0.05310000  0.18130000  0.62080000  1.0 0.1141344933
H  H73  1  0.70490000  0.58370000  0.51860000  1.0 0.1165261353
H  H74  1  0.06510000  0.18630000  0.48140000  1.0 0.1165261353
H  H75  1  0.93490000  0.41630000  0.12120000  1.0 0.1165261353
H  H76  1  0.29510000  0.81370000  0.87880000  1.0 0.1165261353
H  H77  1  0.51860000  0.70490000  0.58370000  1.0 0.1165261353
H  H78  1  0.48140000  0.06510000  0.18630000  1.0 0.1165261353
H  H79  1  0.12120000  0.93490000  0.41630000  1.0 0.1165261353
H  H80  1  0.87880000  0.29510000  0.81370000  1.0 0.1165261353
H  H81  1  0.58370000  0.51860000  0.70490000  1.0 0.1165261353
H  H82  1  0.18630000  0.48140000  0.06510000  1.0 0.1165261353
H  H83  1  0.41630000  0.12120000  0.93490000  1.0 0.1165261353
H  H84  1  0.81370000  0.87880000  0.29510000  1.0 0.1165261353
H  H85  1  0.29510000  0.41630000  0.48140000  1.0 0.1165261353
H  H86  1  0.93490000  0.81370000  0.51860000  1.0 0.1165261353
H  H87  1  0.06510000  0.58370000  0.87880000  1.0 0.1165261353
H  H88  1  0.70490000  0.18630000  0.12120000  1.0 0.1165261353
H  H89  1  0.48140000  0.29510000  0.41630000  1.0 0.1165261353
H  H90  1  0.51860000  0.93490000  0.81370000  1.0 0.1165261353
H  H91  1  0.87880000  0.06510000  0.58370000  1.0 0.1165261353
H  H92  1  0.12120000  0.70490000  0.18630000  1.0 0.1165261353
H  H93  1  0.41630000  0.48140000  0.29510000  1.0 0.1165261353
H  H94  1  0.81370000  0.51860000  0.93490000  1.0 0.1165261353
H  H95  1  0.58370000  0.87880000  0.06510000  1.0 0.1165261353
H  H96  1  0.18630000  0.12120000  0.70490000  1.0 0.1165261353
C  C1  1  0.78080000  0.42460000  0.50440000  1.0 0.4360748946
C  C2  1  0.92020000  0.27640000  0.49560000  1.0 0.4345289041
C  C3  1  0.07980000  0.57540000  0.35620000  1.0 0.4360748946
C  C4  1  0.21920000  0.72360000  0.64380000  1.0 0.4360748946
C  C5  1  0.50440000  0.78080000  0.42460000  1.0 0.4345289041
C  C6  1  0.49560000  0.92020000  0.27640000  1.0 0.4360748946
C  C7  1  0.35620000  0.07980000  0.57540000  1.0 0.4345289041
C  C8  1  0.64380000  0.21920000  0.72360000  1.0 0.4360748946
C  C9  1  0.42460000  0.50440000  0.78080000  1.0 0.4360748946
C  C10  1  0.27640000  0.49560000  0.92020000  1.0 0.4360748946
C  C11  1  0.57540000  0.35620000  0.07980000  1.0 0.4360748946
C  C12  1  0.72360000  0.64380000  0.21920000  1.0 0.4360748946
C  C13  1  0.21920000  0.57540000  0.49560000  1.0 0.4360748946
C  C14  1  0.07980000  0.72360000  0.50440000  1.0 0.4360748946
C  C15  1  0.92020000  0.42460000  0.64380000  1.0 0.4360748946
C  C16  1  0.78080000  0.27640000  0.35620000  1.0 0.4345289041
C  C17  1  0.49560000  0.21920000  0.57540000  1.0 0.4345289041
C  C18  1  0.50440000  0.07980000  0.72360000  1.0 0.4360748946
C  C19  1  0.64380000  0.92020000  0.42460000  1.0 0.4360748946
C  C20  1  0.35620000  0.78080000  0.27640000  1.0 0.4360748946
C  C21  1  0.57540000  0.49560000  0.21920000  1.0 0.4345289041
C  C22  1  0.72360000  0.50440000  0.07980000  1.0 0.4360748946
C  C23  1  0.42460000  0.64380000  0.92020000  1.0 0.4360748946
C  C24  1  0.27640000  0.35620000  0.78080000  1.0 0.4360748946
C  C25  1  0.00000000  0.51750000  0.51750000  1.0 0.3729543904
C  C26  1  0.00000000  0.48250000  0.48250000  1.0 0.3729543904
C  C27  1  0.51750000  0.00000000  0.51750000  1.0 0.3729543904
C  C28  1  0.48250000  0.00000000  0.48250000  1.0 0.3729543904
C  C29  1  0.51750000  0.51750000  0.00000000  1.0 0.3729543904
C  C30  1  0.48250000  0.48250000  0.00000000  1.0 0.3729543904
C  C31  1  0.73670000  0.45730000  0.51740000  1.0 -0.0569804763
C  C32  1  0.93990000  0.21930000  0.48260000  1.0 -0.0569804763
C  C33  1  0.06010000  0.54270000  0.27940000  1.0 -0.0569804763
C  C34  1  0.26330000  0.78070000  0.72060000  1.0 -0.0569804763
C  C35  1  0.51740000  0.73670000  0.45730000  1.0 -0.0569804763
C  C36  1  0.48260000  0.93990000  0.21930000  1.0 -0.0569804763
C  C37  1  0.27940000  0.06010000  0.54270000  1.0 -0.0569804763
C  C38  1  0.72060000  0.26330000  0.78070000  1.0 -0.0547164113
C  C39  1  0.45730000  0.51740000  0.73670000  1.0 -0.0569804763
C  C40  1  0.21930000  0.48260000  0.93990000  1.0 -0.0569804763
C  C41  1  0.54270000  0.27940000  0.06010000  1.0 -0.0569804763
C  C42  1  0.78070000  0.72060000  0.26330000  1.0 -0.0569804763
C  C43  1  0.26330000  0.54270000  0.48260000  1.0 -0.0569804763
C  C44  1  0.06010000  0.78070000  0.51740000  1.0 -0.0569804763
C  C45  1  0.93990000  0.45730000  0.72060000  1.0 -0.0569804763
C  C46  1  0.73670000  0.21930000  0.27940000  1.0 -0.0569804763
C  C47  1  0.48260000  0.26330000  0.54270000  1.0 -0.0569804763
C  C48  1  0.51740000  0.06010000  0.78070000  1.0 -0.0547164113
C  C49  1  0.72060000  0.93990000  0.45730000  1.0 -0.0569804763
C  C50  1  0.27940000  0.73670000  0.21930000  1.0 -0.0569804763
C  C51  1  0.54270000  0.48260000  0.26330000  1.0 -0.0569804763
C  C52  1  0.78070000  0.51740000  0.06010000  1.0 -0.0569804763
C  C53  1  0.45730000  0.72060000  0.93990000  1.0 -0.0569804763
C  C54  1  0.21930000  0.27940000  0.73670000  1.0 -0.0569804763
C  C55  1  0.68990000  0.42830000  0.53720000  1.0 -0.1191842016
C  C56  1  0.89110000  0.15270000  0.46280000  1.0 -0.1191842016
C  C57  1  0.10890000  0.57170000  0.26160000  1.0 -0.1191842016
C  C58  1  0.31010000  0.84730000  0.73840000  1.0 -0.1191842016
C  C59  1  0.53720000  0.68990000  0.42830000  1.0 -0.1191842016
C  C60  1  0.46280000  0.89110000  0.15270000  1.0 -0.1191842016
C  C61  1  0.26160000  0.10890000  0.57170000  1.0 -0.1191842016
C  C62  1  0.73840000  0.31010000  0.84730000  1.0 -0.1191842016
C  C63  1  0.42830000  0.53720000  0.68990000  1.0 -0.1191842016
C  C64  1  0.15270000  0.46280000  0.89110000  1.0 -0.1191842016
C  C65  1  0.57170000  0.26160000  0.10890000  1.0 -0.1191842016
C  C66  1  0.84730000  0.73840000  0.31010000  1.0 -0.1191842016
C  C67  1  0.31010000  0.57170000  0.46280000  1.0 -0.1191842016
C  C68  1  0.10890000  0.84730000  0.53720000  1.0 -0.1191842016
C  C69  1  0.89110000  0.42830000  0.73840000  1.0 -0.1191842016
C  C70  1  0.68990000  0.15270000  0.26160000  1.0 -0.1191842016
C  C71  1  0.46280000  0.31010000  0.57170000  1.0 -0.1191842016
C  C72  1  0.53720000  0.10890000  0.84730000  1.0 -0.1191842016
C  C73  1  0.73840000  0.89110000  0.42830000  1.0 -0.1191842016
C  C74  1  0.26160000  0.68990000  0.15270000  1.0 -0.1191842016
C  C75  1  0.57170000  0.46280000  0.31010000  1.0 -0.1191842016
C  C76  1  0.84730000  0.53720000  0.10890000  1.0 -0.1191842016
C  C77  1  0.42830000  0.73840000  0.89110000  1.0 -0.1191842016
C  C78  1  0.15270000  0.26160000  0.68990000  1.0 -0.1191842016
C  C79  1  0.74170000  0.51480000  0.51090000  1.0 -0.1096775565
C  C80  1  0.00390000  0.23080000  0.48910000  1.0 -0.1096775565
C  C81  1  0.99610000  0.48520000  0.22690000  1.0 -0.1096775565
C  C82  1  0.25830000  0.76920000  0.77310000  1.0 -0.1096775565
C  C83  1  0.51090000  0.74170000  0.51480000  1.0 -0.1096775565
C  C84  1  0.48910000  0.00390000  0.23080000  1.0 -0.1096775565
C  C85  1  0.22690000  0.99610000  0.48520000  1.0 -0.1096775565
C  C86  1  0.77310000  0.25830000  0.76920000  1.0 -0.1096775565
C  C87  1  0.51480000  0.51090000  0.74170000  1.0 -0.1096775565
C  C88  1  0.23080000  0.48910000  0.00390000  1.0 -0.1096775565
C  C89  1  0.48520000  0.22690000  0.99610000  1.0 -0.1096775565
C  C90  1  0.76920000  0.77310000  0.25830000  1.0 -0.1096775565
C  C91  1  0.25830000  0.48520000  0.48910000  1.0 -0.1096775565
C  C92  1  0.99610000  0.76920000  0.51090000  1.0 -0.1096775565
C  C93  1  0.00390000  0.51480000  0.77310000  1.0 -0.1096775565
C  C94  1  0.74170000  0.23080000  0.22690000  1.0 -0.1096775565
C  C95  1  0.48910000  0.25830000  0.48520000  1.0 -0.1096775565
C  C96  1  0.51090000  0.99610000  0.76920000  1.0 -0.1096775565
C  C97  1  0.77310000  0.00390000  0.51480000  1.0 -0.1096775565
C  C98  1  0.22690000  0.74170000  0.23080000  1.0 -0.1096775565
C  C99  1  0.48520000  0.48910000  0.25830000  1.0 -0.1096775565
C  C100  1  0.76920000  0.51090000  0.99610000  1.0 -0.1096775565
C  C101  1  0.51480000  0.77310000  0.00390000  1.0 -0.1096775565
C  C102  1  0.23080000  0.22690000  0.74170000  1.0 -0.1096775565
C  C103  1  0.65100000  0.45870000  0.55270000  1.0 -0.1096775565
C  C104  1  0.90600000  0.09830000  0.44730000  1.0 -0.1096775565
C  C105  1  0.09400000  0.54130000  0.19230000  1.0 -0.1047602177
C  C106  1  0.34900000  0.90170000  0.80770000  1.0 -0.1047602177
C  C107  1  0.55270000  0.65100000  0.45870000  1.0 -0.1096775565
C  C108  1  0.44730000  0.90600000  0.09830000  1.0 -0.1096775565
C  C109  1  0.19230000  0.09400000  0.54130000  1.0 -0.1096775565
C  C110  1  0.80770000  0.34900000  0.90170000  1.0 -0.1047602177
C  C111  1  0.45870000  0.55270000  0.65100000  1.0 -0.1047602177
C  C112  1  0.09830000  0.44730000  0.90600000  1.0 -0.1096775565
C  C113  1  0.54130000  0.19230000  0.09400000  1.0 -0.1096775565
C  C114  1  0.90170000  0.80770000  0.34900000  1.0 -0.1047602177
C  C115  1  0.34900000  0.54130000  0.44730000  1.0 -0.1047602177
C  C116  1  0.09400000  0.90170000  0.55270000  1.0 -0.1047602177
C  C117  1  0.90600000  0.45870000  0.80770000  1.0 -0.1096775565
C  C118  1  0.65100000  0.09830000  0.19230000  1.0 -0.1096775565
C  C119  1  0.44730000  0.34900000  0.54130000  1.0 -0.1047602177
C  C120  1  0.55270000  0.09400000  0.90170000  1.0 -0.1096775565
C  C121  1  0.80770000  0.90600000  0.45870000  1.0 -0.1047602177
C  C122  1  0.19230000  0.65100000  0.09830000  1.0 -0.1047602177
C  C123  1  0.54130000  0.44730000  0.34900000  1.0 -0.1096775565
C  C124  1  0.90170000  0.55270000  0.09400000  1.0 -0.1047602177
C  C125  1  0.45870000  0.80770000  0.90600000  1.0 -0.1096775565
C  C126  1  0.09830000  0.19230000  0.65100000  1.0 -0.1096775565
C  C127  1  0.70150000  0.54500000  0.52430000  1.0 -0.1096775565
C  C128  1  0.02070000  0.17720000  0.47570000  1.0 -0.1096775565
C  C129  1  0.97930000  0.45500000  0.15650000  1.0 -0.1096775565
C  C130  1  0.29850000  0.82280000  0.84350000  1.0 -0.1096775565
C  C131  1  0.52430000  0.70150000  0.54500000  1.0 -0.1096775565
C  C132  1  0.47570000  0.02070000  0.17720000  1.0 -0.1096775565
C  C133  1  0.15650000  0.97930000  0.45500000  1.0 -0.1096775565
C  C134  1  0.84350000  0.29850000  0.82280000  1.0 -0.1096775565
C  C135  1  0.54500000  0.52430000  0.70150000  1.0 -0.1096775565
C  C136  1  0.17720000  0.47570000  0.02070000  1.0 -0.1096775565
C  C137  1  0.45500000  0.15650000  0.97930000  1.0 -0.1096775565
C  C138  1  0.82280000  0.84350000  0.29850000  1.0 -0.1096775565
C  C139  1  0.29850000  0.45500000  0.47570000  1.0 -0.1096775565
C  C140  1  0.97930000  0.82280000  0.52430000  1.0 -0.1096775565
C  C141  1  0.02070000  0.54500000  0.84350000  1.0 -0.1096775565
C  C142  1  0.70150000  0.17720000  0.15650000  1.0 -0.1096775565
C  C143  1  0.47570000  0.29850000  0.45500000  1.0 -0.1096775565
C  C144  1  0.52430000  0.97930000  0.82280000  1.0 -0.1096775565
C  C145  1  0.84350000  0.02070000  0.54500000  1.0 -0.1096775565
C  C146  1  0.15650000  0.70150000  0.17720000  1.0 -0.1096775565
C  C147  1  0.45500000  0.47570000  0.29850000  1.0 -0.1096775565
C  C148  1  0.82280000  0.52430000  0.97930000  1.0 -0.1096775565
C  C149  1  0.54500000  0.84350000  0.02070000  1.0 -0.1096775565
C  C150  1  0.17720000  0.15650000  0.70150000  1.0 -0.1096775565
C  C151  1  0.65590000  0.51600000  0.54630000  1.0 0.0136252355
C  C152  1  0.96970000  0.10960000  0.45370000  1.0 0.0136252355
C  C153  1  0.03030000  0.48400000  0.13990000  1.0 0.0136252355
C  C154  1  0.34410000  0.89040000  0.86010000  1.0 0.0136252355
C  C155  1  0.54630000  0.65590000  0.51600000  1.0 0.0136252355
C  C156  1  0.45370000  0.96970000  0.10960000  1.0 0.0136252355
C  C157  1  0.13990000  0.03030000  0.48400000  1.0 0.0136252355
C  C158  1  0.86010000  0.34410000  0.89040000  1.0 0.0136252355
C  C159  1  0.51600000  0.54630000  0.65590000  1.0 0.0136252355
C  C160  1  0.10960000  0.45370000  0.96970000  1.0 0.0136252355
C  C161  1  0.48400000  0.13990000  0.03030000  1.0 0.0136252355
C  C162  1  0.89040000  0.86010000  0.34410000  1.0 0.0136252355
C  C163  1  0.34410000  0.48400000  0.45370000  1.0 0.0136252355
C  C164  1  0.03030000  0.89040000  0.54630000  1.0 0.0136252355
C  C165  1  0.96970000  0.51600000  0.86010000  1.0 0.0136252355
C  C166  1  0.65590000  0.10960000  0.13990000  1.0 0.0136252355
C  C167  1  0.45370000  0.34410000  0.48400000  1.0 0.0136252355
C  C168  1  0.54630000  0.03030000  0.89040000  1.0 0.0136252355
C  C169  1  0.86010000  0.96970000  0.51600000  1.0 0.0136252355
C  C170  1  0.13990000  0.65590000  0.10960000  1.0 0.0136252355
C  C171  1  0.48400000  0.45370000  0.34410000  1.0 0.0136252355
C  C172  1  0.89040000  0.54630000  0.03030000  1.0 0.0136252355
C  C173  1  0.51600000  0.86010000  0.96970000  1.0 0.0136252355
C  C174  1  0.10960000  0.13990000  0.65590000  1.0 0.0136252355
C  C175  1  0.61200000  0.54600000  0.56020000  1.0 0.3626164875
C  C176  1  0.98580000  0.05180000  0.43980000  1.0 0.3626164875
C  C177  1  0.01420000  0.45400000  0.06600000  1.0 0.3626164875
C  C178  1  0.38800000  0.94820000  0.93400000  1.0 0.3626164875
C  C179  1  0.56020000  0.61200000  0.54600000  1.0 0.3626164875
C  C180  1  0.43980000  0.98580000  0.05180000  1.0 0.3626164875
C  C181  1  0.06600000  0.01420000  0.45400000  1.0 0.3626164875
C  C182  1  0.93400000  0.38800000  0.94820000  1.0 0.3626164875
C  C183  1  0.54600000  0.56020000  0.61200000  1.0 0.3626164875
C  C184  1  0.05180000  0.43980000  0.98580000  1.0 0.3626164875
C  C185  1  0.45400000  0.06600000  0.01420000  1.0 0.3626164875
C  C186  1  0.94820000  0.93400000  0.38800000  1.0 0.3626164875
C  C187  1  0.38800000  0.45400000  0.43980000  1.0 0.3626164875
C  C188  1  0.01420000  0.94820000  0.56020000  1.0 0.3626164875
C  C189  1  0.98580000  0.54600000  0.93400000  1.0 0.3626164875
C  C190  1  0.61200000  0.05180000  0.06600000  1.0 0.3626164875
C  C191  1  0.43980000  0.38800000  0.45400000  1.0 0.3626164875
C  C192  1  0.56020000  0.01420000  0.94820000  1.0 0.3626164875
C  C193  1  0.93400000  0.98580000  0.54600000  1.0 0.3626164875
C  C194  1  0.06600000  0.61200000  0.05180000  1.0 0.3626164875
C  C195  1  0.45400000  0.43980000  0.38800000  1.0 0.3626164875
C  C196  1  0.94820000  0.56020000  0.01420000  1.0 0.3626164875
C  C197  1  0.54600000  0.93400000  0.98580000  1.0 0.3626164875
C  C198  1  0.05180000  0.06600000  0.61200000  1.0 0.3626164875
N  N1  1  0.58670000  0.53220000  0.60130000  1.0 -0.4219265362
N  N2  1  0.93090000  0.98540000  0.39870000  1.0 -0.4219265362
N  N3  1  0.06910000  0.46780000  0.05450000  1.0 -0.4219265362
N  N4  1  0.41330000  0.01460000  0.94550000  1.0 -0.4219265362
N  N5  1  0.60130000  0.58670000  0.53220000  1.0 -0.4219265362
N  N6  1  0.39870000  0.93090000  0.98540000  1.0 -0.4219265362
N  N7  1  0.05450000  0.06910000  0.46780000  1.0 -0.4219265362
N  N8  1  0.94550000  0.41330000  0.01460000  1.0 -0.4219265362
N  N9  1  0.53220000  0.60130000  0.58670000  1.0 -0.4219265362
N  N10  1  0.98540000  0.39870000  0.93090000  1.0 -0.4219265362
N  N11  1  0.46780000  0.05450000  0.06910000  1.0 -0.4219265362
N  N12  1  0.01460000  0.94550000  0.41330000  1.0 -0.4219265362
N  N13  1  0.41330000  0.46780000  0.39870000  1.0 -0.4219265362
N  N14  1  0.06910000  0.01460000  0.60130000  1.0 -0.4219265362
N  N15  1  0.93090000  0.53220000  0.94550000  1.0 -0.4219265362
N  N16  1  0.58670000  0.98540000  0.05450000  1.0 -0.4219265362
N  N17  1  0.39870000  0.41330000  0.46780000  1.0 -0.4219265362
N  N18  1  0.60130000  0.06910000  0.01460000  1.0 -0.4219265362
N  N19  1  0.94550000  0.93090000  0.53220000  1.0 -0.4219265362
N  N20  1  0.05450000  0.58670000  0.98540000  1.0 -0.4219265362
N  N21  1  0.46780000  0.39870000  0.41330000  1.0 -0.4219265362
N  N22  1  0.01460000  0.60130000  0.06910000  1.0 -0.4219265362
N  N23  1  0.53220000  0.94550000  0.93090000  1.0 -0.4219265362
N  N24  1  0.98540000  0.05450000  0.58670000  1.0 -0.4219265362
O  O1  1  0.82190000  0.45110000  0.48540000  1.0 -0.1096775565
O  O2  1  0.96570000  0.33650000  0.51460000  1.0 -0.1096775565
O  O3  1  0.03430000  0.54890000  0.37080000  1.0 -0.1096775565
O  O4  1  0.17810000  0.66350000  0.62920000  1.0 -0.1096775565
O  O5  1  0.48540000  0.82190000  0.45110000  1.0 -0.1191842016
O  O6  1  0.51460000  0.96570000  0.33650000  1.0 -0.1096775565
O  O7  1  0.37080000  0.03430000  0.54890000  1.0 -0.1096775565
O  O8  1  0.62920000  0.17810000  0.66350000  1.0 -0.1096775565
O  O9  1  0.45110000  0.48540000  0.82190000  1.0 -0.1096775565
O  O10  1  0.33650000  0.51460000  0.96570000  1.0 -0.1096775565
O  O11  1  0.54890000  0.37080000  0.03430000  1.0 -0.1096775565
O  O12  1  0.66350000  0.62920000  0.17810000  1.0 -0.1191842016
O  O13  1  0.17810000  0.54890000  0.51460000  1.0 -0.1096775565
O  O14  1  0.03430000  0.66350000  0.48540000  1.0 -0.1096775565
O  O15  1  0.96570000  0.45110000  0.62920000  1.0 -0.1191842016
O  O16  1  0.82190000  0.33650000  0.37080000  1.0 -0.1191842016
O  O17  1  0.51460000  0.17810000  0.54890000  1.0 -0.1191842016
O  O18  1  0.48540000  0.03430000  0.66350000  1.0 -0.1096775565
O  O19  1  0.62920000  0.96570000  0.45110000  1.0 -0.1096775565
O  O20  1  0.37080000  0.82190000  0.33650000  1.0 -0.1096775565
O  O21  1  0.54890000  0.51460000  0.17810000  1.0 -0.1191842016
O  O22  1  0.66350000  0.48540000  0.03430000  1.0 -0.1191842016
O  O23  1  0.45110000  0.62920000  0.96570000  1.0 -0.1191842016
O  O24  1  0.33650000  0.37080000  0.82190000  1.0 -0.1096775565
O  O25  1  0.75200000  0.35710000  0.46870000  1.0 -0.1977300795
O  O26  1  0.88840000  0.28330000  0.53130000  1.0 -0.1977300795
O  O27  1  0.11160000  0.64290000  0.39490000  1.0 -0.1944927455
O  O28  1  0.24800000  0.71670000  0.60510000  1.0 -0.1977300795
O  O29  1  0.46870000  0.75200000  0.35710000  1.0 -0.1977300795
O  O30  1  0.53130000  0.88840000  0.28330000  1.0 -0.1977300795
O  O31  1  0.39490000  0.11160000  0.64290000  1.0 -0.1944927455
O  O32  1  0.60510000  0.24800000  0.71670000  1.0 -0.1977300795
O  O33  1  0.35710000  0.46870000  0.75200000  1.0 -0.1977300795
O  O34  1  0.28330000  0.53130000  0.88840000  1.0 -0.1977300795
O  O35  1  0.64290000  0.39490000  0.11160000  1.0 -0.1977300795
O  O36  1  0.71670000  0.60510000  0.24800000  1.0 -0.1977300795
O  O37  1  0.24800000  0.64290000  0.53130000  1.0 -0.1977300795
O  O38  1  0.11160000  0.71670000  0.46870000  1.0 -0.1977300795
O  O39  1  0.88840000  0.35710000  0.60510000  1.0 -0.1977300795
O  O40  1  0.75200000  0.28330000  0.39490000  1.0 -0.1977300795
O  O41  1  0.53130000  0.24800000  0.64290000  1.0 -0.1977300795
O  O42  1  0.46870000  0.11160000  0.71670000  1.0 -0.1977300795
O  O43  1  0.60510000  0.88840000  0.35710000  1.0 -0.1944927455
O  O44  1  0.39490000  0.75200000  0.28330000  1.0 -0.1977300795
O  O45  1  0.64290000  0.53130000  0.24800000  1.0 -0.1977300795
O  O46  1  0.71670000  0.46870000  0.11160000  1.0 -0.1977300795
O  O47  1  0.35710000  0.60510000  0.88840000  1.0 -0.1977300795
O  O48  1  0.28330000  0.39490000  0.75200000  1.0 -0.1977300795
O  O49  1  0.95770000  0.45770000  0.50000000  1.0 -0.3459802301
O  O50  1  0.04230000  0.54230000  0.50000000  1.0 -0.3459802301
O  O51  1  0.50000000  0.95770000  0.45770000  1.0 -0.3459802301
O  O52  1  0.50000000  0.04230000  0.54230000  1.0 -0.3459802301
O  O53  1  0.45770000  0.50000000  0.95770000  1.0 -0.3459802301
O  O54  1  0.54230000  0.50000000  0.04230000  1.0 -0.3459802301
O  O55  1  0.83930000  0.46190000  0.51320000  1.0 -0.1191842016
O  O56  1  0.94870000  0.32610000  0.48680000  1.0 -0.1191842016
O  O57  1  0.05130000  0.53810000  0.37740000  1.0 -0.1191842016
O  O58  1  0.16070000  0.67390000  0.62260000  1.0 -0.1191842016
O  O59  1  0.51320000  0.83930000  0.46190000  1.0 -0.1191842016
O  O60  1  0.48680000  0.94870000  0.32610000  1.0 -0.1191842016
O  O61  1  0.37740000  0.05130000  0.53810000  1.0 -0.1191842016
O  O62  1  0.62260000  0.16070000  0.67390000  1.0 -0.1191842016
O  O63  1  0.46190000  0.51320000  0.83930000  1.0 -0.1191842016
O  O64  1  0.32610000  0.48680000  0.94870000  1.0 -0.1191842016
O  O65  1  0.53810000  0.37740000  0.05130000  1.0 -0.1191842016
O  O66  1  0.67390000  0.62260000  0.16070000  1.0 -0.1191842016
O  O67  1  0.16070000  0.53810000  0.48680000  1.0 -0.1191842016
O  O68  1  0.05130000  0.67390000  0.51320000  1.0 -0.1191842016
O  O69  1  0.94870000  0.46190000  0.62260000  1.0 -0.1191842016
O  O70  1  0.83930000  0.32610000  0.37740000  1.0 -0.1191842016
O  O71  1  0.48680000  0.16070000  0.53810000  1.0 -0.1191842016
O  O72  1  0.51320000  0.05130000  0.67390000  1.0 -0.1191842016
O  O73  1  0.62260000  0.94870000  0.46190000  1.0 -0.1191842016
O  O74  1  0.37740000  0.83930000  0.32610000  1.0 -0.1191842016
O  O75  1  0.53810000  0.48680000  0.16070000  1.0 -0.1191842016
O  O76  1  0.67390000  0.51320000  0.05130000  1.0 -0.1191842016
O  O77  1  0.46190000  0.62260000  0.94870000  1.0 -0.1191842016
O  O78  1  0.32610000  0.37740000  0.83930000  1.0 -0.1191842016
O  O79  1  0.78790000  0.38730000  0.53420000  1.0 -0.1581213511
O  O80  1  0.85310000  0.25370000  0.46580000  1.0 -0.1581213511
O  O81  1  0.14690000  0.61270000  0.40060000  1.0 -0.1581213511
O  O82  1  0.21210000  0.74630000  0.59940000  1.0 -0.1581213511
O  O83  1  0.53420000  0.78790000  0.38730000  1.0 -0.1581213511
O  O84  1  0.46580000  0.85310000  0.25370000  1.0 -0.1581213511
O  O85  1  0.40060000  0.14690000  0.61270000  1.0 -0.1581213511
O  O86  1  0.59940000  0.21210000  0.74630000  1.0 -0.1581213511
O  O87  1  0.38730000  0.53420000  0.78790000  1.0 -0.1581213511
O  O88  1  0.25370000  0.46580000  0.85310000  1.0 -0.1581213511
O  O89  1  0.61270000  0.40060000  0.14690000  1.0 -0.1581213511
O  O90  1  0.74630000  0.59940000  0.21210000  1.0 -0.1581213511
O  O91  1  0.21210000  0.61270000  0.46580000  1.0 -0.1581213511
O  O92  1  0.14690000  0.74630000  0.53420000  1.0 -0.1581213511
O  O93  1  0.85310000  0.38730000  0.59940000  1.0 -0.1581213511
O  O94  1  0.78790000  0.25370000  0.40060000  1.0 -0.1581213511
O  O95  1  0.46580000  0.21210000  0.61270000  1.0 -0.1581213511
O  O96  1  0.53420000  0.14690000  0.74630000  1.0 -0.1581213511
O  O97  1  0.59940000  0.85310000  0.38730000  1.0 -0.1581213511
O  O98  1  0.40060000  0.78790000  0.25370000  1.0 -0.1581213511
O  O99  1  0.61270000  0.46580000  0.21210000  1.0 -0.1581213511
O  O100  1  0.74630000  0.53420000  0.14690000  1.0 -0.1581213511
O  O101  1  0.38730000  0.59940000  0.85310000  1.0 -0.1581213511
O  O102  1  0.25370000  0.40060000  0.78790000  1.0 -0.1581213511
