# DDEC6 charges by PACMAN v1.1 (https://github.com/mtap-research/PACMAN-charge/)
data_CUWVAT_ASR_pacman
_symmetry_space_group_name_H-M   'P 1'
_cell_length_a   10.39230000
_cell_length_b   11.29420000
_cell_length_c   12.32820000
_cell_angle_alpha   98.46400000
_cell_angle_beta   109.47800000
_cell_angle_gamma   102.78800000
_symmetry_Int_Tables_number   1
_chemical_formula_structural   EuH3C14N7O6
_chemical_formula_sum   'Eu2 H6 C28 N14 O12'
_cell_volume   1291.34021820
_cell_formula_units_Z   2
loop_
 _symmetry_equiv_pos_site_id
 _symmetry_equiv_pos_as_xyz
  1  'x, y, z'
loop_
 _atom_site_type_symbol
 _atom_site_label
 _atom_site_symmetry_multiplicity
 _atom_site_fract_x
 _atom_site_fract_y
 _atom_site_fract_z
 _atom_site_occupancy
 _atom_site_charge
Eu  Eu1  1  0.39329000  0.45384000  0.82555000  1.0 2.0206908551
Eu  Eu2  1  0.60671000  0.54616000  0.17445000  1.0 2.0206908551
H  H1  1  0.21290000  0.08620000  0.48460000  1.0 0.161841568
H  H2  1  0.78710000  0.91380000  0.51540000  1.0 0.161841568
H  H3  1  0.91320000  0.61190000  0.11730000  1.0 0.1504282621
H  H4  1  0.08680000  0.38810000  0.88270000  1.0 0.1504282621
H  H5  1  0.54660000  0.13850000  0.17320000  1.0 0.1434489977
H  H6  1  0.45340000  0.86150000  0.82680000  1.0 0.1434489977
C  C1  1  0.19530000  0.23070000  0.66480000  1.0 0.584660348
C  C2  1  0.80470000  0.76930000  0.33520000  1.0 0.584660348
C  C3  1  0.09590000  0.11000000  0.58000000  1.0 -0.0455516014
C  C4  1  0.90410000  0.89000000  0.42000000  1.0 -0.0455516014
C  C5  1  0.12690000  0.05160000  0.49160000  1.0 -0.1321712318
C  C6  1  0.87310000  0.94840000  0.50840000  1.0 -0.1389918882
C  C7  1  0.96650000  0.05870000  0.58890000  1.0 0.1818212313
C  C8  1  0.03350000  0.94130000  0.41110000  1.0 0.1818212313
C  C9  1  0.70110000  0.48150000  0.92230000  1.0 0.6494108555
C  C10  1  0.29890000  0.51850000  0.07770000  1.0 0.6494108555
C  C11  1  0.85370000  0.48940000  0.96090000  1.0 -0.0784056294
C  C12  1  0.14630000  0.51060000  0.03910000  1.0 -0.0784056294
C  C13  1  0.90600000  0.42070000  0.89050000  1.0 0.206611101
C  C14  1  0.09400000  0.57930000  0.10950000  1.0 0.206611101
C  C15  1  0.94800000  0.56700000  0.06980000  1.0 -0.1508769476
C  C16  1  0.05200000  0.43300000  0.93020000  1.0 -0.1389918882
C  C17  1  0.48070000  0.25190000  0.00060000  1.0 0.6494108555
C  C18  1  0.51930000  0.74810000  0.99940000  1.0 0.6494108555
C  C19  1  0.49000000  0.12100000  0.99740000  1.0 -0.0784056294
C  C20  1  0.51000000  0.87900000  0.00260000  1.0 -0.0784056294
C  C21  1  0.52770000  0.08220000  0.10280000  1.0 -0.1508769476
C  C22  1  0.47230000  0.91780000  0.89720000  1.0 -0.1508769476
C  C23  1  0.46190000  0.03670000  0.89370000  1.0 0.1923080873
C  C24  1  0.53810000  0.96330000  0.10630000  1.0 0.1923080873
C  C25  1  0.43650000  0.49200000  0.56050000  1.0 0.2229517665
C  C26  1  0.56350000  0.50800000  0.43950000  1.0 0.2229517665
C  C27  1  0.54100000  0.66400000  0.57830000  1.0 0.2900641677
C  C28  1  0.45900000  0.33600000  0.42170000  1.0 0.2900641677
N  N1  1  0.90700000  0.14900000  0.63600000  1.0 -0.1215400058
N  N2  1  0.09300000  0.85100000  0.36400000  1.0 -0.1215400058
N  N3  1  0.44200000  0.06900000  0.78060000  1.0 -0.0278787906
N  N4  1  0.55800000  0.93100000  0.21940000  1.0 -0.0278787906
N  N5  1  0.82500000  0.34100000  0.78900000  1.0 -0.1950261924
N  N6  1  0.17500000  0.65900000  0.21100000  1.0 -0.1927017752
N  N7  1  0.42950000  0.54080000  0.66490000  1.0 -0.358023319
N  N8  1  0.57050000  0.45920000  0.33510000  1.0 -0.358023319
N  N9  1  0.50260000  0.65830000  0.67230000  1.0 -0.1389918882
N  N10  1  0.49740000  0.34170000  0.32770000  1.0 -0.1389918882
N  N11  1  0.50000000  0.55500000  0.49700000  1.0 -0.0433068718
N  N12  1  0.50000000  0.44500000  0.50300000  1.0 -0.0455516014
N  N13  1  0.66100000  0.75000000  0.57000000  1.0 -0.3392878655
N  N14  1  0.33900000  0.25000000  0.43000000  1.0 -0.3392878655
O  O1  1  0.16790000  0.28110000  0.74610000  1.0 -0.5320984158
O  O2  1  0.83210000  0.71890000  0.25390000  1.0 -0.5320984158
O  O3  1  0.30990000  0.27920000  0.65070000  1.0 -0.5757533345
O  O4  1  0.69010000  0.72080000  0.34930000  1.0 -0.5743957394
O  O5  1  0.62020000  0.43460000  0.81590000  1.0 -0.538519803
O  O6  1  0.37980000  0.56540000  0.18410000  1.0 -0.538519803
O  O7  1  0.65070000  0.51700000  0.99840000  1.0 -0.7309021983
O  O8  1  0.34930000  0.48300000  0.00160000  1.0 -0.7309021983
O  O9  1  0.43650000  0.27880000  0.90370000  1.0 -0.5743957394
O  O10  1  0.56350000  0.72120000  0.09630000  1.0 -0.5743957394
O  O11  1  0.52020000  0.32490000  0.10120000  1.0 -0.6441883478
O  O12  1  0.47980000  0.67510000  0.89880000  1.0 -0.6455847058
