# DDEC6 charges by PACMAN v1.1 (https://github.com/mtap-research/PACMAN-charge/)
data_CUWXID_FSR_pacman
_symmetry_space_group_name_H-M   'P 1'
_cell_length_a   16.02860000
_cell_length_b   16.02860000
_cell_length_c   14.33220000
_cell_angle_alpha   85.40640000
_cell_angle_beta   94.59360000
_cell_angle_gamma   127.37000000
_symmetry_Int_Tables_number   1
_chemical_formula_structural   EuH14C19(NO4)2
_chemical_formula_sum   'Eu4 H56 C76 N8 O32'
_cell_volume   2914.63807674
_cell_formula_units_Z   4
loop_
 _symmetry_equiv_pos_site_id
 _symmetry_equiv_pos_as_xyz
  1  'x, y, z'
loop_
 _atom_site_type_symbol
 _atom_site_label
 _atom_site_symmetry_multiplicity
 _atom_site_fract_x
 _atom_site_fract_y
 _atom_site_fract_z
 _atom_site_occupancy
 _atom_site_charge
Eu  Eu1  1  0.48944000  0.11900000  0.47611000  1.0 2.0693197938
Eu  Eu2  1  0.11900000  0.48944000  0.02389000  1.0 2.0693197938
Eu  Eu3  1  0.51056000  0.88100000  0.52389000  1.0 2.0693197938
Eu  Eu4  1  0.88100000  0.51056000  0.97611000  1.0 2.0693197938
H  H1  1  0.37490000  0.30170000  0.61920000  1.0 0.1283363493
H  H2  1  0.30170000  0.37490000  0.88080000  1.0 0.1283363493
H  H3  1  0.62510000  0.69830000  0.38080000  1.0 0.1283363493
H  H4  1  0.69830000  0.62510000  0.11920000  1.0 0.1283363493
H  H5  1  0.25640000  0.32900000  0.65950000  1.0 0.1215618079
H  H6  1  0.32900000  0.25640000  0.84050000  1.0 0.1215618079
H  H7  1  0.74360000  0.67100000  0.34050000  1.0 0.1215618079
H  H8  1  0.67100000  0.74360000  0.15950000  1.0 0.1215618079
H  H9  1  0.01950000  0.04210000  0.59540000  1.0 0.1283363493
H  H10  1  0.04210000  0.01950000  0.90460000  1.0 0.1283363493
H  H11  1  0.98050000  0.95790000  0.40460000  1.0 0.1283363493
H  H12  1  0.95790000  0.98050000  0.09540000  1.0 0.1283363493
H  H13  1  0.13460000  0.01620000  0.53690000  1.0 0.1283363493
H  H14  1  0.01620000  0.13460000  0.96310000  1.0 0.1283363493
H  H15  1  0.86540000  0.98380000  0.46310000  1.0 0.1283363493
H  H16  1  0.98380000  0.86540000  0.03690000  1.0 0.1283363493
H  H17  1  0.09000000  0.27800000  0.64600000  1.0 0.0910022052
H  H18  1  0.27800000  0.09000000  0.85400000  1.0 0.0910022052
H  H19  1  0.91000000  0.72200000  0.35400000  1.0 0.0910022052
H  H20  1  0.72200000  0.91000000  0.14600000  1.0 0.0910022052
H  H21  1  0.77580000  0.08120000  0.60930000  1.0 0.149131337
H  H22  1  0.08120000  0.77580000  0.89070000  1.0 0.149131337
H  H23  1  0.22420000  0.91880000  0.39070000  1.0 0.149131337
H  H24  1  0.91880000  0.22420000  0.10930000  1.0 0.149131337
H  H25  1  0.99860000  0.27220000  0.79760000  1.0 0.1215618079
H  H26  1  0.27220000  0.99860000  0.70240000  1.0 0.1215618079
H  H27  1  0.00140000  0.72780000  0.20240000  1.0 0.1215618079
H  H28  1  0.72780000  0.00140000  0.29760000  1.0 0.1215618079
H  H29  1  0.74950000  0.27290000  0.74470000  1.0 0.1215618079
H  H30  1  0.27290000  0.74950000  0.75530000  1.0 0.1215618079
H  H31  1  0.25050000  0.72710000  0.25530000  1.0 0.1215618079
H  H32  1  0.72710000  0.25050000  0.24470000  1.0 0.1215618079
H  H33  1  0.77140000  0.48440000  0.48720000  1.0 0.1677771451
H  H34  1  0.48440000  0.77140000  0.01280000  1.0 0.1677771451
H  H35  1  0.22860000  0.51560000  0.51280000  1.0 0.1677771451
H  H36  1  0.51560000  0.22860000  0.98720000  1.0 0.1677771451
H  H37  1  0.86540000  0.56560000  0.42300000  1.0 0.1283363493
H  H38  1  0.56560000  0.86540000  0.07700000  1.0 0.1283363493
H  H39  1  0.13460000  0.43440000  0.57700000  1.0 0.1283363493
H  H40  1  0.43440000  0.13460000  0.92300000  1.0 0.1283363493
H  H41  1  0.76790000  0.56610000  0.42270000  1.0 0.1215618079
H  H42  1  0.56610000  0.76790000  0.07730000  1.0 0.1215618079
H  H43  1  0.23210000  0.43390000  0.57730000  1.0 0.1215618079
H  H44  1  0.43390000  0.23210000  0.92270000  1.0 0.1215618079
H  H45  1  0.82110000  0.55910000  0.25250000  1.0 0.1283363493
H  H46  1  0.55910000  0.82110000  0.24750000  1.0 0.1283363493
H  H47  1  0.17890000  0.44090000  0.74750000  1.0 0.1283363493
H  H48  1  0.44090000  0.17890000  0.75250000  1.0 0.1283363493
H  H49  1  0.77540000  0.44660000  0.22150000  1.0 0.1609251442
H  H50  1  0.44660000  0.77540000  0.27850000  1.0 0.1609251442
H  H51  1  0.22460000  0.55340000  0.77850000  1.0 0.1609251442
H  H52  1  0.55340000  0.22460000  0.72150000  1.0 0.1609251442
H  H53  1  0.70140000  0.47940000  0.22490000  1.0 0.1412889341
H  H54  1  0.47940000  0.70140000  0.27510000  1.0 0.1412889341
H  H55  1  0.29860000  0.52060000  0.77510000  1.0 0.1412889341
H  H56  1  0.52060000  0.29860000  0.72490000  1.0 0.1412889341
C  C1  1  0.34410000  0.14890000  0.53020000  1.0 0.5473775061
C  C2  1  0.14890000  0.34410000  0.96980000  1.0 0.5473775061
C  C3  1  0.65590000  0.85110000  0.46980000  1.0 0.5473775061
C  C4  1  0.85110000  0.65590000  0.03020000  1.0 0.5473775061
C  C5  1  0.26730000  0.15950000  0.56860000  1.0 -0.0173582902
C  C6  1  0.15950000  0.26730000  0.93140000  1.0 -0.0173582902
C  C7  1  0.73270000  0.84050000  0.43140000  1.0 -0.0173582902
C  C8  1  0.84050000  0.73270000  0.06860000  1.0 -0.0173582902
C  C9  1  0.30310000  0.24990000  0.60970000  1.0 -0.0893381407
C  C10  1  0.24990000  0.30310000  0.89030000  1.0 -0.0893381407
C  C11  1  0.69690000  0.75010000  0.39030000  1.0 -0.0893381407
C  C12  1  0.75010000  0.69690000  0.10970000  1.0 -0.0893381407
C  C13  1  0.23160000  0.26440000  0.63750000  1.0 -0.166143289
C  C14  1  0.26440000  0.23160000  0.86250000  1.0 -0.166143289
C  C15  1  0.76840000  0.73560000  0.36250000  1.0 -0.166143289
C  C16  1  0.73560000  0.76840000  0.13750000  1.0 -0.166143289
C  C17  1  0.12760000  0.18700000  0.63320000  1.0 0.0707686411
C  C18  1  0.18700000  0.12760000  0.86680000  1.0 0.0707686411
C  C19  1  0.87240000  0.81300000  0.36680000  1.0 0.0707686411
C  C20  1  0.81300000  0.87240000  0.13320000  1.0 0.0707686411
C  C21  1  0.09130000  0.09590000  0.59760000  1.0 -0.1386819539
C  C22  1  0.09590000  0.09130000  0.90240000  1.0 -0.1386819539
C  C23  1  0.90870000  0.90410000  0.40240000  1.0 -0.1386819539
C  C24  1  0.90410000  0.90870000  0.09760000  1.0 -0.1386819539
C  C25  1  0.16050000  0.07950000  0.56290000  1.0 -0.0893381407
C  C26  1  0.07950000  0.16050000  0.93710000  1.0 -0.0893381407
C  C27  1  0.83950000  0.92050000  0.43710000  1.0 -0.0893381407
C  C28  1  0.92050000  0.83950000  0.06290000  1.0 -0.0893381407
C  C29  1  0.05260000  0.20560000  0.66600000  1.0 0.0596636523
C  C30  1  0.20560000  0.05260000  0.83400000  1.0 0.0596636523
C  C31  1  0.94740000  0.79440000  0.33400000  1.0 0.0596636523
C  C32  1  0.79440000  0.94740000  0.16600000  1.0 0.0596636523
C  C33  1  0.65320000  0.14100000  0.60780000  1.0 0.6216909381
C  C34  1  0.14100000  0.65320000  0.89220000  1.0 0.6216909381
C  C35  1  0.34680000  0.85900000  0.39220000  1.0 0.6216909381
C  C36  1  0.85900000  0.34680000  0.10780000  1.0 0.6216909381
C  C37  1  0.74880000  0.17360000  0.66620000  1.0 -0.0105705654
C  C38  1  0.17360000  0.74880000  0.83380000  1.0 -0.0105705654
C  C39  1  0.25120000  0.82640000  0.33380000  1.0 -0.0105705654
C  C40  1  0.82640000  0.25120000  0.16620000  1.0 -0.0105705654
C  C41  1  0.80420000  0.13520000  0.65050000  1.0 -0.1610859541
C  C42  1  0.13520000  0.80420000  0.84950000  1.0 -0.1610859541
C  C43  1  0.19580000  0.86480000  0.34950000  1.0 -0.1610859541
C  C44  1  0.86480000  0.19580000  0.15050000  1.0 -0.1610859541
C  C45  1  0.89990000  0.17530000  0.69450000  1.0 0.1803981642
C  C46  1  0.17530000  0.89990000  0.80550000  1.0 0.1803981642
C  C47  1  0.10010000  0.82470000  0.30550000  1.0 0.1803981642
C  C48  1  0.82470000  0.10010000  0.19450000  1.0 0.1803981642
C  C49  1  0.93620000  0.24780000  0.76400000  1.0 -0.1877424253
C  C50  1  0.24780000  0.93620000  0.73600000  1.0 -0.1877424253
C  C51  1  0.06380000  0.75220000  0.23600000  1.0 -0.1877424253
C  C52  1  0.75220000  0.06380000  0.26400000  1.0 -0.1877424253
C  C53  1  0.87940000  0.28400000  0.78340000  1.0 -0.0105705654
C  C54  1  0.28400000  0.87940000  0.71660000  1.0 -0.0105705654
C  C55  1  0.12060000  0.71600000  0.21660000  1.0 -0.0105705654
C  C56  1  0.71600000  0.12060000  0.28340000  1.0 -0.0105705654
C  C57  1  0.78660000  0.24760000  0.73330000  1.0 -0.112604214
C  C58  1  0.24760000  0.78660000  0.76670000  1.0 -0.112604214
C  C59  1  0.21340000  0.75240000  0.26670000  1.0 -0.112604214
C  C60  1  0.75240000  0.21340000  0.23330000  1.0 -0.112604214
C  C61  1  0.92310000  0.36690000  0.85460000  1.0 0.6352248432
C  C62  1  0.36690000  0.92310000  0.64540000  1.0 0.6352248432
C  C63  1  0.07690000  0.63310000  0.14540000  1.0 0.6352248432
C  C64  1  0.63310000  0.07690000  0.35460000  1.0 0.6352248432
C  C65  1  0.64880000  0.33720000  0.35090000  1.0 0.4950260015
C  C66  1  0.33720000  0.64880000  0.14910000  1.0 0.4920048408
C  C67  1  0.35120000  0.66280000  0.64910000  1.0 0.4920048408
C  C68  1  0.66280000  0.35120000  0.85090000  1.0 0.4920048408
C  C69  1  0.79000000  0.52200000  0.42800000  1.0 -0.3101323975
C  C70  1  0.52200000  0.79000000  0.07200000  1.0 -0.3101323975
C  C71  1  0.21000000  0.47800000  0.57200000  1.0 -0.3101323975
C  C72  1  0.47800000  0.21000000  0.92800000  1.0 -0.3101323975
C  C73  1  0.76140000  0.48660000  0.25400000  1.0 -0.3372101096
C  C74  1  0.48660000  0.76140000  0.24600000  1.0 -0.3372101096
C  C75  1  0.23860000  0.51340000  0.74600000  1.0 -0.3372101096
C  C76  1  0.51340000  0.23860000  0.75400000  1.0 -0.3372101096
N  N1  1  0.95840000  0.14200000  0.66690000  1.0 -0.2099661474
N  N2  1  0.14200000  0.95840000  0.83310000  1.0 -0.2099661474
N  N3  1  0.04160000  0.85800000  0.33310000  1.0 -0.2099661474
N  N4  1  0.85800000  0.04160000  0.16690000  1.0 -0.2099661474
N  N5  1  0.73940000  0.44720000  0.35140000  1.0 0.0338354621
N  N6  1  0.44720000  0.73940000  0.14860000  1.0 0.0338354621
N  N7  1  0.26060000  0.55280000  0.64860000  1.0 0.0338354621
N  N8  1  0.55280000  0.26060000  0.85140000  1.0 0.0338354621
O  O1  1  0.31050000  0.07350000  0.47810000  1.0 -0.5686561672
O  O2  1  0.07350000  0.31050000  0.02190000  1.0 -0.5686561672
O  O3  1  0.68950000  0.92650000  0.52190000  1.0 -0.5686561672
O  O4  1  0.92650000  0.68950000  0.97810000  1.0 -0.5686561672
O  O5  1  0.43870000  0.21390000  0.54920000  1.0 -0.5686561672
O  O6  1  0.21390000  0.43870000  0.95080000  1.0 -0.5686561672
O  O7  1  0.56130000  0.78610000  0.45080000  1.0 -0.5686561672
O  O8  1  0.78610000  0.56130000  0.04920000  1.0 -0.5686561672
O  O9  1  0.62780000  0.20200000  0.59710000  1.0 -0.6026877968
O  O10  1  0.20200000  0.62780000  0.90290000  1.0 -0.6026877968
O  O11  1  0.37220000  0.79800000  0.40290000  1.0 -0.6026877968
O  O12  1  0.79800000  0.37220000  0.09710000  1.0 -0.6026877968
O  O13  1  0.60090000  0.05490000  0.56600000  1.0 -0.6995481757
O  O14  1  0.05490000  0.60090000  0.93400000  1.0 -0.6995481757
O  O15  1  0.39910000  0.94510000  0.43400000  1.0 -0.6995481757
O  O16  1  0.94510000  0.39910000  0.06600000  1.0 -0.6995481757
O  O17  1  0.86460000  0.38920000  0.87620000  1.0 -0.6184801368
O  O18  1  0.38920000  0.86460000  0.62380000  1.0 -0.6184801368
O  O19  1  0.13540000  0.61080000  0.12380000  1.0 -0.6184801368
O  O20  1  0.61080000  0.13540000  0.37620000  1.0 -0.6184801368
O  O21  1  0.01430000  0.40590000  0.88790000  1.0 -0.6522228328
O  O22  1  0.40590000  0.01430000  0.61210000  1.0 -0.6522228328
O  O23  1  0.98570000  0.59410000  0.11210000  1.0 -0.6522228328
O  O24  1  0.59410000  0.98570000  0.38790000  1.0 -0.6522228328
O  O25  1  0.61450000  0.30710000  0.43140000  1.0 -0.5423949418
O  O26  1  0.30710000  0.61450000  0.06860000  1.0 -0.5423949418
O  O27  1  0.38550000  0.69290000  0.56860000  1.0 -0.5423949418
O  O28  1  0.69290000  0.38550000  0.93140000  1.0 -0.5423949418
O  O29  1  0.43510000  0.14110000  0.31970000  1.0 -0.46540018
O  O30  1  0.14110000  0.43510000  0.18030000  1.0 -0.4524725584
O  O31  1  0.56490000  0.85890000  0.68030000  1.0 -0.4524725584
O  O32  1  0.85890000  0.56490000  0.81970000  1.0 -0.4524725584
