# DDEC6 charges by PACMAN v1.1 (https://github.com/mtap-research/PACMAN-charge/)
data_CUXFIL_FSR_pacman
_symmetry_space_group_name_H-M   'P 1'
_cell_length_a   12.28300000
_cell_length_b   13.38600000
_cell_length_c   13.93100000
_cell_angle_alpha   102.14000000
_cell_angle_beta   101.47000000
_cell_angle_gamma   95.13000000
_symmetry_Int_Tables_number   1
_chemical_formula_structural   Mn3H39C45(NO7)2
_chemical_formula_sum   'Mn6 H78 C90 N4 O28'
_cell_volume   2173.90838376
_cell_formula_units_Z   2
loop_
 _symmetry_equiv_pos_site_id
 _symmetry_equiv_pos_as_xyz
  1  'x, y, z'
loop_
 _atom_site_type_symbol
 _atom_site_label
 _atom_site_symmetry_multiplicity
 _atom_site_fract_x
 _atom_site_fract_y
 _atom_site_fract_z
 _atom_site_occupancy
 _atom_site_charge
Mn  Mn1  1  0.00000000  0.00000000  0.00000000  1.0 1.0902062082
Mn  Mn2  1  0.89857000  0.88341000  0.75075000  1.0 0.9704058492
Mn  Mn3  1  0.10143000  0.11659000  0.24925000  1.0 0.9704058492
Mn  Mn4  1  0.08690000  0.75711000  0.60780000  1.0 0.9326475286
Mn  Mn5  1  0.91310000  0.24289000  0.39220000  1.0 0.9326475286
Mn  Mn6  1  0.00000000  0.50000000  0.50000000  1.0 1.0715048933
H  H1  1  0.52150000  0.91010000  0.76600000  1.0 0.130629974
H  H2  1  0.47850000  0.08990000  0.23400000  1.0 0.130629974
H  H3  1  0.73990000  0.12810000  0.98260000  1.0 0.1189097384
H  H4  1  0.26010000  0.87190000  0.01740000  1.0 0.1189097384
H  H5  1  0.59340000  0.20480000  0.03320000  1.0 0.1189097384
H  H6  1  0.40660000  0.79520000  0.96680000  1.0 0.1189097384
H  H7  1  0.38630000  0.20410000  0.01940000  1.0 0.130629974
H  H8  1  0.61370000  0.79590000  0.98060000  1.0 0.130629974
H  H9  1  0.20510000  0.12490000  0.94890000  1.0 0.1189097384
H  H10  1  0.79490000  0.87510000  0.05110000  1.0 0.1189097384
H  H11  1  0.31510000  0.90800000  0.75340000  1.0 0.130629974
H  H12  1  0.68490000  0.09200000  0.24660000  1.0 0.130629974
H  H13  1  0.97380000  0.69440000  0.08750000  1.0 0.1189097384
H  H14  1  0.02620000  0.30560000  0.91250000  1.0 0.1189097384
H  H15  1  0.79700000  0.60000000  0.79880000  1.0 0.1189097384
H  H16  1  0.20300000  0.40000000  0.20120000  1.0 0.1189097384
H  H17  1  0.72730000  0.44750000  0.82870000  1.0 0.1189097384
H  H18  1  0.27270000  0.55250000  0.17130000  1.0 0.1189097384
H  H19  1  0.72030000  0.32850000  0.94630000  1.0 0.1189097384
H  H20  1  0.27970000  0.67150000  0.05370000  1.0 0.1189097384
H  H21  1  0.78120000  0.29550000  0.10280000  1.0 0.1189097384
H  H22  1  0.21880000  0.70450000  0.89720000  1.0 0.1189097384
H  H23  1  0.96940000  0.57580000  0.20340000  1.0 0.1189097384
H  H24  1  0.03060000  0.42420000  0.79660000  1.0 0.1189097384
H  H25  1  0.66240000  0.75140000  0.58380000  1.0 0.130629974
H  H26  1  0.33760000  0.24860000  0.41620000  1.0 0.130629974
H  H27  1  0.77490000  0.54590000  0.38010000  1.0 0.1098870212
H  H28  1  0.22510000  0.45410000  0.61990000  1.0 0.1098870212
H  H29  1  0.59280000  0.47200000  0.30110000  1.0 0.130629974
H  H30  1  0.40720000  0.52800000  0.69890000  1.0 0.130629974
H  H31  1  0.38770000  0.45650000  0.30060000  1.0 0.1189097384
H  H32  1  0.61230000  0.54350000  0.69940000  1.0 0.1189097384
H  H33  1  0.24270000  0.51140000  0.37160000  1.0 0.1189097384
H  H34  1  0.75730000  0.48860000  0.62840000  1.0 0.1189097384
H  H35  1  0.45700000  0.74160000  0.57770000  1.0 0.130629974
H  H36  1  0.54300000  0.25840000  0.42230000  1.0 0.130629974
H  H37  1  0.91790000  0.12940000  0.78480000  1.0 0.1098870212
H  H38  1  0.08210000  0.87060000  0.21520000  1.0 0.1098870212
H  H39  1  0.70580000  0.02400000  0.57870000  1.0 0.130629974
H  H40  1  0.29420000  0.97600000  0.42130000  1.0 0.130629974
H  H41  1  0.63720000  0.12020000  0.59290000  1.0 0.1189097384
H  H42  1  0.36280000  0.87980000  0.40710000  1.0 0.1189097384
H  H43  1  0.73730000  0.12130000  0.53480000  1.0 0.130629974
H  H44  1  0.26270000  0.87870000  0.46520000  1.0 0.130629974
H  H45  1  0.80700000  0.29880000  0.69550000  1.0 0.1393512064
H  H46  1  0.19300000  0.70120000  0.30450000  1.0 0.1393512064
H  H47  1  0.70370000  0.25760000  0.73740000  1.0 0.130629974
H  H48  1  0.29630000  0.74240000  0.26260000  1.0 0.130629974
H  H49  1  0.82910000  0.26810000  0.80200000  1.0 0.1189097384
H  H50  1  0.17090000  0.73190000  0.19800000  1.0 0.1189097384
H  H51  1  0.98430000  0.71540000  0.36690000  1.0 0.0958576152
H  H52  1  0.01570000  0.28460000  0.63310000  1.0 0.0958576152
H  H53  1  0.80110000  0.79480000  0.21880000  1.0 0.1098870212
H  H54  1  0.19890000  0.20520000  0.78120000  1.0 0.1098870212
H  H55  1  0.83720000  0.69470000  0.25550000  1.0 0.0889977623
H  H56  1  0.16280000  0.30530000  0.74450000  1.0 0.0889977623
H  H57  1  0.72760000  0.74040000  0.28120000  1.0 0.0889977623
H  H58  1  0.27240000  0.25960000  0.71880000  1.0 0.0889977623
H  H59  1  0.88050000  0.96860000  0.38810000  1.0 0.1098870212
H  H60  1  0.11950000  0.03140000  0.61190000  1.0 0.1098870212
H  H61  1  0.76780000  0.90690000  0.39940000  1.0 0.0454147631
H  H62  1  0.23220000  0.09310000  0.60060000  1.0 0.0454147631
H  H63  1  0.87780000  0.92940000  0.48860000  1.0 0.0715386206
H  H64  1  0.12220000  0.07060000  0.51140000  1.0 0.0715386206
H  H65  1  0.04990000  0.06530000  0.48160000  1.0 0.0889977623
H  H66  1  0.95010000  0.93470000  0.51840000  1.0 0.0889977623
H  H67  1  0.28080000  0.13850000  0.59250000  1.0 0.1098870212
H  H68  1  0.71920000  0.86150000  0.40750000  1.0 0.1098870212
H  H69  1  0.19470000  0.03470000  0.56880000  1.0 0.0889977623
H  H70  1  0.80530000  0.96530000  0.43120000  1.0 0.0889977623
H  H71  1  0.25410000  0.09080000  0.68280000  1.0 0.0958576152
H  H72  1  0.74590000  0.90920000  0.31720000  1.0 0.0958576152
H  H73  1  0.04990000  0.27180000  0.67990000  1.0 0.0715386206
H  H74  1  0.95010000  0.72820000  0.32010000  1.0 0.0715386206
H  H75  1  0.18400000  0.29180000  0.70830000  1.0 0.0889977623
H  H76  1  0.81600000  0.70820000  0.29170000  1.0 0.0889977623
H  H77  1  0.11830000  0.21220000  0.75510000  1.0 0.0889977623
H  H78  1  0.88170000  0.78780000  0.24490000  1.0 0.0889977623
C  C1  1  0.53508000  0.96861000  0.82108000  1.0 -0.1597211412
C  C2  1  0.46492000  0.03139000  0.17892000  1.0 -0.1597211412
C  C3  1  0.64379000  0.01031000  0.86905000  1.0 -0.021978855
C  C4  1  0.35621000  0.98969000  0.13095000  1.0 -0.021978855
C  C5  1  0.66479000  0.09941000  0.94967000  1.0 -0.102465616
C  C6  1  0.33521000  0.90059000  0.05033000  1.0 -0.102465616
C  C7  1  0.57800000  0.14429000  0.98024000  1.0 -0.1505296371
C  C8  1  0.42200000  0.85571000  0.01976000  1.0 -0.1505296371
C  C9  1  0.37292000  0.14314000  0.96707000  1.0 -0.1505296371
C  C10  1  0.62708000  0.85686000  0.03293000  1.0 -0.1505296371
C  C11  1  0.26565000  0.09679000  0.92491000  1.0 -0.122490236
C  C12  1  0.73435000  0.90321000  0.07509000  1.0 -0.122490236
C  C13  1  0.24395000  0.00681000  0.84549000  1.0 -0.0386151433
C  C14  1  0.75605000  0.99319000  0.15451000  1.0 -0.0386151433
C  C15  1  0.33063000  0.96648000  0.80867000  1.0 -0.1727589755
C  C16  1  0.66937000  0.03352000  0.19133000  1.0 -0.1727589755
C  C17  1  0.44292000  0.01172000  0.85272000  1.0 0.0715386206
C  C18  1  0.55708000  0.98828000  0.14728000  1.0 0.0715386206
C  C19  1  0.46491000  0.10148000  0.93373000  1.0 0.0790051891
C  C20  1  0.53509000  0.89852000  0.06627000  1.0 0.0790051891
C  C21  1  0.74006000  0.96095000  0.83818000  1.0 0.5603901887
C  C22  1  0.25994000  0.03905000  0.16182000  1.0 0.5603901887
C  C23  1  0.12664000  0.95562000  0.80338000  1.0 0.5672542874
C  C24  1  0.87336000  0.04438000  0.19662000  1.0 0.5672542874
C  C25  1  0.92510000  0.64337000  0.03498000  1.0 -0.1727589755
C  C26  1  0.07490000  0.35663000  0.96502000  1.0 -0.1727589755
C  C27  1  0.89260000  0.66287000  0.94164000  1.0 -0.021978855
C  C28  1  0.10740000  0.33713000  0.05836000  1.0 -0.021978855
C  C29  1  0.81870000  0.58710000  0.86390000  1.0 -0.1074443262
C  C30  1  0.18130000  0.41290000  0.13610000  1.0 -0.1074443262
C  C31  1  0.77850000  0.49640000  0.88130000  1.0 -0.1505296371
C  C32  1  0.22150000  0.50360000  0.11870000  1.0 -0.1505296371
C  C33  1  0.77170000  0.37880000  0.99740000  1.0 -0.1505296371
C  C34  1  0.22830000  0.62120000  0.00260000  1.0 -0.1505296371
C  C35  1  0.80690000  0.35980000  0.09050000  1.0 -0.1074443262
C  C36  1  0.19310000  0.64020000  0.90950000  1.0 -0.1074443262
C  C37  1  0.88060000  0.43430000  0.16857000  1.0 -0.021978855
C  C38  1  0.11940000  0.56570000  0.83143000  1.0 -0.021978855
C  C39  1  0.91960000  0.52596000  0.15063000  1.0 -0.1821333643
C  C40  1  0.08040000  0.47404000  0.84937000  1.0 -0.1855170852
C  C41  1  0.88700000  0.54787000  0.05427000  1.0 0.0715386206
C  C42  1  0.11300000  0.45213000  0.94573000  1.0 0.0715386206
C  C43  1  0.81170000  0.47360000  0.97640000  1.0 0.0790051891
C  C44  1  0.18830000  0.52640000  0.02360000  1.0 0.0790051891
C  C45  1  0.93030000  0.76407000  0.91889000  1.0 0.5918600136
C  C46  1  0.06970000  0.23593000  0.08111000  1.0 0.5918600136
C  C47  1  0.91307000  0.41144000  0.27068000  1.0 0.5918600136
C  C48  1  0.08693000  0.58856000  0.72932000  1.0 0.5918600136
C  C49  1  0.64751000  0.69353000  0.52804000  1.0 -0.1597211412
C  C50  1  0.35249000  0.30647000  0.47196000  1.0 -0.1597211412
C  C51  1  0.73518000  0.65422000  0.49189000  1.0 -0.0386151433
C  C52  1  0.26482000  0.34578000  0.50811000  1.0 -0.0386151433
C  C53  1  0.71407000  0.57117000  0.40585000  1.0 -0.1305168099
C  C54  1  0.28593000  0.42883000  0.59415000  1.0 -0.1305168099
C  C55  1  0.60618000  0.52693000  0.35944000  1.0 -0.1597211412
C  C56  1  0.39382000  0.47307000  0.64056000  1.0 -0.1597211412
C  C57  1  0.40279000  0.51337000  0.35742000  1.0 -0.1505296371
C  C58  1  0.59721000  0.48663000  0.64258000  1.0 -0.1505296371
C  C59  1  0.31675000  0.54643000  0.39878000  1.0 -0.1074443262
C  C60  1  0.68325000  0.45357000  0.60122000  1.0 -0.1074443262
C  C61  1  0.33701000  0.63264000  0.48200000  1.0 -0.0303079616
C  C62  1  0.66299000  0.36736000  0.51800000  1.0 -0.0303079616
C  C63  1  0.44417000  0.68316000  0.52265000  1.0 -0.1597211412
C  C64  1  0.55583000  0.31684000  0.47735000  1.0 -0.1597211412
C  C65  1  0.53583000  0.64868000  0.48305000  1.0 0.0715386206
C  C66  1  0.46417000  0.35132000  0.51695000  1.0 0.0715386206
C  C67  1  0.51424000  0.56275000  0.39807000  1.0 0.0790051891
C  C68  1  0.48576000  0.43725000  0.60193000  1.0 0.0790051891
C  C69  1  0.85243000  0.69660000  0.54591000  1.0 0.5603901887
C  C70  1  0.14757000  0.30340000  0.45409000  1.0 0.5603901887
C  C71  1  0.24212000  0.66725000  0.52766000  1.0 0.5672542874
C  C72  1  0.75788000  0.33275000  0.47234000  1.0 0.5603901887
C  C73  1  0.86990000  0.09700000  0.72140000  1.0 0.1638876224
C  C74  1  0.13010000  0.90300000  0.27860000  1.0 0.1638876224
C  C75  1  0.71120000  0.09920000  0.59010000  1.0 -0.3328367895
C  C76  1  0.28880000  0.90080000  0.40990000  1.0 -0.3328367895
C  C77  1  0.78170000  0.25120000  0.73370000  1.0 -0.3406310356
C  C78  1  0.21830000  0.74880000  0.26630000  1.0 -0.3406310356
C  C79  1  0.97460000  0.78070000  0.40430000  1.0 0.0889977623
C  C80  1  0.02540000  0.21930000  0.59570000  1.0 0.0889977623
C  C81  1  0.80380000  0.75800000  0.27290000  1.0 -0.2316489941
C  C82  1  0.19620000  0.24200000  0.72710000  1.0 -0.2316489941
C  C83  1  0.84990000  0.91320000  0.41530000  1.0 -0.0928798369
C  C84  1  0.15010000  0.08680000  0.58470000  1.0 -0.0928798369
C  C85  1  0.03960000  0.12380000  0.52920000  1.0 0.0320747835
C  C86  1  0.96040000  0.87620000  0.47080000  1.0 0.0320747835
C  C87  1  0.22250000  0.10160000  0.61600000  1.0 -0.1821333643
C  C88  1  0.77750000  0.89840000  0.38400000  1.0 -0.1821333643
C  C89  1  0.11810000  0.23990000  0.69530000  1.0 -0.102465616
C  C90  1  0.88190000  0.76010000  0.30470000  1.0 -0.102465616
N  N1  1  0.78950000  0.14640000  0.68410000  1.0 -0.0303079616
N  N2  1  0.21050000  0.85360000  0.31590000  1.0 -0.0303079616
N  N3  1  0.87950000  0.83120000  0.37750000  1.0 0.1393512064
N  N4  1  0.12050000  0.16880000  0.62250000  1.0 0.1393512064
O  O1  1  0.83773000  0.99173000  0.89462000  1.0 -0.598918823
O  O2  1  0.16227000  0.00827000  0.10538000  1.0 -0.598918823
O  O3  1  0.72285000  0.89345000  0.75725000  1.0 -0.5493997461
O  O4  1  0.27715000  0.10655000  0.24275000  1.0 -0.5493997461
O  O5  1  0.05360000  0.97462000  0.85500000  1.0 -0.5592594719
O  O6  1  0.94640000  0.02538000  0.14500000  1.0 -0.5592594719
O  O7  1  0.09946000  0.89672000  0.71669000  1.0 -0.5374533511
O  O8  1  0.90054000  0.10328000  0.28331000  1.0 -0.5374533511
O  O9  1  0.97522000  0.83847000  0.99250000  1.0 -0.5885719633
O  O10  1  0.02478000  0.16153000  0.00750000  1.0 -0.5885719633
O  O11  1  0.91071000  0.76594000  0.82729000  1.0 -0.5592594719
O  O12  1  0.08929000  0.23406000  0.17271000  1.0 -0.5592594719
O  O13  1  0.88750000  0.32053000  0.27620000  1.0 -0.5493997461
O  O14  1  0.11250000  0.67947000  0.72380000  1.0 -0.5493997461
O  O15  1  0.95982000  0.48696000  0.34331000  1.0 -0.598918823
O  O16  1  0.04018000  0.51304000  0.65669000  1.0 -0.598918823
O  O17  1  0.93169000  0.64715000  0.52553000  1.0 -0.5493997461
O  O18  1  0.06831000  0.35285000  0.47447000  1.0 -0.5493997461
O  O19  1  0.87270000  0.78158000  0.60899000  1.0 -0.5339740789
O  O20  1  0.12730000  0.21842000  0.39101000  1.0 -0.5339740789
O  O21  1  0.14930000  0.60830000  0.50239000  1.0 -0.5847979164
O  O22  1  0.85070000  0.39170000  0.49761000  1.0 -0.5847979164
O  O23  1  0.25660000  0.75452000  0.58739000  1.0 -0.5493997461
O  O24  1  0.74340000  0.24548000  0.41261000  1.0 -0.5493997461
O  O25  1  0.88594000  0.01122000  0.67862000  1.0 -0.4550964809
O  O26  1  0.11406000  0.98878000  0.32138000  1.0 -0.4545167661
O  O27  1  0.04525000  0.83122000  0.48322000  1.0 -0.3212856627
O  O28  1  0.95475000  0.16878000  0.51678000  1.0 -0.3212856627
