# DDEC6 charges by PACMAN v1.1 (https://github.com/mtap-research/PACMAN-charge/)
data_DABFET_ion_pacman
_symmetry_space_group_name_H-M   'P 1'
_cell_length_a   23.00650000
_cell_length_b   23.00650000
_cell_length_c   23.00650000
_cell_angle_alpha   90.00000000
_cell_angle_beta   90.00000000
_cell_angle_gamma   90.00000000
_symmetry_Int_Tables_number   1
_chemical_formula_structural   Ni2Ag2BH84C120(N6F)4
_chemical_formula_sum   'Ni8 Ag8 B4 H336 C480 N96 F16'
_cell_volume   12177.31841552
_cell_formula_units_Z   4
loop_
 _symmetry_equiv_pos_site_id
 _symmetry_equiv_pos_as_xyz
  1  'x, y, z'
loop_
 _atom_site_type_symbol
 _atom_site_label
 _atom_site_symmetry_multiplicity
 _atom_site_fract_x
 _atom_site_fract_y
 _atom_site_fract_z
 _atom_site_occupancy
 _atom_site_charge
Ni  Ni1  1  0.61829000  0.38171000  0.88171000  1.0 0.4841215177
Ni  Ni2  1  0.88171000  0.61829000  0.38171000  1.0 0.4841215177
Ni  Ni3  1  0.11829000  0.11829000  0.11829000  1.0 0.4841215177
Ni  Ni4  1  0.38171000  0.88171000  0.61829000  1.0 0.4841215177
Ni  Ni5  1  0.61095000  0.88905000  0.11095000  1.0 0.4724255367
Ni  Ni6  1  0.88905000  0.11095000  0.61095000  1.0 0.4724255367
Ni  Ni7  1  0.11095000  0.61095000  0.88905000  1.0 0.4724255367
Ni  Ni8  1  0.38905000  0.38905000  0.38905000  1.0 0.4724255367
Ag  Ag1  1  0.75736000  0.75736000  0.75736000  1.0 0.453066857
Ag  Ag2  1  0.74264000  0.24264000  0.25736000  1.0 0.453066857
Ag  Ag3  1  0.25736000  0.74264000  0.24264000  1.0 0.453066857
Ag  Ag4  1  0.24264000  0.25736000  0.74264000  1.0 0.453066857
Ag  Ag5  1  0.48961000  0.51039000  0.01039000  1.0 0.5130136101
Ag  Ag6  1  0.01039000  0.48961000  0.51039000  1.0 0.5130136101
Ag  Ag7  1  0.98961000  0.98961000  0.98961000  1.0 0.5130136101
Ag  Ag8  1  0.51039000  0.01039000  0.48961000  1.0 0.5130136101
B  B1  1  0.24120000  0.74120000  0.75880000  1.0 1.0237511187
B  B2  1  0.25880000  0.25880000  0.25880000  1.0 1.0237511187
B  B3  1  0.74120000  0.75880000  0.24120000  1.0 1.0237511187
B  B4  1  0.75880000  0.24120000  0.74120000  1.0 1.0237511187
H  H1  1  0.70310000  0.34620000  0.07910000  1.0 0.1203288797
H  H2  1  0.79690000  0.65380000  0.57910000  1.0 0.1203288797
H  H3  1  0.20310000  0.15380000  0.92090000  1.0 0.1203288797
H  H4  1  0.29690000  0.84620000  0.42090000  1.0 0.1203288797
H  H5  1  0.07910000  0.70310000  0.34620000  1.0 0.1203288797
H  H6  1  0.42090000  0.29690000  0.84620000  1.0 0.1203288797
H  H7  1  0.57910000  0.79690000  0.65380000  1.0 0.1203288797
H  H8  1  0.92090000  0.20310000  0.15380000  1.0 0.1203288797
H  H9  1  0.34620000  0.07910000  0.70310000  1.0 0.1203288797
H  H10  1  0.84620000  0.42090000  0.29690000  1.0 0.1203288797
H  H11  1  0.65380000  0.57910000  0.79690000  1.0 0.1203288797
H  H12  1  0.15380000  0.92090000  0.20310000  1.0 0.1203288797
H  H13  1  0.61630000  0.33500000  0.13100000  1.0 0.1115894709
H  H14  1  0.88370000  0.66500000  0.63100000  1.0 0.1115894709
H  H15  1  0.11630000  0.16500000  0.86900000  1.0 0.1115894709
H  H16  1  0.38370000  0.83500000  0.36900000  1.0 0.1115894709
H  H17  1  0.13100000  0.61630000  0.33500000  1.0 0.1115894709
H  H18  1  0.36900000  0.38370000  0.83500000  1.0 0.1115894709
H  H19  1  0.63100000  0.88370000  0.66500000  1.0 0.1115894709
H  H20  1  0.86900000  0.11630000  0.16500000  1.0 0.1115894709
H  H21  1  0.33500000  0.13100000  0.61630000  1.0 0.1115894709
H  H22  1  0.83500000  0.36900000  0.38370000  1.0 0.1115894709
H  H23  1  0.66500000  0.63100000  0.88370000  1.0 0.1115894709
H  H24  1  0.16500000  0.86900000  0.11630000  1.0 0.1115894709
H  H25  1  0.52700000  0.34450000  0.08330000  1.0 0.1269277223
H  H26  1  0.97300000  0.65550000  0.58330000  1.0 0.1269277223
H  H27  1  0.02700000  0.15550000  0.91670000  1.0 0.1269277223
H  H28  1  0.47300000  0.84450000  0.41670000  1.0 0.1269277223
H  H29  1  0.08330000  0.52700000  0.34450000  1.0 0.1269277223
H  H30  1  0.41670000  0.47300000  0.84450000  1.0 0.1269277223
H  H31  1  0.58330000  0.97300000  0.65550000  1.0 0.1269277223
H  H32  1  0.91670000  0.02700000  0.15550000  1.0 0.1269277223
H  H33  1  0.34450000  0.08330000  0.52700000  1.0 0.1269277223
H  H34  1  0.84450000  0.41670000  0.47300000  1.0 0.1269277223
H  H35  1  0.65550000  0.58330000  0.97300000  1.0 0.1269277223
H  H36  1  0.15550000  0.91670000  0.02700000  1.0 0.1269277223
H  H37  1  0.52440000  0.36530000  0.98380000  1.0 0.1115894709
H  H38  1  0.97560000  0.63470000  0.48380000  1.0 0.1115894709
H  H39  1  0.02440000  0.13470000  0.01620000  1.0 0.1115894709
H  H40  1  0.47560000  0.86530000  0.51620000  1.0 0.1115894709
H  H41  1  0.98380000  0.52440000  0.36530000  1.0 0.1115894709
H  H42  1  0.51620000  0.47560000  0.86530000  1.0 0.1115894709
H  H43  1  0.48380000  0.97560000  0.63470000  1.0 0.1115894709
H  H44  1  0.01620000  0.02440000  0.13470000  1.0 0.1115894709
H  H45  1  0.36530000  0.98380000  0.52440000  1.0 0.1115894709
H  H46  1  0.86530000  0.51620000  0.47560000  1.0 0.1115894709
H  H47  1  0.63470000  0.48380000  0.97560000  1.0 0.1115894709
H  H48  1  0.13470000  0.01620000  0.02440000  1.0 0.1115894709
H  H49  1  0.79040000  0.35700000  0.01620000  1.0 0.1417188956
H  H50  1  0.70960000  0.64300000  0.51620000  1.0 0.1417188956
H  H51  1  0.29040000  0.14300000  0.98380000  1.0 0.1417188956
H  H52  1  0.20960000  0.85700000  0.48380000  1.0 0.1417188956
H  H53  1  0.01620000  0.79040000  0.35700000  1.0 0.1417188956
H  H54  1  0.48380000  0.20960000  0.85700000  1.0 0.1417188956
H  H55  1  0.51620000  0.70960000  0.64300000  1.0 0.1417188956
H  H56  1  0.98380000  0.29040000  0.14300000  1.0 0.1417188956
H  H57  1  0.35700000  0.01620000  0.79040000  1.0 0.1417188956
H  H58  1  0.85700000  0.48380000  0.20960000  1.0 0.1417188956
H  H59  1  0.64300000  0.51620000  0.70960000  1.0 0.1417188956
H  H60  1  0.14300000  0.98380000  0.29040000  1.0 0.1417188956
H  H61  1  0.84500000  0.36470000  0.92070000  1.0 0.1203288797
H  H62  1  0.65500000  0.63530000  0.42070000  1.0 0.1203288797
H  H63  1  0.34500000  0.13530000  0.07930000  1.0 0.1203288797
H  H64  1  0.15500000  0.86470000  0.57930000  1.0 0.1203288797
H  H65  1  0.92070000  0.84500000  0.36470000  1.0 0.1203288797
H  H66  1  0.57930000  0.15500000  0.86470000  1.0 0.1203288797
H  H67  1  0.42070000  0.65500000  0.63530000  1.0 0.1203288797
H  H68  1  0.07930000  0.34500000  0.13530000  1.0 0.1203288797
H  H69  1  0.36470000  0.92070000  0.84500000  1.0 0.1203288797
H  H70  1  0.86470000  0.57930000  0.15500000  1.0 0.1203288797
H  H71  1  0.63530000  0.42070000  0.65500000  1.0 0.1203288797
H  H72  1  0.13530000  0.07930000  0.34500000  1.0 0.1203288797
H  H73  1  0.74070000  0.37270000  0.79920000  1.0 0.1269277223
H  H74  1  0.75930000  0.62730000  0.29920000  1.0 0.1269277223
H  H75  1  0.24070000  0.12730000  0.20080000  1.0 0.1269277223
H  H76  1  0.25930000  0.87270000  0.70080000  1.0 0.1269277223
H  H77  1  0.79920000  0.74070000  0.37270000  1.0 0.1269277223
H  H78  1  0.70080000  0.25930000  0.87270000  1.0 0.1269277223
H  H79  1  0.29920000  0.75930000  0.62730000  1.0 0.1269277223
H  H80  1  0.20080000  0.24070000  0.12730000  1.0 0.1269277223
H  H81  1  0.37270000  0.79920000  0.74070000  1.0 0.1269277223
H  H82  1  0.87270000  0.70080000  0.25930000  1.0 0.1269277223
H  H83  1  0.62730000  0.29920000  0.75930000  1.0 0.1269277223
H  H84  1  0.12730000  0.20080000  0.24070000  1.0 0.1269277223
H  H85  1  0.80870000  0.36490000  0.81070000  1.0 0.1203288797
H  H86  1  0.69130000  0.63510000  0.31070000  1.0 0.1203288797
H  H87  1  0.30870000  0.13510000  0.18930000  1.0 0.1203288797
H  H88  1  0.19130000  0.86490000  0.68930000  1.0 0.1203288797
H  H89  1  0.81070000  0.80870000  0.36490000  1.0 0.1203288797
H  H90  1  0.68930000  0.19130000  0.86490000  1.0 0.1203288797
H  H91  1  0.31070000  0.69130000  0.63510000  1.0 0.1203288797
H  H92  1  0.18930000  0.30870000  0.13510000  1.0 0.1203288797
H  H93  1  0.36490000  0.81070000  0.80870000  1.0 0.1203288797
H  H94  1  0.86490000  0.68930000  0.19130000  1.0 0.1203288797
H  H95  1  0.63510000  0.31070000  0.69130000  1.0 0.1203288797
H  H96  1  0.13510000  0.18930000  0.30870000  1.0 0.1203288797
H  H97  1  0.78350000  0.47500000  0.89540000  1.0 0.1115894709
H  H98  1  0.71650000  0.52500000  0.39540000  1.0 0.1115894709
H  H99  1  0.28350000  0.02500000  0.10460000  1.0 0.1115894709
H  H100  1  0.21650000  0.97500000  0.60460000  1.0 0.1115894709
H  H101  1  0.89540000  0.78350000  0.47500000  1.0 0.1115894709
H  H102  1  0.60460000  0.21650000  0.97500000  1.0 0.1115894709
H  H103  1  0.39540000  0.71650000  0.52500000  1.0 0.1115894709
H  H104  1  0.10460000  0.28350000  0.02500000  1.0 0.1115894709
H  H105  1  0.47500000  0.89540000  0.78350000  1.0 0.1115894709
H  H106  1  0.97500000  0.60460000  0.21650000  1.0 0.1115894709
H  H107  1  0.52500000  0.39540000  0.71650000  1.0 0.1115894709
H  H108  1  0.02500000  0.10460000  0.28350000  1.0 0.1115894709
H  H109  1  0.79630000  0.57430000  0.87770000  1.0 0.1115894709
H  H110  1  0.70370000  0.42570000  0.37770000  1.0 0.1115894709
H  H111  1  0.29630000  0.92570000  0.12230000  1.0 0.1115894709
H  H112  1  0.20370000  0.07430000  0.62230000  1.0 0.1115894709
H  H113  1  0.87770000  0.79630000  0.57430000  1.0 0.1115894709
H  H114  1  0.62230000  0.20370000  0.07430000  1.0 0.1115894709
H  H115  1  0.37770000  0.70370000  0.42570000  1.0 0.1115894709
H  H116  1  0.12230000  0.29630000  0.92570000  1.0 0.1115894709
H  H117  1  0.57430000  0.87770000  0.79630000  1.0 0.1115894709
H  H118  1  0.07430000  0.62230000  0.20370000  1.0 0.1115894709
H  H119  1  0.42570000  0.37770000  0.70370000  1.0 0.1115894709
H  H120  1  0.92570000  0.12230000  0.29630000  1.0 0.1115894709
H  H121  1  0.79440000  0.59090000  0.67950000  1.0 0.1115894709
H  H122  1  0.70560000  0.40910000  0.17950000  1.0 0.1115894709
H  H123  1  0.29440000  0.90910000  0.32050000  1.0 0.1115894709
H  H124  1  0.20560000  0.09090000  0.82050000  1.0 0.1115894709
H  H125  1  0.67950000  0.79440000  0.59090000  1.0 0.1115894709
H  H126  1  0.82050000  0.20560000  0.09090000  1.0 0.1115894709
H  H127  1  0.17950000  0.70560000  0.40910000  1.0 0.1115894709
H  H128  1  0.32050000  0.29440000  0.90910000  1.0 0.1115894709
H  H129  1  0.59090000  0.67950000  0.79440000  1.0 0.1115894709
H  H130  1  0.09090000  0.82050000  0.20560000  1.0 0.1115894709
H  H131  1  0.40910000  0.17950000  0.70560000  1.0 0.1115894709
H  H132  1  0.90910000  0.32050000  0.29440000  1.0 0.1115894709
H  H133  1  0.79210000  0.52580000  0.60120000  1.0 0.1115894709
H  H134  1  0.70790000  0.47420000  0.10120000  1.0 0.1115894709
H  H135  1  0.29210000  0.97420000  0.39880000  1.0 0.1115894709
H  H136  1  0.20790000  0.02580000  0.89880000  1.0 0.1115894709
H  H137  1  0.60120000  0.79210000  0.52580000  1.0 0.1115894709
H  H138  1  0.89880000  0.20790000  0.02580000  1.0 0.1115894709
H  H139  1  0.10120000  0.70790000  0.47420000  1.0 0.1115894709
H  H140  1  0.39880000  0.29210000  0.97420000  1.0 0.1115894709
H  H141  1  0.52580000  0.60120000  0.79210000  1.0 0.1115894709
H  H142  1  0.02580000  0.89880000  0.20790000  1.0 0.1115894709
H  H143  1  0.47420000  0.10120000  0.70790000  1.0 0.1115894709
H  H144  1  0.97420000  0.39880000  0.29210000  1.0 0.1115894709
H  H145  1  0.78510000  0.42590000  0.61890000  1.0 0.1115894709
H  H146  1  0.71490000  0.57410000  0.11890000  1.0 0.1115894709
H  H147  1  0.28510000  0.07410000  0.38110000  1.0 0.1115894709
H  H148  1  0.21490000  0.92590000  0.88110000  1.0 0.1115894709
H  H149  1  0.61890000  0.78510000  0.42590000  1.0 0.1115894709
H  H150  1  0.88110000  0.21490000  0.92590000  1.0 0.1115894709
H  H151  1  0.11890000  0.71490000  0.57410000  1.0 0.1115894709
H  H152  1  0.38110000  0.28510000  0.07410000  1.0 0.1115894709
H  H153  1  0.42590000  0.61890000  0.78510000  1.0 0.1115894709
H  H154  1  0.92590000  0.88110000  0.21490000  1.0 0.1115894709
H  H155  1  0.57410000  0.11890000  0.71490000  1.0 0.1115894709
H  H156  1  0.07410000  0.38110000  0.28510000  1.0 0.1115894709
H  H157  1  0.78600000  0.39080000  0.71450000  1.0 0.1203288797
H  H158  1  0.71400000  0.60920000  0.21450000  1.0 0.1203288797
H  H159  1  0.28600000  0.10920000  0.28550000  1.0 0.1203288797
H  H160  1  0.21400000  0.89080000  0.78550000  1.0 0.1203288797
H  H161  1  0.71450000  0.78600000  0.39080000  1.0 0.1203288797
H  H162  1  0.78550000  0.21400000  0.89080000  1.0 0.1203288797
H  H163  1  0.21450000  0.71400000  0.60920000  1.0 0.1203288797
H  H164  1  0.28550000  0.28600000  0.10920000  1.0 0.1203288797
H  H165  1  0.39080000  0.71450000  0.78600000  1.0 0.1203288797
H  H166  1  0.89080000  0.78550000  0.21400000  1.0 0.1203288797
H  H167  1  0.60920000  0.21450000  0.71400000  1.0 0.1203288797
H  H168  1  0.10920000  0.28550000  0.28600000  1.0 0.1203288797
H  H169  1  0.80650000  0.91130000  0.01880000  1.0 0.1203288797
H  H170  1  0.69350000  0.08870000  0.51880000  1.0 0.1203288797
H  H171  1  0.30650000  0.58870000  0.98120000  1.0 0.1203288797
H  H172  1  0.19350000  0.41130000  0.48120000  1.0 0.1203288797
H  H173  1  0.01880000  0.80650000  0.91130000  1.0 0.1203288797
H  H174  1  0.48120000  0.19350000  0.41130000  1.0 0.1203288797
H  H175  1  0.51880000  0.69350000  0.08870000  1.0 0.1203288797
H  H176  1  0.98120000  0.30650000  0.58870000  1.0 0.1203288797
H  H177  1  0.91130000  0.01880000  0.80650000  1.0 0.1203288797
H  H178  1  0.41130000  0.48120000  0.19350000  1.0 0.1203288797
H  H179  1  0.08870000  0.51880000  0.69350000  1.0 0.1203288797
H  H180  1  0.58870000  0.98120000  0.30650000  1.0 0.1203288797
H  H181  1  0.86270000  0.91450000  0.10340000  1.0 0.1115894709
H  H182  1  0.63730000  0.08550000  0.60340000  1.0 0.1115894709
H  H183  1  0.36270000  0.58550000  0.89660000  1.0 0.1115894709
H  H184  1  0.13730000  0.41450000  0.39660000  1.0 0.1115894709
H  H185  1  0.10340000  0.86270000  0.91450000  1.0 0.1115894709
H  H186  1  0.39660000  0.13730000  0.41450000  1.0 0.1115894709
H  H187  1  0.60340000  0.63730000  0.08550000  1.0 0.1115894709
H  H188  1  0.89660000  0.36270000  0.58550000  1.0 0.1115894709
H  H189  1  0.91450000  0.10340000  0.86270000  1.0 0.1115894709
H  H190  1  0.41450000  0.39660000  0.13730000  1.0 0.1115894709
H  H191  1  0.08550000  0.60340000  0.63730000  1.0 0.1115894709
H  H192  1  0.58550000  0.89660000  0.36270000  1.0 0.1115894709
H  H193  1  0.81800000  0.90760000  0.19450000  1.0 0.1269277223
H  H194  1  0.68200000  0.09240000  0.69450000  1.0 0.1269277223
H  H195  1  0.31800000  0.59240000  0.80550000  1.0 0.1269277223
H  H196  1  0.18200000  0.40760000  0.30550000  1.0 0.1269277223
H  H197  1  0.19450000  0.81800000  0.90760000  1.0 0.1269277223
H  H198  1  0.30550000  0.18200000  0.40760000  1.0 0.1269277223
H  H199  1  0.69450000  0.68200000  0.09240000  1.0 0.1269277223
H  H200  1  0.80550000  0.31800000  0.59240000  1.0 0.1269277223
H  H201  1  0.90760000  0.19450000  0.81800000  1.0 0.1269277223
H  H202  1  0.40760000  0.30550000  0.18200000  1.0 0.1269277223
H  H203  1  0.09240000  0.69450000  0.68200000  1.0 0.1269277223
H  H204  1  0.59240000  0.80550000  0.31800000  1.0 0.1269277223
H  H205  1  0.71700000  0.89760000  0.20090000  1.0 0.1115894709
H  H206  1  0.78300000  0.10240000  0.70090000  1.0 0.1115894709
H  H207  1  0.21700000  0.60240000  0.79910000  1.0 0.1115894709
H  H208  1  0.28300000  0.39760000  0.29910000  1.0 0.1115894709
H  H209  1  0.20090000  0.71700000  0.89760000  1.0 0.1115894709
H  H210  1  0.29910000  0.28300000  0.39760000  1.0 0.1115894709
H  H211  1  0.70090000  0.78300000  0.10240000  1.0 0.1115894709
H  H212  1  0.79910000  0.21700000  0.60240000  1.0 0.1115894709
H  H213  1  0.89760000  0.20090000  0.71700000  1.0 0.1115894709
H  H214  1  0.39760000  0.29910000  0.28300000  1.0 0.1115894709
H  H215  1  0.10240000  0.70090000  0.78300000  1.0 0.1115894709
H  H216  1  0.60240000  0.79910000  0.21700000  1.0 0.1115894709
H  H217  1  0.73960000  0.91420000  0.93450000  1.0 0.1417188956
H  H218  1  0.76040000  0.08580000  0.43450000  1.0 0.1417188956
H  H219  1  0.23960000  0.58580000  0.06550000  1.0 0.1417188956
H  H220  1  0.26040000  0.41420000  0.56550000  1.0 0.1417188956
H  H221  1  0.93450000  0.73960000  0.91420000  1.0 0.1417188956
H  H222  1  0.56550000  0.26040000  0.41420000  1.0 0.1417188956
H  H223  1  0.43450000  0.76040000  0.08580000  1.0 0.1417188956
H  H224  1  0.06550000  0.23960000  0.58580000  1.0 0.1417188956
H  H225  1  0.91420000  0.93450000  0.73960000  1.0 0.1417188956
H  H226  1  0.41420000  0.56550000  0.26040000  1.0 0.1417188956
H  H227  1  0.08580000  0.43450000  0.76040000  1.0 0.1417188956
H  H228  1  0.58580000  0.06550000  0.23960000  1.0 0.1417188956
H  H229  1  0.64230000  0.91010000  0.88290000  1.0 0.1203288797
H  H230  1  0.85770000  0.08990000  0.38290000  1.0 0.1203288797
H  H231  1  0.14230000  0.58990000  0.11710000  1.0 0.1203288797
H  H232  1  0.35770000  0.41010000  0.61710000  1.0 0.1203288797
H  H233  1  0.88290000  0.64230000  0.91010000  1.0 0.1203288797
H  H234  1  0.61710000  0.35770000  0.41010000  1.0 0.1203288797
H  H235  1  0.38290000  0.85770000  0.08990000  1.0 0.1203288797
H  H236  1  0.11710000  0.14230000  0.58990000  1.0 0.1203288797
H  H237  1  0.91010000  0.88290000  0.64230000  1.0 0.1203288797
H  H238  1  0.41010000  0.61710000  0.35770000  1.0 0.1203288797
H  H239  1  0.08990000  0.38290000  0.85770000  1.0 0.1203288797
H  H240  1  0.58990000  0.11710000  0.14230000  1.0 0.1203288797
H  H241  1  0.53180000  0.90430000  0.92330000  1.0 0.1203288797
H  H242  1  0.96820000  0.09570000  0.42330000  1.0 0.1203288797
H  H243  1  0.03180000  0.59570000  0.07670000  1.0 0.1203288797
H  H244  1  0.46820000  0.40430000  0.57670000  1.0 0.1203288797
H  H245  1  0.92330000  0.53180000  0.90430000  1.0 0.1203288797
H  H246  1  0.57670000  0.46820000  0.40430000  1.0 0.1203288797
H  H247  1  0.42330000  0.96820000  0.09570000  1.0 0.1203288797
H  H248  1  0.07670000  0.03180000  0.59570000  1.0 0.1203288797
H  H249  1  0.90430000  0.92330000  0.53180000  1.0 0.1203288797
H  H250  1  0.40430000  0.57670000  0.46820000  1.0 0.1203288797
H  H251  1  0.09570000  0.42330000  0.96820000  1.0 0.1203288797
H  H252  1  0.59570000  0.07670000  0.03180000  1.0 0.1203288797
H  H253  1  0.52390000  0.89880000  0.99220000  1.0 0.1203288797
H  H254  1  0.97610000  0.10120000  0.49220000  1.0 0.1203288797
H  H255  1  0.02390000  0.60120000  0.00780000  1.0 0.1203288797
H  H256  1  0.47610000  0.39880000  0.50780000  1.0 0.1203288797
H  H257  1  0.99220000  0.52390000  0.89880000  1.0 0.1203288797
H  H258  1  0.50780000  0.47610000  0.39880000  1.0 0.1203288797
H  H259  1  0.49220000  0.97610000  0.10120000  1.0 0.1203288797
H  H260  1  0.00780000  0.02390000  0.60120000  1.0 0.1203288797
H  H261  1  0.89880000  0.99220000  0.52390000  1.0 0.1203288797
H  H262  1  0.39880000  0.50780000  0.47610000  1.0 0.1203288797
H  H263  1  0.10120000  0.49220000  0.97610000  1.0 0.1203288797
H  H264  1  0.60120000  0.00780000  0.02390000  1.0 0.1203288797
H  H265  1  0.62080000  0.79430000  0.95880000  1.0 0.1203288797
H  H266  1  0.87920000  0.20570000  0.45880000  1.0 0.1203288797
H  H267  1  0.12080000  0.70570000  0.04120000  1.0 0.1203288797
H  H268  1  0.37920000  0.29430000  0.54120000  1.0 0.1203288797
H  H269  1  0.95880000  0.62080000  0.79430000  1.0 0.1203288797
H  H270  1  0.54120000  0.37920000  0.29430000  1.0 0.1203288797
H  H271  1  0.45880000  0.87920000  0.20570000  1.0 0.1203288797
H  H272  1  0.04120000  0.12080000  0.70570000  1.0 0.1203288797
H  H273  1  0.79430000  0.95880000  0.62080000  1.0 0.1203288797
H  H274  1  0.29430000  0.54120000  0.37920000  1.0 0.1203288797
H  H275  1  0.20570000  0.45880000  0.87920000  1.0 0.1203288797
H  H276  1  0.70570000  0.04120000  0.12080000  1.0 0.1203288797
H  H277  1  0.60540000  0.69390000  0.95250000  1.0 0.1115894709
H  H278  1  0.89460000  0.30610000  0.45250000  1.0 0.1115894709
H  H279  1  0.10540000  0.80610000  0.04750000  1.0 0.1115894709
H  H280  1  0.39460000  0.19390000  0.54750000  1.0 0.1115894709
H  H281  1  0.95250000  0.60540000  0.69390000  1.0 0.1115894709
H  H282  1  0.54750000  0.39460000  0.19390000  1.0 0.1115894709
H  H283  1  0.45250000  0.89460000  0.30610000  1.0 0.1115894709
H  H284  1  0.04750000  0.10540000  0.80610000  1.0 0.1115894709
H  H285  1  0.69390000  0.95250000  0.60540000  1.0 0.1115894709
H  H286  1  0.19390000  0.54750000  0.39460000  1.0 0.1115894709
H  H287  1  0.30610000  0.45250000  0.89460000  1.0 0.1115894709
H  H288  1  0.80610000  0.04750000  0.10540000  1.0 0.1115894709
H  H289  1  0.41080000  0.67180000  0.92960000  1.0 0.1115894709
H  H290  1  0.08920000  0.32820000  0.42960000  1.0 0.1115894709
H  H291  1  0.91080000  0.82820000  0.07040000  1.0 0.1115894709
H  H292  1  0.58920000  0.17180000  0.57040000  1.0 0.1115894709
H  H293  1  0.92960000  0.41080000  0.67180000  1.0 0.1115894709
H  H294  1  0.57040000  0.58920000  0.17180000  1.0 0.1115894709
H  H295  1  0.42960000  0.08920000  0.32820000  1.0 0.1115894709
H  H296  1  0.07040000  0.91080000  0.82820000  1.0 0.1115894709
H  H297  1  0.67180000  0.92960000  0.41080000  1.0 0.1115894709
H  H298  1  0.17180000  0.57040000  0.58920000  1.0 0.1115894709
H  H299  1  0.32820000  0.42960000  0.08920000  1.0 0.1115894709
H  H300  1  0.82820000  0.07040000  0.91080000  1.0 0.1115894709
H  H301  1  0.32870000  0.73320000  0.93100000  1.0 0.1203288797
H  H302  1  0.17130000  0.26680000  0.43100000  1.0 0.1203288797
H  H303  1  0.82870000  0.76680000  0.06900000  1.0 0.1203288797
H  H304  1  0.67130000  0.23320000  0.56900000  1.0 0.1203288797
H  H305  1  0.93100000  0.32870000  0.73320000  1.0 0.1203288797
H  H306  1  0.56900000  0.67130000  0.23320000  1.0 0.1203288797
H  H307  1  0.43100000  0.17130000  0.26680000  1.0 0.1203288797
H  H308  1  0.06900000  0.82870000  0.76680000  1.0 0.1203288797
H  H309  1  0.73320000  0.93100000  0.32870000  1.0 0.1203288797
H  H310  1  0.23320000  0.56900000  0.67130000  1.0 0.1203288797
H  H311  1  0.26680000  0.43100000  0.17130000  1.0 0.1203288797
H  H312  1  0.76680000  0.06900000  0.82870000  1.0 0.1203288797
H  H313  1  0.34480000  0.83370000  0.92390000  1.0 0.1203288797
H  H314  1  0.15520000  0.16630000  0.42390000  1.0 0.1203288797
H  H315  1  0.84480000  0.66630000  0.07610000  1.0 0.1203288797
H  H316  1  0.65520000  0.33370000  0.57610000  1.0 0.1203288797
H  H317  1  0.92390000  0.34480000  0.83370000  1.0 0.1203288797
H  H318  1  0.57610000  0.65520000  0.33370000  1.0 0.1203288797
H  H319  1  0.42390000  0.15520000  0.16630000  1.0 0.1203288797
H  H320  1  0.07610000  0.84480000  0.66630000  1.0 0.1203288797
H  H321  1  0.83370000  0.92390000  0.34480000  1.0 0.1203288797
H  H322  1  0.33370000  0.57610000  0.65520000  1.0 0.1203288797
H  H323  1  0.16630000  0.42390000  0.15520000  1.0 0.1203288797
H  H324  1  0.66630000  0.07610000  0.84480000  1.0 0.1203288797
H  H325  1  0.43610000  0.87310000  0.94380000  1.0 0.1034798859
H  H326  1  0.06390000  0.12690000  0.44380000  1.0 0.1034798859
H  H327  1  0.93610000  0.62690000  0.05620000  1.0 0.1034798859
H  H328  1  0.56390000  0.37310000  0.55620000  1.0 0.1034798859
H  H329  1  0.94380000  0.43610000  0.87310000  1.0 0.1034798859
H  H330  1  0.55620000  0.56390000  0.37310000  1.0 0.1034798859
H  H331  1  0.44380000  0.06390000  0.12690000  1.0 0.1034798859
H  H332  1  0.05620000  0.93610000  0.62690000  1.0 0.1034798859
H  H333  1  0.87310000  0.94380000  0.43610000  1.0 0.1034798859
H  H334  1  0.37310000  0.55620000  0.56390000  1.0 0.1034798859
H  H335  1  0.12690000  0.44380000  0.06390000  1.0 0.1034798859
H  H336  1  0.62690000  0.05620000  0.93610000  1.0 0.1034798859
C  C1  1  0.66530000  0.36240000  0.00060000  1.0 0.1417188956
C  C2  1  0.83470000  0.63760000  0.50060000  1.0 0.1417188956
C  C3  1  0.16530000  0.13760000  0.99940000  1.0 0.1417188956
C  C4  1  0.33470000  0.86240000  0.49940000  1.0 0.1417188956
C  C5  1  0.00060000  0.66530000  0.36240000  1.0 0.1417188956
C  C6  1  0.49940000  0.33470000  0.86240000  1.0 0.1417188956
C  C7  1  0.50060000  0.83470000  0.63760000  1.0 0.1417188956
C  C8  1  0.99940000  0.16530000  0.13760000  1.0 0.1417188956
C  C9  1  0.36240000  0.00060000  0.66530000  1.0 0.1417188956
C  C10  1  0.86240000  0.49940000  0.33470000  1.0 0.1417188956
C  C11  1  0.63760000  0.50060000  0.83470000  1.0 0.1417188956
C  C12  1  0.13760000  0.99940000  0.16530000  1.0 0.1417188956
C  C13  1  0.66680000  0.35010000  0.05970000  1.0 -0.172027339
C  C14  1  0.83320000  0.64990000  0.55970000  1.0 -0.172027339
C  C15  1  0.16680000  0.14990000  0.94030000  1.0 -0.172027339
C  C16  1  0.33320000  0.85010000  0.44030000  1.0 -0.172027339
C  C17  1  0.05970000  0.66680000  0.35010000  1.0 -0.172027339
C  C18  1  0.44030000  0.33320000  0.85010000  1.0 -0.172027339
C  C19  1  0.55970000  0.83320000  0.64990000  1.0 -0.172027339
C  C20  1  0.94030000  0.16680000  0.14990000  1.0 -0.172027339
C  C21  1  0.35010000  0.05970000  0.66680000  1.0 -0.172027339
C  C22  1  0.85010000  0.44030000  0.33320000  1.0 -0.172027339
C  C23  1  0.64990000  0.55970000  0.83320000  1.0 -0.172027339
C  C24  1  0.14990000  0.94030000  0.16680000  1.0 -0.172027339
C  C25  1  0.61530000  0.34340000  0.09056000  1.0 -0.0535619692
C  C26  1  0.88470000  0.65660000  0.59056000  1.0 -0.0535619692
C  C27  1  0.11530000  0.15660000  0.90944000  1.0 -0.0535619692
C  C28  1  0.38470000  0.84340000  0.40944000  1.0 -0.0535619692
C  C29  1  0.09056000  0.61530000  0.34340000  1.0 -0.0535619692
C  C30  1  0.40944000  0.38470000  0.84340000  1.0 -0.0535619692
C  C31  1  0.59056000  0.88470000  0.65660000  1.0 -0.0535619692
C  C32  1  0.90944000  0.11530000  0.15660000  1.0 -0.0535619692
C  C33  1  0.34340000  0.09056000  0.61530000  1.0 -0.0535619692
C  C34  1  0.84340000  0.40944000  0.38470000  1.0 -0.0535619692
C  C35  1  0.65660000  0.59056000  0.88470000  1.0 -0.0535619692
C  C36  1  0.15660000  0.90944000  0.11530000  1.0 -0.0535619692
C  C37  1  0.56220000  0.34910000  0.06230000  1.0 -0.1494674452
C  C38  1  0.93780000  0.65090000  0.56230000  1.0 -0.1494674452
C  C39  1  0.06220000  0.15090000  0.93770000  1.0 -0.1494674452
C  C40  1  0.43780000  0.84910000  0.43770000  1.0 -0.1494674452
C  C41  1  0.06230000  0.56220000  0.34910000  1.0 -0.1494674452
C  C42  1  0.43770000  0.43780000  0.84910000  1.0 -0.1494674452
C  C43  1  0.56230000  0.93780000  0.65090000  1.0 -0.1494674452
C  C44  1  0.93770000  0.06220000  0.15090000  1.0 -0.1494674452
C  C45  1  0.34910000  0.06230000  0.56220000  1.0 -0.1494674452
C  C46  1  0.84910000  0.43770000  0.43780000  1.0 -0.1494674452
C  C47  1  0.65090000  0.56230000  0.93780000  1.0 -0.1494674452
C  C48  1  0.15090000  0.93770000  0.06220000  1.0 -0.1494674452
C  C49  1  0.56070000  0.36140000  0.00310000  1.0 0.0610823738
C  C50  1  0.93930000  0.63860000  0.50310000  1.0 0.0610823738
C  C51  1  0.06070000  0.13860000  0.99690000  1.0 0.0610823738
C  C52  1  0.43930000  0.86140000  0.49690000  1.0 0.0610823738
C  C53  1  0.00310000  0.56070000  0.36140000  1.0 0.0610823738
C  C54  1  0.49690000  0.43930000  0.86140000  1.0 0.0610823738
C  C55  1  0.50310000  0.93930000  0.63860000  1.0 0.0610823738
C  C56  1  0.99690000  0.06070000  0.13860000  1.0 0.0610823738
C  C57  1  0.36140000  0.00310000  0.56070000  1.0 0.0610823738
C  C58  1  0.86140000  0.49690000  0.43930000  1.0 0.0610823738
C  C59  1  0.63860000  0.50310000  0.93930000  1.0 0.0610823738
C  C60  1  0.13860000  0.99690000  0.06070000  1.0 0.0610823738
C  C61  1  0.71300000  0.36530000  0.96667000  1.0 0.0879824995
C  C62  1  0.78700000  0.63470000  0.46667000  1.0 0.0879824995
C  C63  1  0.21300000  0.13470000  0.03333000  1.0 0.0879824995
C  C64  1  0.28700000  0.86530000  0.53333000  1.0 0.0879824995
C  C65  1  0.96667000  0.71300000  0.36530000  1.0 0.0879824995
C  C66  1  0.53333000  0.28700000  0.86530000  1.0 0.0879824995
C  C67  1  0.46667000  0.78700000  0.63470000  1.0 0.0879824995
C  C68  1  0.03333000  0.21300000  0.13470000  1.0 0.0879824995
C  C69  1  0.36530000  0.96667000  0.71300000  1.0 0.0879824995
C  C70  1  0.86530000  0.53333000  0.28700000  1.0 0.0879824995
C  C71  1  0.63470000  0.46667000  0.78700000  1.0 0.0879824995
C  C72  1  0.13470000  0.03333000  0.21300000  1.0 0.0879824995
C  C73  1  0.77340000  0.36160000  0.97880000  1.0 -0.2497388248
C  C74  1  0.72660000  0.63840000  0.47880000  1.0 -0.2497388248
C  C75  1  0.27340000  0.13840000  0.02120000  1.0 -0.2497388248
C  C76  1  0.22660000  0.86160000  0.52120000  1.0 -0.2497388248
C  C77  1  0.97880000  0.77340000  0.36160000  1.0 -0.2497388248
C  C78  1  0.52120000  0.22660000  0.86160000  1.0 -0.2497388248
C  C79  1  0.47880000  0.72660000  0.63840000  1.0 -0.2497388248
C  C80  1  0.02120000  0.27340000  0.13840000  1.0 -0.2497388248
C  C81  1  0.36160000  0.97880000  0.77340000  1.0 -0.2497388248
C  C82  1  0.86160000  0.52120000  0.22660000  1.0 -0.2497388248
C  C83  1  0.63840000  0.47880000  0.72660000  1.0 -0.2497388248
C  C84  1  0.13840000  0.02120000  0.27340000  1.0 -0.2497388248
C  C85  1  0.80395000  0.36580000  0.92540000  1.0 -0.0797525407
C  C86  1  0.69605000  0.63420000  0.42540000  1.0 -0.0797525407
C  C87  1  0.30395000  0.13420000  0.07460000  1.0 -0.0797525407
C  C88  1  0.19605000  0.86580000  0.57460000  1.0 -0.0797525407
C  C89  1  0.92540000  0.80395000  0.36580000  1.0 -0.0797525407
C  C90  1  0.57460000  0.19605000  0.86580000  1.0 -0.0797525407
C  C91  1  0.42540000  0.69605000  0.63420000  1.0 -0.0797525407
C  C92  1  0.07460000  0.30395000  0.13420000  1.0 -0.0797525407
C  C93  1  0.36580000  0.92540000  0.80395000  1.0 -0.0797525407
C  C94  1  0.86580000  0.57460000  0.19605000  1.0 -0.0797525407
C  C95  1  0.63420000  0.42540000  0.69605000  1.0 -0.0797525407
C  C96  1  0.13420000  0.07460000  0.30395000  1.0 -0.0797525407
C  C97  1  0.77360000  0.38650000  0.82330000  1.0 -0.172027339
C  C98  1  0.72640000  0.61350000  0.32330000  1.0 -0.172027339
C  C99  1  0.27360000  0.11350000  0.17670000  1.0 -0.172027339
C  C100  1  0.22640000  0.88650000  0.67670000  1.0 -0.172027339
C  C101  1  0.82330000  0.77360000  0.38650000  1.0 -0.172027339
C  C102  1  0.67670000  0.22640000  0.88650000  1.0 -0.172027339
C  C103  1  0.32330000  0.72640000  0.61350000  1.0 -0.172027339
C  C104  1  0.17670000  0.27360000  0.11350000  1.0 -0.172027339
C  C105  1  0.38650000  0.82330000  0.77360000  1.0 -0.172027339
C  C106  1  0.88650000  0.67670000  0.22640000  1.0 -0.172027339
C  C107  1  0.61350000  0.32330000  0.72640000  1.0 -0.172027339
C  C108  1  0.11350000  0.17670000  0.27360000  1.0 -0.172027339
C  C109  1  0.78310000  0.45004000  0.81040000  1.0 0.0706793847
C  C110  1  0.71690000  0.54996000  0.31040000  1.0 0.0706793847
C  C111  1  0.28310000  0.04996000  0.18960000  1.0 0.0706793847
C  C112  1  0.21690000  0.95004000  0.68960000  1.0 0.0706793847
C  C113  1  0.81040000  0.78310000  0.45004000  1.0 0.0706793847
C  C114  1  0.68960000  0.21690000  0.95004000  1.0 0.0706793847
C  C115  1  0.31040000  0.71690000  0.54996000  1.0 0.0706793847
C  C116  1  0.18960000  0.28310000  0.04996000  1.0 0.0706793847
C  C117  1  0.45004000  0.81040000  0.78310000  1.0 0.0706793847
C  C118  1  0.95004000  0.68960000  0.21690000  1.0 0.0706793847
C  C119  1  0.54996000  0.31040000  0.71690000  1.0 0.0706793847
C  C120  1  0.04996000  0.18960000  0.28310000  1.0 0.0706793847
C  C121  1  0.78640000  0.48880000  0.85662000  1.0 -0.1494674452
C  C122  1  0.71360000  0.51120000  0.35662000  1.0 -0.1494674452
C  C123  1  0.28640000  0.01120000  0.14338000  1.0 -0.1494674452
C  C124  1  0.21360000  0.98880000  0.64338000  1.0 -0.1494674452
C  C125  1  0.85662000  0.78640000  0.48880000  1.0 -0.1494674452
C  C126  1  0.64338000  0.21360000  0.98880000  1.0 -0.1494674452
C  C127  1  0.35662000  0.71360000  0.51120000  1.0 -0.1494674452
C  C128  1  0.14338000  0.28640000  0.01120000  1.0 -0.1494674452
C  C129  1  0.48880000  0.85662000  0.78640000  1.0 -0.1494674452
C  C130  1  0.98880000  0.64338000  0.21360000  1.0 -0.1494674452
C  C131  1  0.51120000  0.35662000  0.71360000  1.0 -0.1494674452
C  C132  1  0.01120000  0.14338000  0.28640000  1.0 -0.1494674452
C  C133  1  0.79410000  0.54780000  0.84610000  1.0 -0.1494674452
C  C134  1  0.70590000  0.45220000  0.34610000  1.0 -0.1494674452
C  C135  1  0.29410000  0.95220000  0.15390000  1.0 -0.1494674452
C  C136  1  0.20590000  0.04780000  0.65390000  1.0 -0.1494674452
C  C137  1  0.84610000  0.79410000  0.54780000  1.0 -0.1494674452
C  C138  1  0.65390000  0.20590000  0.04780000  1.0 -0.1494674452
C  C139  1  0.34610000  0.70590000  0.45220000  1.0 -0.1494674452
C  C140  1  0.15390000  0.29410000  0.95220000  1.0 -0.1494674452
C  C141  1  0.54780000  0.84610000  0.79410000  1.0 -0.1494674452
C  C142  1  0.04780000  0.65390000  0.20590000  1.0 -0.1494674452
C  C143  1  0.45220000  0.34610000  0.70590000  1.0 -0.1494674452
C  C144  1  0.95220000  0.15390000  0.29410000  1.0 -0.1494674452
C  C145  1  0.79840000  0.56804000  0.78930000  1.0 -0.0340753019
C  C146  1  0.70160000  0.43196000  0.28930000  1.0 -0.0340753019
C  C147  1  0.29840000  0.93196000  0.21070000  1.0 -0.0340753019
C  C148  1  0.20160000  0.06804000  0.71070000  1.0 -0.0340753019
C  C149  1  0.78930000  0.79840000  0.56804000  1.0 -0.0340753019
C  C150  1  0.71070000  0.20160000  0.06804000  1.0 -0.0340753019
C  C151  1  0.28930000  0.70160000  0.43196000  1.0 -0.0340753019
C  C152  1  0.21070000  0.29840000  0.93196000  1.0 -0.0340753019
C  C153  1  0.56804000  0.78930000  0.79840000  1.0 -0.0340753019
C  C154  1  0.06804000  0.71070000  0.20160000  1.0 -0.0340753019
C  C155  1  0.43196000  0.28930000  0.70160000  1.0 -0.0340753019
C  C156  1  0.93196000  0.21070000  0.29840000  1.0 -0.0340753019
C  C157  1  0.79510000  0.52930000  0.74310000  1.0 0.0472897118
C  C158  1  0.70490000  0.47070000  0.24310000  1.0 0.0472897118
C  C159  1  0.29510000  0.97070000  0.25690000  1.0 0.0472897118
C  C160  1  0.20490000  0.02930000  0.75690000  1.0 0.0472897118
C  C161  1  0.74310000  0.79510000  0.52930000  1.0 0.0472897118
C  C162  1  0.75690000  0.20490000  0.02930000  1.0 0.0472897118
C  C163  1  0.24310000  0.70490000  0.47070000  1.0 0.0472897118
C  C164  1  0.25690000  0.29510000  0.97070000  1.0 0.0472897118
C  C165  1  0.52930000  0.74310000  0.79510000  1.0 0.0472897118
C  C166  1  0.02930000  0.75690000  0.20490000  1.0 0.0472897118
C  C167  1  0.47070000  0.24310000  0.70490000  1.0 0.0472897118
C  C168  1  0.97070000  0.25690000  0.29510000  1.0 0.0472897118
C  C169  1  0.78750000  0.47030000  0.75363000  1.0 0.0228508265
C  C170  1  0.71250000  0.52970000  0.25363000  1.0 0.0228508265
C  C171  1  0.28750000  0.02970000  0.24637000  1.0 0.0228508265
C  C172  1  0.21250000  0.97030000  0.74637000  1.0 0.0228508265
C  C173  1  0.75363000  0.78750000  0.47030000  1.0 0.0228508265
C  C174  1  0.74637000  0.21250000  0.97030000  1.0 0.0228508265
C  C175  1  0.25363000  0.71250000  0.52970000  1.0 0.0228508265
C  C176  1  0.24637000  0.28750000  0.02970000  1.0 0.0228508265
C  C177  1  0.47030000  0.75363000  0.78750000  1.0 0.0228508265
C  C178  1  0.97030000  0.74637000  0.21250000  1.0 0.0228508265
C  C179  1  0.52970000  0.25363000  0.71250000  1.0 0.0228508265
C  C180  1  0.02970000  0.24637000  0.28750000  1.0 0.0228508265
C  C181  1  0.79370000  0.55020000  0.68644000  1.0 -0.172027339
C  C182  1  0.70630000  0.44980000  0.18644000  1.0 -0.172027339
C  C183  1  0.29370000  0.94980000  0.31356000  1.0 -0.172027339
C  C184  1  0.20630000  0.05020000  0.81356000  1.0 -0.172027339
C  C185  1  0.68644000  0.79370000  0.55020000  1.0 -0.172027339
C  C186  1  0.81356000  0.20630000  0.05020000  1.0 -0.172027339
C  C187  1  0.18644000  0.70630000  0.44980000  1.0 -0.172027339
C  C188  1  0.31356000  0.29370000  0.94980000  1.0 -0.172027339
C  C189  1  0.55020000  0.68644000  0.79370000  1.0 -0.172027339
C  C190  1  0.05020000  0.81356000  0.20630000  1.0 -0.172027339
C  C191  1  0.44980000  0.18644000  0.70630000  1.0 -0.172027339
C  C192  1  0.94980000  0.31356000  0.29370000  1.0 -0.172027339
C  C193  1  0.79120000  0.51170000  0.64000000  1.0 -0.1004738031
C  C194  1  0.70880000  0.48830000  0.14000000  1.0 -0.1004738031
C  C195  1  0.29120000  0.98830000  0.36000000  1.0 -0.1004738031
C  C196  1  0.20880000  0.01170000  0.86000000  1.0 -0.1004738031
C  C197  1  0.64000000  0.79120000  0.51170000  1.0 -0.1004738031
C  C198  1  0.86000000  0.20880000  0.01170000  1.0 -0.1004738031
C  C199  1  0.14000000  0.70880000  0.48830000  1.0 -0.1004738031
C  C200  1  0.36000000  0.29120000  0.98830000  1.0 -0.1004738031
C  C201  1  0.51170000  0.64000000  0.79120000  1.0 -0.1004738031
C  C202  1  0.01170000  0.86000000  0.20880000  1.0 -0.1004738031
C  C203  1  0.48830000  0.14000000  0.70880000  1.0 -0.1004738031
C  C204  1  0.98830000  0.36000000  0.29120000  1.0 -0.1004738031
C  C205  1  0.78740000  0.45230000  0.65052000  1.0 -0.1004738031
C  C206  1  0.71260000  0.54770000  0.15052000  1.0 -0.1004738031
C  C207  1  0.28740000  0.04770000  0.34948000  1.0 -0.1004738031
C  C208  1  0.21260000  0.95230000  0.84948000  1.0 -0.1004738031
C  C209  1  0.65052000  0.78740000  0.45230000  1.0 -0.1004738031
C  C210  1  0.84948000  0.21260000  0.95230000  1.0 -0.1004738031
C  C211  1  0.15052000  0.71260000  0.54770000  1.0 -0.1004738031
C  C212  1  0.34948000  0.28740000  0.04770000  1.0 -0.1004738031
C  C213  1  0.45230000  0.65052000  0.78740000  1.0 -0.1004738031
C  C214  1  0.95230000  0.84948000  0.21260000  1.0 -0.1004738031
C  C215  1  0.54770000  0.15052000  0.71260000  1.0 -0.1004738031
C  C216  1  0.04770000  0.34948000  0.28740000  1.0 -0.1004738031
C  C217  1  0.78680000  0.43140000  0.70740000  1.0 -0.1408465714
C  C218  1  0.71320000  0.56860000  0.20740000  1.0 -0.1408465714
C  C219  1  0.28680000  0.06860000  0.29260000  1.0 -0.1408465714
C  C220  1  0.21320000  0.93140000  0.79260000  1.0 -0.1408465714
C  C221  1  0.70740000  0.78680000  0.43140000  1.0 -0.1408465714
C  C222  1  0.79260000  0.21320000  0.93140000  1.0 -0.1408465714
C  C223  1  0.20740000  0.71320000  0.56860000  1.0 -0.1408465714
C  C224  1  0.29260000  0.28680000  0.06860000  1.0 -0.1408465714
C  C225  1  0.43140000  0.70740000  0.78680000  1.0 -0.1408465714
C  C226  1  0.93140000  0.79260000  0.21320000  1.0 -0.1408465714
C  C227  1  0.56860000  0.20740000  0.71320000  1.0 -0.1408465714
C  C228  1  0.06860000  0.29260000  0.28680000  1.0 -0.1408465714
C  C229  1  0.80580000  0.62900000  0.78380000  1.0 0.2724735229
C  C230  1  0.69420000  0.37100000  0.28380000  1.0 0.2724735229
C  C231  1  0.30580000  0.87100000  0.21620000  1.0 0.2724735229
C  C232  1  0.19420000  0.12900000  0.71620000  1.0 0.2724735229
C  C233  1  0.78380000  0.80580000  0.62900000  1.0 0.2724735229
C  C234  1  0.71620000  0.19420000  0.12900000  1.0 0.2724735229
C  C235  1  0.28380000  0.69420000  0.37100000  1.0 0.2724735229
C  C236  1  0.21620000  0.30580000  0.87100000  1.0 0.2724735229
C  C237  1  0.62900000  0.78380000  0.80580000  1.0 0.2724735229
C  C238  1  0.12900000  0.71620000  0.19420000  1.0 0.2724735229
C  C239  1  0.37100000  0.28380000  0.69420000  1.0 0.2724735229
C  C240  1  0.87100000  0.21620000  0.30580000  1.0 0.2724735229
C  C241  1  0.72830000  0.90250000  0.05957000  1.0 0.1417188956
C  C242  1  0.77170000  0.09750000  0.55957000  1.0 0.1417188956
C  C243  1  0.22830000  0.59750000  0.94043000  1.0 0.1417188956
C  C244  1  0.27170000  0.40250000  0.44043000  1.0 0.1417188956
C  C245  1  0.05957000  0.72830000  0.90250000  1.0 0.1417188956
C  C246  1  0.44043000  0.27170000  0.40250000  1.0 0.1417188956
C  C247  1  0.55957000  0.77170000  0.09750000  1.0 0.1417188956
C  C248  1  0.94043000  0.22830000  0.59750000  1.0 0.1417188956
C  C249  1  0.90250000  0.05957000  0.72830000  1.0 0.1417188956
C  C250  1  0.40250000  0.44043000  0.27170000  1.0 0.1417188956
C  C251  1  0.09750000  0.55957000  0.77170000  1.0 0.1417188956
C  C252  1  0.59750000  0.94043000  0.22830000  1.0 0.1417188956
C  C253  1  0.78830000  0.90850000  0.05580000  1.0 -0.1754058959
C  C254  1  0.71170000  0.09150000  0.55580000  1.0 -0.1754058959
C  C255  1  0.28830000  0.59150000  0.94420000  1.0 -0.1754058959
C  C256  1  0.21170000  0.40850000  0.44420000  1.0 -0.1754058959
C  C257  1  0.05580000  0.78830000  0.90850000  1.0 -0.1754058959
C  C258  1  0.44420000  0.21170000  0.40850000  1.0 -0.1754058959
C  C259  1  0.55580000  0.71170000  0.09150000  1.0 -0.1754058959
C  C260  1  0.94420000  0.28830000  0.59150000  1.0 -0.1754058959
C  C261  1  0.90850000  0.05580000  0.78830000  1.0 -0.1754058959
C  C262  1  0.40850000  0.44420000  0.21170000  1.0 -0.1754058959
C  C263  1  0.09150000  0.55580000  0.71170000  1.0 -0.1754058959
C  C264  1  0.59150000  0.94420000  0.28830000  1.0 -0.1754058959
C  C265  1  0.82172000  0.91040000  0.10610000  1.0 -0.0600294482
C  C266  1  0.67828000  0.08960000  0.60610000  1.0 -0.0600294482
C  C267  1  0.32172000  0.58960000  0.89390000  1.0 -0.0600294482
C  C268  1  0.17828000  0.41040000  0.39390000  1.0 -0.0600294482
C  C269  1  0.10610000  0.82172000  0.91040000  1.0 -0.0600294482
C  C270  1  0.39390000  0.17828000  0.41040000  1.0 -0.0600294482
C  C271  1  0.60610000  0.67828000  0.08960000  1.0 -0.0600294482
C  C272  1  0.89390000  0.32172000  0.58960000  1.0 -0.0600294482
C  C273  1  0.91040000  0.10610000  0.82172000  1.0 -0.0600294482
C  C274  1  0.41040000  0.39390000  0.17828000  1.0 -0.0600294482
C  C275  1  0.08960000  0.60610000  0.67828000  1.0 -0.0600294482
C  C276  1  0.58960000  0.89390000  0.32172000  1.0 -0.0600294482
C  C277  1  0.79510000  0.90630000  0.16020000  1.0 -0.1408465714
C  C278  1  0.70490000  0.09370000  0.66020000  1.0 -0.1408465714
C  C279  1  0.29510000  0.59370000  0.83980000  1.0 -0.1408465714
C  C280  1  0.20490000  0.40630000  0.33980000  1.0 -0.1408465714
C  C281  1  0.16020000  0.79510000  0.90630000  1.0 -0.1408465714
C  C282  1  0.33980000  0.20490000  0.40630000  1.0 -0.1408465714
C  C283  1  0.66020000  0.70490000  0.09370000  1.0 -0.1408465714
C  C284  1  0.83980000  0.29510000  0.59370000  1.0 -0.1408465714
C  C285  1  0.90630000  0.16020000  0.79510000  1.0 -0.1408465714
C  C286  1  0.40630000  0.33980000  0.20490000  1.0 -0.1408465714
C  C287  1  0.09370000  0.66020000  0.70490000  1.0 -0.1408465714
C  C288  1  0.59370000  0.83980000  0.29510000  1.0 -0.1408465714
C  C289  1  0.73510000  0.90040000  0.16397000  1.0 0.0706793847
C  C290  1  0.76490000  0.09960000  0.66397000  1.0 0.0706793847
C  C291  1  0.23510000  0.59960000  0.83603000  1.0 0.0706793847
C  C292  1  0.26490000  0.40040000  0.33603000  1.0 0.0706793847
C  C293  1  0.16397000  0.73510000  0.90040000  1.0 0.0706793847
C  C294  1  0.33603000  0.26490000  0.40040000  1.0 0.0706793847
C  C295  1  0.66397000  0.76490000  0.09960000  1.0 0.0706793847
C  C296  1  0.83603000  0.23510000  0.59960000  1.0 0.0706793847
C  C297  1  0.90040000  0.16397000  0.73510000  1.0 0.0706793847
C  C298  1  0.40040000  0.33603000  0.26490000  1.0 0.0706793847
C  C299  1  0.09960000  0.66397000  0.76490000  1.0 0.0706793847
C  C300  1  0.59960000  0.83603000  0.23510000  1.0 0.0706793847
C  C301  1  0.69267000  0.90180000  0.01300000  1.0 0.0879824995
C  C302  1  0.80733000  0.09820000  0.51300000  1.0 0.0879824995
C  C303  1  0.19267000  0.59820000  0.98700000  1.0 0.0879824995
C  C304  1  0.30733000  0.40180000  0.48700000  1.0 0.0879824995
C  C305  1  0.01300000  0.69267000  0.90180000  1.0 0.0879824995
C  C306  1  0.48700000  0.30733000  0.40180000  1.0 0.0879824995
C  C307  1  0.51300000  0.80733000  0.09820000  1.0 0.0879824995
C  C308  1  0.98700000  0.19267000  0.59820000  1.0 0.0879824995
C  C309  1  0.90180000  0.01300000  0.69267000  1.0 0.0879824995
C  C310  1  0.40180000  0.48700000  0.30733000  1.0 0.0879824995
C  C311  1  0.09820000  0.51300000  0.80733000  1.0 0.0879824995
C  C312  1  0.59820000  0.98700000  0.19267000  1.0 0.0879824995
C  C313  1  0.70280000  0.90890000  0.95250000  1.0 -0.2431989373
C  C314  1  0.79720000  0.09110000  0.45250000  1.0 -0.2431989373
C  C315  1  0.20280000  0.59110000  0.04750000  1.0 -0.2431989373
C  C316  1  0.29720000  0.40890000  0.54750000  1.0 -0.2431989373
C  C317  1  0.95250000  0.70280000  0.90890000  1.0 -0.2431989373
C  C318  1  0.54750000  0.29720000  0.40890000  1.0 -0.2431989373
C  C319  1  0.45250000  0.79720000  0.09110000  1.0 -0.2431989373
C  C320  1  0.04750000  0.20280000  0.59110000  1.0 -0.2431989373
C  C321  1  0.90890000  0.95250000  0.70280000  1.0 -0.2431989373
C  C322  1  0.40890000  0.54750000  0.29720000  1.0 -0.2431989373
C  C323  1  0.09110000  0.45250000  0.79720000  1.0 -0.2431989373
C  C324  1  0.59110000  0.04750000  0.20280000  1.0 -0.2431989373
C  C325  1  0.64830000  0.90660000  0.92361000  1.0 -0.0884927612
C  C326  1  0.85170000  0.09340000  0.42361000  1.0 -0.0884927612
C  C327  1  0.14830000  0.59340000  0.07639000  1.0 -0.0884927612
C  C328  1  0.35170000  0.40660000  0.57639000  1.0 -0.0884927612
C  C329  1  0.92361000  0.64830000  0.90660000  1.0 -0.0884927612
C  C330  1  0.57639000  0.35170000  0.40660000  1.0 -0.0884927612
C  C331  1  0.42361000  0.85170000  0.09340000  1.0 -0.0884927612
C  C332  1  0.07639000  0.14830000  0.59340000  1.0 -0.0884927612
C  C333  1  0.90660000  0.92361000  0.64830000  1.0 -0.0884927612
C  C334  1  0.40660000  0.57639000  0.35170000  1.0 -0.0884927612
C  C335  1  0.09340000  0.42361000  0.85170000  1.0 -0.0884927612
C  C336  1  0.59340000  0.07639000  0.14830000  1.0 -0.0884927612
C  C337  1  0.54640000  0.88430000  0.95850000  1.0 -0.172027339
C  C338  1  0.95360000  0.11570000  0.45850000  1.0 -0.172027339
C  C339  1  0.04640000  0.61570000  0.04150000  1.0 -0.172027339
C  C340  1  0.45360000  0.38430000  0.54150000  1.0 -0.172027339
C  C341  1  0.95850000  0.54640000  0.88430000  1.0 -0.172027339
C  C342  1  0.54150000  0.45360000  0.38430000  1.0 -0.172027339
C  C343  1  0.45850000  0.95360000  0.11570000  1.0 -0.172027339
C  C344  1  0.04150000  0.04640000  0.61570000  1.0 -0.172027339
C  C345  1  0.88430000  0.95850000  0.54640000  1.0 -0.172027339
C  C346  1  0.38430000  0.54150000  0.45360000  1.0 -0.172027339
C  C347  1  0.11570000  0.45850000  0.95360000  1.0 -0.172027339
C  C348  1  0.61570000  0.04150000  0.04640000  1.0 -0.172027339
C  C349  1  0.53560000  0.81742000  0.95190000  1.0 0.0610823738
C  C350  1  0.96440000  0.18258000  0.45190000  1.0 0.0610823738
C  C351  1  0.03560000  0.68258000  0.04810000  1.0 0.0610823738
C  C352  1  0.46440000  0.31742000  0.54810000  1.0 0.0610823738
C  C353  1  0.95190000  0.53560000  0.81742000  1.0 0.0610823738
C  C354  1  0.54810000  0.46440000  0.31742000  1.0 0.0610823738
C  C355  1  0.45190000  0.96440000  0.18258000  1.0 0.0610823738
C  C356  1  0.04810000  0.03560000  0.68258000  1.0 0.0610823738
C  C357  1  0.81742000  0.95190000  0.53560000  1.0 0.0610823738
C  C358  1  0.31742000  0.54810000  0.46440000  1.0 0.0610823738
C  C359  1  0.18258000  0.45190000  0.96440000  1.0 0.0610823738
C  C360  1  0.68258000  0.04810000  0.03560000  1.0 0.0610823738
C  C361  1  0.58248000  0.77950000  0.95450000  1.0 -0.156905836
C  C362  1  0.91752000  0.22050000  0.45450000  1.0 -0.156905836
C  C363  1  0.08248000  0.72050000  0.04550000  1.0 -0.156905836
C  C364  1  0.41752000  0.27950000  0.54550000  1.0 -0.156905836
C  C365  1  0.95450000  0.58248000  0.77950000  1.0 -0.156905836
C  C366  1  0.54550000  0.41752000  0.27950000  1.0 -0.156905836
C  C367  1  0.45450000  0.91752000  0.22050000  1.0 -0.156905836
C  C368  1  0.04550000  0.08248000  0.72050000  1.0 -0.156905836
C  C369  1  0.77950000  0.95450000  0.58248000  1.0 -0.156905836
C  C370  1  0.27950000  0.54550000  0.41752000  1.0 -0.156905836
C  C371  1  0.22050000  0.45450000  0.91752000  1.0 -0.156905836
C  C372  1  0.72050000  0.04550000  0.08248000  1.0 -0.156905836
C  C373  1  0.57340000  0.71985000  0.95070000  1.0 -0.1318439257
C  C374  1  0.92660000  0.28015000  0.45070000  1.0 -0.1318439257
C  C375  1  0.07340000  0.78015000  0.04930000  1.0 -0.1318439257
C  C376  1  0.42660000  0.21985000  0.54930000  1.0 -0.1318439257
C  C377  1  0.95070000  0.57340000  0.71985000  1.0 -0.1318439257
C  C378  1  0.54930000  0.42660000  0.21985000  1.0 -0.1318439257
C  C379  1  0.45070000  0.92660000  0.28015000  1.0 -0.1318439257
C  C380  1  0.04930000  0.07340000  0.78015000  1.0 -0.1318439257
C  C381  1  0.71985000  0.95070000  0.57340000  1.0 -0.1318439257
C  C382  1  0.21985000  0.54930000  0.42660000  1.0 -0.1318439257
C  C383  1  0.28015000  0.45070000  0.92660000  1.0 -0.1318439257
C  C384  1  0.78015000  0.04930000  0.07340000  1.0 -0.1318439257
C  C385  1  0.51730000  0.69821000  0.94440000  1.0 -0.0157609035
C  C386  1  0.98270000  0.30179000  0.44440000  1.0 -0.0157609035
C  C387  1  0.01730000  0.80179000  0.05560000  1.0 -0.0157609035
C  C388  1  0.48270000  0.19821000  0.55560000  1.0 -0.0157609035
C  C389  1  0.94440000  0.51730000  0.69821000  1.0 -0.0157609035
C  C390  1  0.55560000  0.48270000  0.19821000  1.0 -0.0157609035
C  C391  1  0.44440000  0.98270000  0.30179000  1.0 -0.0157609035
C  C392  1  0.05560000  0.01730000  0.80179000  1.0 -0.0157609035
C  C393  1  0.69821000  0.94440000  0.51730000  1.0 -0.0157609035
C  C394  1  0.19821000  0.55560000  0.48270000  1.0 -0.0157609035
C  C395  1  0.30179000  0.44440000  0.98270000  1.0 -0.0157609035
C  C396  1  0.80179000  0.05560000  0.01730000  1.0 -0.0157609035
C  C397  1  0.47038000  0.73620000  0.94180000  1.0 0.0411825045
C  C398  1  0.02962000  0.26380000  0.44180000  1.0 0.0411825045
C  C399  1  0.97038000  0.76380000  0.05820000  1.0 0.0411825045
C  C400  1  0.52962000  0.23620000  0.55820000  1.0 0.0411825045
C  C401  1  0.94180000  0.47038000  0.73620000  1.0 0.0411825045
C  C402  1  0.55820000  0.52962000  0.23620000  1.0 0.0411825045
C  C403  1  0.44180000  0.02962000  0.26380000  1.0 0.0411825045
C  C404  1  0.05820000  0.97038000  0.76380000  1.0 0.0411825045
C  C405  1  0.73620000  0.94180000  0.47038000  1.0 0.0411825045
C  C406  1  0.23620000  0.55820000  0.52962000  1.0 0.0411825045
C  C407  1  0.26380000  0.44180000  0.02962000  1.0 0.0411825045
C  C408  1  0.76380000  0.05820000  0.97038000  1.0 0.0411825045
C  C409  1  0.47950000  0.79580000  0.94560000  1.0 0.0228508265
C  C410  1  0.02050000  0.20420000  0.44560000  1.0 0.0228508265
C  C411  1  0.97950000  0.70420000  0.05440000  1.0 0.0228508265
C  C412  1  0.52050000  0.29580000  0.55440000  1.0 0.0228508265
C  C413  1  0.94560000  0.47950000  0.79580000  1.0 0.0228508265
C  C414  1  0.55440000  0.52050000  0.29580000  1.0 0.0228508265
C  C415  1  0.44560000  0.02050000  0.20420000  1.0 0.0228508265
C  C416  1  0.05440000  0.97950000  0.70420000  1.0 0.0228508265
C  C417  1  0.79580000  0.94560000  0.47950000  1.0 0.0228508265
C  C418  1  0.29580000  0.55440000  0.52050000  1.0 0.0228508265
C  C419  1  0.20420000  0.44560000  0.02050000  1.0 0.0228508265
C  C420  1  0.70420000  0.05440000  0.97950000  1.0 0.0228508265
C  C421  1  0.41530000  0.71260000  0.93380000  1.0 -0.1494674452
C  C422  1  0.08470000  0.28740000  0.43380000  1.0 -0.1494674452
C  C423  1  0.91530000  0.78740000  0.06620000  1.0 -0.1494674452
C  C424  1  0.58470000  0.21260000  0.56620000  1.0 -0.1494674452
C  C425  1  0.93380000  0.41530000  0.71260000  1.0 -0.1494674452
C  C426  1  0.56620000  0.58470000  0.21260000  1.0 -0.1494674452
C  C427  1  0.43380000  0.08470000  0.28740000  1.0 -0.1494674452
C  C428  1  0.06620000  0.91530000  0.78740000  1.0 -0.1494674452
C  C429  1  0.71260000  0.93380000  0.41530000  1.0 -0.1494674452
C  C430  1  0.21260000  0.56620000  0.58470000  1.0 -0.1494674452
C  C431  1  0.28740000  0.43380000  0.08470000  1.0 -0.1494674452
C  C432  1  0.78740000  0.06620000  0.91530000  1.0 -0.1494674452
C  C433  1  0.36694000  0.74870000  0.93180000  1.0 -0.0884927612
C  C434  1  0.13306000  0.25130000  0.43180000  1.0 -0.0884927612
C  C435  1  0.86694000  0.75130000  0.06820000  1.0 -0.0884927612
C  C436  1  0.63306000  0.24870000  0.56820000  1.0 -0.0884927612
C  C437  1  0.93180000  0.36694000  0.74870000  1.0 -0.0884927612
C  C438  1  0.56820000  0.63306000  0.24870000  1.0 -0.0884927612
C  C439  1  0.43180000  0.13306000  0.25130000  1.0 -0.0884927612
C  C440  1  0.06820000  0.86694000  0.75130000  1.0 -0.0884927612
C  C441  1  0.74870000  0.93180000  0.36694000  1.0 -0.0884927612
C  C442  1  0.24870000  0.56820000  0.63306000  1.0 -0.0884927612
C  C443  1  0.25130000  0.43180000  0.13306000  1.0 -0.0884927612
C  C444  1  0.75130000  0.06820000  0.86694000  1.0 -0.0884927612
C  C445  1  0.37659000  0.80830000  0.93110000  1.0 -0.1085798056
C  C446  1  0.12341000  0.19170000  0.43110000  1.0 -0.1085798056
C  C447  1  0.87659000  0.69170000  0.06890000  1.0 -0.1085798056
C  C448  1  0.62341000  0.30830000  0.56890000  1.0 -0.1085798056
C  C449  1  0.93110000  0.37659000  0.80830000  1.0 -0.1085798056
C  C450  1  0.56890000  0.62341000  0.30830000  1.0 -0.1085798056
C  C451  1  0.43110000  0.12341000  0.19170000  1.0 -0.1085798056
C  C452  1  0.06890000  0.87659000  0.69170000  1.0 -0.1085798056
C  C453  1  0.80830000  0.93110000  0.37659000  1.0 -0.1085798056
C  C454  1  0.30830000  0.56890000  0.62341000  1.0 -0.1085798056
C  C455  1  0.19170000  0.43110000  0.12341000  1.0 -0.1085798056
C  C456  1  0.69170000  0.06890000  0.87659000  1.0 -0.1085798056
C  C457  1  0.43150000  0.83215000  0.94070000  1.0 -0.172027339
C  C458  1  0.06850000  0.16785000  0.44070000  1.0 -0.172027339
C  C459  1  0.93150000  0.66785000  0.05930000  1.0 -0.172027339
C  C460  1  0.56850000  0.33215000  0.55930000  1.0 -0.172027339
C  C461  1  0.94070000  0.43150000  0.83215000  1.0 -0.172027339
C  C462  1  0.55930000  0.56850000  0.33215000  1.0 -0.172027339
C  C463  1  0.44070000  0.06850000  0.16785000  1.0 -0.172027339
C  C464  1  0.05930000  0.93150000  0.66785000  1.0 -0.172027339
C  C465  1  0.83215000  0.94070000  0.43150000  1.0 -0.172027339
C  C466  1  0.33215000  0.55930000  0.56850000  1.0 -0.172027339
C  C467  1  0.16785000  0.44070000  0.06850000  1.0 -0.172027339
C  C468  1  0.66785000  0.05930000  0.93150000  1.0 -0.172027339
C  C469  1  0.51120000  0.63760000  0.94790000  1.0 0.2757882564
C  C470  1  0.98880000  0.36240000  0.44790000  1.0 0.2757882564
C  C471  1  0.01120000  0.86240000  0.05210000  1.0 0.2757882564
C  C472  1  0.48880000  0.13760000  0.55210000  1.0 0.2757882564
C  C473  1  0.94790000  0.51120000  0.63760000  1.0 0.2757882564
C  C474  1  0.55210000  0.48880000  0.13760000  1.0 0.2757882564
C  C475  1  0.44790000  0.98880000  0.36240000  1.0 0.2757882564
C  C476  1  0.05210000  0.01120000  0.86240000  1.0 0.2757882564
C  C477  1  0.63760000  0.94790000  0.51120000  1.0 0.2757882564
C  C478  1  0.13760000  0.55210000  0.48880000  1.0 0.2757882564
C  C479  1  0.36240000  0.44790000  0.98880000  1.0 0.2757882564
C  C480  1  0.86240000  0.05210000  0.01120000  1.0 0.2757882564
N  N1  1  0.61220000  0.36810000  0.97231000  1.0 -0.2687325936
N  N2  1  0.88780000  0.63190000  0.47231000  1.0 -0.2687325936
N  N3  1  0.11220000  0.13190000  0.02769000  1.0 -0.2687325936
N  N4  1  0.38780000  0.86810000  0.52769000  1.0 -0.2687325936
N  N5  1  0.97231000  0.61220000  0.36810000  1.0 -0.2687325936
N  N6  1  0.52769000  0.38780000  0.86810000  1.0 -0.2687325936
N  N7  1  0.47231000  0.88780000  0.63190000  1.0 -0.2687325936
N  N8  1  0.02769000  0.11220000  0.13190000  1.0 -0.2687325936
N  N9  1  0.36810000  0.97231000  0.61220000  1.0 -0.2687325936
N  N10  1  0.86810000  0.52769000  0.38780000  1.0 -0.2687325936
N  N11  1  0.63190000  0.47231000  0.88780000  1.0 -0.2687325936
N  N12  1  0.13190000  0.02769000  0.11220000  1.0 -0.2687325936
N  N13  1  0.76240000  0.37220000  0.88015000  1.0 0.1854720502
N  N14  1  0.73760000  0.62780000  0.38015000  1.0 0.1854720502
N  N15  1  0.26240000  0.12780000  0.11985000  1.0 0.1854720502
N  N16  1  0.23760000  0.87220000  0.61985000  1.0 0.1854720502
N  N17  1  0.88015000  0.76240000  0.37220000  1.0 0.1854720502
N  N18  1  0.61985000  0.23760000  0.87220000  1.0 0.1854720502
N  N19  1  0.38015000  0.73760000  0.62780000  1.0 0.1854720502
N  N20  1  0.11985000  0.26240000  0.12780000  1.0 0.1854720502
N  N21  1  0.37220000  0.88015000  0.76240000  1.0 0.1854720502
N  N22  1  0.87220000  0.61985000  0.23760000  1.0 0.1854720502
N  N23  1  0.62780000  0.38015000  0.73760000  1.0 0.1854720502
N  N24  1  0.12780000  0.11985000  0.26240000  1.0 0.1854720502
N  N25  1  0.70622000  0.37180000  0.90568000  1.0 -0.2772996933
N  N26  1  0.79378000  0.62820000  0.40568000  1.0 -0.2772996933
N  N27  1  0.20622000  0.12820000  0.09432000  1.0 -0.2772996933
N  N28  1  0.29378000  0.87180000  0.59432000  1.0 -0.2772996933
N  N29  1  0.90568000  0.70622000  0.37180000  1.0 -0.2772996933
N  N30  1  0.59432000  0.29378000  0.87180000  1.0 -0.2772996933
N  N31  1  0.40568000  0.79378000  0.62820000  1.0 -0.2772996933
N  N32  1  0.09432000  0.20622000  0.12820000  1.0 -0.2772996933
N  N33  1  0.37180000  0.90568000  0.70622000  1.0 -0.2772996933
N  N34  1  0.87180000  0.59432000  0.29378000  1.0 -0.2772996933
N  N35  1  0.62820000  0.40568000  0.79378000  1.0 -0.2772996933
N  N36  1  0.12820000  0.09432000  0.20622000  1.0 -0.2772996933
N  N37  1  0.81270000  0.67900000  0.77800000  1.0 -0.4047414572
N  N38  1  0.68730000  0.32100000  0.27800000  1.0 -0.4047414572
N  N39  1  0.31270000  0.82100000  0.22200000  1.0 -0.4047414572
N  N40  1  0.18730000  0.17900000  0.72200000  1.0 -0.4047414572
N  N41  1  0.77800000  0.81270000  0.67900000  1.0 -0.4047414572
N  N42  1  0.72200000  0.18730000  0.17900000  1.0 -0.4047414572
N  N43  1  0.27800000  0.68730000  0.32100000  1.0 -0.4047414572
N  N44  1  0.22200000  0.31270000  0.82100000  1.0 -0.4047414572
N  N45  1  0.67900000  0.77800000  0.81270000  1.0 -0.4047414572
N  N46  1  0.17900000  0.72200000  0.18730000  1.0 -0.4047414572
N  N47  1  0.32100000  0.27800000  0.68730000  1.0 -0.4047414572
N  N48  1  0.82100000  0.22200000  0.31270000  1.0 -0.4047414572
N  N49  1  0.70171000  0.89850000  0.11370000  1.0 -0.2687325936
N  N50  1  0.79829000  0.10150000  0.61370000  1.0 -0.2687325936
N  N51  1  0.20171000  0.60150000  0.88630000  1.0 -0.2687325936
N  N52  1  0.29829000  0.39850000  0.38630000  1.0 -0.2687325936
N  N53  1  0.11370000  0.70171000  0.89850000  1.0 -0.2687325936
N  N54  1  0.38630000  0.29829000  0.39850000  1.0 -0.2687325936
N  N55  1  0.61370000  0.79829000  0.10150000  1.0 -0.2687325936
N  N56  1  0.88630000  0.20171000  0.60150000  1.0 -0.2687325936
N  N57  1  0.89850000  0.11370000  0.70171000  1.0 -0.2687325936
N  N58  1  0.39850000  0.38630000  0.29829000  1.0 -0.2687325936
N  N59  1  0.10150000  0.61370000  0.79829000  1.0 -0.2687325936
N  N60  1  0.60150000  0.88630000  0.20171000  1.0 -0.2687325936
N  N61  1  0.60450000  0.89820000  0.96620000  1.0 0.1599458619
N  N62  1  0.89550000  0.10180000  0.46620000  1.0 0.1599458619
N  N63  1  0.10450000  0.60180000  0.03380000  1.0 0.1599458619
N  N64  1  0.39550000  0.39820000  0.53380000  1.0 0.1599458619
N  N65  1  0.96620000  0.60450000  0.89820000  1.0 0.1599458619
N  N66  1  0.53380000  0.39550000  0.39820000  1.0 0.1599458619
N  N67  1  0.46620000  0.89550000  0.10180000  1.0 0.1599458619
N  N68  1  0.03380000  0.10450000  0.60180000  1.0 0.1599458619
N  N69  1  0.89820000  0.96620000  0.60450000  1.0 0.1599458619
N  N70  1  0.39820000  0.53380000  0.39550000  1.0 0.1599458619
N  N71  1  0.10180000  0.46620000  0.89550000  1.0 0.1599458619
N  N72  1  0.60180000  0.03380000  0.10450000  1.0 0.1599458619
N  N73  1  0.63190000  0.89520000  0.02146000  1.0 -0.3131364993
N  N74  1  0.86810000  0.10480000  0.52146000  1.0 -0.3131364993
N  N75  1  0.13190000  0.60480000  0.97854000  1.0 -0.3131364993
N  N76  1  0.36810000  0.39520000  0.47854000  1.0 -0.3131364993
N  N77  1  0.02146000  0.63190000  0.89520000  1.0 -0.3131364993
N  N78  1  0.47854000  0.36810000  0.39520000  1.0 -0.3131364993
N  N79  1  0.52146000  0.86810000  0.10480000  1.0 -0.3131364993
N  N80  1  0.97854000  0.13190000  0.60480000  1.0 -0.3131364993
N  N81  1  0.89520000  0.02146000  0.63190000  1.0 -0.3131364993
N  N82  1  0.39520000  0.47854000  0.36810000  1.0 -0.3131364993
N  N83  1  0.10480000  0.52146000  0.86810000  1.0 -0.3131364993
N  N84  1  0.60480000  0.97854000  0.13190000  1.0 -0.3131364993
N  N85  1  0.50400000  0.58360000  0.94970000  1.0 -0.4793991458
N  N86  1  0.99600000  0.41640000  0.44970000  1.0 -0.4793991458
N  N87  1  0.00400000  0.91640000  0.05030000  1.0 -0.4793991458
N  N88  1  0.49600000  0.08360000  0.55030000  1.0 -0.4793991458
N  N89  1  0.94970000  0.50400000  0.58360000  1.0 -0.4793991458
N  N90  1  0.55030000  0.49600000  0.08360000  1.0 -0.4793991458
N  N91  1  0.44970000  0.99600000  0.41640000  1.0 -0.4793991458
N  N92  1  0.05030000  0.00400000  0.91640000  1.0 -0.4793991458
N  N93  1  0.58360000  0.94970000  0.50400000  1.0 -0.4793991458
N  N94  1  0.08360000  0.55030000  0.49600000  1.0 -0.4793991458
N  N95  1  0.41640000  0.44970000  0.99600000  1.0 -0.4793991458
N  N96  1  0.91640000  0.05030000  0.00400000  1.0 -0.4793991458
F  F1  1  0.26740000  0.73440000  0.81230000  1.0 -0.4619247006
F  F2  1  0.18770000  0.76740000  0.76560000  1.0 -0.4619247006
F  F3  1  0.23440000  0.68770000  0.73260000  1.0 -0.4619247006
F  F4  1  0.27590000  0.77590000  0.72410000  1.0 -0.4537678869
F  F5  1  0.23260000  0.26560000  0.31230000  1.0 -0.4619247006
F  F6  1  0.31230000  0.23260000  0.26560000  1.0 -0.4619247006
F  F7  1  0.26560000  0.31230000  0.23260000  1.0 -0.4619247006
F  F8  1  0.22410000  0.22410000  0.22410000  1.0 -0.4537678869
F  F9  1  0.76740000  0.76560000  0.18770000  1.0 -0.4619247006
F  F10  1  0.68770000  0.73260000  0.23440000  1.0 -0.4619247006
F  F11  1  0.73440000  0.81230000  0.26740000  1.0 -0.4619247006
F  F12  1  0.77590000  0.72410000  0.27590000  1.0 -0.4537678869
F  F13  1  0.73260000  0.23440000  0.68770000  1.0 -0.4619247006
F  F14  1  0.81230000  0.26740000  0.73440000  1.0 -0.4619247006
F  F15  1  0.76560000  0.18770000  0.76740000  1.0 -0.4619247006
F  F16  1  0.72410000  0.27590000  0.77590000  1.0 -0.4537678869
