# DDEC6 charges by PACMAN v1.1 (https://github.com/mtap-research/PACMAN-charge/)
data_DABGIZ_FSR_pacman
_symmetry_space_group_name_H-M   'P 1'
_cell_length_a   12.96760000
_cell_length_b   16.17010000
_cell_length_c   30.90550000
_cell_angle_alpha   90.00000000
_cell_angle_beta   91.24900000
_cell_angle_gamma   90.00000000
_symmetry_Int_Tables_number   1
_chemical_formula_structural   Cd5Mo16P8H48C60(NO6)12
_chemical_formula_sum   'Cd10 Mo32 P16 H96 C120 N24 O144'
_cell_volume   6478.95387774
_cell_formula_units_Z   2
loop_
 _symmetry_equiv_pos_site_id
 _symmetry_equiv_pos_as_xyz
  1  'x, y, z'
loop_
 _atom_site_type_symbol
 _atom_site_label
 _atom_site_symmetry_multiplicity
 _atom_site_fract_x
 _atom_site_fract_y
 _atom_site_fract_z
 _atom_site_occupancy
 _atom_site_charge
Cd  Cd1  1  0.02210000  0.45947000  0.94283000  1.0 1.2208241357
Cd  Cd2  1  0.97790000  0.95947000  0.55717000  1.0 1.2208241357
Cd  Cd3  1  0.97790000  0.54053000  0.05717000  1.0 1.2208241357
Cd  Cd4  1  0.02210000  0.04053000  0.44283000  1.0 1.2208241357
Cd  Cd5  1  0.50000000  0.50000000  0.00000000  1.0 1.4197040929
Cd  Cd6  1  0.50000000  0.00000000  0.50000000  1.0 1.4271085395
Cd  Cd7  1  0.89408000  0.25231000  0.93394000  1.0 0.9941730036
Cd  Cd8  1  0.10592000  0.75231000  0.56606000  1.0 0.9941730036
Cd  Cd9  1  0.10592000  0.74769000  0.06606000  1.0 0.9941730036
Cd  Cd10  1  0.89408000  0.24769000  0.43394000  1.0 0.9941730036
Mo  Mo1  1  0.72135000  0.60570000  0.06554000  1.0 2.0356609954
Mo  Mo2  1  0.27865000  0.10570000  0.43446000  1.0 2.0337228908
Mo  Mo3  1  0.27865000  0.39430000  0.93446000  1.0 2.0337228908
Mo  Mo4  1  0.72135000  0.89430000  0.56554000  1.0 2.0337228908
Mo  Mo5  1  0.69994000  0.45260000  0.09231000  1.0 2.0663497581
Mo  Mo6  1  0.30006000  0.95260000  0.40769000  1.0 2.0624646876
Mo  Mo7  1  0.30006000  0.54740000  0.90769000  1.0 2.0624646876
Mo  Mo8  1  0.69994000  0.04740000  0.59231000  1.0 2.0663497581
Mo  Mo9  1  0.64862000  0.29237000  0.01637000  1.0 2.0488737359
Mo  Mo10  1  0.35138000  0.79237000  0.48363000  1.0 2.0488737359
Mo  Mo11  1  0.35138000  0.70763000  0.98363000  1.0 2.0488737359
Mo  Mo12  1  0.64862000  0.20763000  0.51637000  1.0 2.0488737359
Mo  Mo13  1  0.63653000  0.32580000  0.93371000  1.0 2.0184767975
Mo  Mo14  1  0.36347000  0.82580000  0.56629000  1.0 2.0184767975
Mo  Mo15  1  0.36347000  0.67420000  0.06629000  1.0 2.0184767975
Mo  Mo16  1  0.63653000  0.17420000  0.43371000  1.0 2.0184767975
Mo  Mo17  1  0.66675000  0.53310000  0.89821000  1.0 2.0356609954
Mo  Mo18  1  0.33325000  0.03310000  0.60179000  1.0 2.0337228908
Mo  Mo19  1  0.33325000  0.46690000  0.10179000  1.0 2.0337228908
Mo  Mo20  1  0.66675000  0.96690000  0.39821000  1.0 2.0337228908
Mo  Mo21  1  0.69531000  0.65399000  0.95353000  1.0 2.0624646876
Mo  Mo22  1  0.30469000  0.15399000  0.54647000  1.0 2.0624646876
Mo  Mo23  1  0.30469000  0.34601000  0.04647000  1.0 2.0624646876
Mo  Mo24  1  0.69531000  0.84601000  0.45353000  1.0 2.0624646876
Mo  Mo25  1  0.80508000  0.34647000  0.76309000  1.0 1.7492468192
Mo  Mo26  1  0.19492000  0.84647000  0.73691000  1.0 1.7492468192
Mo  Mo27  1  0.19492000  0.65353000  0.23691000  1.0 1.7492468192
Mo  Mo28  1  0.80508000  0.15353000  0.26309000  1.0 1.7492468192
Mo  Mo29  1  0.89021000  0.31036000  0.69209000  1.0 1.7567473485
Mo  Mo30  1  0.10979000  0.81036000  0.80791000  1.0 1.7567473485
Mo  Mo31  1  0.10979000  0.68964000  0.30791000  1.0 1.7567473485
Mo  Mo32  1  0.89021000  0.18964000  0.19209000  1.0 1.7567473485
P  P1  1  0.79079000  0.46503000  0.99135000  1.0 1.5581057404
P  P2  1  0.20921000  0.96503000  0.50865000  1.0 1.5509948863
P  P3  1  0.20921000  0.53497000  0.00865000  1.0 1.5509948863
P  P4  1  0.79079000  0.03497000  0.49135000  1.0 1.5581057404
P  P5  1  0.82380000  0.38240000  0.86940000  1.0 1.5262506141
P  P6  1  0.17620000  0.88240000  0.63060000  1.0 1.5249779357
P  P7  1  0.17620000  0.61760000  0.13060000  1.0 1.5249779357
P  P8  1  0.82380000  0.11760000  0.36940000  1.0 1.5262506141
P  P9  1  0.11485000  0.26976000  0.98432000  1.0 1.5509948863
P  P10  1  0.88515000  0.76976000  0.51568000  1.0 1.5429499283
P  P11  1  0.88515000  0.73024000  0.01568000  1.0 1.5429499283
P  P12  1  0.11485000  0.23024000  0.48432000  1.0 1.5429499283
P  P13  1  0.83170000  0.27436000  0.09187000  1.0 1.5581057404
P  P14  1  0.16830000  0.77436000  0.40813000  1.0 1.5581057404
P  P15  1  0.16830000  0.72564000  0.90813000  1.0 1.5581057404
P  P16  1  0.83170000  0.22564000  0.59187000  1.0 1.5581057404
H  H1  1  0.79290000  0.09910000  0.98150000  1.0 0.1315287941
H  H2  1  0.20710000  0.59910000  0.51850000  1.0 0.1315287941
H  H3  1  0.20710000  0.90090000  0.01850000  1.0 0.1315287941
H  H4  1  0.79290000  0.40090000  0.48150000  1.0 0.1315287941
H  H5  1  0.80680000  0.95610000  0.98850000  1.0 0.1585464126
H  H6  1  0.19320000  0.45610000  0.51150000  1.0 0.1585464126
H  H7  1  0.19320000  0.04390000  0.01150000  1.0 0.1585464126
H  H8  1  0.80680000  0.54390000  0.48850000  1.0 0.1585464126
H  H9  1  0.94240000  0.88800000  0.95430000  1.0 0.1498816335
H  H10  1  0.05760000  0.38800000  0.54570000  1.0 0.1498816335
H  H11  1  0.05760000  0.11200000  0.04570000  1.0 0.1498816335
H  H12  1  0.94240000  0.61200000  0.45430000  1.0 0.1498816335
H  H13  1  0.03640000  0.96100000  0.90390000  1.0 0.1498816335
H  H14  1  0.96360000  0.46100000  0.59610000  1.0 0.1399204398
H  H15  1  0.96360000  0.03900000  0.09610000  1.0 0.1399204398
H  H16  1  0.03640000  0.53900000  0.40390000  1.0 0.1498816335
H  H17  1  0.10640000  0.03210000  0.85540000  1.0 0.1585464126
H  H18  1  0.89360000  0.53210000  0.64460000  1.0 0.1585464126
H  H19  1  0.89360000  0.96790000  0.14460000  1.0 0.1585464126
H  H20  1  0.10640000  0.46790000  0.35540000  1.0 0.1585464126
H  H21  1  0.19320000  0.11350000  0.80740000  1.0 0.1315287941
H  H22  1  0.80680000  0.61350000  0.69260000  1.0 0.1315287941
H  H23  1  0.80680000  0.88650000  0.19260000  1.0 0.1399204398
H  H24  1  0.19320000  0.38650000  0.30740000  1.0 0.1315287941
H  H25  1  0.15700000  0.25930000  0.80530000  1.0 0.1399204398
H  H26  1  0.84300000  0.75930000  0.69470000  1.0 0.1399204398
H  H27  1  0.84300000  0.74070000  0.19470000  1.0 0.1399204398
H  H28  1  0.15700000  0.24070000  0.30530000  1.0 0.1399204398
H  H29  1  0.04230000  0.30880000  0.85470000  1.0 0.1315287941
H  H30  1  0.95770000  0.80880000  0.64530000  1.0 0.1315287941
H  H31  1  0.95770000  0.69120000  0.14530000  1.0 0.1315287941
H  H32  1  0.04230000  0.19120000  0.35470000  1.0 0.1315287941
H  H33  1  0.89730000  0.16940000  0.79170000  1.0 0.1126670486
H  H34  1  0.10270000  0.66940000  0.70830000  1.0 0.1126670486
H  H35  1  0.10270000  0.83060000  0.20830000  1.0 0.1126670486
H  H36  1  0.89730000  0.33060000  0.29170000  1.0 0.1126670486
H  H37  1  0.85060000  0.04180000  0.82450000  1.0 0.1399204398
H  H38  1  0.14940000  0.54180000  0.67550000  1.0 0.1399204398
H  H39  1  0.14940000  0.95820000  0.17550000  1.0 0.1399204398
H  H40  1  0.85060000  0.45820000  0.32450000  1.0 0.1399204398
H  H41  1  0.68180000  0.03210000  0.84720000  1.0 0.1315287941
H  H42  1  0.31820000  0.53210000  0.65280000  1.0 0.1315287941
H  H43  1  0.31820000  0.96790000  0.15280000  1.0 0.1315287941
H  H44  1  0.68180000  0.46790000  0.34720000  1.0 0.1315287941
H  H45  1  0.56670000  0.13880000  0.83890000  1.0 0.1498816335
H  H46  1  0.43330000  0.63880000  0.66110000  1.0 0.1498816335
H  H47  1  0.43330000  0.86120000  0.16110000  1.0 0.1498816335
H  H48  1  0.56670000  0.36120000  0.33890000  1.0 0.1498816335
H  H49  1  0.45530000  0.23840000  0.82260000  1.0 0.1498816335
H  H50  1  0.54470000  0.73840000  0.67740000  1.0 0.1498816335
H  H51  1  0.54470000  0.76160000  0.17740000  1.0 0.1498816335
H  H52  1  0.45530000  0.26160000  0.32260000  1.0 0.1498816335
H  H53  1  0.36580000  0.35710000  0.81220000  1.0 0.1399204398
H  H54  1  0.63420000  0.85710000  0.68780000  1.0 0.1399204398
H  H55  1  0.63420000  0.64290000  0.18780000  1.0 0.1399204398
H  H56  1  0.36580000  0.14290000  0.31220000  1.0 0.1399204398
H  H57  1  0.44320000  0.47090000  0.78490000  1.0 0.1498816335
H  H58  1  0.55680000  0.97090000  0.71510000  1.0 0.1498816335
H  H59  1  0.55680000  0.52910000  0.21510000  1.0 0.1498816335
H  H60  1  0.44320000  0.02910000  0.28490000  1.0 0.1498816335
H  H61  1  0.61820000  0.46610000  0.76970000  1.0 0.1315287941
H  H62  1  0.38180000  0.96610000  0.73030000  1.0 0.1315287941
H  H63  1  0.38180000  0.53390000  0.23030000  1.0 0.1315287941
H  H64  1  0.61820000  0.03390000  0.26970000  1.0 0.1315287941
H  H65  1  0.10340000  0.38370000  0.66190000  1.0 0.1208068501
H  H66  1  0.89660000  0.88370000  0.83810000  1.0 0.1208068501
H  H67  1  0.89660000  0.61630000  0.33810000  1.0 0.1208068501
H  H68  1  0.10340000  0.11630000  0.16190000  1.0 0.1208068501
H  H69  1  0.27420000  0.35220000  0.65720000  1.0 0.1399204398
H  H70  1  0.72580000  0.85220000  0.84280000  1.0 0.1399204398
H  H71  1  0.72580000  0.64780000  0.34280000  1.0 0.1399204398
H  H72  1  0.27420000  0.14780000  0.15720000  1.0 0.1399204398
H  H73  1  0.32640000  0.22010000  0.67370000  1.0 0.1399204398
H  H74  1  0.67360000  0.72010000  0.82630000  1.0 0.1399204398
H  H75  1  0.67360000  0.77990000  0.32630000  1.0 0.1399204398
H  H76  1  0.32640000  0.27990000  0.17370000  1.0 0.1399204398
H  H77  1  0.20790000  0.12040000  0.69000000  1.0 0.1498816335
H  H78  1  0.79210000  0.62040000  0.81000000  1.0 0.1498816335
H  H79  1  0.79210000  0.87960000  0.31000000  1.0 0.1498816335
H  H80  1  0.20790000  0.37960000  0.19000000  1.0 0.1498816335
H  H81  1  0.08970000  0.03320000  0.70240000  1.0 0.1498816335
H  H82  1  0.91030000  0.53320000  0.79760000  1.0 0.1498816335
H  H83  1  0.91030000  0.96680000  0.29760000  1.0 0.1498816335
H  H84  1  0.08970000  0.46680000  0.20240000  1.0 0.1498816335
H  H85  1  0.95250000  0.94420000  0.71400000  1.0 0.1399204398
H  H86  1  0.04750000  0.44420000  0.78600000  1.0 0.1399204398
H  H87  1  0.04750000  0.05580000  0.28600000  1.0 0.1399204398
H  H88  1  0.95250000  0.55580000  0.21400000  1.0 0.1399204398
H  H89  1  0.78680000  0.99620000  0.71370000  1.0 0.1315287941
H  H90  1  0.21320000  0.49620000  0.78630000  1.0 0.1315287941
H  H91  1  0.21320000  0.00380000  0.28630000  1.0 0.1315287941
H  H92  1  0.78680000  0.50380000  0.21370000  1.0 0.1315287941
H  H93  1  0.76080000  0.13560000  0.70050000  1.0 0.1315287941
H  H94  1  0.23920000  0.63560000  0.79950000  1.0 0.1315287941
H  H95  1  0.23920000  0.86440000  0.29950000  1.0 0.1315287941
H  H96  1  0.76080000  0.36440000  0.20050000  1.0 0.1315287941
C  C1  1  0.83990000  0.07070000  0.96470000  1.0 0.1208068501
C  C2  1  0.16010000  0.57070000  0.53530000  1.0 0.1208068501
C  C3  1  0.16010000  0.92930000  0.03530000  1.0 0.1208068501
C  C4  1  0.83990000  0.42930000  0.46470000  1.0 0.1208068501
C  C5  1  0.85100000  0.98490000  0.97050000  1.0 -0.1304298834
C  C6  1  0.14900000  0.48490000  0.52950000  1.0 -0.1304298834
C  C7  1  0.14900000  0.01510000  0.02950000  1.0 -0.1304298834
C  C8  1  0.85100000  0.51510000  0.47050000  1.0 -0.1304298834
C  C9  1  0.92910000  0.94360000  0.94900000  1.0 -0.0081010361
C  C10  1  0.07090000  0.44360000  0.55100000  1.0 -0.0081010361
C  C11  1  0.07090000  0.05640000  0.05100000  1.0 -0.0081010361
C  C12  1  0.92910000  0.55640000  0.44900000  1.0 -0.0081010361
C  C13  1  0.98600000  0.98730000  0.91980000  1.0 -0.1857913189
C  C14  1  0.01400000  0.48730000  0.58020000  1.0 -0.1857913189
C  C15  1  0.01400000  0.01270000  0.08020000  1.0 -0.1857913189
C  C16  1  0.98600000  0.51270000  0.41980000  1.0 -0.1857913189
C  C17  1  0.09510000  0.08890000  0.85480000  1.0 -0.1514286216
C  C18  1  0.90490000  0.58890000  0.64520000  1.0 -0.1514286216
C  C19  1  0.90490000  0.91110000  0.14520000  1.0 -0.1514286216
C  C20  1  0.09510000  0.41110000  0.35480000  1.0 -0.1514286216
C  C21  1  0.14590000  0.13680000  0.82600000  1.0 -0.0179566636
C  C22  1  0.85410000  0.63680000  0.67400000  1.0 -0.0179566636
C  C23  1  0.85410000  0.86320000  0.17400000  1.0 -0.0179566636
C  C24  1  0.14590000  0.36320000  0.32600000  1.0 -0.0179566636
C  C25  1  0.12540000  0.22420000  0.82490000  1.0 -0.1304298834
C  C26  1  0.87460000  0.72420000  0.67510000  1.0 -0.1304298834
C  C27  1  0.87460000  0.77580000  0.17510000  1.0 -0.1304298834
C  C28  1  0.12540000  0.27580000  0.32490000  1.0 -0.1304298834
C  C29  1  0.05650000  0.25240000  0.85430000  1.0 0.1208068501
C  C30  1  0.94350000  0.75240000  0.64570000  1.0 0.1208068501
C  C31  1  0.94350000  0.74760000  0.14570000  1.0 0.1208068501
C  C32  1  0.05650000  0.24760000  0.35430000  1.0 0.1208068501
C  C33  1  0.96650000  0.07410000  0.91410000  1.0 0.1890148858
C  C34  1  0.03350000  0.57410000  0.58590000  1.0 0.1890148858
C  C35  1  0.03350000  0.92590000  0.08590000  1.0 0.1890148858
C  C36  1  0.96650000  0.42590000  0.41410000  1.0 0.1890148858
C  C37  1  0.02730000  0.12380000  0.88300000  1.0 0.1755240693
C  C38  1  0.97270000  0.62380000  0.61700000  1.0 0.1755240693
C  C39  1  0.97270000  0.87620000  0.11700000  1.0 0.1755240693
C  C40  1  0.02730000  0.37620000  0.38300000  1.0 0.1749643071
C  C41  1  0.82960000  0.16120000  0.80020000  1.0 0.1399204398
C  C42  1  0.17040000  0.66120000  0.69980000  1.0 0.1399204398
C  C43  1  0.17040000  0.83880000  0.19980000  1.0 0.1399204398
C  C44  1  0.82960000  0.33880000  0.30020000  1.0 0.1399204398
C  C45  1  0.80370000  0.08480000  0.82050000  1.0 -0.1514286216
C  C46  1  0.19630000  0.58480000  0.67950000  1.0 -0.1514286216
C  C47  1  0.19630000  0.91520000  0.17950000  1.0 -0.1514286216
C  C48  1  0.80370000  0.41520000  0.32050000  1.0 -0.1514286216
C  C49  1  0.70340000  0.08040000  0.83380000  1.0 -0.030351523
C  C50  1  0.29660000  0.58040000  0.66620000  1.0 -0.030351523
C  C51  1  0.29660000  0.91960000  0.16620000  1.0 -0.030351523
C  C52  1  0.70340000  0.41960000  0.33380000  1.0 -0.030351523
C  C53  1  0.63310000  0.14330000  0.82840000  1.0 -0.1304298834
C  C54  1  0.36690000  0.64330000  0.67160000  1.0 -0.1304298834
C  C55  1  0.36690000  0.85670000  0.17160000  1.0 -0.1304298834
C  C56  1  0.63310000  0.35670000  0.32840000  1.0 -0.1304298834
C  C57  1  0.48770000  0.28470000  0.81130000  1.0 -0.1396669482
C  C58  1  0.51230000  0.78470000  0.68870000  1.0 -0.1396669482
C  C59  1  0.51230000  0.71530000  0.18870000  1.0 -0.1396669482
C  C60  1  0.48770000  0.21530000  0.31130000  1.0 -0.1396669482
C  C61  1  0.43510000  0.35500000  0.80530000  1.0 -0.0081010361
C  C62  1  0.56490000  0.85500000  0.69470000  1.0 -0.0081010361
C  C63  1  0.56490000  0.64500000  0.19470000  1.0 -0.0081010361
C  C64  1  0.43510000  0.14500000  0.30530000  1.0 -0.0081010361
C  C65  1  0.48060000  0.42250000  0.78940000  1.0 -0.1189552152
C  C66  1  0.51940000  0.92250000  0.71060000  1.0 -0.1189552152
C  C67  1  0.51940000  0.57750000  0.21060000  1.0 -0.1189552152
C  C68  1  0.48060000  0.07750000  0.28940000  1.0 -0.1189552152
C  C69  1  0.58600000  0.41870000  0.77980000  1.0 0.1315287941
C  C70  1  0.41400000  0.91870000  0.72020000  1.0 0.1315287941
C  C71  1  0.41400000  0.58130000  0.22020000  1.0 0.1315287941
C  C72  1  0.58600000  0.08130000  0.27980000  1.0 0.1315287941
C  C73  1  0.66360000  0.21220000  0.80720000  1.0 0.1585464126
C  C74  1  0.33640000  0.71220000  0.69280000  1.0 0.1585464126
C  C75  1  0.33640000  0.78780000  0.19280000  1.0 0.1585464126
C  C76  1  0.66360000  0.28780000  0.30720000  1.0 0.1585464126
C  C77  1  0.59550000  0.28120000  0.80020000  1.0 0.1890148858
C  C78  1  0.40450000  0.78120000  0.69980000  1.0 0.1890148858
C  C79  1  0.40450000  0.71880000  0.19980000  1.0 0.1890148858
C  C80  1  0.59550000  0.21880000  0.30020000  1.0 0.1890148858
C  C81  1  0.12490000  0.32990000  0.66760000  1.0 0.0876666738
C  C82  1  0.87510000  0.82990000  0.83240000  1.0 0.0876666738
C  C83  1  0.87510000  0.67010000  0.33240000  1.0 0.0876666738
C  C84  1  0.12490000  0.17010000  0.16760000  1.0 0.0876666738
C  C85  1  0.22670000  0.31200000  0.66500000  1.0 -0.1514286216
C  C86  1  0.77330000  0.81200000  0.83500000  1.0 -0.1514286216
C  C87  1  0.77330000  0.68800000  0.33500000  1.0 -0.1514286216
C  C88  1  0.22670000  0.18800000  0.16500000  1.0 -0.1514286216
C  C89  1  0.25680000  0.23370000  0.67430000  1.0 0.0007397811
C  C90  1  0.74320000  0.73370000  0.82570000  1.0 0.0007397811
C  C91  1  0.74320000  0.76630000  0.32570000  1.0 0.0007397811
C  C92  1  0.25680000  0.26630000  0.17430000  1.0 0.0007397811
C  C93  1  0.18670000  0.17440000  0.68440000  1.0 -0.1396669482
C  C94  1  0.81330000  0.67440000  0.81560000  1.0 -0.1396669482
C  C95  1  0.81330000  0.82560000  0.31560000  1.0 -0.1396669482
C  C96  1  0.18670000  0.32560000  0.18440000  1.0 -0.1396669482
C  C97  1  0.02230000  0.05290000  0.70240000  1.0 -0.1304298834
C  C98  1  0.97770000  0.55290000  0.79760000  1.0 -0.1304298834
C  C99  1  0.97770000  0.94710000  0.29760000  1.0 -0.1304298834
C  C100  1  0.02230000  0.44710000  0.20240000  1.0 -0.1304298834
C  C101  1  0.94080000  0.00020000  0.70930000  1.0 -0.030351523
C  C102  1  0.05920000  0.50020000  0.79070000  1.0 -0.030351523
C  C103  1  0.05920000  0.99980000  0.29070000  1.0 -0.030351523
C  C104  1  0.94080000  0.49980000  0.20930000  1.0 -0.030351523
C  C105  1  0.84260000  0.03090000  0.70900000  1.0 -0.1304298834
C  C106  1  0.15740000  0.53090000  0.79100000  1.0 -0.1304298834
C  C107  1  0.15740000  0.96910000  0.29100000  1.0 -0.1304298834
C  C108  1  0.84260000  0.46910000  0.20900000  1.0 -0.1304298834
C  C109  1  0.82770000  0.11480000  0.70180000  1.0 0.1126670486
C  C110  1  0.17230000  0.61480000  0.79820000  1.0 0.1126670486
C  C111  1  0.17230000  0.88520000  0.29820000  1.0 0.1126670486
C  C112  1  0.82770000  0.38520000  0.20180000  1.0 0.1126670486
C  C113  1  0.08440000  0.19560000  0.68620000  1.0 0.1890148858
C  C114  1  0.91560000  0.69560000  0.81380000  1.0 0.1890148858
C  C115  1  0.91560000  0.80440000  0.31380000  1.0 0.1890148858
C  C116  1  0.08440000  0.30440000  0.18620000  1.0 0.1890148858
C  C117  1  0.00160000  0.13590000  0.69540000  1.0 0.1890148858
C  C118  1  0.99840000  0.63590000  0.80460000  1.0 0.1890148858
C  C119  1  0.99840000  0.86410000  0.30460000  1.0 0.1890148858
C  C120  1  0.00160000  0.36410000  0.19540000  1.0 0.1890148858
N  N1  1  0.89320000  0.11170000  0.93680000  1.0 -0.2725496234
N  N2  1  0.10680000  0.61170000  0.56320000  1.0 -0.2725496234
N  N3  1  0.10680000  0.88830000  0.06320000  1.0 -0.2725496234
N  N4  1  0.89320000  0.38830000  0.43680000  1.0 -0.2725496234
N  N5  1  0.00850000  0.20450000  0.88240000  1.0 -0.2577141986
N  N6  1  0.99150000  0.70450000  0.61760000  1.0 -0.2577141986
N  N7  1  0.99150000  0.79550000  0.11760000  1.0 -0.2577141986
N  N8  1  0.00850000  0.29550000  0.38240000  1.0 -0.2577141986
N  N9  1  0.76230000  0.22000000  0.79290000  1.0 -0.2775260896
N  N10  1  0.23770000  0.72000000  0.70710000  1.0 -0.2775260896
N  N11  1  0.23770000  0.78000000  0.20710000  1.0 -0.2775260896
N  N12  1  0.76230000  0.28000000  0.29290000  1.0 -0.2775260896
N  N13  1  0.64130000  0.35010000  0.78460000  1.0 -0.2891950474
N  N14  1  0.35870000  0.85010000  0.71540000  1.0 -0.2891950474
N  N15  1  0.35870000  0.64990000  0.21540000  1.0 -0.2891950474
N  N16  1  0.64130000  0.14990000  0.28460000  1.0 -0.2891950474
N  N17  1  0.05370000  0.27360000  0.67810000  1.0 -0.2775260896
N  N18  1  0.94630000  0.77360000  0.82190000  1.0 -0.2775260896
N  N19  1  0.94630000  0.72640000  0.32190000  1.0 -0.2775260896
N  N20  1  0.05370000  0.22640000  0.17810000  1.0 -0.2775260896
N  N21  1  0.90710000  0.16650000  0.69640000  1.0 -0.298495786
N  N22  1  0.09290000  0.66650000  0.80360000  1.0 -0.298495786
N  N23  1  0.09290000  0.83350000  0.30360000  1.0 -0.298495786
N  N24  1  0.90710000  0.33350000  0.19640000  1.0 -0.298495786
O  O1  1  0.82070000  0.52400000  0.08673000  1.0 -0.8489205307
O  O2  1  0.17930000  0.02400000  0.41327000  1.0 -0.8489205307
O  O3  1  0.17930000  0.47600000  0.91327000  1.0 -0.8489205307
O  O4  1  0.82070000  0.97600000  0.58673000  1.0 -0.8489205307
O  O5  1  0.60670000  0.52640000  0.05888000  1.0 -0.8609985553
O  O6  1  0.39330000  0.02640000  0.44112000  1.0 -0.8609985553
O  O7  1  0.39330000  0.47360000  0.94112000  1.0 -0.8609985553
O  O8  1  0.60670000  0.97360000  0.55888000  1.0 -0.8609985553
O  O9  1  0.75970000  0.55550000  0.00066000  1.0 -0.8909744338
O  O10  1  0.24030000  0.05550000  0.49934000  1.0 -0.8909744338
O  O11  1  0.24030000  0.44450000  0.99934000  1.0 -0.8909744338
O  O12  1  0.75970000  0.94450000  0.50066000  1.0 -0.8909744338
O  O13  1  0.13790000  0.33630000  0.95002000  1.0 -0.8331069217
O  O14  1  0.86210000  0.83630000  0.54998000  1.0 -0.8331069217
O  O15  1  0.86210000  0.66370000  0.04998000  1.0 -0.8331069217
O  O16  1  0.13790000  0.16370000  0.45002000  1.0 -0.8331069217
O  O17  1  0.64720000  0.67840000  0.01741000  1.0 -0.8489205307
O  O18  1  0.35280000  0.17840000  0.48259000  1.0 -0.8489205307
O  O19  1  0.35280000  0.32160000  0.98259000  1.0 -0.8489205307
O  O20  1  0.64720000  0.82160000  0.51741000  1.0 -0.8489205307
O  O21  1  0.68950000  0.66330000  0.10804000  1.0 -0.5683153884
O  O22  1  0.31050000  0.16330000  0.39196000  1.0 -0.5683153884
O  O23  1  0.31050000  0.33670000  0.89196000  1.0 -0.5683153884
O  O24  1  0.68950000  0.83670000  0.60804000  1.0 -0.5683153884
O  O25  1  0.56260000  0.37130000  0.98338000  1.0 -0.8609985553
O  O26  1  0.43740000  0.87130000  0.51662000  1.0 -0.8609985553
O  O27  1  0.43740000  0.62870000  0.01662000  1.0 -0.8609985553
O  O28  1  0.56260000  0.12870000  0.48338000  1.0 -0.8609985553
O  O29  1  0.74220000  0.26960000  0.96887000  1.0 -0.8489205307
O  O30  1  0.25780000  0.76960000  0.53113000  1.0 -0.8489205307
O  O31  1  0.25780000  0.73040000  0.03113000  1.0 -0.8489205307
O  O32  1  0.74220000  0.23040000  0.46887000  1.0 -0.8489205307
O  O33  1  0.74570000  0.31700000  0.88617000  1.0 -0.7876166271
O  O34  1  0.25430000  0.81700000  0.61383000  1.0 -0.7876166271
O  O35  1  0.25430000  0.68300000  0.11383000  1.0 -0.7876166271
O  O36  1  0.74570000  0.18300000  0.38617000  1.0 -0.7876166271
O  O37  1  0.74020000  0.44090000  0.94784000  1.0 -0.8609985553
O  O38  1  0.25980000  0.94090000  0.55216000  1.0 -0.8609985553
O  O39  1  0.25980000  0.55910000  0.05216000  1.0 -0.8609985553
O  O40  1  0.74020000  0.05910000  0.44784000  1.0 -0.8609985553
O  O41  1  0.57690000  0.42430000  0.89815000  1.0 -0.8609985553
O  O42  1  0.42310000  0.92430000  0.60185000  1.0 -0.8609985553
O  O43  1  0.42310000  0.57570000  0.10185000  1.0 -0.8609985553
O  O44  1  0.57690000  0.07570000  0.39815000  1.0 -0.8609985553
O  O45  1  0.55730000  0.25160000  0.91590000  1.0 -0.5592387186
O  O46  1  0.44270000  0.75160000  0.58410000  1.0 -0.5592387186
O  O47  1  0.44270000  0.74840000  0.08410000  1.0 -0.5592387186
O  O48  1  0.55730000  0.24840000  0.41590000  1.0 -0.5592387186
O  O49  1  0.58750000  0.56840000  0.94874000  1.0 -0.8609985553
O  O50  1  0.41250000  0.06840000  0.55126000  1.0 -0.8609985553
O  O51  1  0.41250000  0.43160000  0.05126000  1.0 -0.8609985553
O  O52  1  0.58750000  0.93160000  0.44874000  1.0 -0.8609985553
O  O53  1  0.78380000  0.60280000  0.91198000  1.0 -0.729243593
O  O54  1  0.21620000  0.10280000  0.58802000  1.0 -0.729243593
O  O55  1  0.21620000  0.39720000  0.08802000  1.0 -0.729243593
O  O56  1  0.78380000  0.89720000  0.41198000  1.0 -0.729243593
O  O57  1  0.17230000  0.28640000  0.02644000  1.0 -0.718383597
O  O58  1  0.82770000  0.78640000  0.47356000  1.0 -0.718383597
O  O59  1  0.82770000  0.71360000  0.97356000  1.0 -0.718383597
O  O60  1  0.17230000  0.21360000  0.52644000  1.0 -0.718383597
O  O61  1  0.63810000  0.73350000  0.92823000  1.0 -0.5592387186
O  O62  1  0.36190000  0.23350000  0.57177000  1.0 -0.5592387186
O  O63  1  0.36190000  0.26650000  0.07177000  1.0 -0.5592387186
O  O64  1  0.63810000  0.76650000  0.42823000  1.0 -0.5592387186
O  O65  1  0.74440000  0.40850000  0.02623000  1.0 -0.8609985553
O  O66  1  0.25560000  0.90850000  0.47377000  1.0 -0.8609985553
O  O67  1  0.25560000  0.59150000  0.97377000  1.0 -0.8609985553
O  O68  1  0.74440000  0.09150000  0.52623000  1.0 -0.8609985553
O  O69  1  0.60140000  0.35510000  0.07311000  1.0 -0.8671256171
O  O70  1  0.39860000  0.85510000  0.42689000  1.0 -0.8671256171
O  O71  1  0.39860000  0.64490000  0.92689000  1.0 -0.8609985553
O  O72  1  0.60140000  0.14490000  0.57311000  1.0 -0.8609985553
O  O73  1  0.80380000  0.36050000  0.10679000  1.0 -0.7601902352
O  O74  1  0.19620000  0.86050000  0.39321000  1.0 -0.7601902352
O  O75  1  0.19620000  0.63950000  0.89321000  1.0 -0.7601902352
O  O76  1  0.80380000  0.13950000  0.60679000  1.0 -0.7601902352
O  O77  1  0.65690000  0.46560000  0.14232000  1.0 -0.5785840021
O  O78  1  0.34310000  0.96560000  0.35768000  1.0 -0.5785840021
O  O79  1  0.34310000  0.53440000  0.85768000  1.0 -0.5785840021
O  O80  1  0.65690000  0.03440000  0.64232000  1.0 -0.5785840021
O  O81  1  0.75980000  0.24150000  0.05631000  1.0 -0.7714731113
O  O82  1  0.24020000  0.74150000  0.44369000  1.0 -0.7714731113
O  O83  1  0.24020000  0.75850000  0.94369000  1.0 -0.7714731113
O  O84  1  0.75980000  0.25850000  0.55631000  1.0 -0.7714731113
O  O85  1  0.56910000  0.21180000  0.01819000  1.0 -0.5320370214
O  O86  1  0.43090000  0.71180000  0.48181000  1.0 -0.5320370214
O  O87  1  0.43090000  0.78820000  0.98181000  1.0 -0.5320370214
O  O88  1  0.56910000  0.28820000  0.51819000  1.0 -0.5320370214
O  O89  1  0.77110000  0.46630000  0.86386000  1.0 -0.729243593
O  O90  1  0.22890000  0.96630000  0.63614000  1.0 -0.729243593
O  O91  1  0.22890000  0.53370000  0.13614000  1.0 -0.729243593
O  O92  1  0.77110000  0.03370000  0.36386000  1.0 -0.729243593
O  O93  1  0.60470000  0.57940000  0.85654000  1.0 -0.5785840021
O  O94  1  0.39530000  0.07940000  0.64346000  1.0 -0.5785840021
O  O95  1  0.39530000  0.42060000  0.14346000  1.0 -0.5785840021
O  O96  1  0.60470000  0.92060000  0.35654000  1.0 -0.5785840021
O  O97  1  0.90750000  0.45850000  0.99392000  1.0 -0.7601902352
O  O98  1  0.09250000  0.95850000  0.50608000  1.0 -0.7601902352
O  O99  1  0.09250000  0.54150000  0.00608000  1.0 -0.7601902352
O  O100  1  0.90750000  0.04150000  0.49392000  1.0 -0.7601902352
O  O101  1  0.91460000  0.38030000  0.90157000  1.0 -0.7876166271
O  O102  1  0.08540000  0.88030000  0.59843000  1.0 -0.7876166271
O  O103  1  0.08540000  0.61970000  0.09843000  1.0 -0.7876166271
O  O104  1  0.91460000  0.11970000  0.40157000  1.0 -0.7876166271
O  O105  1  0.97810000  0.56680000  0.90196000  1.0 -0.364829825
O  O106  1  0.02190000  0.06680000  0.59804000  1.0 -0.3676501777
O  O107  1  0.02190000  0.43320000  0.09804000  1.0 -0.3676501777
O  O108  1  0.97810000  0.93320000  0.40196000  1.0 -0.3676501777
O  O109  1  0.00030000  0.26680000  0.99092000  1.0 -0.7378407137
O  O110  1  0.99970000  0.76680000  0.50908000  1.0 -0.7378407137
O  O111  1  0.99970000  0.73320000  0.00908000  1.0 -0.7378407137
O  O112  1  0.00030000  0.23320000  0.49092000  1.0 -0.7378407137
O  O113  1  0.14640000  0.18350000  0.96655000  1.0 -0.7843705879
O  O114  1  0.85360000  0.68350000  0.53345000  1.0 -0.7843705879
O  O115  1  0.85360000  0.81650000  0.03345000  1.0 -0.7843705879
O  O116  1  0.14640000  0.31650000  0.46655000  1.0 -0.7843705879
O  O117  1  0.94310000  0.27960000  0.07371000  1.0 -0.6370568738
O  O118  1  0.05690000  0.77960000  0.42629000  1.0 -0.6370568738
O  O119  1  0.05690000  0.72040000  0.92629000  1.0 -0.6370568738
O  O120  1  0.94310000  0.22040000  0.57371000  1.0 -0.6370568738
O  O121  1  0.94020000  0.30460000  0.75161000  1.0 -0.8004894794
O  O122  1  0.05980000  0.80460000  0.74839000  1.0 -0.8004894794
O  O123  1  0.05980000  0.69540000  0.24839000  1.0 -0.8004894794
O  O124  1  0.94020000  0.19540000  0.25161000  1.0 -0.8004894794
O  O125  1  0.74930000  0.30020000  0.70927000  1.0 -0.8004894794
O  O126  1  0.25070000  0.80020000  0.79073000  1.0 -0.8004894794
O  O127  1  0.25070000  0.69980000  0.29073000  1.0 -0.8004894794
O  O128  1  0.74930000  0.19980000  0.20927000  1.0 -0.8004894794
O  O129  1  0.86160000  0.35450000  0.82551000  1.0 -0.7529003338
O  O130  1  0.13840000  0.85450000  0.67449000  1.0 -0.7529003338
O  O131  1  0.13840000  0.64550000  0.17449000  1.0 -0.7529003338
O  O132  1  0.86160000  0.14550000  0.32551000  1.0 -0.7529003338
O  O133  1  0.79780000  0.44960000  0.75564000  1.0 -0.6022280918
O  O134  1  0.20220000  0.94960000  0.74436000  1.0 -0.6022280918
O  O135  1  0.20220000  0.55040000  0.24436000  1.0 -0.6022280918
O  O136  1  0.79780000  0.05040000  0.25564000  1.0 -0.6022280918
O  O137  1  0.83580000  0.21590000  0.12991000  1.0 -0.7714731113
O  O138  1  0.16420000  0.71590000  0.37009000  1.0 -0.7714731113
O  O139  1  0.16420000  0.78410000  0.87009000  1.0 -0.7714731113
O  O140  1  0.83580000  0.28410000  0.62991000  1.0 -0.7714731113
O  O141  1  0.92010000  0.40760000  0.67636000  1.0 -0.6067395077
O  O142  1  0.07990000  0.90760000  0.82364000  1.0 -0.6067395077
O  O143  1  0.07990000  0.59240000  0.32364000  1.0 -0.6067395077
O  O144  1  0.92010000  0.09240000  0.17636000  1.0 -0.6067395077
