# DDEC6 charges by PACMAN v1.1 (https://github.com/mtap-research/PACMAN-charge/)
data_DACDEU_FSR_pacman
_symmetry_space_group_name_H-M   'P 1'
_cell_length_a   28.14870000
_cell_length_b   28.14870000
_cell_length_c   28.14870000
_cell_angle_alpha   41.55120000
_cell_angle_beta   41.55120000
_cell_angle_gamma   41.55120000
_symmetry_Int_Tables_number   1
_chemical_formula_structural   Na2Zn2H12C28S4O23
_chemical_formula_sum   'Na12 Zn12 H72 C168 S24 O138'
_cell_volume   8868.18010153
_cell_formula_units_Z   6
loop_
 _symmetry_equiv_pos_site_id
 _symmetry_equiv_pos_as_xyz
  1  'x, y, z'
loop_
 _atom_site_type_symbol
 _atom_site_label
 _atom_site_symmetry_multiplicity
 _atom_site_fract_x
 _atom_site_fract_y
 _atom_site_fract_z
 _atom_site_occupancy
 _atom_site_charge
Na  Na1  1  0.08403000  0.83647000  0.13097000  1.0 0.8967718756
Na  Na2  1  0.13097000  0.08403000  0.83647000  1.0 0.8967718756
Na  Na3  1  0.83647000  0.13097000  0.08403000  1.0 0.8967718756
Na  Na4  1  0.66353000  0.41597000  0.36903000  1.0 0.8967718756
Na  Na5  1  0.41597000  0.36903000  0.66353000  1.0 0.8967718756
Na  Na6  1  0.36903000  0.66353000  0.41597000  1.0 0.8967718756
Na  Na7  1  0.91597000  0.16353000  0.86903000  1.0 0.8967718756
Na  Na8  1  0.86903000  0.91597000  0.16353000  1.0 0.8967718756
Na  Na9  1  0.16353000  0.86903000  0.91597000  1.0 0.8967718756
Na  Na10  1  0.33647000  0.58403000  0.63097000  1.0 0.8967718756
Na  Na11  1  0.58403000  0.63097000  0.33647000  1.0 0.8967718756
Na  Na12  1  0.63097000  0.33647000  0.58403000  1.0 0.8967718756
Zn  Zn1  1  0.85480000  0.84666000  0.57783000  1.0 0.9929192241
Zn  Zn2  1  0.57783000  0.85480000  0.84666000  1.0 0.9929192241
Zn  Zn3  1  0.84666000  0.57783000  0.85480000  1.0 0.9929192241
Zn  Zn4  1  0.65334000  0.64520000  0.92217000  1.0 0.9929192241
Zn  Zn5  1  0.64520000  0.92217000  0.65334000  1.0 0.9929192241
Zn  Zn6  1  0.92217000  0.65334000  0.64520000  1.0 0.9929192241
Zn  Zn7  1  0.14520000  0.15334000  0.42217000  1.0 0.9929192241
Zn  Zn8  1  0.42217000  0.14520000  0.15334000  1.0 0.9929192241
Zn  Zn9  1  0.15334000  0.42217000  0.14520000  1.0 0.9929192241
Zn  Zn10  1  0.34666000  0.35480000  0.07783000  1.0 0.9929192241
Zn  Zn11  1  0.35480000  0.07783000  0.34666000  1.0 0.9929192241
Zn  Zn12  1  0.07783000  0.34666000  0.35480000  1.0 0.9929192241
H  H1  1  0.89160000  0.90870000  0.35710000  1.0 0.1592944663
H  H2  1  0.67820000  0.90610000  0.51370000  1.0 0.1409569353
H  H3  1  0.67090000  0.93280000  0.41960000  1.0 0.152830242
H  H4  1  0.66420000  0.09630000  0.25110000  1.0 0.1592944663
H  H5  1  0.58370000  0.93730000  0.34000000  1.0 0.152830242
H  H6  1  0.54040000  0.15090000  0.26660000  1.0 0.1409569353
H  H7  1  0.35710000  0.89160000  0.90870000  1.0 0.1592944663
H  H8  1  0.51370000  0.67820000  0.90610000  1.0 0.1409569353
H  H9  1  0.41960000  0.67090000  0.93280000  1.0 0.152830242
H  H10  1  0.25110000  0.66420000  0.09630000  1.0 0.1592944663
H  H11  1  0.34000000  0.58370000  0.93730000  1.0 0.152830242
H  H12  1  0.26660000  0.54040000  0.15090000  1.0 0.1409569353
H  H13  1  0.90870000  0.35710000  0.89160000  1.0 0.1592944663
H  H14  1  0.90610000  0.51370000  0.67820000  1.0 0.1409569353
H  H15  1  0.93280000  0.41960000  0.67090000  1.0 0.152830242
H  H16  1  0.09630000  0.25110000  0.66420000  1.0 0.1592944663
H  H17  1  0.93730000  0.34000000  0.58370000  1.0 0.152830242
H  H18  1  0.15090000  0.26660000  0.54040000  1.0 0.1409569353
H  H19  1  0.59130000  0.60840000  0.14290000  1.0 0.1592944663
H  H20  1  0.59390000  0.82180000  0.98630000  1.0 0.1409569353
H  H21  1  0.56720000  0.82910000  0.08040000  1.0 0.152830242
H  H22  1  0.40370000  0.83580000  0.24890000  1.0 0.1592944663
H  H23  1  0.56270000  0.91630000  0.16000000  1.0 0.152830242
H  H24  1  0.34910000  0.95960000  0.23340000  1.0 0.1409569353
H  H25  1  0.60840000  0.14290000  0.59130000  1.0 0.1592944663
H  H26  1  0.82180000  0.98630000  0.59390000  1.0 0.1409569353
H  H27  1  0.82910000  0.08040000  0.56720000  1.0 0.152830242
H  H28  1  0.83580000  0.24890000  0.40370000  1.0 0.1592944663
H  H29  1  0.91630000  0.16000000  0.56270000  1.0 0.152830242
H  H30  1  0.95960000  0.23340000  0.34910000  1.0 0.1409569353
H  H31  1  0.14290000  0.59130000  0.60840000  1.0 0.1592944663
H  H32  1  0.98630000  0.59390000  0.82180000  1.0 0.1409569353
H  H33  1  0.08040000  0.56720000  0.82910000  1.0 0.152830242
H  H34  1  0.24890000  0.40370000  0.83580000  1.0 0.1592944663
H  H35  1  0.16000000  0.56270000  0.91630000  1.0 0.152830242
H  H36  1  0.23340000  0.34910000  0.95960000  1.0 0.1409569353
H  H37  1  0.10840000  0.09130000  0.64290000  1.0 0.1592944663
H  H38  1  0.32180000  0.09390000  0.48630000  1.0 0.1409569353
H  H39  1  0.32910000  0.06720000  0.58040000  1.0 0.152830242
H  H40  1  0.33580000  0.90370000  0.74890000  1.0 0.1592944663
H  H41  1  0.41630000  0.06270000  0.66000000  1.0 0.152830242
H  H42  1  0.45960000  0.84910000  0.73340000  1.0 0.1409569353
H  H43  1  0.64290000  0.10840000  0.09130000  1.0 0.1592944663
H  H44  1  0.48630000  0.32180000  0.09390000  1.0 0.1409569353
H  H45  1  0.58040000  0.32910000  0.06720000  1.0 0.152830242
H  H46  1  0.74890000  0.33580000  0.90370000  1.0 0.1592944663
H  H47  1  0.66000000  0.41630000  0.06270000  1.0 0.152830242
H  H48  1  0.73340000  0.45960000  0.84910000  1.0 0.1409569353
H  H49  1  0.09130000  0.64290000  0.10840000  1.0 0.1592944663
H  H50  1  0.09390000  0.48630000  0.32180000  1.0 0.1409569353
H  H51  1  0.06720000  0.58040000  0.32910000  1.0 0.152830242
H  H52  1  0.90370000  0.74890000  0.33580000  1.0 0.1592944663
H  H53  1  0.06270000  0.66000000  0.41630000  1.0 0.152830242
H  H54  1  0.84910000  0.73340000  0.45960000  1.0 0.1409569353
H  H55  1  0.40870000  0.39160000  0.85710000  1.0 0.1592944663
H  H56  1  0.40610000  0.17820000  0.01370000  1.0 0.1409569353
H  H57  1  0.43280000  0.17090000  0.91960000  1.0 0.152830242
H  H58  1  0.59630000  0.16420000  0.75110000  1.0 0.1592944663
H  H59  1  0.43730000  0.08370000  0.84000000  1.0 0.152830242
H  H60  1  0.65090000  0.04040000  0.76660000  1.0 0.1409569353
H  H61  1  0.39160000  0.85710000  0.40870000  1.0 0.1592944663
H  H62  1  0.17820000  0.01370000  0.40610000  1.0 0.1409569353
H  H63  1  0.17090000  0.91960000  0.43280000  1.0 0.152830242
H  H64  1  0.16420000  0.75110000  0.59630000  1.0 0.1592944663
H  H65  1  0.08370000  0.84000000  0.43730000  1.0 0.152830242
H  H66  1  0.04040000  0.76660000  0.65090000  1.0 0.1409569353
H  H67  1  0.85710000  0.40870000  0.39160000  1.0 0.1592944663
H  H68  1  0.01370000  0.40610000  0.17820000  1.0 0.1409569353
H  H69  1  0.91960000  0.43280000  0.17090000  1.0 0.152830242
H  H70  1  0.75110000  0.59630000  0.16420000  1.0 0.1592944663
H  H71  1  0.84000000  0.43730000  0.08370000  1.0 0.152830242
H  H72  1  0.76660000  0.65090000  0.04040000  1.0 0.1409569353
C  C1  1  0.78865000  0.88965000  0.50595000  1.0 0.6020511316
C  C2  1  0.78560000  0.90700000  0.44380000  1.0 -0.0309803497
C  C3  1  0.84673000  0.91483000  0.36893000  1.0 -0.0600010503
C  C4  1  0.71915000  0.91305000  0.46295000  1.0 -0.0422548179
C  C5  1  0.84333000  0.93163000  0.31083000  1.0 -0.1680226747
C  C6  1  0.71478000  0.92928000  0.40678000  1.0 -0.1804370631
C  C7  1  0.77541000  0.94051000  0.33021000  1.0 0.2746901538
C  C8  1  0.69622000  0.98582000  0.28642000  1.0 0.2254044788
C  C9  1  0.67404000  0.93634000  0.31314000  1.0 -0.1804370631
C  C10  1  0.64773000  0.06453000  0.26913000  1.0 -0.1566225339
C  C11  1  0.59982000  0.96922000  0.32232000  1.0 -0.0600010503
C  C12  1  0.57348000  0.09728000  0.27838000  1.0 -0.0600010503
C  C13  1  0.54957000  0.04907000  0.30547000  1.0 -0.0028792339
C  C14  1  0.46967000  0.08257000  0.31587000  1.0 0.5548313286
C  C15  1  0.50595000  0.78865000  0.88965000  1.0 0.6020511316
C  C16  1  0.44380000  0.78560000  0.90700000  1.0 -0.0309803497
C  C17  1  0.36893000  0.84673000  0.91483000  1.0 -0.0600010503
C  C18  1  0.46295000  0.71915000  0.91305000  1.0 -0.0422548179
C  C19  1  0.31083000  0.84333000  0.93163000  1.0 -0.1680226747
C  C20  1  0.40678000  0.71478000  0.92928000  1.0 -0.1804370631
C  C21  1  0.33021000  0.77541000  0.94051000  1.0 0.2746901538
C  C22  1  0.28642000  0.69622000  0.98582000  1.0 0.2254044788
C  C23  1  0.31314000  0.67404000  0.93634000  1.0 -0.1804370631
C  C24  1  0.26913000  0.64773000  0.06453000  1.0 -0.1566225339
C  C25  1  0.32232000  0.59982000  0.96922000  1.0 -0.0600010503
C  C26  1  0.27838000  0.57348000  0.09728000  1.0 -0.0600010503
C  C27  1  0.30547000  0.54957000  0.04907000  1.0 -0.0028792339
C  C28  1  0.31587000  0.46967000  0.08257000  1.0 0.5548313286
C  C29  1  0.88965000  0.50595000  0.78865000  1.0 0.6020511316
C  C30  1  0.90700000  0.44380000  0.78560000  1.0 -0.0309803497
C  C31  1  0.91483000  0.36893000  0.84673000  1.0 -0.0600010503
C  C32  1  0.91305000  0.46295000  0.71915000  1.0 -0.0422548179
C  C33  1  0.93163000  0.31083000  0.84333000  1.0 -0.1680226747
C  C34  1  0.92928000  0.40678000  0.71478000  1.0 -0.1804370631
C  C35  1  0.94051000  0.33021000  0.77541000  1.0 0.2746901538
C  C36  1  0.98582000  0.28642000  0.69622000  1.0 0.2254044788
C  C37  1  0.93634000  0.31314000  0.67404000  1.0 -0.1804370631
C  C38  1  0.06453000  0.26913000  0.64773000  1.0 -0.1566225339
C  C39  1  0.96922000  0.32232000  0.59982000  1.0 -0.0600010503
C  C40  1  0.09728000  0.27838000  0.57348000  1.0 -0.0600010503
C  C41  1  0.04907000  0.30547000  0.54957000  1.0 -0.0028792339
C  C42  1  0.08257000  0.31587000  0.46967000  1.0 0.5548313286
C  C43  1  0.61035000  0.71135000  0.99405000  1.0 0.6020511316
C  C44  1  0.59300000  0.71440000  0.05620000  1.0 -0.0309803497
C  C45  1  0.58517000  0.65327000  0.13107000  1.0 -0.0600010503
C  C46  1  0.58695000  0.78085000  0.03705000  1.0 -0.0422548179
C  C47  1  0.56837000  0.65667000  0.18917000  1.0 -0.1680226747
C  C48  1  0.57072000  0.78522000  0.09322000  1.0 -0.1804370631
C  C49  1  0.55949000  0.72459000  0.16979000  1.0 0.2746901538
C  C50  1  0.51418000  0.80378000  0.21358000  1.0 0.2254044788
C  C51  1  0.56366000  0.82596000  0.18686000  1.0 -0.1804370631
C  C52  1  0.43547000  0.85227000  0.23087000  1.0 -0.1566225339
C  C53  1  0.53078000  0.90018000  0.17768000  1.0 -0.0600010503
C  C54  1  0.40272000  0.92652000  0.22162000  1.0 -0.0600010503
C  C55  1  0.45093000  0.95043000  0.19453000  1.0 -0.0028792339
C  C56  1  0.41743000  0.03033000  0.18413000  1.0 0.5548313286
C  C57  1  0.71135000  0.99405000  0.61035000  1.0 0.6020511316
C  C58  1  0.71440000  0.05620000  0.59300000  1.0 -0.0309803497
C  C59  1  0.65327000  0.13107000  0.58517000  1.0 -0.0600010503
C  C60  1  0.78085000  0.03705000  0.58695000  1.0 -0.0422548179
C  C61  1  0.65667000  0.18917000  0.56837000  1.0 -0.1680226747
C  C62  1  0.78522000  0.09322000  0.57072000  1.0 -0.1804370631
C  C63  1  0.72459000  0.16979000  0.55949000  1.0 0.2746901538
C  C64  1  0.80378000  0.21358000  0.51418000  1.0 0.2254044788
C  C65  1  0.82596000  0.18686000  0.56366000  1.0 -0.1804370631
C  C66  1  0.85227000  0.23087000  0.43547000  1.0 -0.1566225339
C  C67  1  0.90018000  0.17768000  0.53078000  1.0 -0.0600010503
C  C68  1  0.92652000  0.22162000  0.40272000  1.0 -0.0600010503
C  C69  1  0.95043000  0.19453000  0.45093000  1.0 -0.0028792339
C  C70  1  0.03033000  0.18413000  0.41743000  1.0 0.5548313286
C  C71  1  0.99405000  0.61035000  0.71135000  1.0 0.6020511316
C  C72  1  0.05620000  0.59300000  0.71440000  1.0 -0.0309803497
C  C73  1  0.13107000  0.58517000  0.65327000  1.0 -0.0600010503
C  C74  1  0.03705000  0.58695000  0.78085000  1.0 -0.0422548179
C  C75  1  0.18917000  0.56837000  0.65667000  1.0 -0.1680226747
C  C76  1  0.09322000  0.57072000  0.78522000  1.0 -0.1804370631
C  C77  1  0.16979000  0.55949000  0.72459000  1.0 0.2746901538
C  C78  1  0.21358000  0.51418000  0.80378000  1.0 0.2254044788
C  C79  1  0.18686000  0.56366000  0.82596000  1.0 -0.1804370631
C  C80  1  0.23087000  0.43547000  0.85227000  1.0 -0.1566225339
C  C81  1  0.17768000  0.53078000  0.90018000  1.0 -0.0600010503
C  C82  1  0.22162000  0.40272000  0.92652000  1.0 -0.0600010503
C  C83  1  0.19453000  0.45093000  0.95043000  1.0 -0.0028792339
C  C84  1  0.18413000  0.41743000  0.03033000  1.0 0.5548313286
C  C85  1  0.21135000  0.11035000  0.49405000  1.0 0.6020511316
C  C86  1  0.21440000  0.09300000  0.55620000  1.0 -0.0309803497
C  C87  1  0.15327000  0.08517000  0.63107000  1.0 -0.0600010503
C  C88  1  0.28085000  0.08695000  0.53705000  1.0 -0.0422548179
C  C89  1  0.15667000  0.06837000  0.68917000  1.0 -0.1680226747
C  C90  1  0.28522000  0.07072000  0.59322000  1.0 -0.1804370631
C  C91  1  0.22459000  0.05949000  0.66979000  1.0 0.2746901538
C  C92  1  0.30378000  0.01418000  0.71358000  1.0 0.2254044788
C  C93  1  0.32596000  0.06366000  0.68686000  1.0 -0.1804370631
C  C94  1  0.35227000  0.93547000  0.73087000  1.0 -0.1566225339
C  C95  1  0.40018000  0.03078000  0.67768000  1.0 -0.0600010503
C  C96  1  0.42652000  0.90272000  0.72162000  1.0 -0.0600010503
C  C97  1  0.45043000  0.95093000  0.69453000  1.0 -0.0028792339
C  C98  1  0.53033000  0.91743000  0.68413000  1.0 0.5548313286
C  C99  1  0.49405000  0.21135000  0.11035000  1.0 0.6020511316
C  C100  1  0.55620000  0.21440000  0.09300000  1.0 -0.0309803497
C  C101  1  0.63107000  0.15327000  0.08517000  1.0 -0.0600010503
C  C102  1  0.53705000  0.28085000  0.08695000  1.0 -0.0422548179
C  C103  1  0.68917000  0.15667000  0.06837000  1.0 -0.1680226747
C  C104  1  0.59322000  0.28522000  0.07072000  1.0 -0.1804370631
C  C105  1  0.66979000  0.22459000  0.05949000  1.0 0.2746901538
C  C106  1  0.71358000  0.30378000  0.01418000  1.0 0.2254044788
C  C107  1  0.68686000  0.32596000  0.06366000  1.0 -0.1804370631
C  C108  1  0.73087000  0.35227000  0.93547000  1.0 -0.1566225339
C  C109  1  0.67768000  0.40018000  0.03078000  1.0 -0.0600010503
C  C110  1  0.72162000  0.42652000  0.90272000  1.0 -0.0600010503
C  C111  1  0.69453000  0.45043000  0.95093000  1.0 -0.0028792339
C  C112  1  0.68413000  0.53033000  0.91743000  1.0 0.5548313286
C  C113  1  0.11035000  0.49405000  0.21135000  1.0 0.6020511316
C  C114  1  0.09300000  0.55620000  0.21440000  1.0 -0.0309803497
C  C115  1  0.08517000  0.63107000  0.15327000  1.0 -0.0600010503
C  C116  1  0.08695000  0.53705000  0.28085000  1.0 -0.0422548179
C  C117  1  0.06837000  0.68917000  0.15667000  1.0 -0.1680226747
C  C118  1  0.07072000  0.59322000  0.28522000  1.0 -0.1804370631
C  C119  1  0.05949000  0.66979000  0.22459000  1.0 0.2746901538
C  C120  1  0.01418000  0.71358000  0.30378000  1.0 0.2254044788
C  C121  1  0.06366000  0.68686000  0.32596000  1.0 -0.1804370631
C  C122  1  0.93547000  0.73087000  0.35227000  1.0 -0.1566225339
C  C123  1  0.03078000  0.67768000  0.40018000  1.0 -0.0600010503
C  C124  1  0.90272000  0.72162000  0.42652000  1.0 -0.0600010503
C  C125  1  0.95093000  0.69453000  0.45043000  1.0 -0.0028792339
C  C126  1  0.91743000  0.68413000  0.53033000  1.0 0.5548313286
C  C127  1  0.38965000  0.28865000  0.00595000  1.0 0.6020511316
C  C128  1  0.40700000  0.28560000  0.94380000  1.0 -0.0309803497
C  C129  1  0.41483000  0.34673000  0.86893000  1.0 -0.0600010503
C  C130  1  0.41305000  0.21915000  0.96295000  1.0 -0.0422548179
C  C131  1  0.43163000  0.34333000  0.81083000  1.0 -0.1680226747
C  C132  1  0.42928000  0.21478000  0.90678000  1.0 -0.1804370631
C  C133  1  0.44051000  0.27541000  0.83021000  1.0 0.2746901538
C  C134  1  0.48582000  0.19622000  0.78642000  1.0 0.2254044788
C  C135  1  0.43634000  0.17404000  0.81314000  1.0 -0.1804370631
C  C136  1  0.56453000  0.14773000  0.76913000  1.0 -0.1566225339
C  C137  1  0.46922000  0.09982000  0.82232000  1.0 -0.0600010503
C  C138  1  0.59728000  0.07348000  0.77838000  1.0 -0.0600010503
C  C139  1  0.54907000  0.04957000  0.80547000  1.0 -0.0028792339
C  C140  1  0.58257000  0.96967000  0.81587000  1.0 0.5548313286
C  C141  1  0.28865000  0.00595000  0.38965000  1.0 0.6020511316
C  C142  1  0.28560000  0.94380000  0.40700000  1.0 -0.0309803497
C  C143  1  0.34673000  0.86893000  0.41483000  1.0 -0.0600010503
C  C144  1  0.21915000  0.96295000  0.41305000  1.0 -0.0422548179
C  C145  1  0.34333000  0.81083000  0.43163000  1.0 -0.1680226747
C  C146  1  0.21478000  0.90678000  0.42928000  1.0 -0.1804370631
C  C147  1  0.27541000  0.83021000  0.44051000  1.0 0.2746901538
C  C148  1  0.19622000  0.78642000  0.48582000  1.0 0.2254044788
C  C149  1  0.17404000  0.81314000  0.43634000  1.0 -0.1804370631
C  C150  1  0.14773000  0.76913000  0.56453000  1.0 -0.1566225339
C  C151  1  0.09982000  0.82232000  0.46922000  1.0 -0.0600010503
C  C152  1  0.07348000  0.77838000  0.59728000  1.0 -0.0600010503
C  C153  1  0.04957000  0.80547000  0.54907000  1.0 -0.0028792339
C  C154  1  0.96967000  0.81587000  0.58257000  1.0 0.5548313286
C  C155  1  0.00595000  0.38965000  0.28865000  1.0 0.6020511316
C  C156  1  0.94380000  0.40700000  0.28560000  1.0 -0.0309803497
C  C157  1  0.86893000  0.41483000  0.34673000  1.0 -0.0600010503
C  C158  1  0.96295000  0.41305000  0.21915000  1.0 -0.0422548179
C  C159  1  0.81083000  0.43163000  0.34333000  1.0 -0.1680226747
C  C160  1  0.90678000  0.42928000  0.21478000  1.0 -0.1804370631
C  C161  1  0.83021000  0.44051000  0.27541000  1.0 0.2746901538
C  C162  1  0.78642000  0.48582000  0.19622000  1.0 0.2254044788
C  C163  1  0.81314000  0.43634000  0.17404000  1.0 -0.1804370631
C  C164  1  0.76913000  0.56453000  0.14773000  1.0 -0.1566225339
C  C165  1  0.82232000  0.46922000  0.09982000  1.0 -0.0600010503
C  C166  1  0.77838000  0.59728000  0.07348000  1.0 -0.0600010503
C  C167  1  0.80547000  0.54907000  0.04957000  1.0 -0.0028792339
C  C168  1  0.81587000  0.58257000  0.96967000  1.0 0.5548313286
S  S1  1  0.92244000  0.94659000  0.21442000  1.0 1.2314129498
S  S2  1  0.73589000  0.83353000  0.33565000  1.0 1.2027960446
S  S3  1  0.21442000  0.92244000  0.94659000  1.0 1.2314129498
S  S4  1  0.33565000  0.73589000  0.83353000  1.0 1.2027960446
S  S5  1  0.94659000  0.21442000  0.92244000  1.0 1.2314129498
S  S6  1  0.83353000  0.33565000  0.73589000  1.0 1.2027960446
S  S7  1  0.55341000  0.57756000  0.28558000  1.0 1.2314129498
S  S8  1  0.66647000  0.76411000  0.16435000  1.0 1.2027960446
S  S9  1  0.57756000  0.28558000  0.55341000  1.0 1.2314129498
S  S10  1  0.76411000  0.16435000  0.66647000  1.0 1.2027960446
S  S11  1  0.28558000  0.55341000  0.57756000  1.0 1.2314129498
S  S12  1  0.16435000  0.66647000  0.76411000  1.0 1.2027960446
S  S13  1  0.07756000  0.05341000  0.78558000  1.0 1.2314129498
S  S14  1  0.26411000  0.16647000  0.66435000  1.0 1.2027960446
S  S15  1  0.78558000  0.07756000  0.05341000  1.0 1.2314129498
S  S16  1  0.66435000  0.26411000  0.16647000  1.0 1.2027960446
S  S17  1  0.05341000  0.78558000  0.07756000  1.0 1.2314129498
S  S18  1  0.16647000  0.66435000  0.26411000  1.0 1.2027960446
S  S19  1  0.44659000  0.42244000  0.71442000  1.0 1.2314129498
S  S20  1  0.33353000  0.23589000  0.83565000  1.0 1.2027960446
S  S21  1  0.42244000  0.71442000  0.44659000  1.0 1.2314129498
S  S22  1  0.23589000  0.83565000  0.33353000  1.0 1.2027960446
S  S23  1  0.71442000  0.44659000  0.42244000  1.0 1.2314129498
S  S24  1  0.83565000  0.33353000  0.23589000  1.0 1.2027960446
O  O1  1  0.84859000  0.88466000  0.48823000  1.0 -0.5080431811
O  O2  1  0.73121000  0.88024000  0.57406000  1.0 -0.4985050533
O  O3  1  0.77131000  0.95627000  0.27331000  1.0 -0.2356427348
O  O4  1  0.42558000  0.15218000  0.30268000  1.0 -0.4635513448
O  O5  1  0.45416000  0.03393000  0.33910000  1.0 -0.515982647
O  O6  1  0.98822000  0.91153000  0.22354000  1.0 -0.5677704189
O  O7  1  0.89449000  0.03105000  0.16772000  1.0 -0.6157689615
O  O8  1  0.93992000  0.90564000  0.18653000  1.0 -0.7093213771
O  O9  1  0.73892000  0.79722000  0.40592000  1.0 -0.5306222562
O  O10  1  0.81151000  0.82791000  0.26871000  1.0 -0.613947831
O  O11  1  0.69735000  0.80765000  0.34745000  1.0 -0.4711914036
O  O12  1  0.48823000  0.84859000  0.88466000  1.0 -0.5080431811
O  O13  1  0.57406000  0.73121000  0.88024000  1.0 -0.4985050533
O  O14  1  0.27331000  0.77131000  0.95627000  1.0 -0.2356427348
O  O15  1  0.30268000  0.42558000  0.15218000  1.0 -0.4635513448
O  O16  1  0.33910000  0.45416000  0.03393000  1.0 -0.515982647
O  O17  1  0.22354000  0.98822000  0.91153000  1.0 -0.5677704189
O  O18  1  0.16772000  0.89449000  0.03105000  1.0 -0.6157689615
O  O19  1  0.18653000  0.93992000  0.90564000  1.0 -0.7093213771
O  O20  1  0.40592000  0.73892000  0.79722000  1.0 -0.5306222562
O  O21  1  0.26871000  0.81151000  0.82791000  1.0 -0.613947831
O  O22  1  0.34745000  0.69735000  0.80765000  1.0 -0.4711914036
O  O23  1  0.88466000  0.48823000  0.84859000  1.0 -0.5080431811
O  O24  1  0.88024000  0.57406000  0.73121000  1.0 -0.4985050533
O  O25  1  0.95627000  0.27331000  0.77131000  1.0 -0.2356427348
O  O26  1  0.15218000  0.30268000  0.42558000  1.0 -0.4635513448
O  O27  1  0.03393000  0.33910000  0.45416000  1.0 -0.515982647
O  O28  1  0.91153000  0.22354000  0.98822000  1.0 -0.5677704189
O  O29  1  0.03105000  0.16772000  0.89449000  1.0 -0.6157689615
O  O30  1  0.90564000  0.18653000  0.93992000  1.0 -0.7093213771
O  O31  1  0.79722000  0.40592000  0.73892000  1.0 -0.5306222562
O  O32  1  0.82791000  0.26871000  0.81151000  1.0 -0.613947831
O  O33  1  0.80765000  0.34745000  0.69735000  1.0 -0.4711914036
O  O34  1  0.61534000  0.65141000  0.01177000  1.0 -0.5080431811
O  O35  1  0.61976000  0.76879000  0.92594000  1.0 -0.4985050533
O  O36  1  0.54373000  0.72869000  0.22669000  1.0 -0.2356427348
O  O37  1  0.34782000  0.07442000  0.19732000  1.0 -0.4635513448
O  O38  1  0.46607000  0.04584000  0.16090000  1.0 -0.515982647
O  O39  1  0.58847000  0.51178000  0.27646000  1.0 -0.5677704189
O  O40  1  0.46895000  0.60551000  0.33228000  1.0 -0.6157689615
O  O41  1  0.59436000  0.56008000  0.31347000  1.0 -0.7093213771
O  O42  1  0.70278000  0.76108000  0.09408000  1.0 -0.5306222562
O  O43  1  0.67209000  0.68849000  0.23129000  1.0 -0.613947831
O  O44  1  0.69235000  0.80265000  0.15255000  1.0 -0.4711914036
O  O45  1  0.65141000  0.01177000  0.61534000  1.0 -0.5080431811
O  O46  1  0.76879000  0.92594000  0.61976000  1.0 -0.4985050533
O  O47  1  0.72869000  0.22669000  0.54373000  1.0 -0.2356427348
O  O48  1  0.07442000  0.19732000  0.34782000  1.0 -0.4635513448
O  O49  1  0.04584000  0.16090000  0.46607000  1.0 -0.515982647
O  O50  1  0.51178000  0.27646000  0.58847000  1.0 -0.5677704189
O  O51  1  0.60551000  0.33228000  0.46895000  1.0 -0.6157689615
O  O52  1  0.56008000  0.31347000  0.59436000  1.0 -0.7093213771
O  O53  1  0.76108000  0.09408000  0.70278000  1.0 -0.5306222562
O  O54  1  0.68849000  0.23129000  0.67209000  1.0 -0.613947831
O  O55  1  0.80265000  0.15255000  0.69235000  1.0 -0.4711914036
O  O56  1  0.01177000  0.61534000  0.65141000  1.0 -0.5080431811
O  O57  1  0.92594000  0.61976000  0.76879000  1.0 -0.4985050533
O  O58  1  0.22669000  0.54373000  0.72869000  1.0 -0.2356427348
O  O59  1  0.19732000  0.34782000  0.07442000  1.0 -0.4635513448
O  O60  1  0.16090000  0.46607000  0.04584000  1.0 -0.515982647
O  O61  1  0.27646000  0.58847000  0.51178000  1.0 -0.5677704189
O  O62  1  0.33228000  0.46895000  0.60551000  1.0 -0.6157689615
O  O63  1  0.31347000  0.59436000  0.56008000  1.0 -0.7093213771
O  O64  1  0.09408000  0.70278000  0.76108000  1.0 -0.5306222562
O  O65  1  0.23129000  0.67209000  0.68849000  1.0 -0.613947831
O  O66  1  0.15255000  0.69235000  0.80265000  1.0 -0.4711914036
O  O67  1  0.15141000  0.11534000  0.51177000  1.0 -0.5080431811
O  O68  1  0.26879000  0.11976000  0.42594000  1.0 -0.4985050533
O  O69  1  0.22869000  0.04373000  0.72669000  1.0 -0.2356427348
O  O70  1  0.57442000  0.84782000  0.69732000  1.0 -0.4635513448
O  O71  1  0.54584000  0.96607000  0.66090000  1.0 -0.515982647
O  O72  1  0.01178000  0.08847000  0.77646000  1.0 -0.5677704189
O  O73  1  0.10551000  0.96895000  0.83228000  1.0 -0.6157689615
O  O74  1  0.06008000  0.09436000  0.81347000  1.0 -0.7093213771
O  O75  1  0.26108000  0.20278000  0.59408000  1.0 -0.5306222562
O  O76  1  0.18849000  0.17209000  0.73129000  1.0 -0.613947831
O  O77  1  0.30265000  0.19235000  0.65255000  1.0 -0.4711914036
O  O78  1  0.51177000  0.15141000  0.11534000  1.0 -0.5080431811
O  O79  1  0.42594000  0.26879000  0.11976000  1.0 -0.4985050533
O  O80  1  0.72669000  0.22869000  0.04373000  1.0 -0.2356427348
O  O81  1  0.69732000  0.57442000  0.84782000  1.0 -0.4635513448
O  O82  1  0.66090000  0.54584000  0.96607000  1.0 -0.515982647
O  O83  1  0.77646000  0.01178000  0.08847000  1.0 -0.5677704189
O  O84  1  0.83228000  0.10551000  0.96895000  1.0 -0.6157689615
O  O85  1  0.81347000  0.06008000  0.09436000  1.0 -0.7093213771
O  O86  1  0.59408000  0.26108000  0.20278000  1.0 -0.5306222562
O  O87  1  0.73129000  0.18849000  0.17209000  1.0 -0.613947831
O  O88  1  0.65255000  0.30265000  0.19235000  1.0 -0.4711914036
O  O89  1  0.11534000  0.51177000  0.15141000  1.0 -0.5080431811
O  O90  1  0.11976000  0.42594000  0.26879000  1.0 -0.4985050533
O  O91  1  0.04373000  0.72669000  0.22869000  1.0 -0.2356427348
O  O92  1  0.84782000  0.69732000  0.57442000  1.0 -0.4635513448
O  O93  1  0.96607000  0.66090000  0.54584000  1.0 -0.515982647
O  O94  1  0.08847000  0.77646000  0.01178000  1.0 -0.5677704189
O  O95  1  0.96895000  0.83228000  0.10551000  1.0 -0.6157689615
O  O96  1  0.09436000  0.81347000  0.06008000  1.0 -0.7093213771
O  O97  1  0.20278000  0.59408000  0.26108000  1.0 -0.5306222562
O  O98  1  0.17209000  0.73129000  0.18849000  1.0 -0.613947831
O  O99  1  0.19235000  0.65255000  0.30265000  1.0 -0.4711914036
O  O100  1  0.38466000  0.34859000  0.98823000  1.0 -0.5080431811
O  O101  1  0.38024000  0.23121000  0.07406000  1.0 -0.4985050533
O  O102  1  0.45627000  0.27131000  0.77331000  1.0 -0.2356427348
O  O103  1  0.65218000  0.92558000  0.80268000  1.0 -0.4635513448
O  O104  1  0.53393000  0.95416000  0.83910000  1.0 -0.515982647
O  O105  1  0.41153000  0.48822000  0.72354000  1.0 -0.5677704189
O  O106  1  0.53105000  0.39449000  0.66772000  1.0 -0.6157689615
O  O107  1  0.40564000  0.43992000  0.68653000  1.0 -0.7093213771
O  O108  1  0.29722000  0.23892000  0.90592000  1.0 -0.5306222562
O  O109  1  0.32791000  0.31151000  0.76871000  1.0 -0.613947831
O  O110  1  0.30765000  0.19735000  0.84745000  1.0 -0.4711914036
O  O111  1  0.34859000  0.98823000  0.38466000  1.0 -0.5080431811
O  O112  1  0.23121000  0.07406000  0.38024000  1.0 -0.4985050533
O  O113  1  0.27131000  0.77331000  0.45627000  1.0 -0.2356427348
O  O114  1  0.92558000  0.80268000  0.65218000  1.0 -0.4635513448
O  O115  1  0.95416000  0.83910000  0.53393000  1.0 -0.5080431811
O  O116  1  0.48822000  0.72354000  0.41153000  1.0 -0.5677704189
O  O117  1  0.39449000  0.66772000  0.53105000  1.0 -0.6157689615
O  O118  1  0.43992000  0.68653000  0.40564000  1.0 -0.7093213771
O  O119  1  0.23892000  0.90592000  0.29722000  1.0 -0.5306222562
O  O120  1  0.31151000  0.76871000  0.32791000  1.0 -0.613947831
O  O121  1  0.19735000  0.84745000  0.30765000  1.0 -0.4711914036
O  O122  1  0.98823000  0.38466000  0.34859000  1.0 -0.5080431811
O  O123  1  0.07406000  0.38024000  0.23121000  1.0 -0.4985050533
O  O124  1  0.77331000  0.45627000  0.27131000  1.0 -0.2356427348
O  O125  1  0.80268000  0.65218000  0.92558000  1.0 -0.4635513448
O  O126  1  0.83910000  0.53393000  0.95416000  1.0 -0.515982647
O  O127  1  0.72354000  0.41153000  0.48822000  1.0 -0.5677704189
O  O128  1  0.66772000  0.53105000  0.39449000  1.0 -0.6157689615
O  O129  1  0.68653000  0.40564000  0.43992000  1.0 -0.7093213771
O  O130  1  0.90592000  0.29722000  0.23892000  1.0 -0.5306222562
O  O131  1  0.76871000  0.32791000  0.31151000  1.0 -0.613947831
O  O132  1  0.84745000  0.30765000  0.19735000  1.0 -0.4711914036
O  O133  1  0.84115000  0.75000000  0.65885000  1.0 -0.4314359996
O  O134  1  0.65885000  0.84115000  0.75000000  1.0 -0.4314359996
O  O135  1  0.75000000  0.65885000  0.84115000  1.0 -0.4314359996
O  O136  1  0.15885000  0.25000000  0.34115000  1.0 -0.4314359996
O  O137  1  0.34115000  0.15885000  0.25000000  1.0 -0.4314359996
O  O138  1  0.25000000  0.34115000  0.15885000  1.0 -0.4314359996
