# DDEC6 charges by PACMAN v1.1 (https://github.com/mtap-research/PACMAN-charge/)
data_DACDIY_FSR_pacman
_symmetry_space_group_name_H-M   'P 1'
_cell_length_a   23.14200000
_cell_length_b   12.37150000
_cell_length_c   25.09200000
_cell_angle_alpha   90.00000000
_cell_angle_beta   107.65900000
_cell_angle_gamma   90.00000000
_symmetry_Int_Tables_number   1
_chemical_formula_structural   K3Zn2H22C33S4(NO13)2
_chemical_formula_sum   'K12 Zn8 H88 C132 S16 N8 O104'
_cell_volume   6845.35840774
_cell_formula_units_Z   4
loop_
 _symmetry_equiv_pos_site_id
 _symmetry_equiv_pos_as_xyz
  1  'x, y, z'
loop_
 _atom_site_type_symbol
 _atom_site_label
 _atom_site_symmetry_multiplicity
 _atom_site_fract_x
 _atom_site_fract_y
 _atom_site_fract_z
 _atom_site_occupancy
 _atom_site_charge
K  K1  1  0.77768000  0.42744000  0.41679000  1.0 0.8898160849
K  K2  1  0.89365000  0.98082000  0.47470000  1.0 0.8898160849
K  K3  1  0.15744000  0.73293000  0.18930000  1.0 0.8898160849
K  K4  1  0.22232000  0.92744000  0.08321000  1.0 0.8898160849
K  K5  1  0.10635000  0.48082000  0.02530000  1.0 0.8898160849
K  K6  1  0.84256000  0.23293000  0.31070000  1.0 0.8898160849
K  K7  1  0.22232000  0.57256000  0.58321000  1.0 0.8898160849
K  K8  1  0.10635000  0.01918000  0.52530000  1.0 0.8898160849
K  K9  1  0.84256000  0.26707000  0.81070000  1.0 0.8898160849
K  K10  1  0.77768000  0.07256000  0.91679000  1.0 0.8898160849
K  K11  1  0.89365000  0.51918000  0.97470000  1.0 0.8898160849
K  K12  1  0.15744000  0.76707000  0.68930000  1.0 0.8898160849
Zn  Zn1  1  0.45902000  0.09567000  0.49425000  1.0 0.9317073568
Zn  Zn2  1  0.87601000  0.51310000  0.33194000  1.0 0.9608471438
Zn  Zn3  1  0.54098000  0.59567000  0.00575000  1.0 0.9317073568
Zn  Zn4  1  0.12399000  0.01310000  0.16806000  1.0 0.9608471438
Zn  Zn5  1  0.54098000  0.90433000  0.50575000  1.0 0.9317073568
Zn  Zn6  1  0.12399000  0.48690000  0.66806000  1.0 0.9608471438
Zn  Zn7  1  0.45902000  0.40433000  0.99425000  1.0 0.9317073568
Zn  Zn8  1  0.87601000  0.98690000  0.83194000  1.0 0.9608471438
H  H1  1  0.66471000  0.06157000  0.43062000  1.0 0.148730914
H  H2  1  0.58674000  0.36887000  0.33079000  1.0 0.1404025859
H  H3  1  0.53655000  0.28822000  0.38683000  1.0 0.1274178135
H  H4  1  0.65276000  0.52620000  0.17111000  1.0 0.148730914
H  H5  1  0.56074000  0.24757000  0.15351000  1.0 0.1274178135
H  H6  1  0.61205000  0.20204000  0.24436000  1.0 0.148730914
H  H7  1  0.94527000  0.59703000  0.51784000  1.0 0.148730914
H  H8  1  0.06315000  0.82466000  0.44774000  1.0 0.1404025859
H  H9  1  0.10658000  0.72602000  0.52775000  1.0 0.1404025859
H  H10  1  0.02232000  0.07593000  0.29917000  1.0 0.148730914
H  H11  1  0.04991000  0.76686000  0.26957000  1.0 0.1404025859
H  H12  1  0.99769000  0.71288000  0.33066000  1.0 0.1642395302
H  H13  1  0.40236000  0.38183000  0.63014000  1.0 0.1274178135
H  H14  1  0.37051000  0.46636000  0.58242000  1.0 0.1246275797
H  H15  1  0.28264000  0.35555000  0.55326000  1.0 0.1274178135
H  H16  1  0.31233000  0.27614000  0.60364000  1.0 0.148730914
H  H17  1  0.25971000  0.16787000  0.52256000  1.0 0.148730914
H  H18  1  0.31163000  0.10105000  0.50996000  1.0 0.148730914
H  H19  1  0.27811000  0.19195000  0.46854000  1.0 0.148730914
H  H20  1  0.47709000  0.36123000  0.52192000  1.0 0.1662203117
H  H21  1  0.49266000  0.40863000  0.58258000  1.0 0.148730914
H  H22  1  0.44951000  0.47229000  0.53204000  1.0 0.148730914
H  H23  1  0.33529000  0.56157000  0.06938000  1.0 0.148730914
H  H24  1  0.41326000  0.86887000  0.16921000  1.0 0.1404025859
H  H25  1  0.46345000  0.78822000  0.11317000  1.0 0.1274178135
H  H26  1  0.34724000  0.02620000  0.32889000  1.0 0.148730914
H  H27  1  0.43926000  0.74757000  0.34649000  1.0 0.1274178135
H  H28  1  0.38795000  0.70204000  0.25564000  1.0 0.148730914
H  H29  1  0.05473000  0.09703000  0.98216000  1.0 0.148730914
H  H30  1  0.93685000  0.32466000  0.05226000  1.0 0.1404025859
H  H31  1  0.89342000  0.22602000  0.97225000  1.0 0.1404025859
H  H32  1  0.97768000  0.57593000  0.20083000  1.0 0.148730914
H  H33  1  0.95009000  0.26686000  0.23043000  1.0 0.1404025859
H  H34  1  0.00231000  0.21288000  0.16934000  1.0 0.1642395302
H  H35  1  0.59764000  0.88183000  0.86986000  1.0 0.1274178135
H  H36  1  0.62949000  0.96636000  0.91758000  1.0 0.1274178135
H  H37  1  0.71736000  0.85555000  0.94674000  1.0 0.1274178135
H  H38  1  0.68767000  0.77614000  0.89636000  1.0 0.148730914
H  H39  1  0.74029000  0.66787000  0.97744000  1.0 0.148730914
H  H40  1  0.68837000  0.60105000  0.99004000  1.0 0.148730914
H  H41  1  0.72189000  0.69195000  0.03146000  1.0 0.148730914
H  H42  1  0.52291000  0.86123000  0.97808000  1.0 0.1662203117
H  H43  1  0.50734000  0.90863000  0.91742000  1.0 0.148730914
H  H44  1  0.55049000  0.97229000  0.96796000  1.0 0.148730914
H  H45  1  0.33529000  0.93843000  0.56938000  1.0 0.148730914
H  H46  1  0.41326000  0.63113000  0.66921000  1.0 0.1404025859
H  H47  1  0.46345000  0.71178000  0.61317000  1.0 0.1274178135
H  H48  1  0.34724000  0.47380000  0.82889000  1.0 0.148730914
H  H49  1  0.43926000  0.75243000  0.84649000  1.0 0.1274178135
H  H50  1  0.38795000  0.79796000  0.75564000  1.0 0.148730914
H  H51  1  0.05473000  0.40297000  0.48216000  1.0 0.148730914
H  H52  1  0.93685000  0.17534000  0.55226000  1.0 0.1404025859
H  H53  1  0.89342000  0.27398000  0.47225000  1.0 0.1404025859
H  H54  1  0.97768000  0.92407000  0.70083000  1.0 0.148730914
H  H55  1  0.95009000  0.23314000  0.73043000  1.0 0.1404025859
H  H56  1  0.00231000  0.28712000  0.66934000  1.0 0.1642395302
H  H57  1  0.59764000  0.61817000  0.36986000  1.0 0.1274178135
H  H58  1  0.62949000  0.53364000  0.41758000  1.0 0.1274178135
H  H59  1  0.71736000  0.64445000  0.44674000  1.0 0.1274178135
H  H60  1  0.68767000  0.72386000  0.39636000  1.0 0.148730914
H  H61  1  0.74029000  0.83213000  0.47744000  1.0 0.148730914
H  H62  1  0.68837000  0.89895000  0.49004000  1.0 0.148730914
H  H63  1  0.72189000  0.80805000  0.53146000  1.0 0.148730914
H  H64  1  0.52291000  0.63877000  0.47808000  1.0 0.1662203117
H  H65  1  0.50734000  0.59137000  0.41742000  1.0 0.148730914
H  H66  1  0.55049000  0.52771000  0.46796000  1.0 0.148730914
H  H67  1  0.66471000  0.43843000  0.93062000  1.0 0.148730914
H  H68  1  0.58674000  0.13113000  0.83079000  1.0 0.1404025859
H  H69  1  0.53655000  0.21178000  0.88683000  1.0 0.1274178135
H  H70  1  0.65276000  0.97380000  0.67111000  1.0 0.148730914
H  H71  1  0.56074000  0.25243000  0.65351000  1.0 0.1274178135
H  H72  1  0.61205000  0.29796000  0.74436000  1.0 0.148730914
H  H73  1  0.94527000  0.90297000  0.01784000  1.0 0.148730914
H  H74  1  0.06315000  0.67534000  0.94774000  1.0 0.1404025859
H  H75  1  0.10658000  0.77398000  0.02775000  1.0 0.1404025859
H  H76  1  0.02232000  0.42407000  0.79917000  1.0 0.148730914
H  H77  1  0.04991000  0.73314000  0.76957000  1.0 0.1404025859
H  H78  1  0.99769000  0.78712000  0.83066000  1.0 0.1642395302
H  H79  1  0.40236000  0.11817000  0.13014000  1.0 0.1274178135
H  H80  1  0.37051000  0.03364000  0.08242000  1.0 0.1274178135
H  H81  1  0.28264000  0.14445000  0.05326000  1.0 0.1274178135
H  H82  1  0.31233000  0.22386000  0.10364000  1.0 0.148730914
H  H83  1  0.25971000  0.33213000  0.02256000  1.0 0.148730914
H  H84  1  0.31163000  0.39895000  0.00996000  1.0 0.148730914
H  H85  1  0.27811000  0.30805000  0.96854000  1.0 0.148730914
H  H86  1  0.47709000  0.13877000  0.02192000  1.0 0.1662203117
H  H87  1  0.49266000  0.09137000  0.08258000  1.0 0.148730914
H  H88  1  0.44951000  0.02771000  0.03204000  1.0 0.148730914
C  C1  1  0.55930000  0.10810000  0.44690000  1.0 0.5935376777
C  C2  1  0.59390000  0.16320000  0.41260000  1.0 -0.0135281247
C  C3  1  0.64900000  0.12380000  0.41070000  1.0 -0.0692563606
C  C4  1  0.68120000  0.17410000  0.38000000  1.0 -0.1782043413
C  C5  1  0.65690000  0.26430000  0.34910000  1.0 0.2298936627
C  C6  1  0.60260000  0.30720000  0.35120000  1.0 -0.1989098064
C  C7  1  0.57220000  0.25770000  0.38390000  1.0 -0.0692563606
C  C8  1  0.65990000  0.34020000  0.26390000  1.0 0.2698941275
C  C9  1  0.67340000  0.43620000  0.24140000  1.0 -0.1782043413
C  C10  1  0.64340000  0.46230000  0.18620000  1.0 -0.0692563606
C  C11  1  0.59920000  0.39350000  0.15310000  1.0 -0.0273952787
C  C12  1  0.58870000  0.29570000  0.17570000  1.0 -0.0692563606
C  C13  1  0.61910000  0.26860000  0.23020000  1.0 -0.1989098064
C  C14  1  0.56430000  0.42680000  0.09500000  1.0 0.5935376777
C  C15  1  0.05850000  0.58460000  0.58220000  1.0 0.5750187977
C  C16  1  0.03050000  0.65070000  0.53050000  1.0 -0.0009489481
C  C17  1  0.96890000  0.64270000  0.50360000  1.0 -0.0626183456
C  C18  1  0.94230000  0.70120000  0.45600000  1.0 -0.1782043413
C  C19  1  0.97820000  0.77110000  0.43510000  1.0 0.2531967058
C  C20  1  0.03930000  0.77910000  0.46180000  1.0 -0.2083604106
C  C21  1  0.06520000  0.71970000  0.50950000  1.0 -0.0692563606
C  C22  1  0.98130000  0.86310000  0.35340000  1.0 0.2409257896
C  C23  1  0.98790000  0.97150000  0.34420000  1.0 -0.1782043413
C  C24  1  0.01830000  0.00290000  0.30620000  1.0 -0.0692563606
C  C25  1  0.04250000  0.92590000  0.27920000  1.0 -0.0273952787
C  C26  1  0.03440000  0.81880000  0.28830000  1.0 -0.048847609
C  C27  1  0.00340000  0.78600000  0.32520000  1.0 -0.1782043413
C  C28  1  0.07730000  0.95930000  0.24070000  1.0 0.6006084427
C  C29  1  0.37970000  0.25450000  0.51890000  1.0 0.4457654401
C  C30  1  0.37930000  0.39060000  0.59100000  1.0 -0.1006351278
C  C31  1  0.31860000  0.31410000  0.57200000  1.0 -0.105197465
C  C32  1  0.29290000  0.17090000  0.50710000  1.0 -0.2213465118
C  C33  1  0.46160000  0.40170000  0.54730000  1.0 -0.3201982633
C  C34  1  0.44070000  0.60810000  0.05310000  1.0 0.5935376777
C  C35  1  0.40610000  0.66320000  0.08740000  1.0 -0.0135281247
C  C36  1  0.35100000  0.62380000  0.08930000  1.0 -0.0692563606
C  C37  1  0.31880000  0.67410000  0.12000000  1.0 -0.1782043413
C  C38  1  0.34310000  0.76430000  0.15090000  1.0 0.2298936627
C  C39  1  0.39740000  0.80720000  0.14880000  1.0 -0.1989098064
C  C40  1  0.42780000  0.75770000  0.11610000  1.0 -0.0626183456
C  C41  1  0.34010000  0.84020000  0.23610000  1.0 0.2698941275
C  C42  1  0.32660000  0.93620000  0.25860000  1.0 -0.1782043413
C  C43  1  0.35660000  0.96230000  0.31380000  1.0 -0.0692563606
C  C44  1  0.40080000  0.89350000  0.34690000  1.0 -0.0273952787
C  C45  1  0.41130000  0.79570000  0.32430000  1.0 -0.0692563606
C  C46  1  0.38090000  0.76860000  0.26980000  1.0 -0.1989098064
C  C47  1  0.43570000  0.92680000  0.40500000  1.0 0.5935376777
C  C48  1  0.94150000  0.08460000  0.91780000  1.0 0.5746088966
C  C49  1  0.96950000  0.15070000  0.96950000  1.0 0.0024282267
C  C50  1  0.03110000  0.14270000  0.99640000  1.0 -0.0626183456
C  C51  1  0.05770000  0.20120000  0.04400000  1.0 -0.1782043413
C  C52  1  0.02180000  0.27110000  0.06490000  1.0 0.2531967058
C  C53  1  0.96070000  0.27910000  0.03820000  1.0 -0.2083604106
C  C54  1  0.93480000  0.21970000  0.99050000  1.0 -0.0692563606
C  C55  1  0.01870000  0.36310000  0.14660000  1.0 0.2409257896
C  C56  1  0.01210000  0.47150000  0.15580000  1.0 -0.1782043413
C  C57  1  0.98170000  0.50290000  0.19380000  1.0 -0.0692563606
C  C58  1  0.95750000  0.42590000  0.22080000  1.0 -0.0273952787
C  C59  1  0.96560000  0.31880000  0.21170000  1.0 -0.048847609
C  C60  1  0.99660000  0.28600000  0.17480000  1.0 -0.1782043413
C  C61  1  0.92270000  0.45930000  0.25930000  1.0 0.6006084427
C  C62  1  0.62030000  0.75450000  0.98110000  1.0 0.4457654401
C  C63  1  0.62070000  0.89060000  0.90900000  1.0 -0.1006351278
C  C64  1  0.68140000  0.81410000  0.92800000  1.0 -0.1006351278
C  C65  1  0.70710000  0.67090000  0.99290000  1.0 -0.2213465118
C  C66  1  0.53840000  0.90170000  0.95270000  1.0 -0.3201982633
C  C67  1  0.44070000  0.89190000  0.55310000  1.0 0.5935376777
C  C68  1  0.40610000  0.83680000  0.58740000  1.0 -0.0135281247
C  C69  1  0.35100000  0.87620000  0.58930000  1.0 -0.0692563606
C  C70  1  0.31880000  0.82590000  0.62000000  1.0 -0.1782043413
C  C71  1  0.34310000  0.73570000  0.65090000  1.0 0.2298936627
C  C72  1  0.39740000  0.69280000  0.64880000  1.0 -0.1989098064
C  C73  1  0.42780000  0.74230000  0.61610000  1.0 -0.0626183456
C  C74  1  0.34010000  0.65980000  0.73610000  1.0 0.2698941275
C  C75  1  0.32660000  0.56380000  0.75860000  1.0 -0.1782043413
C  C76  1  0.35660000  0.53770000  0.81380000  1.0 -0.0692563606
C  C77  1  0.40080000  0.60650000  0.84690000  1.0 -0.0273952787
C  C78  1  0.41130000  0.70430000  0.82430000  1.0 -0.0692563606
C  C79  1  0.38090000  0.73140000  0.76980000  1.0 -0.1989098064
C  C80  1  0.43570000  0.57320000  0.90500000  1.0 0.5935376777
C  C81  1  0.94150000  0.41540000  0.41780000  1.0 0.5750187977
C  C82  1  0.96950000  0.34930000  0.46950000  1.0 -0.0009489481
C  C83  1  0.03110000  0.35730000  0.49640000  1.0 -0.0626183456
C  C84  1  0.05770000  0.29880000  0.54400000  1.0 -0.1782043413
C  C85  1  0.02180000  0.22890000  0.56490000  1.0 0.2531967058
C  C86  1  0.96070000  0.22090000  0.53820000  1.0 -0.2083604106
C  C87  1  0.93480000  0.28030000  0.49050000  1.0 -0.0692563606
C  C88  1  0.01870000  0.13690000  0.64660000  1.0 0.2409257896
C  C89  1  0.01210000  0.02850000  0.65580000  1.0 -0.1782043413
C  C90  1  0.98170000  0.99710000  0.69380000  1.0 -0.0692563606
C  C91  1  0.95750000  0.07410000  0.72080000  1.0 -0.0273952787
C  C92  1  0.96560000  0.18120000  0.71170000  1.0 -0.048847609
C  C93  1  0.99660000  0.21400000  0.67480000  1.0 -0.1782043413
C  C94  1  0.92270000  0.04070000  0.75930000  1.0 0.6006084427
C  C95  1  0.62030000  0.74550000  0.48110000  1.0 0.4457654401
C  C96  1  0.62070000  0.60940000  0.40900000  1.0 -0.1006351278
C  C97  1  0.68140000  0.68590000  0.42800000  1.0 -0.105197465
C  C98  1  0.70710000  0.82910000  0.49290000  1.0 -0.2213465118
C  C99  1  0.53840000  0.59830000  0.45270000  1.0 -0.3201982633
C  C100  1  0.55930000  0.39190000  0.94690000  1.0 0.5935376777
C  C101  1  0.59390000  0.33680000  0.91260000  1.0 -0.0135281247
C  C102  1  0.64900000  0.37620000  0.91070000  1.0 -0.0692563606
C  C103  1  0.68120000  0.32590000  0.88000000  1.0 -0.1782043413
C  C104  1  0.65690000  0.23570000  0.84910000  1.0 0.2298936627
C  C105  1  0.60260000  0.19280000  0.85120000  1.0 -0.1989098064
C  C106  1  0.57220000  0.24230000  0.88390000  1.0 -0.0692563606
C  C107  1  0.65990000  0.15980000  0.76390000  1.0 0.2698941275
C  C108  1  0.67340000  0.06380000  0.74140000  1.0 -0.1782043413
C  C109  1  0.64340000  0.03770000  0.68620000  1.0 -0.0692563606
C  C110  1  0.59920000  0.10650000  0.65310000  1.0 -0.0273952787
C  C111  1  0.58870000  0.20430000  0.67570000  1.0 -0.0692563606
C  C112  1  0.61910000  0.23140000  0.73020000  1.0 -0.1989098064
C  C113  1  0.56430000  0.07320000  0.59500000  1.0 0.5935376777
C  C114  1  0.05850000  0.91540000  0.08220000  1.0 0.5750187977
C  C115  1  0.03050000  0.84930000  0.03050000  1.0 -0.0009489481
C  C116  1  0.96890000  0.85730000  0.00360000  1.0 -0.0626183456
C  C117  1  0.94230000  0.79880000  0.95600000  1.0 -0.1782043413
C  C118  1  0.97820000  0.72890000  0.93510000  1.0 0.2531967058
C  C119  1  0.03930000  0.72090000  0.96180000  1.0 -0.2083604106
C  C120  1  0.06520000  0.78030000  0.00950000  1.0 -0.0692563606
C  C121  1  0.98130000  0.63690000  0.85340000  1.0 0.2409257896
C  C122  1  0.98790000  0.52850000  0.84420000  1.0 -0.1782043413
C  C123  1  0.01830000  0.49710000  0.80620000  1.0 -0.0692563606
C  C124  1  0.04250000  0.57410000  0.77920000  1.0 -0.0273952787
C  C125  1  0.03440000  0.68120000  0.78830000  1.0 -0.048847609
C  C126  1  0.00340000  0.71400000  0.82520000  1.0 -0.1782043413
C  C127  1  0.07730000  0.54070000  0.74070000  1.0 0.6006084427
C  C128  1  0.37970000  0.24550000  0.01890000  1.0 0.4457654401
C  C129  1  0.37930000  0.10940000  0.09100000  1.0 -0.1006351278
C  C130  1  0.31860000  0.18590000  0.07200000  1.0 -0.105197465
C  C131  1  0.29290000  0.32910000  0.00710000  1.0 -0.2213465118
C  C132  1  0.46160000  0.09830000  0.04730000  1.0 -0.3201982633
S  S1  1  0.75446000  0.12500000  0.38198000  1.0 1.201784347
S  S2  1  0.72803000  0.52860000  0.28243000  1.0 1.2129401311
S  S3  1  0.86364000  0.68831000  0.42082000  1.0 1.2243345126
S  S4  1  0.96012000  0.07132000  0.38079000  1.0 1.1900889619
S  S5  1  0.24554000  0.62500000  0.11802000  1.0 1.201784347
S  S6  1  0.27197000  0.02860000  0.21757000  1.0 1.2129401311
S  S7  1  0.13636000  0.18831000  0.07918000  1.0 1.2243345126
S  S8  1  0.03988000  0.57132000  0.11921000  1.0 1.1900889619
S  S9  1  0.24554000  0.87500000  0.61802000  1.0 1.201784347
S  S10  1  0.27197000  0.47140000  0.71757000  1.0 1.2129401311
S  S11  1  0.13636000  0.31169000  0.57918000  1.0 1.2243345126
S  S12  1  0.03988000  0.92868000  0.61921000  1.0 1.1900889619
S  S13  1  0.75446000  0.37500000  0.88198000  1.0 1.201784347
S  S14  1  0.72803000  0.97140000  0.78243000  1.0 1.2129401311
S  S15  1  0.86364000  0.81169000  0.92082000  1.0 1.2243345126
S  S16  1  0.96012000  0.42868000  0.88079000  1.0 1.1900889619
N  N1  1  0.40600000  0.34190000  0.55580000  1.0 0.0024282267
N  N2  1  0.33420000  0.24420000  0.53580000  1.0 -0.048847609
N  N3  1  0.59400000  0.84190000  0.94420000  1.0 0.0024282267
N  N4  1  0.66580000  0.74420000  0.96420000  1.0 -0.048847609
N  N5  1  0.59400000  0.65810000  0.44420000  1.0 0.0024282267
N  N6  1  0.66580000  0.75580000  0.46420000  1.0 -0.048847609
N  N7  1  0.40600000  0.15810000  0.05580000  1.0 0.0024282267
N  N8  1  0.33420000  0.25580000  0.03580000  1.0 -0.048847609
O  O1  1  0.51576000  0.15780000  0.45467000  1.0 -0.5199936485
O  O2  1  0.57620000  0.01510000  0.46424000  1.0 -0.5421623246
O  O3  1  0.69006000  0.31700000  0.31916000  1.0 -0.2427979663
O  O4  1  0.52070000  0.36850000  0.06902000  1.0 -0.5421623246
O  O5  1  0.58020000  0.51290000  0.07717000  1.0 -0.5142334755
O  O6  1  0.76440000  0.02830000  0.41550000  1.0 -0.5614565716
O  O7  1  0.75080000  0.10380000  0.32390000  1.0 -0.5954087631
O  O8  1  0.79583000  0.21210000  0.40613000  1.0 -0.6607392759
O  O9  1  0.70830000  0.55700000  0.32958000  1.0 -0.6111714572
O  O10  1  0.78462000  0.46720000  0.29993000  1.0 -0.6607392759
O  O11  1  0.73040000  0.61710000  0.24572000  1.0 -0.5199936485
O  O12  1  0.02820000  0.52010000  0.59996000  1.0 -0.4992537901
O  O13  1  0.11541000  0.59590000  0.60521000  1.0 -0.6236277676
O  O14  1  0.94851000  0.83200000  0.38907000  1.0 -0.2083604106
O  O15  1  0.10330000  0.88640000  0.22280000  1.0 -0.568988751
O  O16  1  0.08020000  0.05670000  0.22665000  1.0 -0.4992537901
O  O17  1  0.89560000  0.04810000  0.36930000  1.0 -0.6236277676
O  O18  1  0.97020000  0.17320000  0.35810000  1.0 -0.5527554259
O  O19  1  0.99380000  0.05430000  0.43932000  1.0 -0.6236277676
O  O20  1  0.83786000  0.79440000  0.42086000  1.0 -0.568988751
O  O21  1  0.84139000  0.60890000  0.45097000  1.0 -0.6111714572
O  O22  1  0.85894000  0.65620000  0.36286000  1.0 -0.5826144025
O  O23  1  0.71550000  0.40970000  0.49130000  1.0 -0.5199936485
O  O24  1  0.85610000  0.98440000  0.56650000  1.0 -0.3762244538
O  O25  1  0.16960000  0.62390000  0.29370000  1.0 -0.1920675293
O  O26  1  0.40140000  0.21570000  0.48756000  1.0 -0.4442006306
O  O27  1  0.48424000  0.65780000  0.04533000  1.0 -0.5199936485
O  O28  1  0.42380000  0.51510000  0.03576000  1.0 -0.5421623246
O  O29  1  0.30994000  0.81700000  0.18084000  1.0 -0.2427979663
O  O30  1  0.47930000  0.86850000  0.43098000  1.0 -0.5421623246
O  O31  1  0.41980000  0.01290000  0.42283000  1.0 -0.5142334755
O  O32  1  0.23560000  0.52830000  0.08450000  1.0 -0.5614565716
O  O33  1  0.24920000  0.60380000  0.17610000  1.0 -0.5954087631
O  O34  1  0.20417000  0.71210000  0.09387000  1.0 -0.6607392759
O  O35  1  0.29170000  0.05700000  0.17042000  1.0 -0.6111714572
O  O36  1  0.21538000  0.96720000  0.20007000  1.0 -0.6607392759
O  O37  1  0.26960000  0.11710000  0.25428000  1.0 -0.5289742009
O  O38  1  0.97180000  0.02010000  0.90004000  1.0 -0.4992537901
O  O39  1  0.88459000  0.09590000  0.89479000  1.0 -0.6236277676
O  O40  1  0.05149000  0.33200000  0.11093000  1.0 -0.2083604106
O  O41  1  0.89670000  0.38640000  0.27720000  1.0 -0.568988751
O  O42  1  0.91980000  0.55670000  0.27335000  1.0 -0.4992537901
O  O43  1  0.10440000  0.54810000  0.13070000  1.0 -0.6236277676
O  O44  1  0.02980000  0.67320000  0.14190000  1.0 -0.5527554259
O  O45  1  0.00620000  0.55430000  0.06068000  1.0 -0.6236277676
O  O46  1  0.16214000  0.29440000  0.07914000  1.0 -0.568988751
O  O47  1  0.15861000  0.10890000  0.04903000  1.0 -0.6111714572
O  O48  1  0.14106000  0.15620000  0.13714000  1.0 -0.5826144025
O  O49  1  0.28450000  0.90970000  0.00870000  1.0 -0.5289742009
O  O50  1  0.14390000  0.48440000  0.93350000  1.0 -0.3762244538
O  O51  1  0.83040000  0.12390000  0.20630000  1.0 -0.1920675293
O  O52  1  0.59860000  0.71570000  0.01244000  1.0 -0.4442006306
O  O53  1  0.48424000  0.84220000  0.54533000  1.0 -0.5199936485
O  O54  1  0.42380000  0.98490000  0.53576000  1.0 -0.5421623246
O  O55  1  0.30994000  0.68300000  0.68084000  1.0 -0.2427979663
O  O56  1  0.47930000  0.63150000  0.93098000  1.0 -0.5421623246
O  O57  1  0.41980000  0.48710000  0.92283000  1.0 -0.5142334755
O  O58  1  0.23560000  0.97170000  0.58450000  1.0 -0.5614565716
O  O59  1  0.24920000  0.89620000  0.67610000  1.0 -0.5954087631
O  O60  1  0.20417000  0.78790000  0.59387000  1.0 -0.6607392759
O  O61  1  0.29170000  0.44300000  0.67042000  1.0 -0.6111714572
O  O62  1  0.21538000  0.53280000  0.70007000  1.0 -0.6607392759
O  O63  1  0.26960000  0.38290000  0.75428000  1.0 -0.5199936485
O  O64  1  0.97180000  0.47990000  0.40004000  1.0 -0.4992537901
O  O65  1  0.88459000  0.40410000  0.39479000  1.0 -0.6236277676
O  O66  1  0.05149000  0.16800000  0.61093000  1.0 -0.2083604106
O  O67  1  0.89670000  0.11360000  0.77720000  1.0 -0.568988751
O  O68  1  0.91980000  0.94330000  0.77335000  1.0 -0.4992537901
O  O69  1  0.10440000  0.95190000  0.63070000  1.0 -0.6236277676
O  O70  1  0.02980000  0.82680000  0.64190000  1.0 -0.5527554259
O  O71  1  0.00620000  0.94570000  0.56068000  1.0 -0.6236277676
O  O72  1  0.16214000  0.20560000  0.57914000  1.0 -0.568988751
O  O73  1  0.15861000  0.39110000  0.54903000  1.0 -0.6111714572
O  O74  1  0.14106000  0.34380000  0.63714000  1.0 -0.5826144025
O  O75  1  0.28450000  0.59030000  0.50870000  1.0 -0.5289742009
O  O76  1  0.14390000  0.01560000  0.43350000  1.0 -0.3732591525
O  O77  1  0.83040000  0.37610000  0.70630000  1.0 -0.1989098064
O  O78  1  0.59860000  0.78430000  0.51244000  1.0 -0.4453708486
O  O79  1  0.51576000  0.34220000  0.95467000  1.0 -0.5199936485
O  O80  1  0.57620000  0.48490000  0.96424000  1.0 -0.5421623246
O  O81  1  0.69006000  0.18300000  0.81916000  1.0 -0.2427979663
O  O82  1  0.52070000  0.13150000  0.56902000  1.0 -0.5421623246
O  O83  1  0.58020000  0.98710000  0.57717000  1.0 -0.5199936485
O  O84  1  0.76440000  0.47170000  0.91550000  1.0 -0.5614565716
O  O85  1  0.75080000  0.39620000  0.82390000  1.0 -0.5930320279
O  O86  1  0.79583000  0.28790000  0.90613000  1.0 -0.6607392759
O  O87  1  0.70830000  0.94300000  0.82958000  1.0 -0.6111714572
O  O88  1  0.78462000  0.03280000  0.79993000  1.0 -0.6607392759
O  O89  1  0.73040000  0.88290000  0.74572000  1.0 -0.5199936485
O  O90  1  0.02820000  0.97990000  0.09996000  1.0 -0.4992537901
O  O91  1  0.11541000  0.90410000  0.10521000  1.0 -0.6236277676
O  O92  1  0.94851000  0.66800000  0.88907000  1.0 -0.2083604106
O  O93  1  0.10330000  0.61360000  0.72280000  1.0 -0.568988751
O  O94  1  0.08020000  0.44330000  0.72665000  1.0 -0.4992537901
O  O95  1  0.89560000  0.45190000  0.86930000  1.0 -0.6236277676
O  O96  1  0.97020000  0.32680000  0.85810000  1.0 -0.5527554259
O  O97  1  0.99380000  0.44570000  0.93932000  1.0 -0.6236277676
O  O98  1  0.83786000  0.70560000  0.92086000  1.0 -0.568988751
O  O99  1  0.84139000  0.89110000  0.95097000  1.0 -0.6111714572
O  O100  1  0.85894000  0.84380000  0.86286000  1.0 -0.5826144025
O  O101  1  0.71550000  0.09030000  0.99130000  1.0 -0.5289742009
O  O102  1  0.85610000  0.51560000  0.06650000  1.0 -0.3732591525
O  O103  1  0.16960000  0.87610000  0.79370000  1.0 -0.1920675293
O  O104  1  0.40140000  0.28430000  0.98756000  1.0 -0.4442006306
