# DDEC6 charges by PACMAN v1.1 (https://github.com/mtap-research/PACMAN-charge/)
data_DACFAS_ASR_pacman
_symmetry_space_group_name_H-M   'P 1'
_cell_length_a   15.42200000
_cell_length_b   27.71000000
_cell_length_c   28.91000000
_cell_angle_alpha   90.00000000
_cell_angle_beta   90.00000000
_cell_angle_gamma   90.00000000
_symmetry_Int_Tables_number   1
_chemical_formula_structural   Na3Zn4H18C42(S3O17)2
_chemical_formula_sum   'Na12 Zn16 H72 C168 S24 O136'
_cell_volume   12354.50405420
_cell_formula_units_Z   4
loop_
 _symmetry_equiv_pos_site_id
 _symmetry_equiv_pos_as_xyz
  1  'x, y, z'
loop_
 _atom_site_type_symbol
 _atom_site_label
 _atom_site_symmetry_multiplicity
 _atom_site_fract_x
 _atom_site_fract_y
 _atom_site_fract_z
 _atom_site_occupancy
 _atom_site_charge
Na  Na1  1  0.54920000  0.70800000  0.49500000  1.0 0.865054733
Na  Na2  1  0.85950000  0.63070000  0.60610000  1.0 0.9065151428
Na  Na3  1  0.65200000  0.61080000  0.50530000  1.0 0.9209731286
Na  Na4  1  0.45080000  0.20800000  0.50500000  1.0 0.8646726673
Na  Na5  1  0.14050000  0.13070000  0.39390000  1.0 0.9065151428
Na  Na6  1  0.34800000  0.11080000  0.49470000  1.0 0.9209731286
Na  Na7  1  0.95080000  0.70800000  0.99500000  1.0 0.865054733
Na  Na8  1  0.64050000  0.63070000  0.10610000  1.0 0.9065151428
Na  Na9  1  0.84800000  0.61080000  0.00530000  1.0 0.9209731286
Na  Na10  1  0.04920000  0.20800000  0.00500000  1.0 0.865054733
Na  Na11  1  0.35950000  0.13070000  0.89390000  1.0 0.9065151428
Na  Na12  1  0.15200000  0.11080000  0.99470000  1.0 0.9209731286
Zn  Zn1  1  0.20309000  0.47215000  0.79791000  1.0 0.9560815309
Zn  Zn2  1  0.38984000  0.41808000  0.81063000  1.0 1.0114229982
Zn  Zn3  1  0.34119000  0.47229000  0.71783000  1.0 0.9412497123
Zn  Zn4  1  0.37440000  0.53507000  0.80660000  1.0 0.9412497123
Zn  Zn5  1  0.79691000  0.97215000  0.20209000  1.0 0.9560815309
Zn  Zn6  1  0.61016000  0.91808000  0.18937000  1.0 1.0114229982
Zn  Zn7  1  0.65881000  0.97229000  0.28217000  1.0 0.9412497123
Zn  Zn8  1  0.62560000  0.03507000  0.19340000  1.0 0.9412497123
Zn  Zn9  1  0.29691000  0.47215000  0.29791000  1.0 0.9560815309
Zn  Zn10  1  0.11016000  0.41808000  0.31063000  1.0 1.0114229982
Zn  Zn11  1  0.15881000  0.47229000  0.21783000  1.0 0.9412497123
Zn  Zn12  1  0.12560000  0.53507000  0.30660000  1.0 0.9412497123
Zn  Zn13  1  0.70309000  0.97215000  0.70209000  1.0 0.9560815309
Zn  Zn14  1  0.88984000  0.91808000  0.68937000  1.0 1.0114229982
Zn  Zn15  1  0.84119000  0.97229000  0.78217000  1.0 0.9412497123
Zn  Zn16  1  0.87440000  0.03507000  0.69340000  1.0 0.9412497123
H  H1  1  0.98280000  0.48890000  0.70240000  1.0 0.1490961395
H  H2  1  0.17840000  0.50350000  0.62000000  1.0 0.1319962059
H  H3  1  0.07820000  0.51980000  0.55110000  1.0 0.1410173162
H  H4  1  0.95600000  0.56530000  0.41570000  1.0 0.1410173162
H  H5  1  0.00740000  0.42710000  0.44750000  1.0 0.1219336818
H  H6  1  0.95120000  0.43900000  0.52100000  1.0 0.1490961395
H  H7  1  0.51600000  0.64680000  0.73090000  1.0 0.1410173162
H  H8  1  0.56480000  0.70620000  0.68150000  1.0 0.1490961395
H  H9  1  0.38400000  0.58830000  0.62490000  1.0 0.1490961395
H  H10  1  0.47190000  0.78350000  0.63030000  1.0 0.1490961395
H  H11  1  0.76990000  0.80030000  0.62120000  1.0 0.1410173162
H  H12  1  0.55260000  0.85900000  0.66050000  1.0 0.1319962059
H  H13  1  0.03870000  0.56820000  0.86950000  1.0 0.1410173162
H  H14  1  0.15250000  0.72520000  0.87900000  1.0 0.1490961395
H  H15  1  0.22960000  0.66030000  0.84090000  1.0 0.1110082705
H  H16  1  0.96700000  0.72340000  0.81880000  1.0 0.1410173162
H  H17  1  0.93490000  0.78450000  0.77140000  1.0 0.1219336818
H  H18  1  0.92910000  0.87320000  0.87500000  1.0 0.1410173162
H  H19  1  0.01720000  0.98890000  0.29760000  1.0 0.1490961395
H  H20  1  0.82160000  0.00350000  0.38000000  1.0 0.1319962059
H  H21  1  0.92180000  0.01980000  0.44890000  1.0 0.1410173162
H  H22  1  0.04400000  0.06530000  0.58430000  1.0 0.1410173162
H  H23  1  0.99260000  0.92710000  0.55250000  1.0 0.1219336818
H  H24  1  0.04880000  0.93900000  0.47900000  1.0 0.1490961395
H  H25  1  0.48400000  0.14680000  0.26910000  1.0 0.1410173162
H  H26  1  0.43520000  0.20620000  0.31850000  1.0 0.1490961395
H  H27  1  0.61600000  0.08830000  0.37510000  1.0 0.1490961395
H  H28  1  0.52810000  0.28350000  0.36970000  1.0 0.1490961395
H  H29  1  0.23010000  0.30030000  0.37880000  1.0 0.1410173162
H  H30  1  0.44740000  0.35900000  0.33950000  1.0 0.1319962059
H  H31  1  0.96130000  0.06820000  0.13050000  1.0 0.1410173162
H  H32  1  0.84750000  0.22520000  0.12100000  1.0 0.1490961395
H  H33  1  0.77040000  0.16030000  0.15910000  1.0 0.1110082705
H  H34  1  0.03300000  0.22340000  0.18120000  1.0 0.1490961395
H  H35  1  0.06510000  0.28450000  0.22860000  1.0 0.1219336818
H  H36  1  0.07090000  0.37320000  0.12500000  1.0 0.1410173162
H  H37  1  0.51720000  0.48890000  0.20240000  1.0 0.1490961395
H  H38  1  0.32160000  0.50350000  0.12000000  1.0 0.1319962059
H  H39  1  0.42180000  0.51980000  0.05110000  1.0 0.1410173162
H  H40  1  0.54400000  0.56530000  0.91570000  1.0 0.1410173162
H  H41  1  0.49260000  0.42710000  0.94750000  1.0 0.1219336818
H  H42  1  0.54880000  0.43900000  0.02100000  1.0 0.1490961395
H  H43  1  0.98400000  0.64680000  0.23090000  1.0 0.1410173162
H  H44  1  0.93520000  0.70620000  0.18150000  1.0 0.1490961395
H  H45  1  0.11600000  0.58830000  0.12490000  1.0 0.1490961395
H  H46  1  0.02810000  0.78350000  0.13030000  1.0 0.1490961395
H  H47  1  0.73010000  0.80030000  0.12120000  1.0 0.1410173162
H  H48  1  0.94740000  0.85900000  0.16050000  1.0 0.1319962059
H  H49  1  0.46130000  0.56820000  0.36950000  1.0 0.1410173162
H  H50  1  0.34750000  0.72520000  0.37900000  1.0 0.1490961395
H  H51  1  0.27040000  0.66030000  0.34090000  1.0 0.1110082705
H  H52  1  0.53300000  0.72340000  0.31880000  1.0 0.1410173162
H  H53  1  0.56510000  0.78450000  0.27140000  1.0 0.1219336818
H  H54  1  0.57090000  0.87320000  0.37500000  1.0 0.1410173162
H  H55  1  0.48280000  0.98890000  0.79760000  1.0 0.1490961395
H  H56  1  0.67840000  0.00350000  0.88000000  1.0 0.1319962059
H  H57  1  0.57820000  0.01980000  0.94890000  1.0 0.1410173162
H  H58  1  0.45600000  0.06530000  0.08430000  1.0 0.1410173162
H  H59  1  0.50740000  0.92710000  0.05250000  1.0 0.1219336818
H  H60  1  0.45120000  0.93900000  0.97900000  1.0 0.1490961395
H  H61  1  0.01600000  0.14680000  0.76910000  1.0 0.1410173162
H  H62  1  0.06480000  0.20620000  0.81850000  1.0 0.1490961395
H  H63  1  0.88400000  0.08830000  0.87510000  1.0 0.1490961395
H  H64  1  0.97190000  0.28350000  0.86970000  1.0 0.1490961395
H  H65  1  0.26990000  0.30030000  0.87880000  1.0 0.1410173162
H  H66  1  0.05260000  0.35900000  0.83950000  1.0 0.1319962059
H  H67  1  0.53870000  0.06820000  0.63050000  1.0 0.1410173162
H  H68  1  0.65250000  0.22520000  0.62100000  1.0 0.1490961395
H  H69  1  0.72960000  0.16030000  0.65910000  1.0 0.1110082705
H  H70  1  0.46700000  0.22340000  0.68120000  1.0 0.1490961395
H  H71  1  0.43490000  0.28450000  0.72860000  1.0 0.1219336818
H  H72  1  0.42910000  0.37320000  0.62500000  1.0 0.1410173162
C  C1  1  0.15010000  0.48310000  0.70130000  1.0 0.6117471819
C  C2  1  0.08940000  0.49560000  0.66490000  1.0 -0.0616443322
C  C3  1  0.00090000  0.49650000  0.67260000  1.0 -0.0297922724
C  C4  1  0.93690000  0.50740000  0.64150000  1.0 -0.1807942603
C  C5  1  0.97500000  0.51530000  0.59860000  1.0 0.2374056493
C  C6  1  0.11860000  0.50390000  0.62430000  1.0 -0.0297922724
C  C7  1  0.06030000  0.51470000  0.58140000  1.0 -0.2092548396
C  C8  1  0.92000000  0.50930000  0.51240000  1.0 0.2374056493
C  C9  1  0.92140000  0.54720000  0.48090000  1.0 -0.1603504616
C  C10  1  0.95500000  0.54000000  0.43680000  1.0 -0.0616443322
C  C11  1  0.98720000  0.49500000  0.42430000  1.0 -0.0224478194
C  C12  1  0.98580000  0.45720000  0.45580000  1.0 -0.0616443322
C  C13  1  0.95220000  0.46430000  0.49990000  1.0 -0.1807942603
C  C14  1  0.03100000  0.49460000  0.37700000  1.0 0.5909714018
C  C15  1  0.41500000  0.57140000  0.71940000  1.0 0.5909714018
C  C16  1  0.44300000  0.61360000  0.68600000  1.0 -0.0082930006
C  C17  1  0.49740000  0.64700000  0.70030000  1.0 -0.0616443322
C  C18  1  0.52740000  0.68240000  0.67060000  1.0 -0.1907540393
C  C19  1  0.50260000  0.68260000  0.62610000  1.0 0.2522617047
C  C20  1  0.44670000  0.64630000  0.60820000  1.0 -0.1261159341
C  C21  1  0.41910000  0.61290000  0.63620000  1.0 -0.0693110536
C  C22  1  0.53140000  0.78790000  0.62750000  1.0 -0.1907540393
C  C23  1  0.58510000  0.75590000  0.60770000  1.0 0.2037990754
C  C24  1  0.70970000  0.79860000  0.62070000  1.0 -0.0392154414
C  C25  1  0.66540000  0.83580000  0.63840000  1.0 -0.0392154414
C  C26  1  0.58160000  0.83410000  0.64540000  1.0 -0.0616443322
C  C27  1  0.71030000  0.88160000  0.66110000  1.0 0.6158625548
C  C28  1  0.67090000  0.75700000  0.60140000  1.0 -0.1907540393
C  C29  1  0.20230000  0.56900000  0.84520000  1.0 0.5909714018
C  C30  1  0.14500000  0.60720000  0.85890000  1.0 -0.084688441
C  C31  1  0.06220000  0.59900000  0.87180000  1.0 -0.0224478194
C  C32  1  0.04590000  0.68110000  0.88770000  1.0 0.2180716758
C  C33  1  0.12990000  0.69430000  0.87520000  1.0 -0.1990393515
C  C34  1  0.17710000  0.65460000  0.85570000  1.0 -0.0392154414
C  C35  1  0.01110000  0.63760000  0.88910000  1.0 -0.1603504616
C  C36  1  0.96380000  0.75430000  0.83130000  1.0 -0.1603504616
C  C37  1  0.94200000  0.78960000  0.80290000  1.0 -0.0392154414
C  C38  1  0.93090000  0.83950000  0.82510000  1.0 -0.0082930006
C  C39  1  0.93660000  0.84230000  0.86310000  1.0 -0.0507719443
C  C40  1  0.89930000  0.88270000  0.79300000  1.0 0.5964648192
C  C41  1  0.98000000  0.75850000  0.87340000  1.0 0.2260375646
C  C42  1  0.95300000  0.80700000  0.89600000  1.0 -0.1990393515
C  C43  1  0.84990000  0.98310000  0.29870000  1.0 0.6117471819
C  C44  1  0.91060000  0.99560000  0.33510000  1.0 -0.0616443322
C  C45  1  0.99910000  0.99650000  0.32740000  1.0 -0.0297922724
C  C46  1  0.06310000  0.00740000  0.35850000  1.0 -0.1807942603
C  C47  1  0.02500000  0.01530000  0.40140000  1.0 0.2374056493
C  C48  1  0.88140000  0.00390000  0.37570000  1.0 -0.0297922724
C  C49  1  0.93970000  0.01470000  0.41860000  1.0 -0.2092548396
C  C50  1  0.08000000  0.00930000  0.48760000  1.0 0.2374056493
C  C51  1  0.07860000  0.04720000  0.51910000  1.0 -0.1603504616
C  C52  1  0.04500000  0.04000000  0.56320000  1.0 -0.0616443322
C  C53  1  0.01280000  0.99500000  0.57570000  1.0 -0.0224478194
C  C54  1  0.01420000  0.95720000  0.54420000  1.0 -0.0616443322
C  C55  1  0.04780000  0.96430000  0.50010000  1.0 -0.1807942603
C  C56  1  0.96900000  0.99460000  0.62300000  1.0 0.5909714018
C  C57  1  0.58500000  0.07140000  0.28060000  1.0 0.5909714018
C  C58  1  0.55700000  0.11360000  0.31400000  1.0 -0.0082930006
C  C59  1  0.50260000  0.14700000  0.29970000  1.0 -0.0616443322
C  C60  1  0.47260000  0.18240000  0.32940000  1.0 -0.1907540393
C  C61  1  0.49740000  0.18260000  0.37390000  1.0 0.2522617047
C  C62  1  0.55330000  0.14630000  0.39180000  1.0 -0.1261159341
C  C63  1  0.58090000  0.11290000  0.36380000  1.0 -0.0693110536
C  C64  1  0.46860000  0.28790000  0.37250000  1.0 -0.1907540393
C  C65  1  0.41490000  0.25590000  0.39230000  1.0 0.2037990754
C  C66  1  0.29030000  0.29860000  0.37930000  1.0 -0.0392154414
C  C67  1  0.33460000  0.33580000  0.36160000  1.0 -0.0392154414
C  C68  1  0.41840000  0.33410000  0.35460000  1.0 -0.0616443322
C  C69  1  0.28970000  0.38160000  0.33890000  1.0 0.6158625548
C  C70  1  0.32910000  0.25700000  0.39860000  1.0 -0.1907540393
C  C71  1  0.79770000  0.06900000  0.15480000  1.0 0.5909714018
C  C72  1  0.85500000  0.10720000  0.14110000  1.0 -0.084688441
C  C73  1  0.93780000  0.09900000  0.12820000  1.0 -0.0224478194
C  C74  1  0.95410000  0.18110000  0.11230000  1.0 0.2180716758
C  C75  1  0.87010000  0.19430000  0.12480000  1.0 -0.1990393515
C  C76  1  0.82290000  0.15460000  0.14430000  1.0 -0.0392154414
C  C77  1  0.98890000  0.13760000  0.11090000  1.0 -0.1603504616
C  C78  1  0.03620000  0.25430000  0.16870000  1.0 -0.1603504616
C  C79  1  0.05800000  0.28960000  0.19710000  1.0 -0.0392154414
C  C80  1  0.06910000  0.33950000  0.17490000  1.0 -0.0082930006
C  C81  1  0.06340000  0.34230000  0.13690000  1.0 -0.0507719443
C  C82  1  0.10070000  0.38270000  0.20700000  1.0 0.5964648192
C  C83  1  0.02000000  0.25850000  0.12660000  1.0 0.2260375646
C  C84  1  0.04700000  0.30700000  0.10400000  1.0 -0.1907540393
C  C85  1  0.34990000  0.48310000  0.20130000  1.0 0.6117471819
C  C86  1  0.41060000  0.49560000  0.16490000  1.0 -0.0616443322
C  C87  1  0.49910000  0.49650000  0.17260000  1.0 -0.0297922724
C  C88  1  0.56310000  0.50740000  0.14150000  1.0 -0.1907540393
C  C89  1  0.52500000  0.51530000  0.09860000  1.0 0.2374056493
C  C90  1  0.38140000  0.50390000  0.12430000  1.0 -0.0297922724
C  C91  1  0.43970000  0.51470000  0.08140000  1.0 -0.2092548396
C  C92  1  0.58000000  0.50930000  0.01240000  1.0 0.2374056493
C  C93  1  0.57860000  0.54720000  0.98090000  1.0 -0.1603504616
C  C94  1  0.54500000  0.54000000  0.93680000  1.0 -0.0616443322
C  C95  1  0.51280000  0.49500000  0.92430000  1.0 -0.0224478194
C  C96  1  0.51420000  0.45720000  0.95580000  1.0 -0.0616443322
C  C97  1  0.54780000  0.46430000  0.99990000  1.0 -0.1807942603
C  C98  1  0.46900000  0.49460000  0.87700000  1.0 0.5909714018
C  C99  1  0.08500000  0.57140000  0.21940000  1.0 0.5909714018
C  C100  1  0.05700000  0.61360000  0.18600000  1.0 -0.0082930006
C  C101  1  0.00260000  0.64700000  0.20030000  1.0 -0.0616443322
C  C102  1  0.97260000  0.68240000  0.17060000  1.0 -0.1907540393
C  C103  1  0.99740000  0.68260000  0.12610000  1.0 0.2522617047
C  C104  1  0.05330000  0.64630000  0.10820000  1.0 -0.1261159341
C  C105  1  0.08090000  0.61290000  0.13620000  1.0 -0.0693110536
C  C106  1  0.96860000  0.78790000  0.12750000  1.0 -0.1907540393
C  C107  1  0.91490000  0.75590000  0.10770000  1.0 0.2037990754
C  C108  1  0.79030000  0.79860000  0.12070000  1.0 -0.0392154414
C  C109  1  0.83460000  0.83580000  0.13840000  1.0 -0.0392154414
C  C110  1  0.91840000  0.83410000  0.14540000  1.0 -0.0616443322
C  C111  1  0.78970000  0.88160000  0.16110000  1.0 0.6158625548
C  C112  1  0.82910000  0.75700000  0.10140000  1.0 -0.1907540393
C  C113  1  0.29770000  0.56900000  0.34520000  1.0 0.5909714018
C  C114  1  0.35500000  0.60720000  0.35890000  1.0 -0.084688441
C  C115  1  0.43780000  0.59900000  0.37180000  1.0 -0.0224478194
C  C116  1  0.45410000  0.68110000  0.38770000  1.0 0.2180716758
C  C117  1  0.37010000  0.69430000  0.37520000  1.0 -0.1990393515
C  C118  1  0.32290000  0.65460000  0.35570000  1.0 -0.0392154414
C  C119  1  0.48890000  0.63760000  0.38910000  1.0 -0.1603504616
C  C120  1  0.53620000  0.75430000  0.33130000  1.0 -0.1603504616
C  C121  1  0.55800000  0.78960000  0.30290000  1.0 -0.0392154414
C  C122  1  0.56910000  0.83950000  0.32510000  1.0 -0.0082930006
C  C123  1  0.56340000  0.84230000  0.36310000  1.0 -0.0507719443
C  C124  1  0.60070000  0.88270000  0.29300000  1.0 0.5964648192
C  C125  1  0.52000000  0.75850000  0.37340000  1.0 0.2260375646
C  C126  1  0.54700000  0.80700000  0.39600000  1.0 -0.1907540393
C  C127  1  0.65010000  0.98310000  0.79870000  1.0 0.6117471819
C  C128  1  0.58940000  0.99560000  0.83510000  1.0 -0.0616443322
C  C129  1  0.50090000  0.99650000  0.82740000  1.0 -0.0297922724
C  C130  1  0.43690000  0.00740000  0.85850000  1.0 -0.1807942603
C  C131  1  0.47500000  0.01530000  0.90140000  1.0 0.2374056493
C  C132  1  0.61860000  0.00390000  0.87570000  1.0 -0.0297922724
C  C133  1  0.56030000  0.01470000  0.91860000  1.0 -0.2092548396
C  C134  1  0.42000000  0.00930000  0.98760000  1.0 0.2374056493
C  C135  1  0.42140000  0.04720000  0.01910000  1.0 -0.1603504616
C  C136  1  0.45500000  0.04000000  0.06320000  1.0 -0.0616443322
C  C137  1  0.48720000  0.99500000  0.07570000  1.0 -0.0297922724
C  C138  1  0.48580000  0.95720000  0.04420000  1.0 -0.0616443322
C  C139  1  0.45220000  0.96430000  0.00010000  1.0 -0.1807942603
C  C140  1  0.53100000  0.99460000  0.12300000  1.0 0.5909714018
C  C141  1  0.91500000  0.07140000  0.78060000  1.0 0.5909714018
C  C142  1  0.94300000  0.11360000  0.81400000  1.0 -0.0082930006
C  C143  1  0.99740000  0.14700000  0.79970000  1.0 -0.0616443322
C  C144  1  0.02740000  0.18240000  0.82940000  1.0 -0.1907540393
C  C145  1  0.00260000  0.18260000  0.87390000  1.0 0.2522617047
C  C146  1  0.94670000  0.14630000  0.89180000  1.0 -0.1261159341
C  C147  1  0.91910000  0.11290000  0.86380000  1.0 -0.0693110536
C  C148  1  0.03140000  0.28790000  0.87250000  1.0 -0.1907540393
C  C149  1  0.08510000  0.25590000  0.89230000  1.0 0.2037990754
C  C150  1  0.20970000  0.29860000  0.87930000  1.0 -0.0392154414
C  C151  1  0.16540000  0.33580000  0.86160000  1.0 -0.0392154414
C  C152  1  0.08160000  0.33410000  0.85460000  1.0 -0.0616443322
C  C153  1  0.21030000  0.38160000  0.83890000  1.0 0.6158625548
C  C154  1  0.17090000  0.25700000  0.89860000  1.0 -0.1907540393
C  C155  1  0.70230000  0.06900000  0.65480000  1.0 0.5909714018
C  C156  1  0.64500000  0.10720000  0.64110000  1.0 -0.084688441
C  C157  1  0.56220000  0.09900000  0.62820000  1.0 -0.0224478194
C  C158  1  0.54590000  0.18110000  0.61230000  1.0 0.2180716758
C  C159  1  0.62990000  0.19430000  0.62480000  1.0 -0.1990393515
C  C160  1  0.67710000  0.15460000  0.64430000  1.0 -0.0392154414
C  C161  1  0.51110000  0.13760000  0.61090000  1.0 -0.1603504616
C  C162  1  0.46380000  0.25430000  0.66870000  1.0 -0.1603504616
C  C163  1  0.44200000  0.28960000  0.69710000  1.0 -0.0392154414
C  C164  1  0.43090000  0.33950000  0.67490000  1.0 -0.0082930006
C  C165  1  0.43660000  0.34230000  0.63690000  1.0 -0.0507719443
C  C166  1  0.39930000  0.38270000  0.70700000  1.0 0.5964648192
C  C167  1  0.48000000  0.25850000  0.62660000  1.0 0.2260375646
C  C168  1  0.45300000  0.30700000  0.60400000  1.0 -0.1907540393
S  S1  1  0.82690000  0.51620000  0.65430000  1.0 1.1291906302
S  S2  1  0.86490000  0.59890000  0.50050000  1.0 1.2358667318
S  S3  1  0.72710000  0.71080000  0.57600000  1.0 1.2338866358
S  S4  1  0.41520000  0.64400000  0.54780000  1.0 1.2154567902
S  S5  1  0.89660000  0.62220000  0.90340000  1.0 1.1409163241
S  S6  1  0.94200000  0.80460000  0.96660000  1.0 0.8126412099
S  S7  1  0.17310000  0.01620000  0.34570000  1.0 1.1291906302
S  S8  1  0.13510000  0.09890000  0.49950000  1.0 1.2358667318
S  S9  1  0.27290000  0.21080000  0.42400000  1.0 1.2338866358
S  S10  1  0.58480000  0.14400000  0.45220000  1.0 1.2147324746
S  S11  1  0.10340000  0.12220000  0.09660000  1.0 1.1409163241
S  S12  1  0.05800000  0.30460000  0.03340000  1.0 0.8126412099
S  S13  1  0.67310000  0.51620000  0.15430000  1.0 1.1291906302
S  S14  1  0.63510000  0.59890000  0.00050000  1.0 1.2358667318
S  S15  1  0.77290000  0.71080000  0.07600000  1.0 1.2338866358
S  S16  1  0.08480000  0.64400000  0.04780000  1.0 1.2147324746
S  S17  1  0.60340000  0.62220000  0.40340000  1.0 1.1409163241
S  S18  1  0.55800000  0.80460000  0.46660000  1.0 0.8126412099
S  S19  1  0.32690000  0.01620000  0.84570000  1.0 1.1291906302
S  S20  1  0.36490000  0.09890000  0.99950000  1.0 1.2358667318
S  S21  1  0.22710000  0.21080000  0.92400000  1.0 1.2338866358
S  S22  1  0.91520000  0.14400000  0.95220000  1.0 1.2154567902
S  S23  1  0.39660000  0.12220000  0.59660000  1.0 1.1409163241
S  S24  1  0.44200000  0.30460000  0.53340000  1.0 0.8126412099
O  O1  1  0.32560000  0.47230000  0.78590000  1.0 -1.0241987939
O  O2  1  0.22570000  0.47190000  0.68820000  1.0 -0.5307099196
O  O3  1  0.12760000  0.48270000  0.74380000  1.0 -0.510150821
O  O4  1  0.90840000  0.52000000  0.56170000  1.0 -0.2092548396
O  O5  1  0.07450000  0.45420000  0.37290000  1.0 -0.5847355063
O  O6  1  0.04640000  0.53110000  0.35620000  1.0 -0.4982943135
O  O7  1  0.82290000  0.50850000  0.70570000  1.0 -0.510150821
O  O8  1  0.79720000  0.56380000  0.63830000  1.0 -0.6496769275
O  O9  1  0.78090000  0.47390000  0.63360000  1.0 -0.5211097832
O  O10  1  0.92830000  0.62150000  0.52880000  1.0 -0.5502410978
O  O11  1  0.84800000  0.62600000  0.45380000  1.0 -0.5563410523
O  O12  1  0.76700000  0.57810000  0.52580000  1.0 -0.8062368865
O  O13  1  0.42570000  0.57500000  0.75890000  1.0 -0.42020961
O  O14  1  0.38530000  0.53050000  0.69050000  1.0 -0.6496769275
O  O15  1  0.53570000  0.71500000  0.59120000  1.0 -0.2517321418
O  O16  1  0.66320000  0.91320000  0.67790000  1.0 -0.4982943135
O  O17  1  0.79270000  0.88120000  0.65510000  1.0 -0.5307099196
O  O18  1  0.34870000  0.60510000  0.54160000  1.0 -0.5883510123
O  O19  1  0.38710000  0.68910000  0.52720000  1.0 -0.5502410978
O  O20  1  0.49730000  0.63980000  0.51910000  1.0 -0.7209514553
O  O21  1  0.71610000  0.67020000  0.60580000  1.0 -0.6309276159
O  O22  1  0.69390000  0.70090000  0.52800000  1.0 -0.6642362709
O  O23  1  0.81440000  0.72420000  0.57470000  1.0 -0.5563410523
O  O24  1  0.27450000  0.57650000  0.82760000  1.0 -0.5211097832
O  O25  1  0.16600000  0.52760000  0.83720000  1.0 -0.5307099196
O  O26  1  0.99280000  0.72080000  0.90540000  1.0 -0.2797714184
O  O27  1  0.88850000  0.91690000  0.81400000  1.0 -0.42020961
O  O28  1  0.87140000  0.87190000  0.75190000  1.0 -0.5883510123
O  O29  1  0.87970000  0.57240000  0.90630000  1.0 -0.4898552383
O  O30  1  0.87470000  0.65160000  0.94540000  1.0 -0.7147880132
O  O31  1  0.85700000  0.63590000  0.86960000  1.0 -0.3379028673
O  O32  1  0.97100000  0.86880000  0.96400000  1.0 -0.3180501099
O  O33  1  0.85400000  0.77530000  0.95320000  1.0 -0.5307099196
O  O34  1  0.01590000  0.81470000  0.96210000  1.0 -0.1019426502
O  O35  1  0.67440000  0.97230000  0.21410000  1.0 -1.0241987939
O  O36  1  0.77430000  0.97190000  0.31180000  1.0 -0.5307099196
O  O37  1  0.87240000  0.98270000  0.25620000  1.0 -0.510150821
O  O38  1  0.09160000  0.02000000  0.43830000  1.0 -0.2092548396
O  O39  1  0.92550000  0.95420000  0.62710000  1.0 -0.5847355063
O  O40  1  0.95360000  0.03110000  0.64380000  1.0 -0.4982943135
O  O41  1  0.17710000  0.00850000  0.29430000  1.0 -0.510150821
O  O42  1  0.20280000  0.06380000  0.36170000  1.0 -0.6496769275
O  O43  1  0.21910000  0.97390000  0.36640000  1.0 -0.5211097832
O  O44  1  0.07170000  0.12150000  0.47120000  1.0 -0.5563410523
O  O45  1  0.15200000  0.12600000  0.54620000  1.0 -0.5563410523
O  O46  1  0.23300000  0.07810000  0.47420000  1.0 -0.8062368865
O  O47  1  0.57430000  0.07500000  0.24110000  1.0 -0.42020961
O  O48  1  0.61470000  0.03050000  0.30950000  1.0 -0.6496769275
O  O49  1  0.46430000  0.21500000  0.40880000  1.0 -0.2517321418
O  O50  1  0.33680000  0.41320000  0.32210000  1.0 -0.4982943135
O  O51  1  0.20730000  0.38120000  0.34490000  1.0 -0.5307099196
O  O52  1  0.65130000  0.10510000  0.45840000  1.0 -0.5883510123
O  O53  1  0.61290000  0.18910000  0.47280000  1.0 -0.5502410978
O  O54  1  0.50270000  0.13980000  0.48090000  1.0 -0.7209514553
O  O55  1  0.28390000  0.17020000  0.39420000  1.0 -0.6309276159
O  O56  1  0.30610000  0.20090000  0.47200000  1.0 -0.6642362709
O  O57  1  0.18560000  0.22420000  0.42530000  1.0 -0.5563410523
O  O58  1  0.72550000  0.07650000  0.17240000  1.0 -0.5211097832
O  O59  1  0.83400000  0.02760000  0.16280000  1.0 -0.5307099196
O  O60  1  0.00720000  0.22080000  0.09460000  1.0 -0.2797714184
O  O61  1  0.11150000  0.41690000  0.18600000  1.0 -0.42020961
O  O62  1  0.12860000  0.37190000  0.24810000  1.0 -0.5883510123
O  O63  1  0.12030000  0.07240000  0.09370000  1.0 -0.4898552383
O  O64  1  0.12530000  0.15160000  0.05460000  1.0 -0.7147880132
O  O65  1  0.14300000  0.13590000  0.13040000  1.0 -0.3379028673
O  O66  1  0.02900000  0.36880000  0.03600000  1.0 -0.3180501099
O  O67  1  0.14600000  0.27530000  0.04680000  1.0 -0.5307099196
O  O68  1  0.98410000  0.31470000  0.03790000  1.0 -0.1019426502
O  O69  1  0.17440000  0.47230000  0.28590000  1.0 -1.0241987939
O  O70  1  0.27430000  0.47190000  0.18820000  1.0 -0.5307099196
O  O71  1  0.37240000  0.48270000  0.24380000  1.0 -0.510150821
O  O72  1  0.59160000  0.52000000  0.06170000  1.0 -0.2092548396
O  O73  1  0.42550000  0.45420000  0.87290000  1.0 -0.5847355063
O  O74  1  0.45360000  0.53110000  0.85620000  1.0 -0.4982943135
O  O75  1  0.67710000  0.50850000  0.20570000  1.0 -0.510150821
O  O76  1  0.70280000  0.56380000  0.13830000  1.0 -0.6496769275
O  O77  1  0.71910000  0.47390000  0.13360000  1.0 -0.5211097832
O  O78  1  0.57170000  0.62150000  0.02880000  1.0 -0.5502410978
O  O79  1  0.65200000  0.62600000  0.95380000  1.0 -0.5502410978
O  O80  1  0.73300000  0.57810000  0.02580000  1.0 -0.8062368865
O  O81  1  0.07430000  0.57500000  0.25890000  1.0 -0.42020961
O  O82  1  0.11470000  0.53050000  0.19050000  1.0 -0.6496769275
O  O83  1  0.96430000  0.71500000  0.09120000  1.0 -0.2517321418
O  O84  1  0.83680000  0.91320000  0.17790000  1.0 -0.4982943135
O  O85  1  0.70730000  0.88120000  0.15510000  1.0 -0.5307099196
O  O86  1  0.15130000  0.60510000  0.04160000  1.0 -0.5883510123
O  O87  1  0.11290000  0.68910000  0.02720000  1.0 -0.5502410978
O  O88  1  0.00270000  0.63980000  0.01910000  1.0 -0.7209514553
O  O89  1  0.78390000  0.67020000  0.10580000  1.0 -0.6309276159
O  O90  1  0.80610000  0.70090000  0.02800000  1.0 -0.6642362709
O  O91  1  0.68560000  0.72420000  0.07470000  1.0 -0.5563410523
O  O92  1  0.22550000  0.57650000  0.32760000  1.0 -0.5211097832
O  O93  1  0.33400000  0.52760000  0.33720000  1.0 -0.5307099196
O  O94  1  0.50720000  0.72080000  0.40540000  1.0 -0.2797714184
O  O95  1  0.61150000  0.91690000  0.31400000  1.0 -0.42020961
O  O96  1  0.62860000  0.87190000  0.25190000  1.0 -0.5883510123
O  O97  1  0.62030000  0.57240000  0.40630000  1.0 -0.4898552383
O  O98  1  0.62530000  0.65160000  0.44540000  1.0 -0.7147880132
O  O99  1  0.64300000  0.63590000  0.36960000  1.0 -0.3379028673
O  O100  1  0.52900000  0.86880000  0.46400000  1.0 -0.3180501099
O  O101  1  0.64600000  0.77530000  0.45320000  1.0 -0.5307099196
O  O102  1  0.48410000  0.81470000  0.46210000  1.0 -0.1019426502
O  O103  1  0.82560000  0.97230000  0.71410000  1.0 -1.0241987939
O  O104  1  0.72570000  0.97190000  0.81180000  1.0 -0.5307099196
O  O105  1  0.62760000  0.98270000  0.75620000  1.0 -0.510150821
O  O106  1  0.40840000  0.02000000  0.93830000  1.0 -0.2092548396
O  O107  1  0.57450000  0.95420000  0.12710000  1.0 -0.5847355063
O  O108  1  0.54640000  0.03110000  0.14380000  1.0 -0.4982943135
O  O109  1  0.32290000  0.00850000  0.79430000  1.0 -0.510150821
O  O110  1  0.29720000  0.06380000  0.86170000  1.0 -0.6496769275
O  O111  1  0.28090000  0.97390000  0.86640000  1.0 -0.5211097832
O  O112  1  0.42830000  0.12150000  0.97120000  1.0 -0.5563410523
O  O113  1  0.34800000  0.12600000  0.04620000  1.0 -0.5563410523
O  O114  1  0.26700000  0.07810000  0.97420000  1.0 -0.8062368865
O  O115  1  0.92570000  0.07500000  0.74110000  1.0 -0.42020961
O  O116  1  0.88530000  0.03050000  0.80950000  1.0 -0.6496769275
O  O117  1  0.03570000  0.21500000  0.90880000  1.0 -0.2517321418
O  O118  1  0.16320000  0.41320000  0.82210000  1.0 -0.4982943135
O  O119  1  0.29270000  0.38120000  0.84490000  1.0 -0.5307099196
O  O120  1  0.84870000  0.10510000  0.95840000  1.0 -0.5883510123
O  O121  1  0.88710000  0.18910000  0.97280000  1.0 -0.5502410978
O  O122  1  0.99730000  0.13980000  0.98090000  1.0 -0.7209514553
O  O123  1  0.21610000  0.17020000  0.89420000  1.0 -0.6309276159
O  O124  1  0.19390000  0.20090000  0.97200000  1.0 -0.6642362709
O  O125  1  0.31440000  0.22420000  0.92530000  1.0 -0.5563410523
O  O126  1  0.77450000  0.07650000  0.67240000  1.0 -0.5211097832
O  O127  1  0.66600000  0.02760000  0.66280000  1.0 -0.5307099196
O  O128  1  0.49280000  0.22080000  0.59460000  1.0 -0.2797714184
O  O129  1  0.38850000  0.41690000  0.68600000  1.0 -0.42020961
O  O130  1  0.37140000  0.37190000  0.74810000  1.0 -0.5883510123
O  O131  1  0.37970000  0.07240000  0.59370000  1.0 -0.4898552383
O  O132  1  0.37470000  0.15160000  0.55460000  1.0 -0.7209514553
O  O133  1  0.35700000  0.13590000  0.63040000  1.0 -0.3379028673
O  O134  1  0.47100000  0.36880000  0.53600000  1.0 -0.3180501099
O  O135  1  0.35400000  0.27530000  0.54680000  1.0 -0.5307099196
O  O136  1  0.51590000  0.31470000  0.53790000  1.0 -0.1019426502
