# DDEC6 charges by PACMAN v1.1 (https://github.com/mtap-research/PACMAN-charge/)
data_DACMUT_ASR_pacman
_symmetry_space_group_name_H-M   'P 1'
_cell_length_a   23.51600000
_cell_length_b   23.51600000
_cell_length_c   23.51600000
_cell_angle_alpha   90.00000000
_cell_angle_beta   90.00000000
_cell_angle_gamma   90.00000000
_symmetry_Int_Tables_number   1
_chemical_formula_structural   La5Zn2H30Rh2C18S6N6O19
_chemical_formula_sum   'La40 Zn16 H240 Rh16 C144 S48 N48 O152'
_cell_volume   13004.40105210
_cell_formula_units_Z   8
loop_
 _symmetry_equiv_pos_site_id
 _symmetry_equiv_pos_as_xyz
  1  'x, y, z'
loop_
 _atom_site_type_symbol
 _atom_site_label
 _atom_site_symmetry_multiplicity
 _atom_site_fract_x
 _atom_site_fract_y
 _atom_site_fract_z
 _atom_site_occupancy
 _atom_site_charge
La  La1  1  0.44877000  0.03861000  0.52254000  1.0 0.1524497696
La  La2  1  0.69144000  0.15353000  0.25097000  1.0 0.788786162
La  La3  1  0.16663000  0.99619000  0.11110000  1.0 0.6230852893
La  La4  1  0.05123000  0.96139000  0.02254000  1.0 0.1524497696
La  La5  1  0.80856000  0.84647000  0.75097000  1.0 0.788786162
La  La6  1  0.33337000  0.00381000  0.61110000  1.0 0.6230852893
La  La7  1  0.55123000  0.53861000  0.97746000  1.0 0.1524497696
La  La8  1  0.30856000  0.65353000  0.24903000  1.0 0.788786162
La  La9  1  0.83337000  0.49619000  0.38890000  1.0 0.6263475906
La  La10  1  0.94877000  0.46139000  0.47746000  1.0 0.1524497696
La  La11  1  0.19144000  0.34647000  0.74903000  1.0 0.788786162
La  La12  1  0.66666667  0.50381000  0.88890000  1.0 0.6263475906
La  La13  1  0.52254000  0.44877000  0.03861000  1.0 0.1524497696
La  La14  1  0.25097000  0.69144000  0.15353000  1.0 0.788786162
La  La15  1  0.11110000  0.16663000  0.99619000  1.0 0.6230852893
La  La16  1  0.02254000  0.05123000  0.96139000  1.0 0.1524497696
La  La17  1  0.75097000  0.80856000  0.84647000  1.0 0.788786162
La  La18  1  0.61110000  0.33337000  0.00381000  1.0 0.6230852893
La  La19  1  0.97746000  0.55123000  0.53861000  1.0 0.1524497696
La  La20  1  0.24903000  0.30856000  0.65353000  1.0 0.788786162
La  La21  1  0.38890000  0.83337000  0.49619000  1.0 0.6230852893
La  La22  1  0.47746000  0.94877000  0.46139000  1.0 0.1524497696
La  La23  1  0.74903000  0.19144000  0.34647000  1.0 0.788786162
La  La24  1  0.88890000  0.66666667  0.50381000  1.0 0.6263475906
La  La25  1  0.03861000  0.52254000  0.44877000  1.0 0.1524497696
La  La26  1  0.15353000  0.25097000  0.69144000  1.0 0.788786162
La  La27  1  0.99619000  0.11110000  0.16663000  1.0 0.6230852893
La  La28  1  0.96139000  0.02254000  0.05123000  1.0 0.1524497696
La  La29  1  0.84647000  0.75097000  0.80856000  1.0 0.788786162
La  La30  1  0.00381000  0.61110000  0.33337000  1.0 0.6230852893
La  La31  1  0.53861000  0.97746000  0.55123000  1.0 0.1524497696
La  La32  1  0.65353000  0.24903000  0.30856000  1.0 0.788786162
La  La33  1  0.49619000  0.38890000  0.83337000  1.0 0.6230852893
La  La34  1  0.46139000  0.47746000  0.94877000  1.0 0.1524497696
La  La35  1  0.34647000  0.74903000  0.19144000  1.0 0.788786162
La  La36  1  0.50381000  0.88890000  0.66666667  1.0 0.6230852893
La  La37  1  0.76162000  0.26162000  0.23838000  1.0 -0.2017093945
La  La38  1  0.73838000  0.73838000  0.73838000  1.0 -0.1876960654
La  La39  1  0.23838000  0.76162000  0.26162000  1.0 -0.2017093945
La  La40  1  0.26162000  0.23838000  0.76162000  1.0 -0.2017093945
Zn  Zn1  1  0.36283000  0.31857000  0.25307000  1.0 0.5310857188
Zn  Zn2  1  0.13717000  0.68143000  0.75307000  1.0 0.5310857188
Zn  Zn3  1  0.63717000  0.81857000  0.24693000  1.0 0.5310857188
Zn  Zn4  1  0.86283000  0.18143000  0.74693000  1.0 0.5310857188
Zn  Zn5  1  0.25307000  0.36283000  0.31857000  1.0 0.5310857188
Zn  Zn6  1  0.75307000  0.13717000  0.68143000  1.0 0.5310857188
Zn  Zn7  1  0.24693000  0.63717000  0.81857000  1.0 0.5310857188
Zn  Zn8  1  0.74693000  0.86283000  0.18143000  1.0 0.5310857188
Zn  Zn9  1  0.31857000  0.25307000  0.36283000  1.0 0.5310857188
Zn  Zn10  1  0.68143000  0.75307000  0.13717000  1.0 0.5310857188
Zn  Zn11  1  0.81857000  0.24693000  0.63717000  1.0 0.5310857188
Zn  Zn12  1  0.18143000  0.74693000  0.86283000  1.0 0.5310857188
Zn  Zn13  1  0.24727000  0.24727000  0.24727000  1.0 0.5310857188
Zn  Zn14  1  0.25273000  0.75273000  0.74727000  1.0 0.5310857188
Zn  Zn15  1  0.75273000  0.74727000  0.25273000  1.0 0.5310857188
Zn  Zn16  1  0.74727000  0.25273000  0.75273000  1.0 0.5310857188
H  H1  1  0.41840000  0.49135000  0.35018000  1.0 0.2601634222
H  H2  1  0.45901000  0.48403000  0.39715000  1.0 0.2601634222
H  H3  1  0.48918000  0.16104000  0.27702000  1.0 0.2601634222
H  H4  1  0.48484000  0.11456000  0.23538000  1.0 0.2448351275
H  H5  1  0.38648000  0.13774000  0.14170000  1.0 0.2528072134
H  H6  1  0.40455000  0.08448000  0.16889000  1.0 0.2528072134
H  H7  1  0.34553000  0.06456000  0.29138000  1.0 0.2528072134
H  H8  1  0.40263000  0.05087000  0.27010000  1.0 0.2448351275
H  H9  1  0.49107000  0.40091000  0.25349000  1.0 0.1269005286
H  H10  1  0.43098000  0.43253000  0.26064000  1.0 0.1188958373
H  H11  1  0.51685000  0.42861000  0.34687000  1.0 0.0889131789
H  H12  1  0.48614000  0.27259000  0.17433000  1.0 0.1269005286
H  H13  1  0.48248000  0.26328000  0.24184000  1.0 0.1095579754
H  H14  1  0.48509000  0.17365000  0.16027000  1.0 0.0889131789
H  H15  1  0.23809000  0.11700000  0.16790000  1.0 0.1188958373
H  H16  1  0.28154000  0.16551000  0.14767000  1.0 0.1188958373
H  H17  1  0.31507000  0.05567000  0.18678000  1.0 0.0889131789
H  H18  1  0.39363000  0.13266000  0.41761000  1.0 0.1188958373
H  H19  1  0.33584000  0.12499000  0.38202000  1.0 0.1188958373
H  H20  1  0.44579000  0.08468000  0.34496000  1.0 0.0849977623
H  H21  1  0.08160000  0.50865000  0.85018000  1.0 0.2601634222
H  H22  1  0.04099000  0.51597000  0.89715000  1.0 0.2601634222
H  H23  1  0.01082000  0.83896000  0.77702000  1.0 0.2601634222
H  H24  1  0.01516000  0.88544000  0.73538000  1.0 0.2448351275
H  H25  1  0.11352000  0.86226000  0.64170000  1.0 0.2528072134
H  H26  1  0.09545000  0.91552000  0.66889000  1.0 0.2528072134
H  H27  1  0.15447000  0.93544000  0.79138000  1.0 0.2528072134
H  H28  1  0.09737000  0.94913000  0.77010000  1.0 0.2448351275
H  H29  1  0.00893000  0.59909000  0.75349000  1.0 0.1269005286
H  H30  1  0.06902000  0.56747000  0.76064000  1.0 0.1188958373
H  H31  1  0.98315000  0.57139000  0.84687000  1.0 0.0889131789
H  H32  1  0.01386000  0.72741000  0.67433000  1.0 0.1269005286
H  H33  1  0.01752000  0.73672000  0.74184000  1.0 0.1095579754
H  H34  1  0.01491000  0.82635000  0.66027000  1.0 0.0889131789
H  H35  1  0.26191000  0.88300000  0.66790000  1.0 0.1188958373
H  H36  1  0.21846000  0.83449000  0.64767000  1.0 0.1188958373
H  H37  1  0.18493000  0.94433000  0.68678000  1.0 0.0889131789
H  H38  1  0.10637000  0.86734000  0.91761000  1.0 0.1188958373
H  H39  1  0.16416000  0.87501000  0.88202000  1.0 0.1188958373
H  H40  1  0.05421000  0.91532000  0.84496000  1.0 0.0849977623
H  H41  1  0.58160000  0.99135000  0.14982000  1.0 0.2601634222
H  H42  1  0.54099000  0.98403000  0.10285000  1.0 0.2601634222
H  H43  1  0.51082000  0.66104000  0.22298000  1.0 0.2601634222
H  H44  1  0.51516000  0.61456000  0.26462000  1.0 0.2448351275
H  H45  1  0.61352000  0.63774000  0.35830000  1.0 0.2528072134
H  H46  1  0.59545000  0.58448000  0.33111000  1.0 0.2528072134
H  H47  1  0.65447000  0.56456000  0.20862000  1.0 0.2528072134
H  H48  1  0.59737000  0.55087000  0.22990000  1.0 0.2448351275
H  H49  1  0.50893000  0.90091000  0.24651000  1.0 0.1269005286
H  H50  1  0.56902000  0.93253000  0.23936000  1.0 0.1188958373
H  H51  1  0.48315000  0.92861000  0.15313000  1.0 0.0889131789
H  H52  1  0.51386000  0.77259000  0.32567000  1.0 0.1269005286
H  H53  1  0.51752000  0.76328000  0.25816000  1.0 0.1095579754
H  H54  1  0.51491000  0.67365000  0.33973000  1.0 0.0889131789
H  H55  1  0.76191000  0.61700000  0.33210000  1.0 0.1188958373
H  H56  1  0.71846000  0.66551000  0.35233000  1.0 0.1188958373
H  H57  1  0.68493000  0.55567000  0.31322000  1.0 0.0889131789
H  H58  1  0.60637000  0.63266000  0.08239000  1.0 0.1188958373
H  H59  1  0.66416000  0.62499000  0.11798000  1.0 0.1188958373
H  H60  1  0.55421000  0.58468000  0.15504000  1.0 0.0849977623
H  H61  1  0.91840000  0.00865000  0.64982000  1.0 0.2601634222
H  H62  1  0.95901000  0.01597000  0.60285000  1.0 0.2601634222
H  H63  1  0.98918000  0.33896000  0.72298000  1.0 0.2601634222
H  H64  1  0.98484000  0.38544000  0.76462000  1.0 0.2448351275
H  H65  1  0.88648000  0.36226000  0.85830000  1.0 0.2528072134
H  H66  1  0.90455000  0.41552000  0.83111000  1.0 0.2528072134
H  H67  1  0.84553000  0.43544000  0.70862000  1.0 0.2528072134
H  H68  1  0.90263000  0.44913000  0.72990000  1.0 0.2448351275
H  H69  1  0.99107000  0.09909000  0.74651000  1.0 0.1269005286
H  H70  1  0.93098000  0.06747000  0.73936000  1.0 0.1188958373
H  H71  1  0.01685000  0.07139000  0.65313000  1.0 0.0889131789
H  H72  1  0.98614000  0.22741000  0.82567000  1.0 0.1269005286
H  H73  1  0.98248000  0.23672000  0.75816000  1.0 0.1095579754
H  H74  1  0.98509000  0.32635000  0.83973000  1.0 0.0889131789
H  H75  1  0.73809000  0.38300000  0.83210000  1.0 0.1188958373
H  H76  1  0.78154000  0.33449000  0.85233000  1.0 0.1188958373
H  H77  1  0.81507000  0.44433000  0.81322000  1.0 0.0889131789
H  H78  1  0.89363000  0.36734000  0.58239000  1.0 0.1188958373
H  H79  1  0.83584000  0.37501000  0.61798000  1.0 0.1188958373
H  H80  1  0.94579000  0.41532000  0.65504000  1.0 0.0849977623
H  H81  1  0.35018000  0.41840000  0.49135000  1.0 0.2601634222
H  H82  1  0.39715000  0.45901000  0.48403000  1.0 0.2601634222
H  H83  1  0.27702000  0.48918000  0.16104000  1.0 0.2601634222
H  H84  1  0.23538000  0.48484000  0.11456000  1.0 0.2448351275
H  H85  1  0.14170000  0.38648000  0.13774000  1.0 0.2528072134
H  H86  1  0.16889000  0.40455000  0.08448000  1.0 0.2528072134
H  H87  1  0.29138000  0.34553000  0.06456000  1.0 0.2528072134
H  H88  1  0.27010000  0.40263000  0.05087000  1.0 0.2448351275
H  H89  1  0.25349000  0.49107000  0.40091000  1.0 0.1269005286
H  H90  1  0.26064000  0.43098000  0.43253000  1.0 0.1188958373
H  H91  1  0.34687000  0.51685000  0.42861000  1.0 0.0889131789
H  H92  1  0.17433000  0.48614000  0.27259000  1.0 0.1269005286
H  H93  1  0.24184000  0.48248000  0.26328000  1.0 0.1095579754
H  H94  1  0.16027000  0.48509000  0.17365000  1.0 0.0889131789
H  H95  1  0.16790000  0.23809000  0.11700000  1.0 0.1188958373
H  H96  1  0.14767000  0.28154000  0.16551000  1.0 0.1188958373
H  H97  1  0.18678000  0.31507000  0.05567000  1.0 0.0889131789
H  H98  1  0.41761000  0.39363000  0.13266000  1.0 0.1188958373
H  H99  1  0.38202000  0.33584000  0.12499000  1.0 0.1188958373
H  H100  1  0.34496000  0.44579000  0.08468000  1.0 0.0849977623
H  H101  1  0.85018000  0.08160000  0.50865000  1.0 0.2601634222
H  H102  1  0.89715000  0.04099000  0.51597000  1.0 0.2601634222
H  H103  1  0.77702000  0.01082000  0.83896000  1.0 0.2601634222
H  H104  1  0.73538000  0.01516000  0.88544000  1.0 0.2448351275
H  H105  1  0.64170000  0.11352000  0.86226000  1.0 0.2528072134
H  H106  1  0.66889000  0.09545000  0.91552000  1.0 0.2528072134
H  H107  1  0.79138000  0.15447000  0.93544000  1.0 0.2528072134
H  H108  1  0.77010000  0.09737000  0.94913000  1.0 0.2528072134
H  H109  1  0.75349000  0.00893000  0.59909000  1.0 0.1269005286
H  H110  1  0.76064000  0.06902000  0.56747000  1.0 0.1188958373
H  H111  1  0.84687000  0.98315000  0.57139000  1.0 0.0889131789
H  H112  1  0.67433000  0.01386000  0.72741000  1.0 0.1269005286
H  H113  1  0.74184000  0.01752000  0.73672000  1.0 0.1095579754
H  H114  1  0.66027000  0.01491000  0.82635000  1.0 0.0889131789
H  H115  1  0.66790000  0.26191000  0.88300000  1.0 0.1188958373
H  H116  1  0.64767000  0.21846000  0.83449000  1.0 0.1188958373
H  H117  1  0.68678000  0.18493000  0.94433000  1.0 0.0889131789
H  H118  1  0.91761000  0.10637000  0.86734000  1.0 0.1188958373
H  H119  1  0.88202000  0.16416000  0.87501000  1.0 0.1188958373
H  H120  1  0.84496000  0.05421000  0.91532000  1.0 0.0849977623
H  H121  1  0.14982000  0.58160000  0.99135000  1.0 0.2601634222
H  H122  1  0.10285000  0.54099000  0.98403000  1.0 0.2601634222
H  H123  1  0.22298000  0.51082000  0.66104000  1.0 0.2601634222
H  H124  1  0.26462000  0.51516000  0.61456000  1.0 0.2448351275
H  H125  1  0.35830000  0.61352000  0.63774000  1.0 0.2528072134
H  H126  1  0.33111000  0.59545000  0.58448000  1.0 0.2528072134
H  H127  1  0.20862000  0.65447000  0.56456000  1.0 0.2528072134
H  H128  1  0.22990000  0.59737000  0.55087000  1.0 0.2448351275
H  H129  1  0.24651000  0.50893000  0.90091000  1.0 0.1269005286
H  H130  1  0.23936000  0.56902000  0.93253000  1.0 0.1188958373
H  H131  1  0.15313000  0.48315000  0.92861000  1.0 0.0889131789
H  H132  1  0.32567000  0.51386000  0.77259000  1.0 0.1269005286
H  H133  1  0.25816000  0.51752000  0.76328000  1.0 0.1095579754
H  H134  1  0.33973000  0.51491000  0.67365000  1.0 0.0889131789
H  H135  1  0.33210000  0.76191000  0.61700000  1.0 0.1188958373
H  H136  1  0.35233000  0.71846000  0.66551000  1.0 0.1188958373
H  H137  1  0.31322000  0.68493000  0.55567000  1.0 0.0889131789
H  H138  1  0.08239000  0.60637000  0.63266000  1.0 0.1188958373
H  H139  1  0.11798000  0.66416000  0.62499000  1.0 0.1188958373
H  H140  1  0.15504000  0.55421000  0.58468000  1.0 0.0849977623
H  H141  1  0.64982000  0.91840000  0.00865000  1.0 0.2601634222
H  H142  1  0.60285000  0.95901000  0.01597000  1.0 0.2601634222
H  H143  1  0.72298000  0.98918000  0.33896000  1.0 0.2601634222
H  H144  1  0.76462000  0.98484000  0.38544000  1.0 0.2448351275
H  H145  1  0.85830000  0.88648000  0.36226000  1.0 0.2528072134
H  H146  1  0.83111000  0.90455000  0.41552000  1.0 0.2528072134
H  H147  1  0.70862000  0.84553000  0.43544000  1.0 0.2528072134
H  H148  1  0.72990000  0.90263000  0.44913000  1.0 0.2448351275
H  H149  1  0.74651000  0.99107000  0.09909000  1.0 0.1269005286
H  H150  1  0.73936000  0.93098000  0.06747000  1.0 0.1188958373
H  H151  1  0.65313000  0.01685000  0.07139000  1.0 0.0889131789
H  H152  1  0.82567000  0.98614000  0.22741000  1.0 0.1269005286
H  H153  1  0.75816000  0.98248000  0.23672000  1.0 0.1095579754
H  H154  1  0.83973000  0.98509000  0.32635000  1.0 0.0889131789
H  H155  1  0.83210000  0.73809000  0.38300000  1.0 0.1188958373
H  H156  1  0.85233000  0.78154000  0.33449000  1.0 0.1188958373
H  H157  1  0.81322000  0.81507000  0.44433000  1.0 0.0889131789
H  H158  1  0.58239000  0.89363000  0.36734000  1.0 0.1188958373
H  H159  1  0.61798000  0.83584000  0.37501000  1.0 0.1188958373
H  H160  1  0.65504000  0.94579000  0.41532000  1.0 0.0849977623
H  H161  1  0.49135000  0.35018000  0.41840000  1.0 0.2601634222
H  H162  1  0.48403000  0.39715000  0.45901000  1.0 0.2601634222
H  H163  1  0.16104000  0.27702000  0.48918000  1.0 0.2601634222
H  H164  1  0.11456000  0.23538000  0.48484000  1.0 0.2448351275
H  H165  1  0.13774000  0.14170000  0.38648000  1.0 0.2528072134
H  H166  1  0.08448000  0.16889000  0.40455000  1.0 0.2528072134
H  H167  1  0.06456000  0.29138000  0.34553000  1.0 0.2528072134
H  H168  1  0.05087000  0.27010000  0.40263000  1.0 0.2448351275
H  H169  1  0.40091000  0.25349000  0.49107000  1.0 0.1269005286
H  H170  1  0.43253000  0.26064000  0.43098000  1.0 0.1188958373
H  H171  1  0.42861000  0.34687000  0.51685000  1.0 0.0889131789
H  H172  1  0.27259000  0.17433000  0.48614000  1.0 0.1269005286
H  H173  1  0.26328000  0.24184000  0.48248000  1.0 0.1095579754
H  H174  1  0.17365000  0.16027000  0.48509000  1.0 0.0889131789
H  H175  1  0.11700000  0.16790000  0.23809000  1.0 0.1188958373
H  H176  1  0.16551000  0.14767000  0.28154000  1.0 0.1188958373
H  H177  1  0.05567000  0.18678000  0.31507000  1.0 0.0889131789
H  H178  1  0.13266000  0.41761000  0.39363000  1.0 0.1188958373
H  H179  1  0.12499000  0.38202000  0.33584000  1.0 0.1188958373
H  H180  1  0.08468000  0.34496000  0.44579000  1.0 0.0849977623
H  H181  1  0.50865000  0.85018000  0.08160000  1.0 0.2601634222
H  H182  1  0.51597000  0.89715000  0.04099000  1.0 0.2601634222
H  H183  1  0.83896000  0.77702000  0.01082000  1.0 0.2601634222
H  H184  1  0.88544000  0.73538000  0.01516000  1.0 0.2448351275
H  H185  1  0.86226000  0.64170000  0.11352000  1.0 0.2528072134
H  H186  1  0.91552000  0.66889000  0.09545000  1.0 0.2528072134
H  H187  1  0.93544000  0.79138000  0.15447000  1.0 0.2528072134
H  H188  1  0.94913000  0.77010000  0.09737000  1.0 0.2528072134
H  H189  1  0.59909000  0.75349000  0.00893000  1.0 0.1269005286
H  H190  1  0.56747000  0.76064000  0.06902000  1.0 0.1188958373
H  H191  1  0.57139000  0.84687000  0.98315000  1.0 0.0889131789
H  H192  1  0.72741000  0.67433000  0.01386000  1.0 0.1269005286
H  H193  1  0.73672000  0.74184000  0.01752000  1.0 0.1095579754
H  H194  1  0.82635000  0.66027000  0.01491000  1.0 0.0889131789
H  H195  1  0.88300000  0.66790000  0.26191000  1.0 0.1188958373
H  H196  1  0.83449000  0.64767000  0.21846000  1.0 0.1188958373
H  H197  1  0.94433000  0.68678000  0.18493000  1.0 0.0889131789
H  H198  1  0.86734000  0.91761000  0.10637000  1.0 0.1188958373
H  H199  1  0.87501000  0.88202000  0.16416000  1.0 0.1188958373
H  H200  1  0.91532000  0.84496000  0.05421000  1.0 0.0849977623
H  H201  1  0.99135000  0.14982000  0.58160000  1.0 0.2601634222
H  H202  1  0.98403000  0.10285000  0.54099000  1.0 0.2601634222
H  H203  1  0.66104000  0.22298000  0.51082000  1.0 0.2601634222
H  H204  1  0.61456000  0.26462000  0.51516000  1.0 0.2448351275
H  H205  1  0.63774000  0.35830000  0.61352000  1.0 0.2528072134
H  H206  1  0.58448000  0.33111000  0.59545000  1.0 0.2528072134
H  H207  1  0.56456000  0.20862000  0.65447000  1.0 0.2528072134
H  H208  1  0.55087000  0.22990000  0.59737000  1.0 0.2448351275
H  H209  1  0.90091000  0.24651000  0.50893000  1.0 0.1269005286
H  H210  1  0.93253000  0.23936000  0.56902000  1.0 0.1188958373
H  H211  1  0.92861000  0.15313000  0.48315000  1.0 0.0889131789
H  H212  1  0.77259000  0.32567000  0.51386000  1.0 0.1269005286
H  H213  1  0.76328000  0.25816000  0.51752000  1.0 0.1095579754
H  H214  1  0.67365000  0.33973000  0.51491000  1.0 0.0889131789
H  H215  1  0.61700000  0.33210000  0.76191000  1.0 0.1188958373
H  H216  1  0.66551000  0.35233000  0.71846000  1.0 0.1188958373
H  H217  1  0.55567000  0.31322000  0.68493000  1.0 0.0889131789
H  H218  1  0.63266000  0.08239000  0.60637000  1.0 0.1188958373
H  H219  1  0.62499000  0.11798000  0.66416000  1.0 0.1188958373
H  H220  1  0.58468000  0.15504000  0.55421000  1.0 0.0849977623
H  H221  1  0.00865000  0.64982000  0.91840000  1.0 0.2601634222
H  H222  1  0.01597000  0.60285000  0.95901000  1.0 0.2601634222
H  H223  1  0.33896000  0.72298000  0.98918000  1.0 0.2601634222
H  H224  1  0.38544000  0.76462000  0.98484000  1.0 0.2448351275
H  H225  1  0.36226000  0.85830000  0.88648000  1.0 0.2528072134
H  H226  1  0.41552000  0.83111000  0.90455000  1.0 0.2528072134
H  H227  1  0.43544000  0.70862000  0.84553000  1.0 0.2528072134
H  H228  1  0.44913000  0.72990000  0.90263000  1.0 0.2448351275
H  H229  1  0.09909000  0.74651000  0.99107000  1.0 0.1269005286
H  H230  1  0.06747000  0.73936000  0.93098000  1.0 0.1188958373
H  H231  1  0.07139000  0.65313000  0.01685000  1.0 0.0889131789
H  H232  1  0.22741000  0.82567000  0.98614000  1.0 0.1269005286
H  H233  1  0.23672000  0.75816000  0.98248000  1.0 0.1095579754
H  H234  1  0.32635000  0.83973000  0.98509000  1.0 0.0889131789
H  H235  1  0.38300000  0.83210000  0.73809000  1.0 0.1188958373
H  H236  1  0.33449000  0.85233000  0.78154000  1.0 0.1188958373
H  H237  1  0.44433000  0.81322000  0.81507000  1.0 0.0889131789
H  H238  1  0.36734000  0.58239000  0.89363000  1.0 0.1188958373
H  H239  1  0.37501000  0.61798000  0.83584000  1.0 0.1188958373
H  H240  1  0.41532000  0.65504000  0.94579000  1.0 0.0849977623
Rh  Rh1  1  0.38509000  0.15481000  0.24783000  1.0 0.4783150408
Rh  Rh2  1  0.11491000  0.84519000  0.74783000  1.0 0.4783150408
Rh  Rh3  1  0.61491000  0.65481000  0.25217000  1.0 0.4783150408
Rh  Rh4  1  0.88509000  0.34519000  0.75217000  1.0 0.4783150408
Rh  Rh5  1  0.24783000  0.38509000  0.15481000  1.0 0.4783150408
Rh  Rh6  1  0.74783000  0.11491000  0.84519000  1.0 0.4783150408
Rh  Rh7  1  0.25217000  0.61491000  0.65481000  1.0 0.4783150408
Rh  Rh8  1  0.75217000  0.88509000  0.34519000  1.0 0.4783150408
Rh  Rh9  1  0.15481000  0.24783000  0.38509000  1.0 0.4783150408
Rh  Rh10  1  0.84519000  0.74783000  0.11491000  1.0 0.4783150408
Rh  Rh11  1  0.65481000  0.25217000  0.61491000  1.0 0.4783150408
Rh  Rh12  1  0.34519000  0.75217000  0.88509000  1.0 0.4783150408
Rh  Rh13  1  0.39617000  0.39617000  0.39617000  1.0 0.4783150408
Rh  Rh14  1  0.10383000  0.60383000  0.89617000  1.0 0.4783150408
Rh  Rh15  1  0.60383000  0.89617000  0.10383000  1.0 0.4783150408
Rh  Rh16  1  0.89617000  0.10383000  0.60383000  1.0 0.4783150408
C  C1  1  0.46160000  0.41230000  0.28130000  1.0 -0.2098945991
C  C2  1  0.48720000  0.45080000  0.32600000  1.0 -0.0151162172
C  C3  1  0.51600000  0.50420000  0.30050000  1.0 0.3846567131
C  C4  1  0.47180000  0.24700000  0.20450000  1.0 -0.2017093945
C  C5  1  0.49750000  0.18900000  0.19790000  1.0 -0.0041763695
C  C6  1  0.56140000  0.19180000  0.19760000  1.0 0.5508063228
C  C7  1  0.27680000  0.13250000  0.17340000  1.0 -0.2017093945
C  C8  1  0.32040000  0.08760000  0.15920000  1.0 0.0191491748
C  C9  1  0.31610000  0.06290000  0.10040000  1.0 0.5508063228
C  C10  1  0.37750000  0.12970000  0.37880000  1.0 -0.2098945991
C  C11  1  0.40380000  0.07830000  0.34730000  1.0 0.0191491748
C  C12  1  0.39390000  0.02310000  0.38170000  1.0 0.5915596824
C  C13  1  0.03840000  0.58770000  0.78130000  1.0 -0.2098945991
C  C14  1  0.01280000  0.54920000  0.82600000  1.0 -0.0145627636
C  C15  1  0.98400000  0.49580000  0.80050000  1.0 0.3846567131
C  C16  1  0.02820000  0.75300000  0.70450000  1.0 -0.2017093945
C  C17  1  0.00250000  0.81100000  0.69790000  1.0 -0.0041763695
C  C18  1  0.93860000  0.80820000  0.69760000  1.0 0.5508063228
C  C19  1  0.22320000  0.86750000  0.67340000  1.0 -0.2017093945
C  C20  1  0.17960000  0.91240000  0.65920000  1.0 0.0191491748
C  C21  1  0.18390000  0.93710000  0.60040000  1.0 0.5508063228
C  C22  1  0.12250000  0.87030000  0.87880000  1.0 -0.2151355554
C  C23  1  0.09620000  0.92170000  0.84730000  1.0 0.0191491748
C  C24  1  0.10610000  0.97690000  0.88170000  1.0 0.5915596824
C  C25  1  0.53840000  0.91230000  0.21870000  1.0 -0.2098945991
C  C26  1  0.51280000  0.95080000  0.17400000  1.0 -0.0151162172
C  C27  1  0.48400000  0.00420000  0.19950000  1.0 0.3846567131
C  C28  1  0.52820000  0.74700000  0.29550000  1.0 -0.2017093945
C  C29  1  0.50250000  0.68900000  0.30210000  1.0 -0.0041763695
C  C30  1  0.43860000  0.69180000  0.30240000  1.0 0.5508063228
C  C31  1  0.72320000  0.63250000  0.32660000  1.0 -0.2017093945
C  C32  1  0.67960000  0.58760000  0.34080000  1.0 0.0191491748
C  C33  1  0.68390000  0.56290000  0.39960000  1.0 0.5508063228
C  C34  1  0.62250000  0.62970000  0.12120000  1.0 -0.2151355554
C  C35  1  0.59620000  0.57830000  0.15270000  1.0 0.0191491748
C  C36  1  0.60610000  0.52310000  0.11830000  1.0 0.5915596824
C  C37  1  0.96160000  0.08770000  0.71870000  1.0 -0.2098945991
C  C38  1  0.98720000  0.04920000  0.67400000  1.0 -0.0151162172
C  C39  1  0.01600000  0.99580000  0.69950000  1.0 0.3857073675
C  C40  1  0.97180000  0.25300000  0.79550000  1.0 -0.2017093945
C  C41  1  0.99750000  0.31100000  0.80210000  1.0 -0.0041763695
C  C42  1  0.06140000  0.30820000  0.80240000  1.0 0.5508063228
C  C43  1  0.77680000  0.36750000  0.82660000  1.0 -0.2017093945
C  C44  1  0.82040000  0.41240000  0.84080000  1.0 0.0191491748
C  C45  1  0.81610000  0.43710000  0.89960000  1.0 0.5508063228
C  C46  1  0.87750000  0.37030000  0.62120000  1.0 -0.2098945991
C  C47  1  0.90380000  0.42170000  0.65270000  1.0 0.0191491748
C  C48  1  0.89390000  0.47690000  0.61830000  1.0 0.5915596824
C  C49  1  0.28130000  0.46160000  0.41230000  1.0 -0.2098945991
C  C50  1  0.32600000  0.48720000  0.45080000  1.0 -0.0151162172
C  C51  1  0.30050000  0.51600000  0.50420000  1.0 0.3846567131
C  C52  1  0.20450000  0.47180000  0.24700000  1.0 -0.2017093945
C  C53  1  0.19790000  0.49750000  0.18900000  1.0 -0.0041763695
C  C54  1  0.19760000  0.56140000  0.19180000  1.0 0.5508063228
C  C55  1  0.17340000  0.27680000  0.13250000  1.0 -0.2017093945
C  C56  1  0.15920000  0.32040000  0.08760000  1.0 0.0191491748
C  C57  1  0.10040000  0.31610000  0.06290000  1.0 0.5508063228
C  C58  1  0.37880000  0.37750000  0.12970000  1.0 -0.2151355554
C  C59  1  0.34730000  0.40380000  0.07830000  1.0 0.0191491748
C  C60  1  0.38170000  0.39390000  0.02310000  1.0 0.5915596824
C  C61  1  0.78130000  0.03840000  0.58770000  1.0 -0.2098945991
C  C62  1  0.82600000  0.01280000  0.54920000  1.0 -0.0145627636
C  C63  1  0.80050000  0.98400000  0.49580000  1.0 0.3857073675
C  C64  1  0.70450000  0.02820000  0.75300000  1.0 -0.2017093945
C  C65  1  0.69790000  0.00250000  0.81100000  1.0 -0.0041763695
C  C66  1  0.69760000  0.93860000  0.80820000  1.0 0.5508063228
C  C67  1  0.67340000  0.22320000  0.86750000  1.0 -0.2017093945
C  C68  1  0.65920000  0.17960000  0.91240000  1.0 0.0191491748
C  C69  1  0.60040000  0.18390000  0.93710000  1.0 0.5508063228
C  C70  1  0.87880000  0.12250000  0.87030000  1.0 -0.2098945991
C  C71  1  0.84730000  0.09620000  0.92170000  1.0 0.0191491748
C  C72  1  0.88170000  0.10610000  0.97690000  1.0 0.5915596824
C  C73  1  0.21870000  0.53840000  0.91230000  1.0 -0.2098945991
C  C74  1  0.17400000  0.51280000  0.95080000  1.0 -0.0151162172
C  C75  1  0.19950000  0.48400000  0.00420000  1.0 0.3846567131
C  C76  1  0.29550000  0.52820000  0.74700000  1.0 -0.2017093945
C  C77  1  0.30210000  0.50250000  0.68900000  1.0 -0.0041763695
C  C78  1  0.30240000  0.43860000  0.69180000  1.0 0.5508063228
C  C79  1  0.32660000  0.72320000  0.63250000  1.0 -0.2017093945
C  C80  1  0.34080000  0.67960000  0.58760000  1.0 0.0191491748
C  C81  1  0.39960000  0.68390000  0.56290000  1.0 0.5508063228
C  C82  1  0.12120000  0.62250000  0.62970000  1.0 -0.2151355554
C  C83  1  0.15270000  0.59620000  0.57830000  1.0 0.0191491748
C  C84  1  0.11830000  0.60610000  0.52310000  1.0 0.5915596824
C  C85  1  0.71870000  0.96160000  0.08770000  1.0 -0.2098945991
C  C86  1  0.67400000  0.98720000  0.04920000  1.0 -0.0145627636
C  C87  1  0.69950000  0.01600000  0.99580000  1.0 0.3846567131
C  C88  1  0.79550000  0.97180000  0.25300000  1.0 -0.2017093945
C  C89  1  0.80210000  0.99750000  0.31100000  1.0 -0.0041763695
C  C90  1  0.80240000  0.06140000  0.30820000  1.0 0.5508063228
C  C91  1  0.82660000  0.77680000  0.36750000  1.0 -0.2017093945
C  C92  1  0.84080000  0.82040000  0.41240000  1.0 0.0191491748
C  C93  1  0.89960000  0.81610000  0.43710000  1.0 0.5508063228
C  C94  1  0.62120000  0.87750000  0.37030000  1.0 -0.2151355554
C  C95  1  0.65270000  0.90380000  0.42170000  1.0 0.0191491748
C  C96  1  0.61830000  0.89390000  0.47690000  1.0 0.5915596824
C  C97  1  0.41230000  0.28130000  0.46160000  1.0 -0.2098945991
C  C98  1  0.45080000  0.32600000  0.48720000  1.0 -0.0151162172
C  C99  1  0.50420000  0.30050000  0.51600000  1.0 0.3846567131
C  C100  1  0.24700000  0.20450000  0.47180000  1.0 -0.2017093945
C  C101  1  0.18900000  0.19790000  0.49750000  1.0 -0.0041763695
C  C102  1  0.19180000  0.19760000  0.56140000  1.0 0.5508063228
C  C103  1  0.13250000  0.17340000  0.27680000  1.0 -0.2017093945
C  C104  1  0.08760000  0.15920000  0.32040000  1.0 0.0191491748
C  C105  1  0.06290000  0.10040000  0.31610000  1.0 0.5508063228
C  C106  1  0.12970000  0.37880000  0.37750000  1.0 -0.2151355554
C  C107  1  0.07830000  0.34730000  0.40380000  1.0 0.0191491748
C  C108  1  0.02310000  0.38170000  0.39390000  1.0 0.5915596824
C  C109  1  0.58770000  0.78130000  0.03840000  1.0 -0.2098945991
C  C110  1  0.54920000  0.82600000  0.01280000  1.0 -0.0151162172
C  C111  1  0.49580000  0.80050000  0.98400000  1.0 0.3857073675
C  C112  1  0.75300000  0.70450000  0.02820000  1.0 -0.2017093945
C  C113  1  0.81100000  0.69790000  0.00250000  1.0 -0.0041763695
C  C114  1  0.80820000  0.69760000  0.93860000  1.0 0.5508063228
C  C115  1  0.86750000  0.67340000  0.22320000  1.0 -0.2017093945
C  C116  1  0.91240000  0.65920000  0.17960000  1.0 0.0191491748
C  C117  1  0.93710000  0.60040000  0.18390000  1.0 0.5508063228
C  C118  1  0.87030000  0.87880000  0.12250000  1.0 -0.2151355554
C  C119  1  0.92170000  0.84730000  0.09620000  1.0 0.0191491748
C  C120  1  0.97690000  0.88170000  0.10610000  1.0 0.5915596824
C  C121  1  0.91230000  0.21870000  0.53840000  1.0 -0.2098945991
C  C122  1  0.95080000  0.17400000  0.51280000  1.0 -0.0151162172
C  C123  1  0.00420000  0.19950000  0.48400000  1.0 0.3846567131
C  C124  1  0.74700000  0.29550000  0.52820000  1.0 -0.2017093945
C  C125  1  0.68900000  0.30210000  0.50250000  1.0 -0.0041763695
C  C126  1  0.69180000  0.30240000  0.43860000  1.0 0.5508063228
C  C127  1  0.63250000  0.32660000  0.72320000  1.0 -0.2017093945
C  C128  1  0.58760000  0.34080000  0.67960000  1.0 0.0191491748
C  C129  1  0.56290000  0.39960000  0.68390000  1.0 0.5508063228
C  C130  1  0.62970000  0.12120000  0.62250000  1.0 -0.2098945991
C  C131  1  0.57830000  0.15270000  0.59620000  1.0 0.0191491748
C  C132  1  0.52310000  0.11830000  0.60610000  1.0 0.5915596824
C  C133  1  0.08770000  0.71870000  0.96160000  1.0 -0.2098945991
C  C134  1  0.04920000  0.67400000  0.98720000  1.0 -0.0151162172
C  C135  1  0.99580000  0.69950000  0.01600000  1.0 0.3846567131
C  C136  1  0.25300000  0.79550000  0.97180000  1.0 -0.2017093945
C  C137  1  0.31100000  0.80210000  0.99750000  1.0 -0.0041763695
C  C138  1  0.30820000  0.80240000  0.06140000  1.0 0.5508063228
C  C139  1  0.36750000  0.82660000  0.77680000  1.0 -0.2017093945
C  C140  1  0.41240000  0.84080000  0.82040000  1.0 0.0191491748
C  C141  1  0.43710000  0.89960000  0.81610000  1.0 0.5508063228
C  C142  1  0.37030000  0.62120000  0.87750000  1.0 -0.2151355554
C  C143  1  0.42170000  0.65270000  0.90380000  1.0 0.0191491748
C  C144  1  0.47690000  0.61830000  0.89390000  1.0 0.5915596824
S  S1  1  0.43268000  0.34939000  0.31667000  1.0 -0.3072430674
S  S2  1  0.39432000  0.24098000  0.19949000  1.0 -0.3072430674
S  S3  1  0.28559000  0.15547000  0.24720000  1.0 -0.2982150127
S  S4  1  0.39405000  0.19384000  0.33821000  1.0 -0.3072430674
S  S5  1  0.06732000  0.65061000  0.81667000  1.0 -0.3072430674
S  S6  1  0.10568000  0.75902000  0.69949000  1.0 -0.3072430674
S  S7  1  0.21441000  0.84453000  0.74720000  1.0 -0.2982150127
S  S8  1  0.10595000  0.80616000  0.83821000  1.0 -0.3072430674
S  S9  1  0.56732000  0.84939000  0.18333000  1.0 -0.3072430674
S  S10  1  0.60568000  0.74098000  0.30051000  1.0 -0.3072430674
S  S11  1  0.71441000  0.65547000  0.25280000  1.0 -0.2982150127
S  S12  1  0.60595000  0.69384000  0.16179000  1.0 -0.3072430674
S  S13  1  0.93268000  0.15061000  0.68333000  1.0 -0.3072430674
S  S14  1  0.89432000  0.25902000  0.80051000  1.0 -0.3072430674
S  S15  1  0.78559000  0.34453000  0.75280000  1.0 -0.2982150127
S  S16  1  0.89405000  0.30616000  0.66179000  1.0 -0.3072430674
S  S17  1  0.31667000  0.43268000  0.34939000  1.0 -0.3072430674
S  S18  1  0.19949000  0.39432000  0.24098000  1.0 -0.3072430674
S  S19  1  0.24720000  0.28559000  0.15547000  1.0 -0.2982150127
S  S20  1  0.33821000  0.39405000  0.19384000  1.0 -0.3072430674
S  S21  1  0.81667000  0.06732000  0.65061000  1.0 -0.3072430674
S  S22  1  0.69949000  0.10568000  0.75902000  1.0 -0.3072430674
S  S23  1  0.74720000  0.21441000  0.84453000  1.0 -0.2982150127
S  S24  1  0.83821000  0.10595000  0.80616000  1.0 -0.3072430674
S  S25  1  0.18333000  0.56732000  0.84939000  1.0 -0.3072430674
S  S26  1  0.30051000  0.60568000  0.74098000  1.0 -0.3072430674
S  S27  1  0.25280000  0.71441000  0.65547000  1.0 -0.2982150127
S  S28  1  0.16179000  0.60595000  0.69384000  1.0 -0.3072430674
S  S29  1  0.68333000  0.93268000  0.15061000  1.0 -0.3072430674
S  S30  1  0.80051000  0.89432000  0.25902000  1.0 -0.3072430674
S  S31  1  0.75280000  0.78559000  0.34453000  1.0 -0.2982150127
S  S32  1  0.66179000  0.89405000  0.30616000  1.0 -0.3072430674
S  S33  1  0.34939000  0.31667000  0.43268000  1.0 -0.3072430674
S  S34  1  0.24098000  0.19949000  0.39432000  1.0 -0.3072430674
S  S35  1  0.15547000  0.24720000  0.28559000  1.0 -0.2982150127
S  S36  1  0.19384000  0.33821000  0.39405000  1.0 -0.3072430674
S  S37  1  0.65061000  0.81667000  0.06732000  1.0 -0.3072430674
S  S38  1  0.75902000  0.69949000  0.10568000  1.0 -0.3072430674
S  S39  1  0.84453000  0.74720000  0.21441000  1.0 -0.2982150127
S  S40  1  0.80616000  0.83821000  0.10595000  1.0 -0.3072430674
S  S41  1  0.84939000  0.18333000  0.56732000  1.0 -0.3072430674
S  S42  1  0.74098000  0.30051000  0.60568000  1.0 -0.3072430674
S  S43  1  0.65547000  0.25280000  0.71441000  1.0 -0.2982150127
S  S44  1  0.69384000  0.16179000  0.60595000  1.0 -0.3072430674
S  S45  1  0.15061000  0.68333000  0.93268000  1.0 -0.3072430674
S  S46  1  0.25902000  0.80051000  0.89432000  1.0 -0.3072430674
S  S47  1  0.34453000  0.75280000  0.78559000  1.0 -0.2982150127
S  S48  1  0.30616000  0.66179000  0.89405000  1.0 -0.3072430674
N  N1  1  0.44266000  0.46627000  0.36690000  1.0 -0.4686362665
N  N2  1  0.47410000  0.15100000  0.24280000  1.0 -0.492328076
N  N3  1  0.37820000  0.11280000  0.17010000  1.0 -0.48023916
N  N4  1  0.38220000  0.07680000  0.29040000  1.0 -0.48023916
N  N5  1  0.05734000  0.53373000  0.86690000  1.0 -0.4686362665
N  N6  1  0.02590000  0.84900000  0.74280000  1.0 -0.492328076
N  N7  1  0.12180000  0.88720000  0.67010000  1.0 -0.48023916
N  N8  1  0.11780000  0.92320000  0.79040000  1.0 -0.48023916
N  N9  1  0.55734000  0.96627000  0.13310000  1.0 -0.4686362665
N  N10  1  0.52590000  0.65100000  0.25720000  1.0 -0.492328076
N  N11  1  0.62180000  0.61280000  0.32990000  1.0 -0.48023916
N  N12  1  0.61780000  0.57680000  0.20960000  1.0 -0.48023916
N  N13  1  0.94266000  0.03373000  0.63310000  1.0 -0.4686362665
N  N14  1  0.97410000  0.34900000  0.75720000  1.0 -0.492328076
N  N15  1  0.87820000  0.38720000  0.82990000  1.0 -0.48023916
N  N16  1  0.88220000  0.42320000  0.70960000  1.0 -0.48023916
N  N17  1  0.36690000  0.44266000  0.46627000  1.0 -0.4686362665
N  N18  1  0.24280000  0.47410000  0.15100000  1.0 -0.492328076
N  N19  1  0.17010000  0.37820000  0.11280000  1.0 -0.48023916
N  N20  1  0.29040000  0.38220000  0.07680000  1.0 -0.48023916
N  N21  1  0.86690000  0.05734000  0.53373000  1.0 -0.4686362665
N  N22  1  0.74280000  0.02590000  0.84900000  1.0 -0.492328076
N  N23  1  0.67010000  0.12180000  0.88720000  1.0 -0.48023916
N  N24  1  0.79040000  0.11780000  0.92320000  1.0 -0.48023916
N  N25  1  0.13310000  0.55734000  0.96627000  1.0 -0.4686362665
N  N26  1  0.25720000  0.52590000  0.65100000  1.0 -0.492328076
N  N27  1  0.32990000  0.62180000  0.61280000  1.0 -0.48023916
N  N28  1  0.20960000  0.61780000  0.57680000  1.0 -0.48023916
N  N29  1  0.63310000  0.94266000  0.03373000  1.0 -0.4686362665
N  N30  1  0.75720000  0.97410000  0.34900000  1.0 -0.492328076
N  N31  1  0.82990000  0.87820000  0.38720000  1.0 -0.48023916
N  N32  1  0.70960000  0.88220000  0.42320000  1.0 -0.48023916
N  N33  1  0.46627000  0.36690000  0.44266000  1.0 -0.4686362665
N  N34  1  0.15100000  0.24280000  0.47410000  1.0 -0.492328076
N  N35  1  0.11280000  0.17010000  0.37820000  1.0 -0.48023916
N  N36  1  0.07680000  0.29040000  0.38220000  1.0 -0.48023916
N  N37  1  0.53373000  0.86690000  0.05734000  1.0 -0.4686362665
N  N38  1  0.84900000  0.74280000  0.02590000  1.0 -0.492328076
N  N39  1  0.88720000  0.67010000  0.12180000  1.0 -0.48023916
N  N40  1  0.92320000  0.79040000  0.11780000  1.0 -0.48023916
N  N41  1  0.96627000  0.13310000  0.55734000  1.0 -0.4686362665
N  N42  1  0.65100000  0.25720000  0.52590000  1.0 -0.492328076
N  N43  1  0.61280000  0.32990000  0.62180000  1.0 -0.48023916
N  N44  1  0.57680000  0.20960000  0.61780000  1.0 -0.48023916
N  N45  1  0.03373000  0.63310000  0.94266000  1.0 -0.4686362665
N  N46  1  0.34900000  0.75720000  0.97410000  1.0 -0.492328076
N  N47  1  0.38720000  0.82990000  0.87820000  1.0 -0.48023916
N  N48  1  0.42320000  0.70960000  0.88220000  1.0 -0.48023916
O  O1  1  0.51350000  0.54750000  0.32480000  1.0 -0.0376956379
O  O2  1  0.53310000  0.49730000  0.24650000  1.0 -0.2334353585
O  O3  1  0.58980000  0.16200000  0.22930000  1.0 -0.5186336298
O  O4  1  0.58440000  0.22470000  0.15680000  1.0 -0.5664535869
O  O5  1  0.35840000  0.05040000  0.07530000  1.0 -0.4686362665
O  O6  1  0.27120000  0.03890000  0.08960000  1.0 -0.492328076
O  O7  1  0.37030000  0.98100000  0.35390000  1.0 -0.4987029243
O  O8  1  0.40560000  0.01750000  0.42920000  1.0 -0.4300534337
O  O9  1  0.70390000  0.17770000  0.23020000  1.0 -0.3683338274
O  O10  1  0.48210000  0.54740000  0.28820000  1.0 -0.1473646881
O  O11  1  0.56570000  0.50350000  0.29270000  1.0 -0.1576338072
O  O12  1  0.08700000  0.06480000  0.09510000  1.0 0.0613595419
O  O13  1  0.98650000  0.45250000  0.82480000  1.0 -0.0376956379
O  O14  1  0.96690000  0.50270000  0.74650000  1.0 -0.2334353585
O  O15  1  0.91020000  0.83800000  0.72930000  1.0 -0.5186336298
O  O16  1  0.91560000  0.77530000  0.65680000  1.0 -0.5664535869
O  O17  1  0.14160000  0.94960000  0.57530000  1.0 -0.4686362665
O  O18  1  0.22880000  0.96110000  0.58960000  1.0 -0.492328076
O  O19  1  0.12970000  0.01900000  0.85390000  1.0 -0.4987029243
O  O20  1  0.09440000  0.98250000  0.92920000  1.0 -0.4300534337
O  O21  1  0.79610000  0.82230000  0.73020000  1.0 -0.3683338274
O  O22  1  0.01790000  0.45260000  0.78820000  1.0 -0.1473646881
O  O23  1  0.93430000  0.49650000  0.79270000  1.0 -0.1576338072
O  O24  1  0.41300000  0.93520000  0.59510000  1.0 0.0613595419
O  O25  1  0.48650000  0.04750000  0.17520000  1.0 -0.0376956379
O  O26  1  0.46690000  0.99730000  0.25350000  1.0 -0.2334353585
O  O27  1  0.41020000  0.66200000  0.27070000  1.0 -0.5186336298
O  O28  1  0.41560000  0.72470000  0.34320000  1.0 -0.5664535869
O  O29  1  0.64160000  0.55040000  0.42470000  1.0 -0.4686362665
O  O30  1  0.72880000  0.53890000  0.41040000  1.0 -0.492328076
O  O31  1  0.62970000  0.48100000  0.14610000  1.0 -0.4987029243
O  O32  1  0.59440000  0.51750000  0.07080000  1.0 -0.4300534337
O  O33  1  0.29610000  0.67770000  0.26980000  1.0 -0.3683338274
O  O34  1  0.51790000  0.04740000  0.21180000  1.0 -0.1473646881
O  O35  1  0.43430000  0.00350000  0.20730000  1.0 -0.1576338072
O  O36  1  0.91300000  0.56480000  0.40490000  1.0 0.0613595419
O  O37  1  0.01350000  0.95250000  0.67520000  1.0 -0.0376956379
O  O38  1  0.03310000  0.00270000  0.75350000  1.0 -0.2334353585
O  O39  1  0.08980000  0.33800000  0.77070000  1.0 -0.5186336298
O  O40  1  0.08440000  0.27530000  0.84320000  1.0 -0.5664535869
O  O41  1  0.85840000  0.44960000  0.92470000  1.0 -0.4686362665
O  O42  1  0.77120000  0.46110000  0.91040000  1.0 -0.492328076
O  O43  1  0.87030000  0.51900000  0.64610000  1.0 -0.4987029243
O  O44  1  0.90560000  0.48250000  0.57080000  1.0 -0.4300534337
O  O45  1  0.20390000  0.32230000  0.76980000  1.0 -0.3683338274
O  O46  1  0.98210000  0.95260000  0.71180000  1.0 -0.1473646881
O  O47  1  0.06570000  0.99650000  0.70730000  1.0 -0.1576338072
O  O48  1  0.58700000  0.43520000  0.90490000  1.0 0.0613595419
O  O49  1  0.32480000  0.51350000  0.54750000  1.0 -0.0376956379
O  O50  1  0.24650000  0.53310000  0.49730000  1.0 -0.2334353585
O  O51  1  0.22930000  0.58980000  0.16200000  1.0 -0.5186336298
O  O52  1  0.15680000  0.58440000  0.22470000  1.0 -0.5664535869
O  O53  1  0.07530000  0.35840000  0.05040000  1.0 -0.4686362665
O  O54  1  0.08960000  0.27120000  0.03890000  1.0 -0.492328076
O  O55  1  0.35390000  0.37030000  0.98100000  1.0 -0.4987029243
O  O56  1  0.42920000  0.40560000  0.01750000  1.0 -0.4300534337
O  O57  1  0.23020000  0.70390000  0.17770000  1.0 -0.3683338274
O  O58  1  0.28820000  0.48210000  0.54740000  1.0 -0.1473646881
O  O59  1  0.29270000  0.56570000  0.50350000  1.0 -0.1576338072
O  O60  1  0.09510000  0.08700000  0.06480000  1.0 0.0613595419
O  O61  1  0.82480000  0.98650000  0.45250000  1.0 -0.0376956379
O  O62  1  0.74650000  0.96690000  0.50270000  1.0 -0.2334353585
O  O63  1  0.72930000  0.91020000  0.83800000  1.0 -0.5186336298
O  O64  1  0.65680000  0.91560000  0.77530000  1.0 -0.5664535869
O  O65  1  0.57530000  0.14160000  0.94960000  1.0 -0.4686362665
O  O66  1  0.58960000  0.22880000  0.96110000  1.0 -0.492328076
O  O67  1  0.85390000  0.12970000  0.01900000  1.0 -0.4987029243
O  O68  1  0.92920000  0.09440000  0.98250000  1.0 -0.4300534337
O  O69  1  0.73020000  0.79610000  0.82230000  1.0 -0.3683338274
O  O70  1  0.78820000  0.01790000  0.45260000  1.0 -0.1473646881
O  O71  1  0.79270000  0.93430000  0.49650000  1.0 -0.1576338072
O  O72  1  0.59510000  0.41300000  0.93520000  1.0 0.0613595419
O  O73  1  0.17520000  0.48650000  0.04750000  1.0 -0.0376956379
O  O74  1  0.25350000  0.46690000  0.99730000  1.0 -0.2334353585
O  O75  1  0.27070000  0.41020000  0.66200000  1.0 -0.5186336298
O  O76  1  0.34320000  0.41560000  0.72470000  1.0 -0.5664535869
O  O77  1  0.42470000  0.64160000  0.55040000  1.0 -0.4686362665
O  O78  1  0.41040000  0.72880000  0.53890000  1.0 -0.492328076
O  O79  1  0.14610000  0.62970000  0.48100000  1.0 -0.4987029243
O  O80  1  0.07080000  0.59440000  0.51750000  1.0 -0.4300534337
O  O81  1  0.26980000  0.29610000  0.67770000  1.0 -0.3683338274
O  O82  1  0.21180000  0.51790000  0.04740000  1.0 -0.1473646881
O  O83  1  0.20730000  0.43430000  0.00350000  1.0 -0.1576338072
O  O84  1  0.40490000  0.91300000  0.56480000  1.0 0.0613595419
O  O85  1  0.67520000  0.01350000  0.95250000  1.0 -0.0376956379
O  O86  1  0.75350000  0.03310000  0.00270000  1.0 -0.2334353585
O  O87  1  0.77070000  0.08980000  0.33800000  1.0 -0.5186336298
O  O88  1  0.84320000  0.08440000  0.27530000  1.0 -0.5664535869
O  O89  1  0.92470000  0.85840000  0.44960000  1.0 -0.4686362665
O  O90  1  0.91040000  0.77120000  0.46110000  1.0 -0.492328076
O  O91  1  0.64610000  0.87030000  0.51900000  1.0 -0.4987029243
O  O92  1  0.57080000  0.90560000  0.48250000  1.0 -0.4300534337
O  O93  1  0.76980000  0.20390000  0.32230000  1.0 -0.3683338274
O  O94  1  0.71180000  0.98210000  0.95260000  1.0 -0.1473646881
O  O95  1  0.70730000  0.06570000  0.99650000  1.0 -0.1576338072
O  O96  1  0.90490000  0.58700000  0.43520000  1.0 0.0613595419
O  O97  1  0.54750000  0.32480000  0.51350000  1.0 -0.0376956379
O  O98  1  0.49730000  0.24650000  0.53310000  1.0 -0.2334353585
O  O99  1  0.16200000  0.22930000  0.58980000  1.0 -0.5186336298
O  O100  1  0.22470000  0.15680000  0.58440000  1.0 -0.5664535869
O  O101  1  0.05040000  0.07530000  0.35840000  1.0 -0.4686362665
O  O102  1  0.03890000  0.08960000  0.27120000  1.0 -0.492328076
O  O103  1  0.98100000  0.35390000  0.37030000  1.0 -0.4987029243
O  O104  1  0.01750000  0.42920000  0.40560000  1.0 -0.4300534337
O  O105  1  0.17770000  0.23020000  0.70390000  1.0 -0.3683338274
O  O106  1  0.54740000  0.28820000  0.48210000  1.0 -0.1473646881
O  O107  1  0.50350000  0.29270000  0.56570000  1.0 -0.1576338072
O  O108  1  0.06480000  0.09510000  0.08700000  1.0 0.0613595419
O  O109  1  0.45250000  0.82480000  0.98650000  1.0 -0.0376956379
O  O110  1  0.50270000  0.74650000  0.96690000  1.0 -0.2334353585
O  O111  1  0.83800000  0.72930000  0.91020000  1.0 -0.5186336298
O  O112  1  0.77530000  0.65680000  0.91560000  1.0 -0.5664535869
O  O113  1  0.94960000  0.57530000  0.14160000  1.0 -0.4686362665
O  O114  1  0.96110000  0.58960000  0.22880000  1.0 -0.492328076
O  O115  1  0.01900000  0.85390000  0.12970000  1.0 -0.4987029243
O  O116  1  0.98250000  0.92920000  0.09440000  1.0 -0.4300534337
O  O117  1  0.82230000  0.73020000  0.79610000  1.0 -0.3683338274
O  O118  1  0.45260000  0.78820000  0.01790000  1.0 -0.1473646881
O  O119  1  0.49650000  0.79270000  0.93430000  1.0 -0.1576338072
O  O120  1  0.93520000  0.59510000  0.41300000  1.0 0.0613595419
O  O121  1  0.04750000  0.17520000  0.48650000  1.0 -0.0376956379
O  O122  1  0.99730000  0.25350000  0.46690000  1.0 -0.2334353585
O  O123  1  0.66200000  0.27070000  0.41020000  1.0 -0.5186336298
O  O124  1  0.72470000  0.34320000  0.41560000  1.0 -0.5664535869
O  O125  1  0.55040000  0.42470000  0.64160000  1.0 -0.4686362665
O  O126  1  0.53890000  0.41040000  0.72880000  1.0 -0.492328076
O  O127  1  0.48100000  0.14610000  0.62970000  1.0 -0.4987029243
O  O128  1  0.51750000  0.07080000  0.59440000  1.0 -0.4300534337
O  O129  1  0.67770000  0.26980000  0.29610000  1.0 -0.3683338274
O  O130  1  0.04740000  0.21180000  0.51790000  1.0 -0.1473646881
O  O131  1  0.00350000  0.20730000  0.43430000  1.0 -0.1576338072
O  O132  1  0.56480000  0.40490000  0.91300000  1.0 0.0613595419
O  O133  1  0.95250000  0.67520000  0.01350000  1.0 -0.0376956379
O  O134  1  0.00270000  0.75350000  0.03310000  1.0 -0.2334353585
O  O135  1  0.33800000  0.77070000  0.08980000  1.0 -0.5186336298
O  O136  1  0.27530000  0.84320000  0.08440000  1.0 -0.5664535869
O  O137  1  0.44960000  0.92470000  0.85840000  1.0 -0.4686362665
O  O138  1  0.46110000  0.91040000  0.77120000  1.0 -0.492328076
O  O139  1  0.51900000  0.64610000  0.87030000  1.0 -0.4987029243
O  O140  1  0.48250000  0.57080000  0.90560000  1.0 -0.4300534337
O  O141  1  0.32230000  0.76980000  0.20390000  1.0 -0.3683338274
O  O142  1  0.95260000  0.71180000  0.98210000  1.0 -0.1473646881
O  O143  1  0.99650000  0.70730000  0.06570000  1.0 -0.1576338072
O  O144  1  0.43520000  0.90490000  0.58700000  1.0 0.0613595419
O  O145  1  0.29546000  0.29546000  0.29546000  1.0 -0.8170281161
O  O146  1  0.20454000  0.70454000  0.79546000  1.0 -0.8170281161
O  O147  1  0.70454000  0.79546000  0.20454000  1.0 -0.8170281161
O  O148  1  0.79546000  0.20454000  0.70454000  1.0 -0.8170281161
O  O149  1  0.64580000  0.14580000  0.35420000  1.0 -0.5499442328
O  O150  1  0.85420000  0.85420000  0.85420000  1.0 -0.5499442328
O  O151  1  0.35420000  0.64580000  0.14580000  1.0 -0.5499442328
O  O152  1  0.14580000  0.35420000  0.64580000  1.0 -0.5499442328
