# DDEC6 charges by PACMAN v1.1 (https://github.com/mtap-research/PACMAN-charge/)
data_DACNAA_ASR_pacman
_symmetry_space_group_name_H-M   'P 1'
_cell_length_a   23.56500000
_cell_length_b   23.56500000
_cell_length_c   23.56500000
_cell_angle_alpha   90.00000000
_cell_angle_beta   90.00000000
_cell_angle_gamma   90.00000000
_symmetry_Int_Tables_number   1
_chemical_formula_structural   Ce10Zn4H60Rh4C36S12N12O41
_chemical_formula_sum   'Ce40 Zn16 H240 Rh16 C144 S48 N48 O164'
_cell_volume   13085.86188713
_cell_formula_units_Z   4
loop_
 _symmetry_equiv_pos_site_id
 _symmetry_equiv_pos_as_xyz
  1  'x, y, z'
loop_
 _atom_site_type_symbol
 _atom_site_label
 _atom_site_symmetry_multiplicity
 _atom_site_fract_x
 _atom_site_fract_y
 _atom_site_fract_z
 _atom_site_occupancy
 _atom_site_charge
Ce  Ce1  1  0.45175000  0.03925000  0.52198000  1.0 0.2215391293
Ce  Ce2  1  0.69048000  0.15377000  0.25239000  1.0 0.9114742556
Ce  Ce3  1  0.16630000  0.99460000  0.11690000  1.0 0.8004154293
Ce  Ce4  1  0.04825000  0.96075000  0.02198000  1.0 0.2215391293
Ce  Ce5  1  0.80952000  0.84623000  0.75239000  1.0 0.9114742556
Ce  Ce6  1  0.33370000  0.00540000  0.61690000  1.0 0.8004154293
Ce  Ce7  1  0.54825000  0.53925000  0.97802000  1.0 0.2215391293
Ce  Ce8  1  0.30952000  0.65377000  0.24761000  1.0 0.9114742556
Ce  Ce9  1  0.83370000  0.49460000  0.38310000  1.0 0.8004154293
Ce  Ce10  1  0.95175000  0.46075000  0.47802000  1.0 0.227941049
Ce  Ce11  1  0.19048000  0.34623000  0.74761000  1.0 0.9114742556
Ce  Ce12  1  0.66630000  0.50540000  0.88310000  1.0 0.8004154293
Ce  Ce13  1  0.52198000  0.45175000  0.03925000  1.0 0.2215391293
Ce  Ce14  1  0.25239000  0.69048000  0.15377000  1.0 0.9114742556
Ce  Ce15  1  0.11690000  0.16630000  0.99460000  1.0 0.8004154293
Ce  Ce16  1  0.02198000  0.04825000  0.96075000  1.0 0.2215391293
Ce  Ce17  1  0.75239000  0.80952000  0.84623000  1.0 0.9114742556
Ce  Ce18  1  0.61690000  0.33370000  0.00540000  1.0 0.8004154293
Ce  Ce19  1  0.97802000  0.54825000  0.53925000  1.0 0.2215391293
Ce  Ce20  1  0.24761000  0.30952000  0.65377000  1.0 0.9114742556
Ce  Ce21  1  0.38310000  0.83370000  0.49460000  1.0 0.8004154293
Ce  Ce22  1  0.47802000  0.95175000  0.46075000  1.0 0.2215391293
Ce  Ce23  1  0.74761000  0.19048000  0.34623000  1.0 0.9114742556
Ce  Ce24  1  0.88310000  0.66630000  0.50540000  1.0 0.8004154293
Ce  Ce25  1  0.03925000  0.52198000  0.45175000  1.0 0.2147926965
Ce  Ce26  1  0.15377000  0.25239000  0.69048000  1.0 0.9114742556
Ce  Ce27  1  0.99460000  0.11690000  0.16630000  1.0 0.8004154293
Ce  Ce28  1  0.96075000  0.02198000  0.04825000  1.0 0.227941049
Ce  Ce29  1  0.84623000  0.75239000  0.80952000  1.0 0.9114742556
Ce  Ce30  1  0.00540000  0.61690000  0.33370000  1.0 0.8004154293
Ce  Ce31  1  0.53925000  0.97802000  0.54825000  1.0 0.2215391293
Ce  Ce32  1  0.65377000  0.24761000  0.30952000  1.0 0.9114742556
Ce  Ce33  1  0.49460000  0.38310000  0.83370000  1.0 0.8004154293
Ce  Ce34  1  0.46075000  0.47802000  0.95175000  1.0 0.2215391293
Ce  Ce35  1  0.34623000  0.74761000  0.19048000  1.0 0.9114742556
Ce  Ce36  1  0.50540000  0.88310000  0.66630000  1.0 0.8004154293
Ce  Ce37  1  0.76081000  0.26081000  0.23919000  1.0 -0.3902316413
Ce  Ce38  1  0.73919000  0.73919000  0.73919000  1.0 -0.3902316413
Ce  Ce39  1  0.23919000  0.76081000  0.26081000  1.0 -0.4004670517
Ce  Ce40  1  0.26081000  0.23919000  0.76081000  1.0 -0.3902316413
Zn  Zn1  1  0.36316000  0.31925000  0.25362000  1.0 0.5440679668
Zn  Zn2  1  0.13684000  0.68075000  0.75362000  1.0 0.5440679668
Zn  Zn3  1  0.63684000  0.81925000  0.24638000  1.0 0.5440679668
Zn  Zn4  1  0.86316000  0.18075000  0.74638000  1.0 0.5440679668
Zn  Zn5  1  0.25362000  0.36316000  0.31925000  1.0 0.5440679668
Zn  Zn6  1  0.75362000  0.13684000  0.68075000  1.0 0.5440679668
Zn  Zn7  1  0.24638000  0.63684000  0.81925000  1.0 0.5440679668
Zn  Zn8  1  0.74638000  0.86316000  0.18075000  1.0 0.5440679668
Zn  Zn9  1  0.31925000  0.25362000  0.36316000  1.0 0.5440679668
Zn  Zn10  1  0.68075000  0.75362000  0.13684000  1.0 0.5440679668
Zn  Zn11  1  0.81925000  0.24638000  0.63684000  1.0 0.5440679668
Zn  Zn12  1  0.18075000  0.74638000  0.86316000  1.0 0.5440679668
Zn  Zn13  1  0.24791000  0.24791000  0.24791000  1.0 0.5459097305
Zn  Zn14  1  0.25209000  0.75209000  0.74791000  1.0 0.5459097305
Zn  Zn15  1  0.75209000  0.74791000  0.25209000  1.0 0.5459097305
Zn  Zn16  1  0.74791000  0.25209000  0.75209000  1.0 0.5459097305
H  H1  1  0.41807000  0.49245000  0.35213000  1.0 0.2767345785
H  H2  1  0.45896000  0.48456000  0.39863000  1.0 0.2689851307
H  H3  1  0.48917000  0.16156000  0.27644000  1.0 0.2689851307
H  H4  1  0.48437000  0.11526000  0.23486000  1.0 0.2582452822
H  H5  1  0.38594000  0.13993000  0.14184000  1.0 0.2689851307
H  H6  1  0.40524000  0.08681000  0.16816000  1.0 0.2689851307
H  H7  1  0.34652000  0.06553000  0.29148000  1.0 0.2689851307
H  H8  1  0.40346000  0.05197000  0.26998000  1.0 0.2582452822
H  H9  1  0.49022000  0.40277000  0.25320000  1.0 0.1400927855
H  H10  1  0.43029000  0.43416000  0.26151000  1.0 0.1294465926
H  H11  1  0.51727000  0.42956000  0.34652000  1.0 0.0988704336
H  H12  1  0.48628000  0.27385000  0.17467000  1.0 0.1400927855
H  H13  1  0.48285000  0.26419000  0.24206000  1.0 0.1129700545
H  H14  1  0.48509000  0.17433000  0.15984000  1.0 0.0988704336
H  H15  1  0.23826000  0.11622000  0.16945000  1.0 0.1178220974
H  H16  1  0.27996000  0.16556000  0.14794000  1.0 0.1294465926
H  H17  1  0.31687000  0.05684000  0.18730000  1.0 0.0900906284
H  H18  1  0.39422000  0.13353000  0.41748000  1.0 0.1400927855
H  H19  1  0.33684000  0.12537000  0.38159000  1.0 0.1294465926
H  H20  1  0.44685000  0.08738000  0.34457000  1.0 0.0988704336
H  H21  1  0.08193000  0.50755000  0.85213000  1.0 0.2767345785
H  H22  1  0.04104000  0.51544000  0.89863000  1.0 0.2689851307
H  H23  1  0.01083000  0.83844000  0.77644000  1.0 0.2689851307
H  H24  1  0.01563000  0.88474000  0.73486000  1.0 0.2582452822
H  H25  1  0.11406000  0.86007000  0.64184000  1.0 0.2689851307
H  H26  1  0.09476000  0.91319000  0.66816000  1.0 0.2689851307
H  H27  1  0.15348000  0.93447000  0.79148000  1.0 0.2689851307
H  H28  1  0.09654000  0.94803000  0.76998000  1.0 0.2582452822
H  H29  1  0.00978000  0.59723000  0.75320000  1.0 0.1400927855
H  H30  1  0.06971000  0.56584000  0.76151000  1.0 0.1294465926
H  H31  1  0.98273000  0.57044000  0.84652000  1.0 0.0988704336
H  H32  1  0.01372000  0.72615000  0.67467000  1.0 0.1400927855
H  H33  1  0.01715000  0.73581000  0.74206000  1.0 0.1129700545
H  H34  1  0.01491000  0.82567000  0.65984000  1.0 0.0988704336
H  H35  1  0.26174000  0.88378000  0.66945000  1.0 0.1178220974
H  H36  1  0.22004000  0.83444000  0.64794000  1.0 0.1294465926
H  H37  1  0.18313000  0.94316000  0.68730000  1.0 0.0900906284
H  H38  1  0.10578000  0.86647000  0.91748000  1.0 0.1400927855
H  H39  1  0.16316000  0.87463000  0.88159000  1.0 0.1294465926
H  H40  1  0.05315000  0.91262000  0.84457000  1.0 0.0988704336
H  H41  1  0.58193000  0.99245000  0.14787000  1.0 0.2767345785
H  H42  1  0.54104000  0.98456000  0.10137000  1.0 0.2689851307
H  H43  1  0.51083000  0.66156000  0.22356000  1.0 0.2689851307
H  H44  1  0.51563000  0.61526000  0.26514000  1.0 0.2582452822
H  H45  1  0.61406000  0.63993000  0.35816000  1.0 0.2689851307
H  H46  1  0.59476000  0.58681000  0.33184000  1.0 0.2689851307
H  H47  1  0.65348000  0.56553000  0.20852000  1.0 0.2689851307
H  H48  1  0.59654000  0.55197000  0.23002000  1.0 0.2582452822
H  H49  1  0.50978000  0.90277000  0.24680000  1.0 0.1400927855
H  H50  1  0.56971000  0.93416000  0.23849000  1.0 0.1294465926
H  H51  1  0.48273000  0.92956000  0.15348000  1.0 0.0988704336
H  H52  1  0.51372000  0.77385000  0.32533000  1.0 0.1400927855
H  H53  1  0.51715000  0.76419000  0.25794000  1.0 0.1129700545
H  H54  1  0.51491000  0.67433000  0.34016000  1.0 0.0988704336
H  H55  1  0.76174000  0.61622000  0.33055000  1.0 0.1178220974
H  H56  1  0.72004000  0.66556000  0.35206000  1.0 0.1294465926
H  H57  1  0.68313000  0.55684000  0.31270000  1.0 0.0900906284
H  H58  1  0.60578000  0.63353000  0.08252000  1.0 0.1400927855
H  H59  1  0.66316000  0.62537000  0.11841000  1.0 0.1294465926
H  H60  1  0.55315000  0.58738000  0.15543000  1.0 0.0988704336
H  H61  1  0.91807000  0.00755000  0.64787000  1.0 0.2767345785
H  H62  1  0.95896000  0.01544000  0.60137000  1.0 0.2689851307
H  H63  1  0.98917000  0.33844000  0.72356000  1.0 0.2689851307
H  H64  1  0.98437000  0.38474000  0.76514000  1.0 0.2582452822
H  H65  1  0.88594000  0.36007000  0.85816000  1.0 0.2689851307
H  H66  1  0.90524000  0.41319000  0.83184000  1.0 0.2689851307
H  H67  1  0.84652000  0.43447000  0.70852000  1.0 0.2689851307
H  H68  1  0.90346000  0.44803000  0.73002000  1.0 0.2582452822
H  H69  1  0.99022000  0.09723000  0.74680000  1.0 0.1400927855
H  H70  1  0.93029000  0.06584000  0.73849000  1.0 0.1294465926
H  H71  1  0.01727000  0.07044000  0.65348000  1.0 0.0988704336
H  H72  1  0.98628000  0.22615000  0.82533000  1.0 0.1400927855
H  H73  1  0.98285000  0.23581000  0.75794000  1.0 0.1129700545
H  H74  1  0.98509000  0.32567000  0.84016000  1.0 0.0988704336
H  H75  1  0.73826000  0.38378000  0.83055000  1.0 0.1178220974
H  H76  1  0.77996000  0.33444000  0.85206000  1.0 0.1294465926
H  H77  1  0.81687000  0.44316000  0.81270000  1.0 0.0900906284
H  H78  1  0.89422000  0.36647000  0.58252000  1.0 0.1400927855
H  H79  1  0.83684000  0.37463000  0.61841000  1.0 0.1294465926
H  H80  1  0.94685000  0.41262000  0.65543000  1.0 0.0988704336
H  H81  1  0.35213000  0.41807000  0.49245000  1.0 0.2767345785
H  H82  1  0.39863000  0.45896000  0.48456000  1.0 0.2689851307
H  H83  1  0.27644000  0.48917000  0.16156000  1.0 0.2689851307
H  H84  1  0.23486000  0.48437000  0.11526000  1.0 0.2582452822
H  H85  1  0.14184000  0.38594000  0.13993000  1.0 0.2689851307
H  H86  1  0.16816000  0.40524000  0.08681000  1.0 0.2689851307
H  H87  1  0.29148000  0.34652000  0.06553000  1.0 0.2689851307
H  H88  1  0.26998000  0.40346000  0.05197000  1.0 0.2582452822
H  H89  1  0.25320000  0.49022000  0.40277000  1.0 0.1400927855
H  H90  1  0.26151000  0.43029000  0.43416000  1.0 0.1294465926
H  H91  1  0.34652000  0.51727000  0.42956000  1.0 0.0988704336
H  H92  1  0.17467000  0.48628000  0.27385000  1.0 0.1400927855
H  H93  1  0.24206000  0.48285000  0.26419000  1.0 0.1129700545
H  H94  1  0.15984000  0.48509000  0.17433000  1.0 0.0988704336
H  H95  1  0.16945000  0.23826000  0.11622000  1.0 0.1178220974
H  H96  1  0.14794000  0.27996000  0.16556000  1.0 0.1294465926
H  H97  1  0.18730000  0.31687000  0.05684000  1.0 0.0900906284
H  H98  1  0.41748000  0.39422000  0.13353000  1.0 0.1400927855
H  H99  1  0.38159000  0.33684000  0.12537000  1.0 0.1294465926
H  H100  1  0.34457000  0.44685000  0.08738000  1.0 0.0988704336
H  H101  1  0.85213000  0.08193000  0.50755000  1.0 0.2767345785
H  H102  1  0.89863000  0.04104000  0.51544000  1.0 0.2689851307
H  H103  1  0.77644000  0.01083000  0.83844000  1.0 0.2689851307
H  H104  1  0.73486000  0.01563000  0.88474000  1.0 0.2582452822
H  H105  1  0.64184000  0.11406000  0.86007000  1.0 0.2689851307
H  H106  1  0.66816000  0.09476000  0.91319000  1.0 0.2689851307
H  H107  1  0.79148000  0.15348000  0.93447000  1.0 0.2689851307
H  H108  1  0.76998000  0.09654000  0.94803000  1.0 0.2582452822
H  H109  1  0.75320000  0.00978000  0.59723000  1.0 0.1400927855
H  H110  1  0.76151000  0.06971000  0.56584000  1.0 0.1294465926
H  H111  1  0.84652000  0.98273000  0.57044000  1.0 0.0988704336
H  H112  1  0.67467000  0.01372000  0.72615000  1.0 0.1400927855
H  H113  1  0.74206000  0.01715000  0.73581000  1.0 0.1129700545
H  H114  1  0.65984000  0.01491000  0.82567000  1.0 0.0988704336
H  H115  1  0.66945000  0.26174000  0.88378000  1.0 0.1178220974
H  H116  1  0.64794000  0.22004000  0.83444000  1.0 0.1294465926
H  H117  1  0.68730000  0.18313000  0.94316000  1.0 0.0900906284
H  H118  1  0.91748000  0.10578000  0.86647000  1.0 0.1400927855
H  H119  1  0.88159000  0.16316000  0.87463000  1.0 0.1294465926
H  H120  1  0.84457000  0.05315000  0.91262000  1.0 0.0988704336
H  H121  1  0.14787000  0.58193000  0.99245000  1.0 0.2767345785
H  H122  1  0.10137000  0.54104000  0.98456000  1.0 0.2689851307
H  H123  1  0.22356000  0.51083000  0.66156000  1.0 0.2689851307
H  H124  1  0.26514000  0.51563000  0.61526000  1.0 0.2582452822
H  H125  1  0.35816000  0.61406000  0.63993000  1.0 0.2689851307
H  H126  1  0.33184000  0.59476000  0.58681000  1.0 0.2689851307
H  H127  1  0.20852000  0.65348000  0.56553000  1.0 0.2689851307
H  H128  1  0.23002000  0.59654000  0.55197000  1.0 0.2582452822
H  H129  1  0.24680000  0.50978000  0.90277000  1.0 0.1400927855
H  H130  1  0.23849000  0.56971000  0.93416000  1.0 0.1294465926
H  H131  1  0.15348000  0.48273000  0.92956000  1.0 0.0988704336
H  H132  1  0.32533000  0.51372000  0.77385000  1.0 0.1400927855
H  H133  1  0.25794000  0.51715000  0.76419000  1.0 0.1129700545
H  H134  1  0.34016000  0.51491000  0.67433000  1.0 0.0988704336
H  H135  1  0.33055000  0.76174000  0.61622000  1.0 0.1178220974
H  H136  1  0.35206000  0.72004000  0.66556000  1.0 0.1294465926
H  H137  1  0.31270000  0.68313000  0.55684000  1.0 0.0900906284
H  H138  1  0.08252000  0.60578000  0.63353000  1.0 0.1400927855
H  H139  1  0.11841000  0.66316000  0.62537000  1.0 0.1294465926
H  H140  1  0.15543000  0.55315000  0.58738000  1.0 0.0988704336
H  H141  1  0.64787000  0.91807000  0.00755000  1.0 0.2767345785
H  H142  1  0.60137000  0.95896000  0.01544000  1.0 0.2689851307
H  H143  1  0.72356000  0.98917000  0.33844000  1.0 0.2689851307
H  H144  1  0.76514000  0.98437000  0.38474000  1.0 0.2582452822
H  H145  1  0.85816000  0.88594000  0.36007000  1.0 0.2689851307
H  H146  1  0.83184000  0.90524000  0.41319000  1.0 0.2689851307
H  H147  1  0.70852000  0.84652000  0.43447000  1.0 0.2689851307
H  H148  1  0.73002000  0.90346000  0.44803000  1.0 0.2582452822
H  H149  1  0.74680000  0.99022000  0.09723000  1.0 0.1400927855
H  H150  1  0.73849000  0.93029000  0.06584000  1.0 0.1294465926
H  H151  1  0.65348000  0.01727000  0.07044000  1.0 0.0988704336
H  H152  1  0.82533000  0.98628000  0.22615000  1.0 0.1400927855
H  H153  1  0.75794000  0.98285000  0.23581000  1.0 0.1129700545
H  H154  1  0.84016000  0.98509000  0.32567000  1.0 0.0988704336
H  H155  1  0.83055000  0.73826000  0.38378000  1.0 0.1178220974
H  H156  1  0.85206000  0.77996000  0.33444000  1.0 0.1294465926
H  H157  1  0.81270000  0.81687000  0.44316000  1.0 0.0900906284
H  H158  1  0.58252000  0.89422000  0.36647000  1.0 0.1400927855
H  H159  1  0.61841000  0.83684000  0.37463000  1.0 0.1294465926
H  H160  1  0.65543000  0.94685000  0.41262000  1.0 0.0988704336
H  H161  1  0.49245000  0.35213000  0.41807000  1.0 0.2767345785
H  H162  1  0.48456000  0.39863000  0.45896000  1.0 0.2689851307
H  H163  1  0.16156000  0.27644000  0.48917000  1.0 0.2689851307
H  H164  1  0.11526000  0.23486000  0.48437000  1.0 0.2582452822
H  H165  1  0.13993000  0.14184000  0.38594000  1.0 0.2689851307
H  H166  1  0.08681000  0.16816000  0.40524000  1.0 0.2689851307
H  H167  1  0.06553000  0.29148000  0.34652000  1.0 0.2689851307
H  H168  1  0.05197000  0.26998000  0.40346000  1.0 0.2582452822
H  H169  1  0.40277000  0.25320000  0.49022000  1.0 0.1400927855
H  H170  1  0.43416000  0.26151000  0.43029000  1.0 0.1294465926
H  H171  1  0.42956000  0.34652000  0.51727000  1.0 0.0988704336
H  H172  1  0.27385000  0.17467000  0.48628000  1.0 0.1400927855
H  H173  1  0.26419000  0.24206000  0.48285000  1.0 0.1129700545
H  H174  1  0.17433000  0.15984000  0.48509000  1.0 0.0988704336
H  H175  1  0.11622000  0.16945000  0.23826000  1.0 0.1178220974
H  H176  1  0.16556000  0.14794000  0.27996000  1.0 0.1294465926
H  H177  1  0.05684000  0.18730000  0.31687000  1.0 0.0900906284
H  H178  1  0.13353000  0.41748000  0.39422000  1.0 0.1400927855
H  H179  1  0.12537000  0.38159000  0.33684000  1.0 0.1294465926
H  H180  1  0.08738000  0.34457000  0.44685000  1.0 0.0988704336
H  H181  1  0.50755000  0.85213000  0.08193000  1.0 0.2767345785
H  H182  1  0.51544000  0.89863000  0.04104000  1.0 0.2689851307
H  H183  1  0.83844000  0.77644000  0.01083000  1.0 0.2689851307
H  H184  1  0.88474000  0.73486000  0.01563000  1.0 0.2582452822
H  H185  1  0.86007000  0.64184000  0.11406000  1.0 0.2689851307
H  H186  1  0.91319000  0.66816000  0.09476000  1.0 0.2689851307
H  H187  1  0.93447000  0.79148000  0.15348000  1.0 0.2689851307
H  H188  1  0.94803000  0.76998000  0.09654000  1.0 0.2582452822
H  H189  1  0.59723000  0.75320000  0.00978000  1.0 0.1400927855
H  H190  1  0.56584000  0.76151000  0.06971000  1.0 0.1294465926
H  H191  1  0.57044000  0.84652000  0.98273000  1.0 0.0988704336
H  H192  1  0.72615000  0.67467000  0.01372000  1.0 0.1400927855
H  H193  1  0.73581000  0.74206000  0.01715000  1.0 0.1129700545
H  H194  1  0.82567000  0.65984000  0.01491000  1.0 0.0988704336
H  H195  1  0.88378000  0.66945000  0.26174000  1.0 0.1178220974
H  H196  1  0.83444000  0.64794000  0.22004000  1.0 0.1294465926
H  H197  1  0.94316000  0.68730000  0.18313000  1.0 0.0900906284
H  H198  1  0.86647000  0.91748000  0.10578000  1.0 0.1400927855
H  H199  1  0.87463000  0.88159000  0.16316000  1.0 0.1294465926
H  H200  1  0.91262000  0.84457000  0.05315000  1.0 0.0988704336
H  H201  1  0.99245000  0.14787000  0.58193000  1.0 0.2767345785
H  H202  1  0.98456000  0.10137000  0.54104000  1.0 0.2689851307
H  H203  1  0.66156000  0.22356000  0.51083000  1.0 0.2689851307
H  H204  1  0.61526000  0.26514000  0.51563000  1.0 0.2582452822
H  H205  1  0.63993000  0.35816000  0.61406000  1.0 0.2689851307
H  H206  1  0.58681000  0.33184000  0.59476000  1.0 0.2689851307
H  H207  1  0.56553000  0.20852000  0.65348000  1.0 0.2689851307
H  H208  1  0.55197000  0.23002000  0.59654000  1.0 0.2582452822
H  H209  1  0.90277000  0.24680000  0.50978000  1.0 0.1400927855
H  H210  1  0.93416000  0.23849000  0.56971000  1.0 0.1294465926
H  H211  1  0.92956000  0.15348000  0.48273000  1.0 0.0988704336
H  H212  1  0.77385000  0.32533000  0.51372000  1.0 0.1400927855
H  H213  1  0.76419000  0.25794000  0.51715000  1.0 0.1129700545
H  H214  1  0.67433000  0.34016000  0.51491000  1.0 0.0988704336
H  H215  1  0.61622000  0.33055000  0.76174000  1.0 0.1178220974
H  H216  1  0.66556000  0.35206000  0.72004000  1.0 0.1294465926
H  H217  1  0.55684000  0.31270000  0.68313000  1.0 0.0900906284
H  H218  1  0.63353000  0.08252000  0.60578000  1.0 0.1400927855
H  H219  1  0.62537000  0.11841000  0.66316000  1.0 0.1294465926
H  H220  1  0.58738000  0.15543000  0.55315000  1.0 0.0988704336
H  H221  1  0.00755000  0.64787000  0.91807000  1.0 0.2767345785
H  H222  1  0.01544000  0.60137000  0.95896000  1.0 0.2689851307
H  H223  1  0.33844000  0.72356000  0.98917000  1.0 0.2689851307
H  H224  1  0.38474000  0.76514000  0.98437000  1.0 0.2582452822
H  H225  1  0.36007000  0.85816000  0.88594000  1.0 0.2689851307
H  H226  1  0.41319000  0.83184000  0.90524000  1.0 0.2689851307
H  H227  1  0.43447000  0.70852000  0.84652000  1.0 0.2689851307
H  H228  1  0.44803000  0.73002000  0.90346000  1.0 0.2582452822
H  H229  1  0.09723000  0.74680000  0.99022000  1.0 0.1400927855
H  H230  1  0.06584000  0.73849000  0.93029000  1.0 0.1294465926
H  H231  1  0.07044000  0.65348000  0.01727000  1.0 0.0988704336
H  H232  1  0.22615000  0.82533000  0.98628000  1.0 0.1400927855
H  H233  1  0.23581000  0.75794000  0.98285000  1.0 0.1129700545
H  H234  1  0.32567000  0.84016000  0.98509000  1.0 0.0988704336
H  H235  1  0.38378000  0.83055000  0.73826000  1.0 0.1178220974
H  H236  1  0.33444000  0.85206000  0.77996000  1.0 0.1294465926
H  H237  1  0.44316000  0.81270000  0.81687000  1.0 0.0900906284
H  H238  1  0.36647000  0.58252000  0.89422000  1.0 0.1400927855
H  H239  1  0.37463000  0.61841000  0.83684000  1.0 0.1294465926
H  H240  1  0.41262000  0.65543000  0.94685000  1.0 0.0988704336
Rh  Rh1  1  0.38572000  0.15582000  0.24794000  1.0 0.4897201888
Rh  Rh2  1  0.11428000  0.84418000  0.74794000  1.0 0.4897201888
Rh  Rh3  1  0.61428000  0.65582000  0.25206000  1.0 0.4897201888
Rh  Rh4  1  0.88572000  0.34418000  0.75206000  1.0 0.4897201888
Rh  Rh5  1  0.24794000  0.38572000  0.15582000  1.0 0.4897201888
Rh  Rh6  1  0.74794000  0.11428000  0.84418000  1.0 0.4897201888
Rh  Rh7  1  0.25206000  0.61428000  0.65582000  1.0 0.4897201888
Rh  Rh8  1  0.75206000  0.88572000  0.34418000  1.0 0.4897201888
Rh  Rh9  1  0.15582000  0.24794000  0.38572000  1.0 0.4897201888
Rh  Rh10  1  0.84418000  0.74794000  0.11428000  1.0 0.4897201888
Rh  Rh11  1  0.65582000  0.25206000  0.61428000  1.0 0.4897201888
Rh  Rh12  1  0.34418000  0.75206000  0.88572000  1.0 0.4897201888
Rh  Rh13  1  0.39662000  0.39662000  0.39662000  1.0 0.4897201888
Rh  Rh14  1  0.10338000  0.60338000  0.89662000  1.0 0.4837449967
Rh  Rh15  1  0.60338000  0.89662000  0.10338000  1.0 0.4837449967
Rh  Rh16  1  0.89662000  0.10338000  0.60338000  1.0 0.4837449967
C  C1  1  0.46110000  0.41380000  0.28150000  1.0 -0.1986705533
C  C2  1  0.48720000  0.45170000  0.32630000  1.0 0.0010374582
C  C3  1  0.51500000  0.50520000  0.30030000  1.0 0.3974618245
C  C4  1  0.47200000  0.24820000  0.20470000  1.0 -0.1794397623
C  C5  1  0.49720000  0.18950000  0.19760000  1.0 0.0065966133
C  C6  1  0.56170000  0.19190000  0.19870000  1.0 0.5689283538
C  C7  1  0.27660000  0.13280000  0.17400000  1.0 -0.1909856017
C  C8  1  0.32140000  0.08870000  0.15960000  1.0 0.0230155945
C  C9  1  0.31490000  0.06380000  0.10120000  1.0 0.5689283538
C  C10  1  0.37840000  0.13050000  0.37870000  1.0 -0.1909856017
C  C11  1  0.40520000  0.07980000  0.34740000  1.0 0.0230155945
C  C12  1  0.39780000  0.02540000  0.38210000  1.0 0.5936113873
C  C13  1  0.03890000  0.58620000  0.78150000  1.0 -0.1986705533
C  C14  1  0.01280000  0.54830000  0.82630000  1.0 0.0010374582
C  C15  1  0.98500000  0.49480000  0.80030000  1.0 0.3974618245
C  C16  1  0.02800000  0.75180000  0.70470000  1.0 -0.1794397623
C  C17  1  0.00280000  0.81050000  0.69760000  1.0 0.0065966133
C  C18  1  0.93830000  0.80810000  0.69870000  1.0 0.5689283538
C  C19  1  0.22340000  0.86720000  0.67400000  1.0 -0.1909856017
C  C20  1  0.17860000  0.91130000  0.65960000  1.0 0.0230155945
C  C21  1  0.18510000  0.93620000  0.60120000  1.0 0.5689283538
C  C22  1  0.12160000  0.86950000  0.87870000  1.0 -0.1909856017
C  C23  1  0.09480000  0.92020000  0.84740000  1.0 0.0230155945
C  C24  1  0.10220000  0.97460000  0.88210000  1.0 0.5936113873
C  C25  1  0.53890000  0.91380000  0.21850000  1.0 -0.1986705533
C  C26  1  0.51280000  0.95170000  0.17370000  1.0 0.0010374582
C  C27  1  0.48500000  0.00520000  0.19970000  1.0 0.3974618245
C  C28  1  0.52800000  0.74820000  0.29530000  1.0 -0.1794397623
C  C29  1  0.50280000  0.68950000  0.30240000  1.0 0.0065966133
C  C30  1  0.43830000  0.69190000  0.30130000  1.0 0.5689283538
C  C31  1  0.72340000  0.63280000  0.32600000  1.0 -0.1909856017
C  C32  1  0.67860000  0.58870000  0.34040000  1.0 0.0230155945
C  C33  1  0.68510000  0.56380000  0.39880000  1.0 0.5689283538
C  C34  1  0.62160000  0.63050000  0.12130000  1.0 -0.1909856017
C  C35  1  0.59480000  0.57980000  0.15260000  1.0 0.0230155945
C  C36  1  0.60220000  0.52540000  0.11790000  1.0 0.5936113873
C  C37  1  0.96110000  0.08620000  0.71850000  1.0 -0.1986705533
C  C38  1  0.98720000  0.04830000  0.67370000  1.0 -0.0003937013
C  C39  1  0.01500000  0.99480000  0.69970000  1.0 0.3974618245
C  C40  1  0.97200000  0.25180000  0.79530000  1.0 -0.1794397623
C  C41  1  0.99720000  0.31050000  0.80240000  1.0 0.0065966133
C  C42  1  0.06170000  0.30810000  0.80130000  1.0 0.5689283538
C  C43  1  0.77660000  0.36720000  0.82600000  1.0 -0.1909856017
C  C44  1  0.82140000  0.41130000  0.84040000  1.0 0.0230155945
C  C45  1  0.81490000  0.43620000  0.89880000  1.0 0.5689283538
C  C46  1  0.87840000  0.36950000  0.62130000  1.0 -0.1909856017
C  C47  1  0.90520000  0.42020000  0.65260000  1.0 0.0230155945
C  C48  1  0.89780000  0.47460000  0.61790000  1.0 0.5936113873
C  C49  1  0.28150000  0.46110000  0.41380000  1.0 -0.1986705533
C  C50  1  0.32630000  0.48720000  0.45170000  1.0 -0.0003937013
C  C51  1  0.30030000  0.51500000  0.50520000  1.0 0.3974618245
C  C52  1  0.20470000  0.47200000  0.24820000  1.0 -0.1794397623
C  C53  1  0.19760000  0.49720000  0.18950000  1.0 0.0065966133
C  C54  1  0.19870000  0.56170000  0.19190000  1.0 0.5689283538
C  C55  1  0.17400000  0.27660000  0.13280000  1.0 -0.1909856017
C  C56  1  0.15960000  0.32140000  0.08870000  1.0 0.0230155945
C  C57  1  0.10120000  0.31490000  0.06380000  1.0 0.5689283538
C  C58  1  0.37870000  0.37840000  0.13050000  1.0 -0.1909856017
C  C59  1  0.34740000  0.40520000  0.07980000  1.0 0.0230155945
C  C60  1  0.38210000  0.39780000  0.02540000  1.0 0.5936113873
C  C61  1  0.78150000  0.03890000  0.58620000  1.0 -0.1986705533
C  C62  1  0.82630000  0.01280000  0.54830000  1.0 0.0010374582
C  C63  1  0.80030000  0.98500000  0.49480000  1.0 0.3974618245
C  C64  1  0.70470000  0.02800000  0.75180000  1.0 -0.1794397623
C  C65  1  0.69760000  0.00280000  0.81050000  1.0 0.0065966133
C  C66  1  0.69870000  0.93830000  0.80810000  1.0 0.5689283538
C  C67  1  0.67400000  0.22340000  0.86720000  1.0 -0.1909856017
C  C68  1  0.65960000  0.17860000  0.91130000  1.0 0.0230155945
C  C69  1  0.60120000  0.18510000  0.93620000  1.0 0.5689283538
C  C70  1  0.87870000  0.12160000  0.86950000  1.0 -0.1909856017
C  C71  1  0.84740000  0.09480000  0.92020000  1.0 0.0230155945
C  C72  1  0.88210000  0.10220000  0.97460000  1.0 0.5936113873
C  C73  1  0.21850000  0.53890000  0.91380000  1.0 -0.1986705533
C  C74  1  0.17370000  0.51280000  0.95170000  1.0 -0.0003937013
C  C75  1  0.19970000  0.48500000  0.00520000  1.0 0.3974618245
C  C76  1  0.29530000  0.52800000  0.74820000  1.0 -0.1794397623
C  C77  1  0.30240000  0.50280000  0.68950000  1.0 0.0065966133
C  C78  1  0.30130000  0.43830000  0.69190000  1.0 0.5689283538
C  C79  1  0.32600000  0.72340000  0.63280000  1.0 -0.1909856017
C  C80  1  0.34040000  0.67860000  0.58870000  1.0 0.0230155945
C  C81  1  0.39880000  0.68510000  0.56380000  1.0 0.5689283538
C  C82  1  0.12130000  0.62160000  0.63050000  1.0 -0.1909856017
C  C83  1  0.15260000  0.59480000  0.57980000  1.0 0.0230155945
C  C84  1  0.11790000  0.60220000  0.52540000  1.0 0.5936113873
C  C85  1  0.71850000  0.96110000  0.08620000  1.0 -0.1986705533
C  C86  1  0.67370000  0.98720000  0.04830000  1.0 0.0010374582
C  C87  1  0.69970000  0.01500000  0.99480000  1.0 0.3974618245
C  C88  1  0.79530000  0.97200000  0.25180000  1.0 -0.1794397623
C  C89  1  0.80240000  0.99720000  0.31050000  1.0 0.0065966133
C  C90  1  0.80130000  0.06170000  0.30810000  1.0 0.5689283538
C  C91  1  0.82600000  0.77660000  0.36720000  1.0 -0.1909856017
C  C92  1  0.84040000  0.82140000  0.41130000  1.0 0.0230155945
C  C93  1  0.89880000  0.81490000  0.43620000  1.0 0.5689283538
C  C94  1  0.62130000  0.87840000  0.36950000  1.0 -0.1909856017
C  C95  1  0.65260000  0.90520000  0.42020000  1.0 0.0230155945
C  C96  1  0.61790000  0.89780000  0.47460000  1.0 0.5936113873
C  C97  1  0.41380000  0.28150000  0.46110000  1.0 -0.1986705533
C  C98  1  0.45170000  0.32630000  0.48720000  1.0 0.0010374582
C  C99  1  0.50520000  0.30030000  0.51500000  1.0 0.3974618245
C  C100  1  0.24820000  0.20470000  0.47200000  1.0 -0.1794397623
C  C101  1  0.18950000  0.19760000  0.49720000  1.0 0.0065966133
C  C102  1  0.19190000  0.19870000  0.56170000  1.0 0.5689283538
C  C103  1  0.13280000  0.17400000  0.27660000  1.0 -0.1909856017
C  C104  1  0.08870000  0.15960000  0.32140000  1.0 0.0230155945
C  C105  1  0.06380000  0.10120000  0.31490000  1.0 0.5689283538
C  C106  1  0.13050000  0.37870000  0.37840000  1.0 -0.1909856017
C  C107  1  0.07980000  0.34740000  0.40520000  1.0 0.0230155945
C  C108  1  0.02540000  0.38210000  0.39780000  1.0 0.5936113873
C  C109  1  0.58620000  0.78150000  0.03890000  1.0 -0.1986705533
C  C110  1  0.54830000  0.82630000  0.01280000  1.0 0.0010374582
C  C111  1  0.49480000  0.80030000  0.98500000  1.0 0.3974618245
C  C112  1  0.75180000  0.70470000  0.02800000  1.0 -0.1794397623
C  C113  1  0.81050000  0.69760000  0.00280000  1.0 0.0065966133
C  C114  1  0.80810000  0.69870000  0.93830000  1.0 0.5689283538
C  C115  1  0.86720000  0.67400000  0.22340000  1.0 -0.1909856017
C  C116  1  0.91130000  0.65960000  0.17860000  1.0 0.0230155945
C  C117  1  0.93620000  0.60120000  0.18510000  1.0 0.5689283538
C  C118  1  0.86950000  0.87870000  0.12160000  1.0 -0.1909856017
C  C119  1  0.92020000  0.84740000  0.09480000  1.0 0.0230155945
C  C120  1  0.97460000  0.88210000  0.10220000  1.0 0.5936113873
C  C121  1  0.91380000  0.21850000  0.53890000  1.0 -0.1986705533
C  C122  1  0.95170000  0.17370000  0.51280000  1.0 0.0010374582
C  C123  1  0.00520000  0.19970000  0.48500000  1.0 0.3974618245
C  C124  1  0.74820000  0.29530000  0.52800000  1.0 -0.1794397623
C  C125  1  0.68950000  0.30240000  0.50280000  1.0 0.0065966133
C  C126  1  0.69190000  0.30130000  0.43830000  1.0 0.5689283538
C  C127  1  0.63280000  0.32600000  0.72340000  1.0 -0.1909856017
C  C128  1  0.58870000  0.34040000  0.67860000  1.0 0.0230155945
C  C129  1  0.56380000  0.39880000  0.68510000  1.0 0.5689283538
C  C130  1  0.63050000  0.12130000  0.62160000  1.0 -0.1909856017
C  C131  1  0.57980000  0.15260000  0.59480000  1.0 0.0230155945
C  C132  1  0.52540000  0.11790000  0.60220000  1.0 0.5936113873
C  C133  1  0.08620000  0.71850000  0.96110000  1.0 -0.1986705533
C  C134  1  0.04830000  0.67370000  0.98720000  1.0 -0.0003937013
C  C135  1  0.99480000  0.69970000  0.01500000  1.0 0.3974618245
C  C136  1  0.25180000  0.79530000  0.97200000  1.0 -0.1794397623
C  C137  1  0.31050000  0.80240000  0.99720000  1.0 0.0065966133
C  C138  1  0.30810000  0.80130000  0.06170000  1.0 0.5689283538
C  C139  1  0.36720000  0.82600000  0.77660000  1.0 -0.1909856017
C  C140  1  0.41130000  0.84040000  0.82140000  1.0 0.0230155945
C  C141  1  0.43620000  0.89880000  0.81490000  1.0 0.5689283538
C  C142  1  0.36950000  0.62130000  0.87840000  1.0 -0.1909856017
C  C143  1  0.42020000  0.65260000  0.90520000  1.0 0.0230155945
C  C144  1  0.47460000  0.61790000  0.89780000  1.0 0.5936113873
S  S1  1  0.43297000  0.35065000  0.31673000  1.0 -0.292222307
S  S2  1  0.39481000  0.24199000  0.19992000  1.0 -0.2846375373
S  S3  1  0.28653000  0.15636000  0.24736000  1.0 -0.292222307
S  S4  1  0.39469000  0.19475000  0.33806000  1.0 -0.292222307
S  S5  1  0.06703000  0.64935000  0.81673000  1.0 -0.292222307
S  S6  1  0.10519000  0.75801000  0.69992000  1.0 -0.2846375373
S  S7  1  0.21347000  0.84364000  0.74736000  1.0 -0.292222307
S  S8  1  0.10531000  0.80525000  0.83806000  1.0 -0.292222307
S  S9  1  0.56703000  0.85065000  0.18327000  1.0 -0.292222307
S  S10  1  0.60519000  0.74199000  0.30008000  1.0 -0.2846375373
S  S11  1  0.71347000  0.65636000  0.25264000  1.0 -0.292222307
S  S12  1  0.60531000  0.69475000  0.16194000  1.0 -0.292222307
S  S13  1  0.93297000  0.14935000  0.68327000  1.0 -0.292222307
S  S14  1  0.89481000  0.25801000  0.80008000  1.0 -0.2846375373
S  S15  1  0.78653000  0.34364000  0.75264000  1.0 -0.292222307
S  S16  1  0.89469000  0.30525000  0.66194000  1.0 -0.292222307
S  S17  1  0.31673000  0.43297000  0.35065000  1.0 -0.292222307
S  S18  1  0.19992000  0.39481000  0.24199000  1.0 -0.2846375373
S  S19  1  0.24736000  0.28653000  0.15636000  1.0 -0.292222307
S  S20  1  0.33806000  0.39469000  0.19475000  1.0 -0.292222307
S  S21  1  0.81673000  0.06703000  0.64935000  1.0 -0.292222307
S  S22  1  0.69992000  0.10519000  0.75801000  1.0 -0.2846375373
S  S23  1  0.74736000  0.21347000  0.84364000  1.0 -0.292222307
S  S24  1  0.83806000  0.10531000  0.80525000  1.0 -0.292222307
S  S25  1  0.18327000  0.56703000  0.85065000  1.0 -0.292222307
S  S26  1  0.30008000  0.60519000  0.74199000  1.0 -0.2846375373
S  S27  1  0.25264000  0.71347000  0.65636000  1.0 -0.292222307
S  S28  1  0.16194000  0.60531000  0.69475000  1.0 -0.292222307
S  S29  1  0.68327000  0.93297000  0.14935000  1.0 -0.292222307
S  S30  1  0.80008000  0.89481000  0.25801000  1.0 -0.2846375373
S  S31  1  0.75264000  0.78653000  0.34364000  1.0 -0.292222307
S  S32  1  0.66194000  0.89469000  0.30525000  1.0 -0.292222307
S  S33  1  0.35065000  0.31673000  0.43297000  1.0 -0.292222307
S  S34  1  0.24199000  0.19992000  0.39481000  1.0 -0.2846375373
S  S35  1  0.15636000  0.24736000  0.28653000  1.0 -0.292222307
S  S36  1  0.19475000  0.33806000  0.39469000  1.0 -0.292222307
S  S37  1  0.64935000  0.81673000  0.06703000  1.0 -0.292222307
S  S38  1  0.75801000  0.69992000  0.10519000  1.0 -0.2846375373
S  S39  1  0.84364000  0.74736000  0.21347000  1.0 -0.292222307
S  S40  1  0.80525000  0.83806000  0.10531000  1.0 -0.292222307
S  S41  1  0.85065000  0.18327000  0.56703000  1.0 -0.292222307
S  S42  1  0.74199000  0.30008000  0.60519000  1.0 -0.2846375373
S  S43  1  0.65636000  0.25264000  0.71347000  1.0 -0.292222307
S  S44  1  0.69475000  0.16194000  0.60531000  1.0 -0.292222307
S  S45  1  0.14935000  0.68327000  0.93297000  1.0 -0.292222307
S  S46  1  0.25801000  0.80008000  0.89481000  1.0 -0.292222307
S  S47  1  0.34364000  0.75264000  0.78653000  1.0 -0.292222307
S  S48  1  0.30525000  0.66194000  0.89469000  1.0 -0.292222307
N  N1  1  0.44242000  0.46724000  0.36830000  1.0 -0.4562707863
N  N2  1  0.47390000  0.15170000  0.24240000  1.0 -0.471204181
N  N3  1  0.37850000  0.11460000  0.17000000  1.0 -0.471204181
N  N4  1  0.38310000  0.07780000  0.29020000  1.0 -0.471204181
N  N5  1  0.05758000  0.53276000  0.86830000  1.0 -0.4562707863
N  N6  1  0.02610000  0.84830000  0.74240000  1.0 -0.4757668814
N  N7  1  0.12150000  0.88540000  0.67000000  1.0 -0.471204181
N  N8  1  0.11690000  0.92220000  0.79020000  1.0 -0.471204181
N  N9  1  0.55758000  0.96724000  0.13170000  1.0 -0.4562707863
N  N10  1  0.52610000  0.65170000  0.25760000  1.0 -0.4757668814
N  N11  1  0.62150000  0.61460000  0.33000000  1.0 -0.471204181
N  N12  1  0.61690000  0.57780000  0.20980000  1.0 -0.471204181
N  N13  1  0.94242000  0.03276000  0.63170000  1.0 -0.4562707863
N  N14  1  0.97390000  0.34830000  0.75760000  1.0 -0.4757668814
N  N15  1  0.87850000  0.38540000  0.83000000  1.0 -0.471204181
N  N16  1  0.88310000  0.42220000  0.70980000  1.0 -0.471204181
N  N17  1  0.36830000  0.44242000  0.46724000  1.0 -0.4562707863
N  N18  1  0.24240000  0.47390000  0.15170000  1.0 -0.4757668814
N  N19  1  0.17000000  0.37850000  0.11460000  1.0 -0.471204181
N  N20  1  0.29020000  0.38310000  0.07780000  1.0 -0.471204181
N  N21  1  0.86830000  0.05758000  0.53276000  1.0 -0.4562707863
N  N22  1  0.74240000  0.02610000  0.84830000  1.0 -0.4757668814
N  N23  1  0.67000000  0.12150000  0.88540000  1.0 -0.471204181
N  N24  1  0.79020000  0.11690000  0.92220000  1.0 -0.471204181
N  N25  1  0.13170000  0.55758000  0.96724000  1.0 -0.4562707863
N  N26  1  0.25760000  0.52610000  0.65170000  1.0 -0.4757668814
N  N27  1  0.33000000  0.62150000  0.61460000  1.0 -0.471204181
N  N28  1  0.20980000  0.61690000  0.57780000  1.0 -0.471204181
N  N29  1  0.63170000  0.94242000  0.03276000  1.0 -0.4562707863
N  N30  1  0.75760000  0.97390000  0.34830000  1.0 -0.4757668814
N  N31  1  0.83000000  0.87850000  0.38540000  1.0 -0.471204181
N  N32  1  0.70980000  0.88310000  0.42220000  1.0 -0.471204181
N  N33  1  0.46724000  0.36830000  0.44242000  1.0 -0.4562707863
N  N34  1  0.15170000  0.24240000  0.47390000  1.0 -0.4757668814
N  N35  1  0.11460000  0.17000000  0.37850000  1.0 -0.471204181
N  N36  1  0.07780000  0.29020000  0.38310000  1.0 -0.471204181
N  N37  1  0.53276000  0.86830000  0.05758000  1.0 -0.4562707863
N  N38  1  0.84830000  0.74240000  0.02610000  1.0 -0.471204181
N  N39  1  0.88540000  0.67000000  0.12150000  1.0 -0.471204181
N  N40  1  0.92220000  0.79020000  0.11690000  1.0 -0.471204181
N  N41  1  0.96724000  0.13170000  0.55758000  1.0 -0.4562707863
N  N42  1  0.65170000  0.25760000  0.52610000  1.0 -0.4757668814
N  N43  1  0.61460000  0.33000000  0.62150000  1.0 -0.471204181
N  N44  1  0.57780000  0.20980000  0.61690000  1.0 -0.471204181
N  N45  1  0.03276000  0.63170000  0.94242000  1.0 -0.4562707863
N  N46  1  0.34830000  0.75760000  0.97390000  1.0 -0.4757668814
N  N47  1  0.38540000  0.83000000  0.87850000  1.0 -0.471204181
N  N48  1  0.42220000  0.70980000  0.88310000  1.0 -0.471204181
O  O1  1  0.51400000  0.54850000  0.32650000  1.0 -0.078153816
O  O2  1  0.53550000  0.49630000  0.24730000  1.0 -0.2135734877
O  O3  1  0.59000000  0.16260000  0.23010000  1.0 -0.5291674502
O  O4  1  0.58370000  0.22110000  0.15530000  1.0 -0.5409500008
O  O5  1  0.35940000  0.04800000  0.07780000  1.0 -0.5218432418
O  O6  1  0.26770000  0.04510000  0.08730000  1.0 -0.5714022588
O  O7  1  0.37610000  0.98160000  0.35580000  1.0 -0.471204181
O  O8  1  0.40910000  0.01830000  0.42890000  1.0 -0.4280935051
O  O9  1  0.70330000  0.17560000  0.23150000  1.0 -0.4004670517
O  O10  1  0.48170000  0.54620000  0.28730000  1.0 -0.1794397623
O  O11  1  0.56700000  0.50430000  0.29250000  1.0 -0.1710823448
O  O12  1  0.15200000  0.91540000  0.02330000  1.0 -0.5409500008
O  O13  1  0.08580000  0.06500000  0.09410000  1.0 0.0010374582
O  O14  1  0.98600000  0.45150000  0.82650000  1.0 -0.078153816
O  O15  1  0.96450000  0.50370000  0.74730000  1.0 -0.2135734877
O  O16  1  0.91000000  0.83740000  0.73010000  1.0 -0.5291674502
O  O17  1  0.91630000  0.77890000  0.65530000  1.0 -0.5409500008
O  O18  1  0.14060000  0.95200000  0.57780000  1.0 -0.5218432418
O  O19  1  0.23230000  0.95490000  0.58730000  1.0 -0.5714022588
O  O20  1  0.12390000  0.01840000  0.85580000  1.0 -0.471204181
O  O21  1  0.09090000  0.98170000  0.92890000  1.0 -0.4280935051
O  O22  1  0.79670000  0.82440000  0.73150000  1.0 -0.4004670517
O  O23  1  0.01830000  0.45380000  0.78730000  1.0 -0.1794397623
O  O24  1  0.93300000  0.49570000  0.79250000  1.0 -0.1710823448
O  O25  1  0.34800000  0.08460000  0.52330000  1.0 -0.5409500008
O  O26  1  0.41420000  0.93500000  0.59410000  1.0 0.0010374582
O  O27  1  0.48600000  0.04850000  0.17350000  1.0 -0.078153816
O  O28  1  0.46450000  0.99630000  0.25270000  1.0 -0.2135734877
O  O29  1  0.41000000  0.66260000  0.26990000  1.0 -0.5291674502
O  O30  1  0.41630000  0.72110000  0.34470000  1.0 -0.5409500008
O  O31  1  0.64060000  0.54800000  0.42220000  1.0 -0.5218432418
O  O32  1  0.73230000  0.54510000  0.41270000  1.0 -0.5714022588
O  O33  1  0.62390000  0.48160000  0.14420000  1.0 -0.471204181
O  O34  1  0.59090000  0.51830000  0.07110000  1.0 -0.4280935051
O  O35  1  0.29670000  0.67560000  0.26850000  1.0 -0.4004670517
O  O36  1  0.51830000  0.04620000  0.21270000  1.0 -0.1794397623
O  O37  1  0.43300000  0.00430000  0.20750000  1.0 -0.1710823448
O  O38  1  0.84800000  0.41540000  0.47670000  1.0 -0.5595382374
O  O39  1  0.91420000  0.56500000  0.40590000  1.0 0.0010374582
O  O40  1  0.01400000  0.95150000  0.67350000  1.0 -0.078153816
O  O41  1  0.03550000  0.00370000  0.75270000  1.0 -0.2135734877
O  O42  1  0.09000000  0.33740000  0.76990000  1.0 -0.5291674502
O  O43  1  0.08370000  0.27890000  0.84470000  1.0 -0.5409500008
O  O44  1  0.85940000  0.45200000  0.92220000  1.0 -0.5218432418
O  O45  1  0.76770000  0.45490000  0.91270000  1.0 -0.5714022588
O  O46  1  0.87610000  0.51840000  0.64420000  1.0 -0.471204181
O  O47  1  0.90910000  0.48170000  0.57110000  1.0 -0.4280935051
O  O48  1  0.20330000  0.32440000  0.76850000  1.0 -0.4004670517
O  O49  1  0.98170000  0.95380000  0.71270000  1.0 -0.1794397623
O  O50  1  0.06700000  0.99570000  0.70750000  1.0 -0.1710823448
O  O51  1  0.65200000  0.58460000  0.97670000  1.0 -0.5409500008
O  O52  1  0.58580000  0.43500000  0.90590000  1.0 0.0010374582
O  O53  1  0.32650000  0.51400000  0.54850000  1.0 -0.078153816
O  O54  1  0.24730000  0.53550000  0.49630000  1.0 -0.2135734877
O  O55  1  0.23010000  0.59000000  0.16260000  1.0 -0.5291674502
O  O56  1  0.15530000  0.58370000  0.22110000  1.0 -0.5409500008
O  O57  1  0.07780000  0.35940000  0.04800000  1.0 -0.5218432418
O  O58  1  0.08730000  0.26770000  0.04510000  1.0 -0.5714022588
O  O59  1  0.35580000  0.37610000  0.98160000  1.0 -0.471204181
O  O60  1  0.42890000  0.40910000  0.01830000  1.0 -0.4280935051
O  O61  1  0.23150000  0.70330000  0.17560000  1.0 -0.4004670517
O  O62  1  0.28730000  0.48170000  0.54620000  1.0 -0.1794397623
O  O63  1  0.29250000  0.56700000  0.50430000  1.0 -0.1710823448
O  O64  1  0.02330000  0.15200000  0.91540000  1.0 -0.5409500008
O  O65  1  0.09410000  0.08580000  0.06500000  1.0 0.0010374582
O  O66  1  0.82650000  0.98600000  0.45150000  1.0 -0.078153816
O  O67  1  0.74730000  0.96450000  0.50370000  1.0 -0.2135734877
O  O68  1  0.73010000  0.91000000  0.83740000  1.0 -0.5291674502
O  O69  1  0.65530000  0.91630000  0.77890000  1.0 -0.5409500008
O  O70  1  0.57780000  0.14060000  0.95200000  1.0 -0.5218432418
O  O71  1  0.58730000  0.23230000  0.95490000  1.0 -0.5714022588
O  O72  1  0.85580000  0.12390000  0.01840000  1.0 -0.471204181
O  O73  1  0.92890000  0.09090000  0.98170000  1.0 -0.4280935051
O  O74  1  0.73150000  0.79670000  0.82440000  1.0 -0.4004670517
O  O75  1  0.78730000  0.01830000  0.45380000  1.0 -0.1794397623
O  O76  1  0.79250000  0.93300000  0.49570000  1.0 -0.1710823448
O  O77  1  0.52330000  0.34800000  0.08460000  1.0 -0.5409500008
O  O78  1  0.59410000  0.41420000  0.93500000  1.0 0.0010374582
O  O79  1  0.17350000  0.48600000  0.04850000  1.0 -0.078153816
O  O80  1  0.25270000  0.46450000  0.99630000  1.0 -0.2135734877
O  O81  1  0.26990000  0.41000000  0.66260000  1.0 -0.5291674502
O  O82  1  0.34470000  0.41630000  0.72110000  1.0 -0.5409500008
O  O83  1  0.42220000  0.64060000  0.54800000  1.0 -0.5218432418
O  O84  1  0.41270000  0.73230000  0.54510000  1.0 -0.5714022588
O  O85  1  0.14420000  0.62390000  0.48160000  1.0 -0.471204181
O  O86  1  0.07110000  0.59090000  0.51830000  1.0 -0.4280935051
O  O87  1  0.26850000  0.29670000  0.67560000  1.0 -0.4004670517
O  O88  1  0.21270000  0.51830000  0.04620000  1.0 -0.1794397623
O  O89  1  0.20750000  0.43300000  0.00430000  1.0 -0.1710823448
O  O90  1  0.47670000  0.84800000  0.41540000  1.0 -0.5595382374
O  O91  1  0.40590000  0.91420000  0.56500000  1.0 0.0010374582
O  O92  1  0.67350000  0.01400000  0.95150000  1.0 -0.078153816
O  O93  1  0.75270000  0.03550000  0.00370000  1.0 -0.2135734877
O  O94  1  0.76990000  0.09000000  0.33740000  1.0 -0.5291674502
O  O95  1  0.84470000  0.08370000  0.27890000  1.0 -0.5409500008
O  O96  1  0.92220000  0.85940000  0.45200000  1.0 -0.5218432418
O  O97  1  0.91270000  0.76770000  0.45490000  1.0 -0.5714022588
O  O98  1  0.64420000  0.87610000  0.51840000  1.0 -0.471204181
O  O99  1  0.57110000  0.90910000  0.48170000  1.0 -0.4280935051
O  O100  1  0.76850000  0.20330000  0.32440000  1.0 -0.4004670517
O  O101  1  0.71270000  0.98170000  0.95380000  1.0 -0.1794397623
O  O102  1  0.70750000  0.06700000  0.99570000  1.0 -0.1710823448
O  O103  1  0.97670000  0.65200000  0.58460000  1.0 -0.5409500008
O  O104  1  0.90590000  0.58580000  0.43500000  1.0 0.0010374582
O  O105  1  0.54850000  0.32650000  0.51400000  1.0 -0.078153816
O  O106  1  0.49630000  0.24730000  0.53550000  1.0 -0.2135734877
O  O107  1  0.16260000  0.23010000  0.59000000  1.0 -0.5291674502
O  O108  1  0.22110000  0.15530000  0.58370000  1.0 -0.5409500008
O  O109  1  0.04800000  0.07780000  0.35940000  1.0 -0.5218432418
O  O110  1  0.04510000  0.08730000  0.26770000  1.0 -0.5714022588
O  O111  1  0.98160000  0.35580000  0.37610000  1.0 -0.471204181
O  O112  1  0.01830000  0.42890000  0.40910000  1.0 -0.4280935051
O  O113  1  0.17560000  0.23150000  0.70330000  1.0 -0.4004670517
O  O114  1  0.54620000  0.28730000  0.48170000  1.0 -0.1794397623
O  O115  1  0.50430000  0.29250000  0.56700000  1.0 -0.1710823448
O  O116  1  0.91540000  0.02330000  0.15200000  1.0 -0.5473639688
O  O117  1  0.06500000  0.09410000  0.08580000  1.0 0.0010374582
O  O118  1  0.45150000  0.82650000  0.98600000  1.0 -0.078153816
O  O119  1  0.50370000  0.74730000  0.96450000  1.0 -0.2135734877
O  O120  1  0.83740000  0.73010000  0.91000000  1.0 -0.5291674502
O  O121  1  0.77890000  0.65530000  0.91630000  1.0 -0.5409500008
O  O122  1  0.95200000  0.57780000  0.14060000  1.0 -0.5218432418
O  O123  1  0.95490000  0.58730000  0.23230000  1.0 -0.5714022588
O  O124  1  0.01840000  0.85580000  0.12390000  1.0 -0.471204181
O  O125  1  0.98170000  0.92890000  0.09090000  1.0 -0.4280935051
O  O126  1  0.82440000  0.73150000  0.79670000  1.0 -0.4004670517
O  O127  1  0.45380000  0.78730000  0.01830000  1.0 -0.1794397623
O  O128  1  0.49570000  0.79250000  0.93300000  1.0 -0.1710823448
O  O129  1  0.08460000  0.52330000  0.34800000  1.0 -0.5409500008
O  O130  1  0.93500000  0.59410000  0.41420000  1.0 0.0010374582
O  O131  1  0.04850000  0.17350000  0.48600000  1.0 -0.078153816
O  O132  1  0.99630000  0.25270000  0.46450000  1.0 -0.2135734877
O  O133  1  0.66260000  0.26990000  0.41000000  1.0 -0.5291674502
O  O134  1  0.72110000  0.34470000  0.41630000  1.0 -0.5291674502
O  O135  1  0.54800000  0.42220000  0.64060000  1.0 -0.5218432418
O  O136  1  0.54510000  0.41270000  0.73230000  1.0 -0.5714022588
O  O137  1  0.48160000  0.14420000  0.62390000  1.0 -0.471204181
O  O138  1  0.51830000  0.07110000  0.59090000  1.0 -0.4280935051
O  O139  1  0.67560000  0.26850000  0.29670000  1.0 -0.4004670517
O  O140  1  0.04620000  0.21270000  0.51830000  1.0 -0.1794397623
O  O141  1  0.00430000  0.20750000  0.43300000  1.0 -0.1710823448
O  O142  1  0.41540000  0.47670000  0.84800000  1.0 -0.5595382374
O  O143  1  0.56500000  0.40590000  0.91420000  1.0 0.0010374582
O  O144  1  0.95150000  0.67350000  0.01400000  1.0 -0.078153816
O  O145  1  0.00370000  0.75270000  0.03550000  1.0 -0.2135734877
O  O146  1  0.33740000  0.76990000  0.09000000  1.0 -0.5291674502
O  O147  1  0.27890000  0.84470000  0.08370000  1.0 -0.5409500008
O  O148  1  0.45200000  0.92220000  0.85940000  1.0 -0.5218432418
O  O149  1  0.45490000  0.91270000  0.76770000  1.0 -0.5714022588
O  O150  1  0.51840000  0.64420000  0.87610000  1.0 -0.471204181
O  O151  1  0.48170000  0.57110000  0.90910000  1.0 -0.4280935051
O  O152  1  0.32440000  0.76850000  0.20330000  1.0 -0.4004670517
O  O153  1  0.95380000  0.71270000  0.98170000  1.0 -0.1794397623
O  O154  1  0.99570000  0.70750000  0.06700000  1.0 -0.1710823448
O  O155  1  0.58460000  0.97670000  0.65200000  1.0 -0.5409500008
O  O156  1  0.43500000  0.90590000  0.58580000  1.0 0.0010374582
O  O157  1  0.29601000  0.29601000  0.29601000  1.0 -0.8089343777
O  O158  1  0.20399000  0.70399000  0.79601000  1.0 -0.8089343777
O  O159  1  0.70399000  0.79601000  0.20399000  1.0 -0.8089343777
O  O160  1  0.79601000  0.20399000  0.70399000  1.0 -0.8089343777
O  O161  1  0.64510000  0.14510000  0.35490000  1.0 -0.6361535063
O  O162  1  0.85490000  0.85490000  0.85490000  1.0 -0.6361535063
O  O163  1  0.35490000  0.64510000  0.14510000  1.0 -0.6361535063
O  O164  1  0.14510000  0.35490000  0.64510000  1.0 -0.6361535063
