# DDEC6 charges by PACMAN v1.1 (https://github.com/mtap-research/PACMAN-charge/)
data_DACNUU_FSR_pacman
_symmetry_space_group_name_H-M   'P 1'
_cell_length_a   23.57600000
_cell_length_b   23.57600000
_cell_length_c   23.57600000
_cell_angle_alpha   90.00000000
_cell_angle_beta   90.00000000
_cell_angle_gamma   90.00000000
_symmetry_Int_Tables_number   1
_chemical_formula_structural   Eu11Zn4H60Rh4C36S12(N6O19)2
_chemical_formula_sum   'Eu44 Zn16 H240 Rh16 C144 S48 N48 O152'
_cell_volume   13104.19564698
_cell_formula_units_Z   4
loop_
 _symmetry_equiv_pos_site_id
 _symmetry_equiv_pos_as_xyz
  1  'x, y, z'
loop_
 _atom_site_type_symbol
 _atom_site_label
 _atom_site_symmetry_multiplicity
 _atom_site_fract_x
 _atom_site_fract_y
 _atom_site_fract_z
 _atom_site_occupancy
 _atom_site_charge
Eu  Eu1  1  0.47040000  0.06360000  0.56970000  1.0 0.8609072007
Eu  Eu2  1  0.74850000  0.57740000  0.64310000  1.0 1.3664869769
Eu  Eu3  1  0.59110000  0.05760000  0.49880000  1.0 0.41748334
Eu  Eu4  1  0.02960000  0.93640000  0.06970000  1.0 0.8659324749
Eu  Eu5  1  0.75150000  0.42260000  0.14310000  1.0 1.3605138763
Eu  Eu6  1  0.90890000  0.94240000  0.99880000  1.0 0.4136184657
Eu  Eu7  1  0.52960000  0.56360000  0.93030000  1.0 0.8609072007
Eu  Eu8  1  0.25150000  0.07740000  0.85690000  1.0 1.3664869769
Eu  Eu9  1  0.40890000  0.55760000  0.00120000  1.0 0.41748334
Eu  Eu10  1  0.97040000  0.43640000  0.43030000  1.0 0.8609072007
Eu  Eu11  1  0.24850000  0.92260000  0.35690000  1.0 1.3605138763
Eu  Eu12  1  0.09110000  0.44240000  0.50120000  1.0 0.41748334
Eu  Eu13  1  0.56970000  0.47040000  0.06360000  1.0 0.8609072007
Eu  Eu14  1  0.64310000  0.74850000  0.57740000  1.0 1.3605138763
Eu  Eu15  1  0.49880000  0.59110000  0.05760000  1.0 0.41748334
Eu  Eu16  1  0.06970000  0.02960000  0.93640000  1.0 0.8527614577
Eu  Eu17  1  0.14310000  0.75150000  0.42260000  1.0 1.3605138763
Eu  Eu18  1  0.99880000  0.90890000  0.94240000  1.0 0.4136184657
Eu  Eu19  1  0.93030000  0.52960000  0.56360000  1.0 0.8609072007
Eu  Eu20  1  0.85690000  0.25150000  0.07740000  1.0 1.3605138763
Eu  Eu21  1  0.00120000  0.40890000  0.55760000  1.0 0.41748334
Eu  Eu22  1  0.43030000  0.97040000  0.43640000  1.0 0.8659324749
Eu  Eu23  1  0.35690000  0.24850000  0.92260000  1.0 1.3664869769
Eu  Eu24  1  0.50120000  0.09110000  0.44240000  1.0 0.41748334
Eu  Eu25  1  0.06360000  0.56970000  0.47040000  1.0 0.8609072007
Eu  Eu26  1  0.57740000  0.64310000  0.74850000  1.0 1.3605138763
Eu  Eu27  1  0.05760000  0.49880000  0.59110000  1.0 0.41748334
Eu  Eu28  1  0.93640000  0.06970000  0.02960000  1.0 0.8609072007
Eu  Eu29  1  0.42260000  0.14310000  0.75150000  1.0 1.3664869769
Eu  Eu30  1  0.94240000  0.99880000  0.90890000  1.0 0.4136184657
Eu  Eu31  1  0.56360000  0.93030000  0.52960000  1.0 0.8609072007
Eu  Eu32  1  0.07740000  0.85690000  0.25150000  1.0 1.3605138763
Eu  Eu33  1  0.55760000  0.00120000  0.40890000  1.0 0.41748334
Eu  Eu34  1  0.43640000  0.43030000  0.97040000  1.0 0.8609072007
Eu  Eu35  1  0.92260000  0.35690000  0.24850000  1.0 1.3605138763
Eu  Eu36  1  0.44240000  0.50120000  0.09110000  1.0 0.41748334
Eu  Eu37  1  0.48693000  0.98693000  0.51307000  1.0 -0.4689398503
Eu  Eu38  1  0.56542000  0.06542000  0.43458000  1.0 0.1780647366
Eu  Eu39  1  0.01307000  0.01307000  0.01307000  1.0 -0.4768952028
Eu  Eu40  1  0.93458000  0.93458000  0.93458000  1.0 0.1780647366
Eu  Eu41  1  0.51307000  0.48693000  0.98693000  1.0 -0.4689398503
Eu  Eu42  1  0.43458000  0.56542000  0.06542000  1.0 0.1780647366
Eu  Eu43  1  0.98693000  0.51307000  0.48693000  1.0 -0.4689398503
Eu  Eu44  1  0.06542000  0.43458000  0.56542000  1.0 0.1780647366
Zn  Zn1  1  0.49342000  0.42714000  0.38406000  1.0 0.5467988356
Zn  Zn2  1  0.00658000  0.57286000  0.88406000  1.0 0.5467988356
Zn  Zn3  1  0.50658000  0.92714000  0.11594000  1.0 0.5467988356
Zn  Zn4  1  0.99342000  0.07286000  0.61594000  1.0 0.5467988356
Zn  Zn5  1  0.38406000  0.49342000  0.42714000  1.0 0.5467988356
Zn  Zn6  1  0.88406000  0.00658000  0.57286000  1.0 0.5467988356
Zn  Zn7  1  0.11594000  0.50658000  0.92714000  1.0 0.5467988356
Zn  Zn8  1  0.61594000  0.99342000  0.07286000  1.0 0.5467988356
Zn  Zn9  1  0.42714000  0.38406000  0.49342000  1.0 0.5467988356
Zn  Zn10  1  0.57286000  0.88406000  0.00658000  1.0 0.5467988356
Zn  Zn11  1  0.92714000  0.11594000  0.50658000  1.0 0.5467988356
Zn  Zn12  1  0.07286000  0.61594000  0.99342000  1.0 0.5467988356
Zn  Zn13  1  0.49903000  0.49903000  0.49903000  1.0 0.53939424
Zn  Zn14  1  0.00097000  0.50097000  0.99903000  1.0 0.53939424
Zn  Zn15  1  0.50097000  0.99903000  0.00097000  1.0 0.53939424
Zn  Zn16  1  0.99903000  0.00097000  0.50097000  1.0 0.53939424
H  H1  1  0.39720000  0.25509000  0.32875000  1.0 0.2800411462
H  H2  1  0.35042000  0.26163000  0.28802000  1.0 0.2800411462
H  H3  1  0.58620000  0.25641000  0.46942000  1.0 0.2688347602
H  H4  1  0.63028000  0.26040000  0.51334000  1.0 0.2800411462
H  H5  1  0.68056000  0.40118000  0.45854000  1.0 0.2688347602
H  H6  1  0.69418000  0.34409000  0.47941000  1.0 0.2800411462
H  H7  1  0.60653000  0.35911000  0.60657000  1.0 0.2688347602
H  H8  1  0.66028000  0.34230000  0.57998000  1.0 0.2688347602
H  H9  1  0.49236000  0.34556000  0.25346000  1.0 0.1499876483
H  H10  1  0.48785000  0.31398000  0.31368000  1.0 0.1314494747
H  H11  1  0.39970000  0.31702000  0.23067000  1.0 0.1012087306
H  H12  1  0.47196000  0.26024000  0.57328000  1.0 0.1356392755
H  H13  1  0.47826000  0.26398000  0.50562000  1.0 0.1314494747
H  H14  1  0.57032000  0.25564000  0.58447000  1.0 0.1012087306
H  H15  1  0.61410000  0.35212000  0.33061000  1.0 0.1314494747
H  H16  1  0.62180000  0.40943000  0.36639000  1.0 0.1314494747
H  H17  1  0.66233000  0.30049000  0.40084000  1.0 0.1093766271
H  H18  1  0.63071000  0.50715000  0.57884000  1.0 0.1231877311
H  H19  1  0.57869000  0.46850000  0.59976000  1.0 0.1314494747
H  H20  1  0.69011000  0.42696000  0.56832000  1.0 0.1093766271
H  H21  1  0.10280000  0.74491000  0.82875000  1.0 0.2800411462
H  H22  1  0.14958000  0.73837000  0.78802000  1.0 0.2800411462
H  H23  1  0.91380000  0.74359000  0.96942000  1.0 0.2688347602
H  H24  1  0.86972000  0.73960000  0.01334000  1.0 0.2800411462
H  H25  1  0.81944000  0.59882000  0.95854000  1.0 0.2688347602
H  H26  1  0.80582000  0.65591000  0.97941000  1.0 0.2800411462
H  H27  1  0.89347000  0.64089000  0.10657000  1.0 0.2688347602
H  H28  1  0.83972000  0.65770000  0.07998000  1.0 0.2688347602
H  H29  1  0.00764000  0.65444000  0.75346000  1.0 0.1499876483
H  H30  1  0.01215000  0.68602000  0.81368000  1.0 0.1314494747
H  H31  1  0.10030000  0.68298000  0.73067000  1.0 0.1012087306
H  H32  1  0.02804000  0.73976000  0.07328000  1.0 0.1356392755
H  H33  1  0.02174000  0.73602000  0.00562000  1.0 0.1314494747
H  H34  1  0.92968000  0.74436000  0.08447000  1.0 0.1012087306
H  H35  1  0.88590000  0.64788000  0.83061000  1.0 0.1314494747
H  H36  1  0.87820000  0.59057000  0.86639000  1.0 0.1314494747
H  H37  1  0.83767000  0.69951000  0.90084000  1.0 0.1093766271
H  H38  1  0.86929000  0.49285000  0.07884000  1.0 0.1231877311
H  H39  1  0.92131000  0.53150000  0.09976000  1.0 0.1314494747
H  H40  1  0.80989000  0.57304000  0.06832000  1.0 0.1093766271
H  H41  1  0.60280000  0.75509000  0.17125000  1.0 0.2800411462
H  H42  1  0.64958000  0.76163000  0.21198000  1.0 0.2800411462
H  H43  1  0.41380000  0.75641000  0.03058000  1.0 0.2688347602
H  H44  1  0.36972000  0.76040000  0.98666000  1.0 0.2800411462
H  H45  1  0.31944000  0.90118000  0.04146000  1.0 0.2688347602
H  H46  1  0.30582000  0.84409000  0.02059000  1.0 0.2800411462
H  H47  1  0.39347000  0.85911000  0.89343000  1.0 0.2688347602
H  H48  1  0.33972000  0.84230000  0.92002000  1.0 0.2688347602
H  H49  1  0.50764000  0.84556000  0.24654000  1.0 0.1499876483
H  H50  1  0.51215000  0.81398000  0.18632000  1.0 0.1314494747
H  H51  1  0.60030000  0.81702000  0.26933000  1.0 0.1012087306
H  H52  1  0.52804000  0.76024000  0.92672000  1.0 0.1356392755
H  H53  1  0.52174000  0.76398000  0.99438000  1.0 0.1314494747
H  H54  1  0.42968000  0.75564000  0.91553000  1.0 0.1012087306
H  H55  1  0.38590000  0.85212000  0.16939000  1.0 0.1314494747
H  H56  1  0.37820000  0.90943000  0.13361000  1.0 0.1314494747
H  H57  1  0.33767000  0.80049000  0.09916000  1.0 0.1093766271
H  H58  1  0.36929000  0.00715000  0.92116000  1.0 0.1231877311
H  H59  1  0.42131000  0.96850000  0.90024000  1.0 0.1314494747
H  H60  1  0.30989000  0.92696000  0.93168000  1.0 0.1093766271
H  H61  1  0.89720000  0.24491000  0.67125000  1.0 0.2800411462
H  H62  1  0.85042000  0.23837000  0.71198000  1.0 0.2800411462
H  H63  1  0.08620000  0.24359000  0.53058000  1.0 0.2688347602
H  H64  1  0.13028000  0.23960000  0.48666000  1.0 0.2800411462
H  H65  1  0.18056000  0.09882000  0.54146000  1.0 0.2688347602
H  H66  1  0.19418000  0.15591000  0.52059000  1.0 0.2800411462
H  H67  1  0.10653000  0.14089000  0.39343000  1.0 0.2688347602
H  H68  1  0.16028000  0.15770000  0.42002000  1.0 0.2688347602
H  H69  1  0.99236000  0.15444000  0.74654000  1.0 0.1499876483
H  H70  1  0.98785000  0.18602000  0.68632000  1.0 0.1314494747
H  H71  1  0.89970000  0.18298000  0.76933000  1.0 0.1012087306
H  H72  1  0.97196000  0.23976000  0.42672000  1.0 0.1356392755
H  H73  1  0.97826000  0.23602000  0.49438000  1.0 0.1314494747
H  H74  1  0.07032000  0.24436000  0.41553000  1.0 0.1012087306
H  H75  1  0.11410000  0.14788000  0.66939000  1.0 0.1314494747
H  H76  1  0.12180000  0.09057000  0.63361000  1.0 0.1314494747
H  H77  1  0.16233000  0.19951000  0.59916000  1.0 0.1093766271
H  H78  1  0.13071000  0.99285000  0.42116000  1.0 0.1231877311
H  H79  1  0.07869000  0.03150000  0.40024000  1.0 0.1314494747
H  H80  1  0.19011000  0.07304000  0.43168000  1.0 0.1093766271
H  H81  1  0.32875000  0.39720000  0.25509000  1.0 0.2800411462
H  H82  1  0.28802000  0.35042000  0.26163000  1.0 0.2800411462
H  H83  1  0.46942000  0.58620000  0.25641000  1.0 0.2688347602
H  H84  1  0.51334000  0.63028000  0.26040000  1.0 0.2800411462
H  H85  1  0.45854000  0.68056000  0.40118000  1.0 0.2688347602
H  H86  1  0.47941000  0.69418000  0.34409000  1.0 0.2800411462
H  H87  1  0.60657000  0.60653000  0.35911000  1.0 0.2688347602
H  H88  1  0.57998000  0.66028000  0.34230000  1.0 0.2688347602
H  H89  1  0.25346000  0.49236000  0.34556000  1.0 0.1499876483
H  H90  1  0.31368000  0.48785000  0.31398000  1.0 0.1314494747
H  H91  1  0.23067000  0.39970000  0.31702000  1.0 0.1012087306
H  H92  1  0.57328000  0.47196000  0.26024000  1.0 0.1356392755
H  H93  1  0.50562000  0.47826000  0.26398000  1.0 0.1314494747
H  H94  1  0.58447000  0.57032000  0.25564000  1.0 0.1012087306
H  H95  1  0.33061000  0.61410000  0.35212000  1.0 0.1314494747
H  H96  1  0.36639000  0.62180000  0.40943000  1.0 0.1314494747
H  H97  1  0.40084000  0.66233000  0.30049000  1.0 0.1093766271
H  H98  1  0.57884000  0.63071000  0.50715000  1.0 0.1231877311
H  H99  1  0.59976000  0.57869000  0.46850000  1.0 0.1314494747
H  H100  1  0.56832000  0.69011000  0.42696000  1.0 0.1093766271
H  H101  1  0.82875000  0.10280000  0.74491000  1.0 0.2800411462
H  H102  1  0.78802000  0.14958000  0.73837000  1.0 0.2800411462
H  H103  1  0.96942000  0.91380000  0.74359000  1.0 0.2688347602
H  H104  1  0.01334000  0.86972000  0.73960000  1.0 0.2800411462
H  H105  1  0.95854000  0.81944000  0.59882000  1.0 0.2688347602
H  H106  1  0.97941000  0.80582000  0.65591000  1.0 0.2800411462
H  H107  1  0.10657000  0.89347000  0.64089000  1.0 0.2688347602
H  H108  1  0.07998000  0.83972000  0.65770000  1.0 0.2688347602
H  H109  1  0.75346000  0.00764000  0.65444000  1.0 0.1499876483
H  H110  1  0.81368000  0.01215000  0.68602000  1.0 0.1314494747
H  H111  1  0.73067000  0.10030000  0.68298000  1.0 0.1012087306
H  H112  1  0.07328000  0.02804000  0.73976000  1.0 0.1356392755
H  H113  1  0.00562000  0.02174000  0.73602000  1.0 0.1314494747
H  H114  1  0.08447000  0.92968000  0.74436000  1.0 0.1012087306
H  H115  1  0.83061000  0.88590000  0.64788000  1.0 0.1314494747
H  H116  1  0.86639000  0.87820000  0.59057000  1.0 0.1314494747
H  H117  1  0.90084000  0.83767000  0.69951000  1.0 0.1093766271
H  H118  1  0.07884000  0.86929000  0.49285000  1.0 0.1231877311
H  H119  1  0.09976000  0.92131000  0.53150000  1.0 0.1314494747
H  H120  1  0.06832000  0.80989000  0.57304000  1.0 0.1093766271
H  H121  1  0.17125000  0.60280000  0.75509000  1.0 0.2800411462
H  H122  1  0.21198000  0.64958000  0.76163000  1.0 0.2800411462
H  H123  1  0.03058000  0.41380000  0.75641000  1.0 0.2688347602
H  H124  1  0.98666000  0.36972000  0.76040000  1.0 0.2800411462
H  H125  1  0.04146000  0.31944000  0.90118000  1.0 0.2688347602
H  H126  1  0.02059000  0.30582000  0.84409000  1.0 0.2800411462
H  H127  1  0.89343000  0.39347000  0.85911000  1.0 0.2688347602
H  H128  1  0.92002000  0.33972000  0.84230000  1.0 0.2688347602
H  H129  1  0.24654000  0.50764000  0.84556000  1.0 0.1499876483
H  H130  1  0.18632000  0.51215000  0.81398000  1.0 0.1314494747
H  H131  1  0.26933000  0.60030000  0.81702000  1.0 0.1012087306
H  H132  1  0.92672000  0.52804000  0.76024000  1.0 0.1314494747
H  H133  1  0.99438000  0.52174000  0.76398000  1.0 0.1314494747
H  H134  1  0.91553000  0.42968000  0.75564000  1.0 0.1012087306
H  H135  1  0.16939000  0.38590000  0.85212000  1.0 0.1314494747
H  H136  1  0.13361000  0.37820000  0.90943000  1.0 0.1314494747
H  H137  1  0.09916000  0.33767000  0.80049000  1.0 0.1093766271
H  H138  1  0.92116000  0.36929000  0.00715000  1.0 0.1231877311
H  H139  1  0.90024000  0.42131000  0.96850000  1.0 0.1314494747
H  H140  1  0.93168000  0.30989000  0.92696000  1.0 0.1093766271
H  H141  1  0.67125000  0.89720000  0.24491000  1.0 0.2800411462
H  H142  1  0.71198000  0.85042000  0.23837000  1.0 0.2800411462
H  H143  1  0.53058000  0.08620000  0.24359000  1.0 0.2688347602
H  H144  1  0.48666000  0.13028000  0.23960000  1.0 0.2800411462
H  H145  1  0.54146000  0.18056000  0.09882000  1.0 0.2688347602
H  H146  1  0.52059000  0.19418000  0.15591000  1.0 0.2800411462
H  H147  1  0.39343000  0.10653000  0.14089000  1.0 0.2688347602
H  H148  1  0.42002000  0.16028000  0.15770000  1.0 0.2688347602
H  H149  1  0.74654000  0.99236000  0.15444000  1.0 0.1499876483
H  H150  1  0.68632000  0.98785000  0.18602000  1.0 0.1314494747
H  H151  1  0.76933000  0.89970000  0.18298000  1.0 0.1012087306
H  H152  1  0.42672000  0.97196000  0.23976000  1.0 0.1356392755
H  H153  1  0.49438000  0.97826000  0.23602000  1.0 0.1314494747
H  H154  1  0.41553000  0.07032000  0.24436000  1.0 0.1012087306
H  H155  1  0.66939000  0.11410000  0.14788000  1.0 0.1314494747
H  H156  1  0.63361000  0.12180000  0.09057000  1.0 0.1314494747
H  H157  1  0.59916000  0.16233000  0.19951000  1.0 0.1093766271
H  H158  1  0.42116000  0.13071000  0.99285000  1.0 0.1231877311
H  H159  1  0.40024000  0.07869000  0.03150000  1.0 0.1314494747
H  H160  1  0.43168000  0.19011000  0.07304000  1.0 0.1093766271
H  H161  1  0.25509000  0.32875000  0.39720000  1.0 0.2800411462
H  H162  1  0.26163000  0.28802000  0.35042000  1.0 0.2800411462
H  H163  1  0.25641000  0.46942000  0.58620000  1.0 0.2688347602
H  H164  1  0.26040000  0.51334000  0.63028000  1.0 0.2800411462
H  H165  1  0.40118000  0.45854000  0.68056000  1.0 0.2688347602
H  H166  1  0.34409000  0.47941000  0.69418000  1.0 0.2800411462
H  H167  1  0.35911000  0.60657000  0.60653000  1.0 0.2688347602
H  H168  1  0.34230000  0.57998000  0.66028000  1.0 0.2688347602
H  H169  1  0.34556000  0.25346000  0.49236000  1.0 0.1499876483
H  H170  1  0.31398000  0.31368000  0.48785000  1.0 0.1314494747
H  H171  1  0.31702000  0.23067000  0.39970000  1.0 0.1012087306
H  H172  1  0.26024000  0.57328000  0.47196000  1.0 0.1356392755
H  H173  1  0.26398000  0.50562000  0.47826000  1.0 0.1314494747
H  H174  1  0.25564000  0.58447000  0.57032000  1.0 0.1012087306
H  H175  1  0.35212000  0.33061000  0.61410000  1.0 0.1314494747
H  H176  1  0.40943000  0.36639000  0.62180000  1.0 0.1314494747
H  H177  1  0.30049000  0.40084000  0.66233000  1.0 0.1093766271
H  H178  1  0.50715000  0.57884000  0.63071000  1.0 0.1231877311
H  H179  1  0.46850000  0.59976000  0.57869000  1.0 0.1314494747
H  H180  1  0.42696000  0.56832000  0.69011000  1.0 0.1093766271
H  H181  1  0.74491000  0.82875000  0.10280000  1.0 0.2800411462
H  H182  1  0.73837000  0.78802000  0.14958000  1.0 0.2800411462
H  H183  1  0.74359000  0.96942000  0.91380000  1.0 0.2688347602
H  H184  1  0.73960000  0.01334000  0.86972000  1.0 0.2800411462
H  H185  1  0.59882000  0.95854000  0.81944000  1.0 0.2688347602
H  H186  1  0.65591000  0.97941000  0.80582000  1.0 0.2800411462
H  H187  1  0.64089000  0.10657000  0.89347000  1.0 0.2688347602
H  H188  1  0.65770000  0.07998000  0.83972000  1.0 0.2688347602
H  H189  1  0.65444000  0.75346000  0.00764000  1.0 0.1499876483
H  H190  1  0.68602000  0.81368000  0.01215000  1.0 0.1314494747
H  H191  1  0.68298000  0.73067000  0.10030000  1.0 0.1012087306
H  H192  1  0.73976000  0.07328000  0.02804000  1.0 0.1314494747
H  H193  1  0.73602000  0.00562000  0.02174000  1.0 0.1314494747
H  H194  1  0.74436000  0.08447000  0.92968000  1.0 0.1012087306
H  H195  1  0.64788000  0.83061000  0.88590000  1.0 0.1314494747
H  H196  1  0.59057000  0.86639000  0.87820000  1.0 0.1314494747
H  H197  1  0.69951000  0.90084000  0.83767000  1.0 0.1093766271
H  H198  1  0.49285000  0.07884000  0.86929000  1.0 0.1231877311
H  H199  1  0.53150000  0.09976000  0.92131000  1.0 0.1314494747
H  H200  1  0.57304000  0.06832000  0.80989000  1.0 0.1093766271
H  H201  1  0.75509000  0.17125000  0.60280000  1.0 0.2800411462
H  H202  1  0.76163000  0.21198000  0.64958000  1.0 0.2800411462
H  H203  1  0.75641000  0.03058000  0.41380000  1.0 0.2688347602
H  H204  1  0.76040000  0.98666000  0.36972000  1.0 0.2800411462
H  H205  1  0.90118000  0.04146000  0.31944000  1.0 0.2688347602
H  H206  1  0.84409000  0.02059000  0.30582000  1.0 0.2800411462
H  H207  1  0.85911000  0.89343000  0.39347000  1.0 0.2688347602
H  H208  1  0.84230000  0.92002000  0.33972000  1.0 0.2688347602
H  H209  1  0.84556000  0.24654000  0.50764000  1.0 0.1499876483
H  H210  1  0.81398000  0.18632000  0.51215000  1.0 0.1314494747
H  H211  1  0.81702000  0.26933000  0.60030000  1.0 0.1012087306
H  H212  1  0.76024000  0.92672000  0.52804000  1.0 0.1356392755
H  H213  1  0.76398000  0.99438000  0.52174000  1.0 0.1314494747
H  H214  1  0.75564000  0.91553000  0.42968000  1.0 0.1012087306
H  H215  1  0.85212000  0.16939000  0.38590000  1.0 0.1314494747
H  H216  1  0.90943000  0.13361000  0.37820000  1.0 0.1314494747
H  H217  1  0.80049000  0.09916000  0.33767000  1.0 0.1093766271
H  H218  1  0.00715000  0.92116000  0.36929000  1.0 0.1231877311
H  H219  1  0.96850000  0.90024000  0.42131000  1.0 0.1314494747
H  H220  1  0.92696000  0.93168000  0.30989000  1.0 0.1093766271
H  H221  1  0.24491000  0.67125000  0.89720000  1.0 0.2800411462
H  H222  1  0.23837000  0.71198000  0.85042000  1.0 0.2800411462
H  H223  1  0.24359000  0.53058000  0.08620000  1.0 0.2688347602
H  H224  1  0.23960000  0.48666000  0.13028000  1.0 0.2800411462
H  H225  1  0.09882000  0.54146000  0.18056000  1.0 0.2688347602
H  H226  1  0.15591000  0.52059000  0.19418000  1.0 0.2800411462
H  H227  1  0.14089000  0.39343000  0.10653000  1.0 0.2688347602
H  H228  1  0.15770000  0.42002000  0.16028000  1.0 0.2688347602
H  H229  1  0.15444000  0.74654000  0.99236000  1.0 0.1499876483
H  H230  1  0.18602000  0.68632000  0.98785000  1.0 0.1314494747
H  H231  1  0.18298000  0.76933000  0.89970000  1.0 0.1012087306
H  H232  1  0.23976000  0.42672000  0.97196000  1.0 0.1356392755
H  H233  1  0.23602000  0.49438000  0.97826000  1.0 0.1314494747
H  H234  1  0.24436000  0.41553000  0.07032000  1.0 0.1012087306
H  H235  1  0.14788000  0.66939000  0.11410000  1.0 0.1314494747
H  H236  1  0.09057000  0.63361000  0.12180000  1.0 0.1314494747
H  H237  1  0.19951000  0.59916000  0.16233000  1.0 0.1093766271
H  H238  1  0.99285000  0.42116000  0.13071000  1.0 0.1231877311
H  H239  1  0.03150000  0.40024000  0.07869000  1.0 0.1314494747
H  H240  1  0.07304000  0.43168000  0.19011000  1.0 0.1093766271
Rh  Rh1  1  0.59041000  0.36083000  0.49998000  1.0 0.4731284781
Rh  Rh2  1  0.90959000  0.63917000  0.99998000  1.0 0.4731284781
Rh  Rh3  1  0.40959000  0.86083000  0.00002000  1.0 0.4731284781
Rh  Rh4  1  0.09041000  0.13917000  0.50002000  1.0 0.4731284781
Rh  Rh5  1  0.49998000  0.59041000  0.36083000  1.0 0.4731284781
Rh  Rh6  1  0.99998000  0.90959000  0.63917000  1.0 0.4731284781
Rh  Rh7  1  0.00002000  0.40959000  0.86083000  1.0 0.4731284781
Rh  Rh8  1  0.50002000  0.09041000  0.13917000  1.0 0.4731284781
Rh  Rh9  1  0.36083000  0.49998000  0.59041000  1.0 0.4731284781
Rh  Rh10  1  0.63917000  0.99998000  0.90959000  1.0 0.4731284781
Rh  Rh11  1  0.86083000  0.00002000  0.40959000  1.0 0.4731284781
Rh  Rh12  1  0.13917000  0.50002000  0.09041000  1.0 0.4731284781
Rh  Rh13  1  0.35022000  0.35022000  0.35022000  1.0 0.4731284781
Rh  Rh14  1  0.14978000  0.64978000  0.85022000  1.0 0.4731284781
Rh  Rh15  1  0.64978000  0.85022000  0.14978000  1.0 0.4731284781
Rh  Rh16  1  0.85022000  0.14978000  0.64978000  1.0 0.4731284781
C  C1  1  0.46590000  0.33380000  0.28390000  1.0 -0.1992304348
C  C2  1  0.42090000  0.29520000  0.26030000  1.0 0.0240153438
C  C3  1  0.44620000  0.24280000  0.23140000  1.0 0.5028858114
C  C4  1  0.49640000  0.27420000  0.54210000  1.0 -0.1783945582
C  C5  1  0.55490000  0.24660000  0.54600000  1.0 0.0027110895
C  C6  1  0.55020000  0.18300000  0.54220000  1.0 0.6058793767
C  C7  1  0.61710000  0.36780000  0.36940000  1.0 -0.1625166544
C  C8  1  0.66810000  0.34250000  0.39900000  1.0 -0.0307794264
C  C9  1  0.72000000  0.35260000  0.36930000  1.0 0.5028858114
C  C10  1  0.61210000  0.46980000  0.57440000  1.0 -0.1889859633
C  C11  1  0.65400000  0.42180000  0.59000000  1.0 0.0730945602
C  C12  1  0.66740000  0.42550000  0.65830000  1.0 0.5596251988
C  C13  1  0.03410000  0.66620000  0.78390000  1.0 -0.1992304348
C  C14  1  0.07910000  0.70480000  0.76030000  1.0 0.0240153438
C  C15  1  0.05380000  0.75720000  0.73140000  1.0 0.5028858114
C  C16  1  0.00360000  0.72580000  0.04210000  1.0 -0.1783945582
C  C17  1  0.94510000  0.75340000  0.04600000  1.0 0.0027110895
C  C18  1  0.94980000  0.81700000  0.04220000  1.0 0.6058793767
C  C19  1  0.88290000  0.63220000  0.86940000  1.0 -0.1625166544
C  C20  1  0.83190000  0.65750000  0.89900000  1.0 -0.0307794264
C  C21  1  0.78000000  0.64740000  0.86930000  1.0 0.5028858114
C  C22  1  0.88790000  0.53020000  0.07440000  1.0 -0.1889859633
C  C23  1  0.84600000  0.57820000  0.09000000  1.0 0.0730945602
C  C24  1  0.83260000  0.57450000  0.15830000  1.0 0.5596251988
C  C25  1  0.53410000  0.83380000  0.21610000  1.0 -0.1992304348
C  C26  1  0.57910000  0.79520000  0.23970000  1.0 0.0240153438
C  C27  1  0.55380000  0.74280000  0.26860000  1.0 0.5028858114
C  C28  1  0.50360000  0.77420000  0.95790000  1.0 -0.1783945582
C  C29  1  0.44510000  0.74660000  0.95400000  1.0 0.0027110895
C  C30  1  0.44980000  0.68300000  0.95780000  1.0 0.6058793767
C  C31  1  0.38290000  0.86780000  0.13060000  1.0 -0.1625166544
C  C32  1  0.33190000  0.84250000  0.10100000  1.0 -0.0307794264
C  C33  1  0.28000000  0.85260000  0.13070000  1.0 0.5028858114
C  C34  1  0.38790000  0.96980000  0.92560000  1.0 -0.1889859633
C  C35  1  0.34600000  0.92180000  0.91000000  1.0 0.0730945602
C  C36  1  0.33260000  0.92550000  0.84170000  1.0 0.5596251988
C  C37  1  0.96590000  0.16620000  0.71610000  1.0 -0.1992304348
C  C38  1  0.92090000  0.20480000  0.73970000  1.0 0.0240153438
C  C39  1  0.94620000  0.25720000  0.76860000  1.0 0.5028858114
C  C40  1  0.99640000  0.22580000  0.45790000  1.0 -0.1783945582
C  C41  1  0.05490000  0.25340000  0.45400000  1.0 0.0027110895
C  C42  1  0.05020000  0.31700000  0.45780000  1.0 0.6058793767
C  C43  1  0.11710000  0.13220000  0.63060000  1.0 -0.1625166544
C  C44  1  0.16810000  0.15750000  0.60100000  1.0 -0.0307794264
C  C45  1  0.22000000  0.14740000  0.63070000  1.0 0.5028858114
C  C46  1  0.11210000  0.03020000  0.42560000  1.0 -0.1889859633
C  C47  1  0.15400000  0.07820000  0.41000000  1.0 0.0730945602
C  C48  1  0.16740000  0.07450000  0.34170000  1.0 0.5596251988
C  C49  1  0.28390000  0.46590000  0.33380000  1.0 -0.1992304348
C  C50  1  0.26030000  0.42090000  0.29520000  1.0 0.0240153438
C  C51  1  0.23140000  0.44620000  0.24280000  1.0 0.5028858114
C  C52  1  0.54210000  0.49640000  0.27420000  1.0 -0.1783945582
C  C53  1  0.54600000  0.55490000  0.24660000  1.0 0.0027110895
C  C54  1  0.54220000  0.55020000  0.18300000  1.0 0.6058793767
C  C55  1  0.36940000  0.61710000  0.36780000  1.0 -0.1625166544
C  C56  1  0.39900000  0.66810000  0.34250000  1.0 -0.0307794264
C  C57  1  0.36930000  0.72000000  0.35260000  1.0 0.5028858114
C  C58  1  0.57440000  0.61210000  0.46980000  1.0 -0.1889859633
C  C59  1  0.59000000  0.65400000  0.42180000  1.0 0.0730945602
C  C60  1  0.65830000  0.66740000  0.42550000  1.0 0.5596251988
C  C61  1  0.78390000  0.03410000  0.66620000  1.0 -0.1992304348
C  C62  1  0.76030000  0.07910000  0.70480000  1.0 0.0240153438
C  C63  1  0.73140000  0.05380000  0.75720000  1.0 0.5028858114
C  C64  1  0.04210000  0.00360000  0.72580000  1.0 -0.1783945582
C  C65  1  0.04600000  0.94510000  0.75340000  1.0 0.0027110895
C  C66  1  0.04220000  0.94980000  0.81700000  1.0 0.6058793767
C  C67  1  0.86940000  0.88290000  0.63220000  1.0 -0.1625166544
C  C68  1  0.89900000  0.83190000  0.65750000  1.0 -0.0307794264
C  C69  1  0.86930000  0.78000000  0.64740000  1.0 0.5028858114
C  C70  1  0.07440000  0.88790000  0.53020000  1.0 -0.1889859633
C  C71  1  0.09000000  0.84600000  0.57820000  1.0 0.0730945602
C  C72  1  0.15830000  0.83260000  0.57450000  1.0 0.5596251988
C  C73  1  0.21610000  0.53410000  0.83380000  1.0 -0.1992304348
C  C74  1  0.23970000  0.57910000  0.79520000  1.0 0.0240153438
C  C75  1  0.26860000  0.55380000  0.74280000  1.0 0.5028858114
C  C76  1  0.95790000  0.50360000  0.77420000  1.0 -0.1783945582
C  C77  1  0.95400000  0.44510000  0.74660000  1.0 0.0027110895
C  C78  1  0.95780000  0.44980000  0.68300000  1.0 0.6058793767
C  C79  1  0.13060000  0.38290000  0.86780000  1.0 -0.1625166544
C  C80  1  0.10100000  0.33190000  0.84250000  1.0 -0.0307794264
C  C81  1  0.13070000  0.28000000  0.85260000  1.0 0.5028858114
C  C82  1  0.92560000  0.38790000  0.96980000  1.0 -0.1889859633
C  C83  1  0.91000000  0.34600000  0.92180000  1.0 0.0730945602
C  C84  1  0.84170000  0.33260000  0.92550000  1.0 0.5596251988
C  C85  1  0.71610000  0.96590000  0.16620000  1.0 -0.1992304348
C  C86  1  0.73970000  0.92090000  0.20480000  1.0 0.0240153438
C  C87  1  0.76860000  0.94620000  0.25720000  1.0 0.5028858114
C  C88  1  0.45790000  0.99640000  0.22580000  1.0 -0.1783945582
C  C89  1  0.45400000  0.05490000  0.25340000  1.0 0.0027110895
C  C90  1  0.45780000  0.05020000  0.31700000  1.0 0.6058793767
C  C91  1  0.63060000  0.11710000  0.13220000  1.0 -0.1625166544
C  C92  1  0.60100000  0.16810000  0.15750000  1.0 -0.0307794264
C  C93  1  0.63070000  0.22000000  0.14740000  1.0 0.5028858114
C  C94  1  0.42560000  0.11210000  0.03020000  1.0 -0.1889859633
C  C95  1  0.41000000  0.15400000  0.07820000  1.0 0.0730945602
C  C96  1  0.34170000  0.16740000  0.07450000  1.0 0.5596251988
C  C97  1  0.33380000  0.28390000  0.46590000  1.0 -0.1992304348
C  C98  1  0.29520000  0.26030000  0.42090000  1.0 0.0240153438
C  C99  1  0.24280000  0.23140000  0.44620000  1.0 0.5028858114
C  C100  1  0.27420000  0.54210000  0.49640000  1.0 -0.1783945582
C  C101  1  0.24660000  0.54600000  0.55490000  1.0 0.0027110895
C  C102  1  0.18300000  0.54220000  0.55020000  1.0 0.6058793767
C  C103  1  0.36780000  0.36940000  0.61710000  1.0 -0.1625166544
C  C104  1  0.34250000  0.39900000  0.66810000  1.0 -0.0307794264
C  C105  1  0.35260000  0.36930000  0.72000000  1.0 0.5028858114
C  C106  1  0.46980000  0.57440000  0.61210000  1.0 -0.1889859633
C  C107  1  0.42180000  0.59000000  0.65400000  1.0 0.0730945602
C  C108  1  0.42550000  0.65830000  0.66740000  1.0 0.5596251988
C  C109  1  0.66620000  0.78390000  0.03410000  1.0 -0.1992304348
C  C110  1  0.70480000  0.76030000  0.07910000  1.0 0.0240153438
C  C111  1  0.75720000  0.73140000  0.05380000  1.0 0.5028858114
C  C112  1  0.72580000  0.04210000  0.00360000  1.0 -0.1783945582
C  C113  1  0.75340000  0.04600000  0.94510000  1.0 0.0027110895
C  C114  1  0.81700000  0.04220000  0.94980000  1.0 0.6058793767
C  C115  1  0.63220000  0.86940000  0.88290000  1.0 -0.1625166544
C  C116  1  0.65750000  0.89900000  0.83190000  1.0 -0.0307794264
C  C117  1  0.64740000  0.86930000  0.78000000  1.0 0.5028858114
C  C118  1  0.53020000  0.07440000  0.88790000  1.0 -0.1889859633
C  C119  1  0.57820000  0.09000000  0.84600000  1.0 0.0730945602
C  C120  1  0.57450000  0.15830000  0.83260000  1.0 0.5596251988
C  C121  1  0.83380000  0.21610000  0.53410000  1.0 -0.1992304348
C  C122  1  0.79520000  0.23970000  0.57910000  1.0 0.0240153438
C  C123  1  0.74280000  0.26860000  0.55380000  1.0 0.5028858114
C  C124  1  0.77420000  0.95790000  0.50360000  1.0 -0.1783945582
C  C125  1  0.74660000  0.95400000  0.44510000  1.0 0.0027110895
C  C126  1  0.68300000  0.95780000  0.44980000  1.0 0.6058793767
C  C127  1  0.86780000  0.13060000  0.38290000  1.0 -0.1625166544
C  C128  1  0.84250000  0.10100000  0.33190000  1.0 -0.0307794264
C  C129  1  0.85260000  0.13070000  0.28000000  1.0 0.5028858114
C  C130  1  0.96980000  0.92560000  0.38790000  1.0 -0.1889859633
C  C131  1  0.92180000  0.91000000  0.34600000  1.0 0.0730945602
C  C132  1  0.92550000  0.84170000  0.33260000  1.0 0.5596251988
C  C133  1  0.16620000  0.71610000  0.96590000  1.0 -0.1992304348
C  C134  1  0.20480000  0.73970000  0.92090000  1.0 0.0240153438
C  C135  1  0.25720000  0.76860000  0.94620000  1.0 0.5028858114
C  C136  1  0.22580000  0.45790000  0.99640000  1.0 -0.1783945582
C  C137  1  0.25340000  0.45400000  0.05490000  1.0 0.0027110895
C  C138  1  0.31700000  0.45780000  0.05020000  1.0 0.6058793767
C  C139  1  0.13220000  0.63060000  0.11710000  1.0 -0.1625166544
C  C140  1  0.15750000  0.60100000  0.16810000  1.0 -0.0307794264
C  C141  1  0.14740000  0.63070000  0.22000000  1.0 0.5028858114
C  C142  1  0.03020000  0.42560000  0.11210000  1.0 -0.1889859633
C  C143  1  0.07820000  0.41000000  0.15400000  1.0 0.0730945602
C  C144  1  0.07450000  0.34170000  0.16740000  1.0 0.5596251988
S  S1  1  0.42991000  0.39664000  0.31414000  1.0 -0.3010579245
S  S2  1  0.50413000  0.35138000  0.54708000  1.0 -0.2806864948
S  S3  1  0.55267000  0.35184000  0.40889000  1.0 -0.2806864948
S  S4  1  0.59003000  0.45988000  0.50118000  1.0 -0.2655908931
S  S5  1  0.07009000  0.60336000  0.81414000  1.0 -0.3010579245
S  S6  1  0.99587000  0.64862000  0.04708000  1.0 -0.2806864948
S  S7  1  0.94733000  0.64816000  0.90889000  1.0 -0.2806864948
S  S8  1  0.90997000  0.54012000  0.00118000  1.0 -0.2645409004
S  S9  1  0.57009000  0.89664000  0.18586000  1.0 -0.3010579245
S  S10  1  0.49587000  0.85138000  0.95292000  1.0 -0.2806864948
S  S11  1  0.44733000  0.85184000  0.09111000  1.0 -0.2806864948
S  S12  1  0.40997000  0.95988000  0.99882000  1.0 -0.2655908931
S  S13  1  0.92991000  0.10336000  0.68586000  1.0 -0.3010579245
S  S14  1  0.00413000  0.14862000  0.45292000  1.0 -0.2806864948
S  S15  1  0.05267000  0.14816000  0.59111000  1.0 -0.2806864948
S  S16  1  0.09003000  0.04012000  0.49882000  1.0 -0.2655908931
S  S17  1  0.31414000  0.42991000  0.39664000  1.0 -0.3010579245
S  S18  1  0.54708000  0.50413000  0.35138000  1.0 -0.2806864948
S  S19  1  0.40889000  0.55267000  0.35184000  1.0 -0.2806864948
S  S20  1  0.50118000  0.59003000  0.45988000  1.0 -0.2655908931
S  S21  1  0.81414000  0.07009000  0.60336000  1.0 -0.3010579245
S  S22  1  0.04708000  0.99587000  0.64862000  1.0 -0.2806864948
S  S23  1  0.90889000  0.94733000  0.64816000  1.0 -0.2806864948
S  S24  1  0.00118000  0.90997000  0.54012000  1.0 -0.2655908931
S  S25  1  0.18586000  0.57009000  0.89664000  1.0 -0.3010579245
S  S26  1  0.95292000  0.49587000  0.85138000  1.0 -0.2806864948
S  S27  1  0.09111000  0.44733000  0.85184000  1.0 -0.2806864948
S  S28  1  0.99882000  0.40997000  0.95988000  1.0 -0.2655908931
S  S29  1  0.68586000  0.92991000  0.10336000  1.0 -0.3010579245
S  S30  1  0.45292000  0.00413000  0.14862000  1.0 -0.2806864948
S  S31  1  0.59111000  0.05267000  0.14816000  1.0 -0.2806864948
S  S32  1  0.49882000  0.09003000  0.04012000  1.0 -0.2655908931
S  S33  1  0.39664000  0.31414000  0.42991000  1.0 -0.3010579245
S  S34  1  0.35138000  0.54708000  0.50413000  1.0 -0.2806864948
S  S35  1  0.35184000  0.40889000  0.55267000  1.0 -0.2806864948
S  S36  1  0.45988000  0.50118000  0.59003000  1.0 -0.2655908931
S  S37  1  0.60336000  0.81414000  0.07009000  1.0 -0.3010579245
S  S38  1  0.64862000  0.04708000  0.99587000  1.0 -0.2806864948
S  S39  1  0.64816000  0.90889000  0.94733000  1.0 -0.2806864948
S  S40  1  0.54012000  0.00118000  0.90997000  1.0 -0.2655908931
S  S41  1  0.89664000  0.18586000  0.57009000  1.0 -0.3010579245
S  S42  1  0.85138000  0.95292000  0.49587000  1.0 -0.2806864948
S  S43  1  0.85184000  0.09111000  0.44733000  1.0 -0.2806864948
S  S44  1  0.95988000  0.99882000  0.40997000  1.0 -0.2655908931
S  S45  1  0.10336000  0.68586000  0.92991000  1.0 -0.3010579245
S  S46  1  0.14862000  0.45292000  0.00413000  1.0 -0.2806864948
S  S47  1  0.14816000  0.59111000  0.05267000  1.0 -0.2806864948
S  S48  1  0.04012000  0.49882000  0.09003000  1.0 -0.2655908931
N  N1  1  0.38040000  0.27980000  0.30430000  1.0 -0.4472727995
N  N2  1  0.59430000  0.27100000  0.50420000  1.0 -0.4564676033
N  N3  1  0.66860000  0.36450000  0.45900000  1.0 -0.436796061
N  N4  1  0.63160000  0.36810000  0.57870000  1.0 -0.4245266215
N  N5  1  0.11960000  0.72020000  0.80430000  1.0 -0.4472727995
N  N6  1  0.90570000  0.72900000  0.00420000  1.0 -0.4564676033
N  N7  1  0.83140000  0.63550000  0.95900000  1.0 -0.436796061
N  N8  1  0.86840000  0.63190000  0.07870000  1.0 -0.4245266215
N  N9  1  0.61960000  0.77980000  0.19570000  1.0 -0.4472727995
N  N10  1  0.40570000  0.77100000  0.99580000  1.0 -0.4564676033
N  N11  1  0.33140000  0.86450000  0.04100000  1.0 -0.436796061
N  N12  1  0.36840000  0.86810000  0.92130000  1.0 -0.4245266215
N  N13  1  0.88040000  0.22020000  0.69570000  1.0 -0.4472727995
N  N14  1  0.09430000  0.22900000  0.49580000  1.0 -0.4564676033
N  N15  1  0.16860000  0.13550000  0.54100000  1.0 -0.436796061
N  N16  1  0.13160000  0.13190000  0.42130000  1.0 -0.4245266215
N  N17  1  0.30430000  0.38040000  0.27980000  1.0 -0.4472727995
N  N18  1  0.50420000  0.59430000  0.27100000  1.0 -0.4564676033
N  N19  1  0.45900000  0.66860000  0.36450000  1.0 -0.436796061
N  N20  1  0.57870000  0.63160000  0.36810000  1.0 -0.4245266215
N  N21  1  0.80430000  0.11960000  0.72020000  1.0 -0.4472727995
N  N22  1  0.00420000  0.90570000  0.72900000  1.0 -0.4564676033
N  N23  1  0.95900000  0.83140000  0.63550000  1.0 -0.436796061
N  N24  1  0.07870000  0.86840000  0.63190000  1.0 -0.4245266215
N  N25  1  0.19570000  0.61960000  0.77980000  1.0 -0.4472727995
N  N26  1  0.99580000  0.40570000  0.77100000  1.0 -0.4564676033
N  N27  1  0.04100000  0.33140000  0.86450000  1.0 -0.436796061
N  N28  1  0.92130000  0.36840000  0.86810000  1.0 -0.4245266215
N  N29  1  0.69570000  0.88040000  0.22020000  1.0 -0.4472727995
N  N30  1  0.49580000  0.09430000  0.22900000  1.0 -0.4564676033
N  N31  1  0.54100000  0.16860000  0.13550000  1.0 -0.436796061
N  N32  1  0.42130000  0.13160000  0.13190000  1.0 -0.4245266215
N  N33  1  0.27980000  0.30430000  0.38040000  1.0 -0.4472727995
N  N34  1  0.27100000  0.50420000  0.59430000  1.0 -0.4564676033
N  N35  1  0.36450000  0.45900000  0.66860000  1.0 -0.436796061
N  N36  1  0.36810000  0.57870000  0.63160000  1.0 -0.4245266215
N  N37  1  0.72020000  0.80430000  0.11960000  1.0 -0.4472727995
N  N38  1  0.72900000  0.00420000  0.90570000  1.0 -0.4564676033
N  N39  1  0.63550000  0.95900000  0.83140000  1.0 -0.436796061
N  N40  1  0.63190000  0.07870000  0.86840000  1.0 -0.4245266215
N  N41  1  0.77980000  0.19570000  0.61960000  1.0 -0.4472727995
N  N42  1  0.77100000  0.99580000  0.40570000  1.0 -0.4564676033
N  N43  1  0.86450000  0.04100000  0.33140000  1.0 -0.436796061
N  N44  1  0.86810000  0.92130000  0.36840000  1.0 -0.4245266215
N  N45  1  0.22020000  0.69570000  0.88040000  1.0 -0.4472727995
N  N46  1  0.22900000  0.49580000  0.09430000  1.0 -0.4564676033
N  N47  1  0.13550000  0.54100000  0.16860000  1.0 -0.436796061
N  N48  1  0.13190000  0.42130000  0.13160000  1.0 -0.4245266215
O  O1  1  0.44490000  0.19930000  0.25260000  1.0 -0.4472727995
O  O2  1  0.46160000  0.24870000  0.18170000  1.0 -0.4990784125
O  O3  1  0.58010000  0.15590000  0.50890000  1.0 -0.5723144011
O  O4  1  0.51280000  0.15840000  0.57300000  1.0 -0.587579091
O  O5  1  0.74880000  0.39780000  0.38710000  1.0 -0.4869470791
O  O6  1  0.72910000  0.33030000  0.32470000  1.0 -0.4472727995
O  O7  1  0.67090000  0.38870000  0.68220000  1.0 -0.3961577014
O  O8  1  0.69930000  0.47540000  0.66260000  1.0 -0.6511355535
O  O9  1  0.73030000  0.64400000  0.56070000  1.0 -1.1229588883
O  O10  1  0.51570000  0.06840000  0.52440000  1.0 -0.2419204584
O  O11  1  0.48750000  0.05770000  0.57510000  1.0 -0.1992304348
O  O12  1  0.50010000  0.07270000  0.45310000  1.0 -0.1318313476
O  O13  1  0.05510000  0.80070000  0.75260000  1.0 -0.4472727995
O  O14  1  0.03840000  0.75130000  0.68170000  1.0 -0.4990784125
O  O15  1  0.91990000  0.84410000  0.00890000  1.0 -0.5723144011
O  O16  1  0.98720000  0.84160000  0.07300000  1.0 -0.587579091
O  O17  1  0.75120000  0.60220000  0.88710000  1.0 -0.4869470791
O  O18  1  0.77090000  0.66970000  0.82470000  1.0 -0.4472727995
O  O19  1  0.82910000  0.61130000  0.18220000  1.0 -0.3961577014
O  O20  1  0.80070000  0.52460000  0.16260000  1.0 -0.6511355535
O  O21  1  0.76970000  0.35600000  0.06070000  1.0 -1.1229588883
O  O22  1  0.98430000  0.93160000  0.02440000  1.0 -0.2419204584
O  O23  1  0.01250000  0.94230000  0.07510000  1.0 -0.1992304348
O  O24  1  0.99990000  0.92730000  0.95310000  1.0 -0.1318313476
O  O25  1  0.55510000  0.69930000  0.24740000  1.0 -0.4472727995
O  O26  1  0.53840000  0.74870000  0.31830000  1.0 -0.4990784125
O  O27  1  0.41990000  0.65590000  0.99110000  1.0 -0.5723144011
O  O28  1  0.48720000  0.65840000  0.92700000  1.0 -0.587579091
O  O29  1  0.25120000  0.89780000  0.11290000  1.0 -0.4869470791
O  O30  1  0.27090000  0.83030000  0.17530000  1.0 -0.4472727995
O  O31  1  0.32910000  0.88870000  0.81780000  1.0 -0.3961577014
O  O32  1  0.30070000  0.97540000  0.83740000  1.0 -0.6511355535
O  O33  1  0.26970000  0.14400000  0.93930000  1.0 -1.1252673761
O  O34  1  0.48430000  0.56840000  0.97560000  1.0 -0.2419204584
O  O35  1  0.51250000  0.55770000  0.92490000  1.0 -0.2052552508
O  O36  1  0.49990000  0.57270000  0.04690000  1.0 -0.1318313476
O  O37  1  0.94490000  0.30070000  0.74740000  1.0 -0.4472727995
O  O38  1  0.96160000  0.25130000  0.81830000  1.0 -0.4990784125
O  O39  1  0.08010000  0.34410000  0.49110000  1.0 -0.5723144011
O  O40  1  0.01280000  0.34160000  0.42700000  1.0 -0.587579091
O  O41  1  0.24880000  0.10220000  0.61290000  1.0 -0.4869470791
O  O42  1  0.22910000  0.16970000  0.67530000  1.0 -0.4472727995
O  O43  1  0.17090000  0.11130000  0.31780000  1.0 -0.3961577014
O  O44  1  0.19930000  0.02460000  0.33740000  1.0 -0.6511355535
O  O45  1  0.23030000  0.85600000  0.43930000  1.0 -1.1229588883
O  O46  1  0.01570000  0.43160000  0.47560000  1.0 -0.2419204584
O  O47  1  0.98750000  0.44230000  0.42490000  1.0 -0.2052552508
O  O48  1  0.00010000  0.42730000  0.54690000  1.0 -0.1318313476
O  O49  1  0.25260000  0.44490000  0.19930000  1.0 -0.4472727995
O  O50  1  0.18170000  0.46160000  0.24870000  1.0 -0.4990784125
O  O51  1  0.50890000  0.58010000  0.15590000  1.0 -0.5723144011
O  O52  1  0.57300000  0.51280000  0.15840000  1.0 -0.587579091
O  O53  1  0.38710000  0.74880000  0.39780000  1.0 -0.4869470791
O  O54  1  0.32470000  0.72910000  0.33030000  1.0 -0.4472727995
O  O55  1  0.68220000  0.67090000  0.38870000  1.0 -0.3961577014
O  O56  1  0.66260000  0.69930000  0.47540000  1.0 -0.6511355535
O  O57  1  0.56070000  0.73030000  0.64400000  1.0 -1.1229588883
O  O58  1  0.52440000  0.51570000  0.06840000  1.0 -0.2419204584
O  O59  1  0.57510000  0.48750000  0.05770000  1.0 -0.2052552508
O  O60  1  0.45310000  0.50010000  0.07270000  1.0 -0.1318313476
O  O61  1  0.75260000  0.05510000  0.80070000  1.0 -0.4472727995
O  O62  1  0.68170000  0.03840000  0.75130000  1.0 -0.4990784125
O  O63  1  0.00890000  0.91990000  0.84410000  1.0 -0.5723144011
O  O64  1  0.07300000  0.98720000  0.84160000  1.0 -0.587579091
O  O65  1  0.88710000  0.75120000  0.60220000  1.0 -0.4869470791
O  O66  1  0.82470000  0.77090000  0.66970000  1.0 -0.4472727995
O  O67  1  0.18220000  0.82910000  0.61130000  1.0 -0.3961577014
O  O68  1  0.16260000  0.80070000  0.52460000  1.0 -0.6511355535
O  O69  1  0.06070000  0.76970000  0.35600000  1.0 -1.1229588883
O  O70  1  0.02440000  0.98430000  0.93160000  1.0 -0.2419204584
O  O71  1  0.07510000  0.01250000  0.94230000  1.0 -0.1992304348
O  O72  1  0.95310000  0.99990000  0.92730000  1.0 -0.1318313476
O  O73  1  0.24740000  0.55510000  0.69930000  1.0 -0.4472727995
O  O74  1  0.31830000  0.53840000  0.74870000  1.0 -0.4990784125
O  O75  1  0.99110000  0.41990000  0.65590000  1.0 -0.5723144011
O  O76  1  0.92700000  0.48720000  0.65840000  1.0 -0.587579091
O  O77  1  0.11290000  0.25120000  0.89780000  1.0 -0.4869470791
O  O78  1  0.17530000  0.27090000  0.83030000  1.0 -0.4472727995
O  O79  1  0.81780000  0.32910000  0.88870000  1.0 -0.3961577014
O  O80  1  0.83740000  0.30070000  0.97540000  1.0 -0.6511355535
O  O81  1  0.93930000  0.26970000  0.14400000  1.0 -1.1229588883
O  O82  1  0.97560000  0.48430000  0.56840000  1.0 -0.2419204584
O  O83  1  0.92490000  0.51250000  0.55770000  1.0 -0.2052552508
O  O84  1  0.04690000  0.49990000  0.57270000  1.0 -0.1318313476
O  O85  1  0.74740000  0.94490000  0.30070000  1.0 -0.4472727995
O  O86  1  0.81830000  0.96160000  0.25130000  1.0 -0.4990784125
O  O87  1  0.49110000  0.08010000  0.34410000  1.0 -0.5723144011
O  O88  1  0.42700000  0.01280000  0.34160000  1.0 -0.587579091
O  O89  1  0.61290000  0.24880000  0.10220000  1.0 -0.4869470791
O  O90  1  0.67530000  0.22910000  0.16970000  1.0 -0.4472727995
O  O91  1  0.31780000  0.17090000  0.11130000  1.0 -0.3961577014
O  O92  1  0.33740000  0.19930000  0.02460000  1.0 -0.6511355535
O  O93  1  0.43930000  0.23030000  0.85600000  1.0 -1.1252673761
O  O94  1  0.47560000  0.01570000  0.43160000  1.0 -0.2419204584
O  O95  1  0.42490000  0.98750000  0.44230000  1.0 -0.1992304348
O  O96  1  0.54690000  0.00010000  0.42730000  1.0 -0.1318313476
O  O97  1  0.19930000  0.25260000  0.44490000  1.0 -0.4472727995
O  O98  1  0.24870000  0.18170000  0.46160000  1.0 -0.4990784125
O  O99  1  0.15590000  0.50890000  0.58010000  1.0 -0.5723144011
O  O100  1  0.15840000  0.57300000  0.51280000  1.0 -0.587579091
O  O101  1  0.39780000  0.38710000  0.74880000  1.0 -0.4869470791
O  O102  1  0.33030000  0.32470000  0.72910000  1.0 -0.4472727995
O  O103  1  0.38870000  0.68220000  0.67090000  1.0 -0.3961577014
O  O104  1  0.47540000  0.66260000  0.69930000  1.0 -0.6511355535
O  O105  1  0.64400000  0.56070000  0.73030000  1.0 -1.1229588883
O  O106  1  0.06840000  0.52440000  0.51570000  1.0 -0.2419204584
O  O107  1  0.05770000  0.57510000  0.48750000  1.0 -0.1992304348
O  O108  1  0.07270000  0.45310000  0.50010000  1.0 -0.1318313476
O  O109  1  0.80070000  0.75260000  0.05510000  1.0 -0.4472727995
O  O110  1  0.75130000  0.68170000  0.03840000  1.0 -0.4990784125
O  O111  1  0.84410000  0.00890000  0.91990000  1.0 -0.5723144011
O  O112  1  0.84160000  0.07300000  0.98720000  1.0 -0.587579091
O  O113  1  0.60220000  0.88710000  0.75120000  1.0 -0.4869470791
O  O114  1  0.66970000  0.82470000  0.77090000  1.0 -0.4472727995
O  O115  1  0.61130000  0.18220000  0.82910000  1.0 -0.3961577014
O  O116  1  0.52460000  0.16260000  0.80070000  1.0 -0.6511355535
O  O117  1  0.35600000  0.06070000  0.76970000  1.0 -1.1252673761
O  O118  1  0.93160000  0.02440000  0.98430000  1.0 -0.2419204584
O  O119  1  0.94230000  0.07510000  0.01250000  1.0 -0.1992304348
O  O120  1  0.92730000  0.95310000  0.99990000  1.0 -0.1318313476
O  O121  1  0.69930000  0.24740000  0.55510000  1.0 -0.4472727995
O  O122  1  0.74870000  0.31830000  0.53840000  1.0 -0.4990784125
O  O123  1  0.65590000  0.99110000  0.41990000  1.0 -0.5723144011
O  O124  1  0.65840000  0.92700000  0.48720000  1.0 -0.587579091
O  O125  1  0.89780000  0.11290000  0.25120000  1.0 -0.4869470791
O  O126  1  0.83030000  0.17530000  0.27090000  1.0 -0.4472727995
O  O127  1  0.88870000  0.81780000  0.32910000  1.0 -0.3961577014
O  O128  1  0.97540000  0.83740000  0.30070000  1.0 -0.6511355535
O  O129  1  0.14400000  0.93930000  0.26970000  1.0 -1.1229588883
O  O130  1  0.56840000  0.97560000  0.48430000  1.0 -0.2419204584
O  O131  1  0.55770000  0.92490000  0.51250000  1.0 -0.2052552508
O  O132  1  0.57270000  0.04690000  0.49990000  1.0 -0.1318313476
O  O133  1  0.30070000  0.74740000  0.94490000  1.0 -0.4472727995
O  O134  1  0.25130000  0.81830000  0.96160000  1.0 -0.4990784125
O  O135  1  0.34410000  0.49110000  0.08010000  1.0 -0.5723144011
O  O136  1  0.34160000  0.42700000  0.01280000  1.0 -0.587579091
O  O137  1  0.10220000  0.61290000  0.24880000  1.0 -0.4869470791
O  O138  1  0.16970000  0.67530000  0.22910000  1.0 -0.4472727995
O  O139  1  0.11130000  0.31780000  0.17090000  1.0 -0.3961577014
O  O140  1  0.02460000  0.33740000  0.19930000  1.0 -0.6511355535
O  O141  1  0.85600000  0.43930000  0.23030000  1.0 -1.1229588883
O  O142  1  0.43160000  0.47560000  0.01570000  1.0 -0.2419204584
O  O143  1  0.44230000  0.42490000  0.98750000  1.0 -0.1992304348
O  O144  1  0.42730000  0.54690000  0.00010000  1.0 -0.1318313476
O  O145  1  0.45123000  0.45123000  0.45123000  1.0 -0.8043105797
O  O146  1  0.04877000  0.54877000  0.95123000  1.0 -0.8043105797
O  O147  1  0.54877000  0.95123000  0.04877000  1.0 -0.8043105797
O  O148  1  0.95123000  0.04877000  0.54877000  1.0 -0.8043105797
O  O149  1  0.60170000  0.10170000  0.39830000  1.0 -0.4346583979
O  O150  1  0.89830000  0.89830000  0.89830000  1.0 -0.4346583979
O  O151  1  0.39830000  0.60170000  0.10170000  1.0 -0.436796061
O  O152  1  0.10170000  0.39830000  0.60170000  1.0 -0.436796061
