# DDEC6 charges by PACMAN v1.1 (https://github.com/mtap-research/PACMAN-charge/)
data_DACNEE_ASR_pacman
_symmetry_space_group_name_H-M   'P 1'
_cell_length_a   23.54400000
_cell_length_b   23.54400000
_cell_length_c   23.54400000
_cell_angle_alpha   90.00000000
_cell_angle_beta   90.00000000
_cell_angle_gamma   90.00000000
_symmetry_Int_Tables_number   1
_chemical_formula_structural   Pr10Zn4H60Rh4C36S12N12O53
_chemical_formula_sum   'Pr40 Zn16 H240 Rh16 C144 S48 N48 O212'
_cell_volume   13050.90857318
_cell_formula_units_Z   4
loop_
 _symmetry_equiv_pos_site_id
 _symmetry_equiv_pos_as_xyz
  1  'x, y, z'
loop_
 _atom_site_type_symbol
 _atom_site_label
 _atom_site_symmetry_multiplicity
 _atom_site_fract_x
 _atom_site_fract_y
 _atom_site_fract_z
 _atom_site_occupancy
 _atom_site_charge
Pr  Pr1  1  0.59542000  0.06005000  0.49727000  1.0 0.8199471264
Pr  Pr2  1  0.71060000  0.29817000  0.22865000  1.0 0.0618547498
Pr  Pr3  1  0.75420000  0.58320000  0.63810000  1.0 1.2705110745
Pr  Pr4  1  0.90458000  0.93995000  0.99727000  1.0 0.8199471264
Pr  Pr5  1  0.78940000  0.70183000  0.72865000  1.0 0.0618547498
Pr  Pr6  1  0.74580000  0.41680000  0.13810000  1.0 1.2705110745
Pr  Pr7  1  0.40458000  0.56005000  0.00273000  1.0 0.8199471264
Pr  Pr8  1  0.28940000  0.79817000  0.27135000  1.0 0.0669763825
Pr  Pr9  1  0.24580000  0.08320000  0.86190000  1.0 1.2773230254
Pr  Pr10  1  0.09542000  0.43995000  0.50273000  1.0 0.8199471264
Pr  Pr11  1  0.21060000  0.20183000  0.77135000  1.0 0.0478433371
Pr  Pr12  1  0.25420000  0.91680000  0.36190000  1.0 1.2705110745
Pr  Pr13  1  0.49727000  0.59542000  0.06005000  1.0 0.8199471264
Pr  Pr14  1  0.22865000  0.71060000  0.29817000  1.0 0.0669763825
Pr  Pr15  1  0.63810000  0.75420000  0.58320000  1.0 1.2705110745
Pr  Pr16  1  0.99727000  0.90458000  0.93995000  1.0 0.8199471264
Pr  Pr17  1  0.72865000  0.78940000  0.70183000  1.0 0.0618547498
Pr  Pr18  1  0.13810000  0.74580000  0.41680000  1.0 1.2645608961
Pr  Pr19  1  0.00273000  0.40458000  0.56005000  1.0 0.8199471264
Pr  Pr20  1  0.27135000  0.28940000  0.79817000  1.0 0.0669763825
Pr  Pr21  1  0.86190000  0.24580000  0.08320000  1.0 1.2773230254
Pr  Pr22  1  0.50273000  0.09542000  0.43995000  1.0 0.8199471264
Pr  Pr23  1  0.77135000  0.21060000  0.20183000  1.0 0.0478433371
Pr  Pr24  1  0.36190000  0.25420000  0.91680000  1.0 1.2773230254
Pr  Pr25  1  0.06005000  0.49727000  0.59542000  1.0 0.8199471264
Pr  Pr26  1  0.29817000  0.22865000  0.71060000  1.0 0.0618547498
Pr  Pr27  1  0.58320000  0.63810000  0.75420000  1.0 1.2705110745
Pr  Pr28  1  0.93995000  0.99727000  0.90458000  1.0 0.8199471264
Pr  Pr29  1  0.70183000  0.72865000  0.78940000  1.0 0.0618547498
Pr  Pr30  1  0.41680000  0.13810000  0.74580000  1.0 1.2705110745
Pr  Pr31  1  0.56005000  0.00273000  0.40458000  1.0 0.8199471264
Pr  Pr32  1  0.79817000  0.27135000  0.28940000  1.0 0.0669763825
Pr  Pr33  1  0.08320000  0.86190000  0.24580000  1.0 1.2773230254
Pr  Pr34  1  0.43995000  0.50273000  0.09542000  1.0 0.8199471264
Pr  Pr35  1  0.20183000  0.77135000  0.21060000  1.0 0.0478433371
Pr  Pr36  1  0.91680000  0.36190000  0.25420000  1.0 1.2705110745
Pr  Pr37  1  0.48944000  0.98944000  0.51056000  1.0 0.4548736691
Pr  Pr38  1  0.01056000  0.01056000  0.01056000  1.0 0.4548736691
Pr  Pr39  1  0.51056000  0.48944000  0.98944000  1.0 0.4548736691
Pr  Pr40  1  0.98944000  0.51056000  0.48944000  1.0 0.4548736691
Zn  Zn1  1  0.49673000  0.43125000  0.38710000  1.0 0.5266681444
Zn  Zn2  1  0.00327000  0.56875000  0.88710000  1.0 0.5266681444
Zn  Zn3  1  0.50327000  0.93125000  0.11290000  1.0 0.5266681444
Zn  Zn4  1  0.99673000  0.06875000  0.61290000  1.0 0.5266681444
Zn  Zn5  1  0.38710000  0.49673000  0.43125000  1.0 0.5266681444
Zn  Zn6  1  0.88710000  0.00327000  0.56875000  1.0 0.5266681444
Zn  Zn7  1  0.11290000  0.50327000  0.93125000  1.0 0.5266681444
Zn  Zn8  1  0.61290000  0.99673000  0.06875000  1.0 0.5266681444
Zn  Zn9  1  0.43125000  0.38710000  0.49673000  1.0 0.5266681444
Zn  Zn10  1  0.56875000  0.88710000  0.00327000  1.0 0.5266681444
Zn  Zn11  1  0.93125000  0.11290000  0.50327000  1.0 0.5266681444
Zn  Zn12  1  0.06875000  0.61290000  0.99673000  1.0 0.5266681444
Zn  Zn13  1  0.50256000  0.50256000  0.50256000  1.0 0.5266681444
Zn  Zn14  1  0.99744000  0.49744000  0.00256000  1.0 0.5266681444
Zn  Zn15  1  0.49744000  0.00256000  0.99744000  1.0 0.5266681444
Zn  Zn16  1  0.00256000  0.99744000  0.49744000  1.0 0.5266681444
H  H1  1  0.39887000  0.25792000  0.33148000  1.0 0.2578285309
H  H2  1  0.35236000  0.26588000  0.29052000  1.0 0.2578285309
H  H3  1  0.58959000  0.26122000  0.47271000  1.0 0.2512046666
H  H4  1  0.63553000  0.26568000  0.51479000  1.0 0.2399991293
H  H5  1  0.68556000  0.40425000  0.45944000  1.0 0.2512046666
H  H6  1  0.69903000  0.34701000  0.48048000  1.0 0.2512046666
H  H7  1  0.61107000  0.36339000  0.60816000  1.0 0.2512046666
H  H8  1  0.66421000  0.34458000  0.58137000  1.0 0.2512046666
H  H9  1  0.49722000  0.34854000  0.25962000  1.0 0.1264714789
H  H10  1  0.48925000  0.31680000  0.31948000  1.0 0.1106146965
H  H11  1  0.40419000  0.32152000  0.23279000  1.0 0.0884588477
H  H12  1  0.47707000  0.26352000  0.57549000  1.0 0.1179494663
H  H13  1  0.48618000  0.26728000  0.50804000  1.0 0.1106146965
H  H14  1  0.57580000  0.26407000  0.58946000  1.0 0.0837026193
H  H15  1  0.61703000  0.35883000  0.33264000  1.0 0.1264714789
H  H16  1  0.62510000  0.41527000  0.37018000  1.0 0.1106146965
H  H17  1  0.66293000  0.30407000  0.40506000  1.0 0.0884588477
H  H18  1  0.63315000  0.51138000  0.58351000  1.0 0.0968261042
H  H19  1  0.58470000  0.46784000  0.60370000  1.0 0.1179494663
H  H20  1  0.69300000  0.43422000  0.56184000  1.0 0.0884588477
H  H21  1  0.10113000  0.74208000  0.83148000  1.0 0.2578285309
H  H22  1  0.14764000  0.73412000  0.79052000  1.0 0.2578285309
H  H23  1  0.91041000  0.73878000  0.97271000  1.0 0.2512046666
H  H24  1  0.86447000  0.73432000  0.01479000  1.0 0.2399991293
H  H25  1  0.81444000  0.59575000  0.95944000  1.0 0.2578285309
H  H26  1  0.80097000  0.65299000  0.98048000  1.0 0.2512046666
H  H27  1  0.88893000  0.63661000  0.10816000  1.0 0.2512046666
H  H28  1  0.83579000  0.65542000  0.08137000  1.0 0.2512046666
H  H29  1  0.00278000  0.65146000  0.75962000  1.0 0.1264714789
H  H30  1  0.01075000  0.68320000  0.81948000  1.0 0.1106146965
H  H31  1  0.09581000  0.67848000  0.73279000  1.0 0.0884588477
H  H32  1  0.02293000  0.73648000  0.07549000  1.0 0.1179494663
H  H33  1  0.01382000  0.73272000  0.00804000  1.0 0.1106146965
H  H34  1  0.92420000  0.73593000  0.08946000  1.0 0.0837026193
H  H35  1  0.88297000  0.64117000  0.83264000  1.0 0.1264714789
H  H36  1  0.87490000  0.58473000  0.87018000  1.0 0.1106146965
H  H37  1  0.83707000  0.69593000  0.90506000  1.0 0.0884588477
H  H38  1  0.86685000  0.48862000  0.08351000  1.0 0.0968261042
H  H39  1  0.91530000  0.53216000  0.10370000  1.0 0.1179494663
H  H40  1  0.80700000  0.56578000  0.06184000  1.0 0.0884588477
H  H41  1  0.60113000  0.75792000  0.16852000  1.0 0.2578285309
H  H42  1  0.64764000  0.76588000  0.20948000  1.0 0.2578285309
H  H43  1  0.41041000  0.76122000  0.02729000  1.0 0.2578285309
H  H44  1  0.36447000  0.76568000  0.98521000  1.0 0.2399991293
H  H45  1  0.31444000  0.90425000  0.04056000  1.0 0.2578285309
H  H46  1  0.30097000  0.84701000  0.01952000  1.0 0.2512046666
H  H47  1  0.38893000  0.86339000  0.89184000  1.0 0.2512046666
H  H48  1  0.33579000  0.84458000  0.91863000  1.0 0.2512046666
H  H49  1  0.50278000  0.84854000  0.24038000  1.0 0.1264714789
H  H50  1  0.51075000  0.81680000  0.18052000  1.0 0.1106146965
H  H51  1  0.59581000  0.82152000  0.26721000  1.0 0.0884588477
H  H52  1  0.52293000  0.76352000  0.92451000  1.0 0.1179494663
H  H53  1  0.51382000  0.76728000  0.99196000  1.0 0.1106146965
H  H54  1  0.42420000  0.76407000  0.91054000  1.0 0.0837026193
H  H55  1  0.38297000  0.85883000  0.16736000  1.0 0.1264714789
H  H56  1  0.37490000  0.91527000  0.12982000  1.0 0.1106146965
H  H57  1  0.33707000  0.80407000  0.09494000  1.0 0.0884588477
H  H58  1  0.36685000  0.01138000  0.91649000  1.0 0.0968261042
H  H59  1  0.41530000  0.96784000  0.89630000  1.0 0.1179494663
H  H60  1  0.30700000  0.93422000  0.93816000  1.0 0.0884588477
H  H61  1  0.89887000  0.24208000  0.66852000  1.0 0.2578285309
H  H62  1  0.85236000  0.23412000  0.70948000  1.0 0.2578285309
H  H63  1  0.08959000  0.23878000  0.52729000  1.0 0.2512046666
H  H64  1  0.13553000  0.23432000  0.48521000  1.0 0.2399991293
H  H65  1  0.18556000  0.09575000  0.54056000  1.0 0.2512046666
H  H66  1  0.19903000  0.15299000  0.51952000  1.0 0.2399991293
H  H67  1  0.11107000  0.13661000  0.39184000  1.0 0.2512046666
H  H68  1  0.16421000  0.15542000  0.41863000  1.0 0.2512046666
H  H69  1  0.99722000  0.15146000  0.74038000  1.0 0.1264714789
H  H70  1  0.98925000  0.18320000  0.68052000  1.0 0.1106146965
H  H71  1  0.90419000  0.17848000  0.76721000  1.0 0.0884588477
H  H72  1  0.97707000  0.23648000  0.42451000  1.0 0.1179494663
H  H73  1  0.98618000  0.23272000  0.49196000  1.0 0.1106146965
H  H74  1  0.07580000  0.23593000  0.41054000  1.0 0.0837026193
H  H75  1  0.11703000  0.14117000  0.66736000  1.0 0.1264714789
H  H76  1  0.12510000  0.08473000  0.62982000  1.0 0.1106146965
H  H77  1  0.16293000  0.19593000  0.59494000  1.0 0.0884588477
H  H78  1  0.13315000  0.98862000  0.41649000  1.0 0.0968261042
H  H79  1  0.08470000  0.03216000  0.39630000  1.0 0.1179494663
H  H80  1  0.19300000  0.06578000  0.43816000  1.0 0.0884588477
H  H81  1  0.33148000  0.39887000  0.25792000  1.0 0.2578285309
H  H82  1  0.29052000  0.35236000  0.26588000  1.0 0.2578285309
H  H83  1  0.47271000  0.58959000  0.26122000  1.0 0.2512046666
H  H84  1  0.51479000  0.63553000  0.26568000  1.0 0.2399991293
H  H85  1  0.45944000  0.68556000  0.40425000  1.0 0.2512046666
H  H86  1  0.48048000  0.69903000  0.34701000  1.0 0.2512046666
H  H87  1  0.60816000  0.61107000  0.36339000  1.0 0.2512046666
H  H88  1  0.58137000  0.66421000  0.34458000  1.0 0.2512046666
H  H89  1  0.25962000  0.49722000  0.34854000  1.0 0.1264714789
H  H90  1  0.31948000  0.48925000  0.31680000  1.0 0.1106146965
H  H91  1  0.23279000  0.40419000  0.32152000  1.0 0.0884588477
H  H92  1  0.57549000  0.47707000  0.26352000  1.0 0.1179494663
H  H93  1  0.50804000  0.48618000  0.26728000  1.0 0.1106146965
H  H94  1  0.58946000  0.57580000  0.26407000  1.0 0.0837026193
H  H95  1  0.33264000  0.61703000  0.35883000  1.0 0.1264714789
H  H96  1  0.37018000  0.62510000  0.41527000  1.0 0.1106146965
H  H97  1  0.40506000  0.66293000  0.30407000  1.0 0.0884588477
H  H98  1  0.58351000  0.63315000  0.51138000  1.0 0.0968261042
H  H99  1  0.60370000  0.58470000  0.46784000  1.0 0.1179494663
H  H100  1  0.56184000  0.69300000  0.43422000  1.0 0.0884588477
H  H101  1  0.83148000  0.10113000  0.74208000  1.0 0.2578285309
H  H102  1  0.79052000  0.14764000  0.73412000  1.0 0.2512046666
H  H103  1  0.97271000  0.91041000  0.73878000  1.0 0.2512046666
H  H104  1  0.01479000  0.86447000  0.73432000  1.0 0.2399991293
H  H105  1  0.95944000  0.81444000  0.59575000  1.0 0.2578285309
H  H106  1  0.98048000  0.80097000  0.65299000  1.0 0.2512046666
H  H107  1  0.10816000  0.88893000  0.63661000  1.0 0.2512046666
H  H108  1  0.08137000  0.83579000  0.65542000  1.0 0.2512046666
H  H109  1  0.75962000  0.00278000  0.65146000  1.0 0.1264714789
H  H110  1  0.81948000  0.01075000  0.68320000  1.0 0.1106146965
H  H111  1  0.73279000  0.09581000  0.67848000  1.0 0.0884588477
H  H112  1  0.07549000  0.02293000  0.73648000  1.0 0.1179494663
H  H113  1  0.00804000  0.01382000  0.73272000  1.0 0.1106146965
H  H114  1  0.08946000  0.92420000  0.73593000  1.0 0.0837026193
H  H115  1  0.83264000  0.88297000  0.64117000  1.0 0.1264714789
H  H116  1  0.87018000  0.87490000  0.58473000  1.0 0.1106146965
H  H117  1  0.90506000  0.83707000  0.69593000  1.0 0.0884588477
H  H118  1  0.08351000  0.86685000  0.48862000  1.0 0.0968261042
H  H119  1  0.10370000  0.91530000  0.53216000  1.0 0.1179494663
H  H120  1  0.06184000  0.80700000  0.56578000  1.0 0.0884588477
H  H121  1  0.16852000  0.60113000  0.75792000  1.0 0.2578285309
H  H122  1  0.20948000  0.64764000  0.76588000  1.0 0.2578285309
H  H123  1  0.02729000  0.41041000  0.76122000  1.0 0.2512046666
H  H124  1  0.98521000  0.36447000  0.76568000  1.0 0.2399991293
H  H125  1  0.04056000  0.31444000  0.90425000  1.0 0.2578285309
H  H126  1  0.01952000  0.30097000  0.84701000  1.0 0.2512046666
H  H127  1  0.89184000  0.38893000  0.86339000  1.0 0.2512046666
H  H128  1  0.91863000  0.33579000  0.84458000  1.0 0.2512046666
H  H129  1  0.24038000  0.50278000  0.84854000  1.0 0.1264714789
H  H130  1  0.18052000  0.51075000  0.81680000  1.0 0.1106146965
H  H131  1  0.26721000  0.59581000  0.82152000  1.0 0.0884588477
H  H132  1  0.92451000  0.52293000  0.76352000  1.0 0.1179494663
H  H133  1  0.99196000  0.51382000  0.76728000  1.0 0.1106146965
H  H134  1  0.91054000  0.42420000  0.76407000  1.0 0.0837026193
H  H135  1  0.16736000  0.38297000  0.85883000  1.0 0.1264714789
H  H136  1  0.12982000  0.37490000  0.91527000  1.0 0.1106146965
H  H137  1  0.09494000  0.33707000  0.80407000  1.0 0.0884588477
H  H138  1  0.91649000  0.36685000  0.01138000  1.0 0.0968261042
H  H139  1  0.89630000  0.41530000  0.96784000  1.0 0.1179494663
H  H140  1  0.93816000  0.30700000  0.93422000  1.0 0.0884588477
H  H141  1  0.66852000  0.89887000  0.24208000  1.0 0.2578285309
H  H142  1  0.70948000  0.85236000  0.23412000  1.0 0.2578285309
H  H143  1  0.52729000  0.08959000  0.23878000  1.0 0.2512046666
H  H144  1  0.48521000  0.13553000  0.23432000  1.0 0.2399991293
H  H145  1  0.54056000  0.18556000  0.09575000  1.0 0.2512046666
H  H146  1  0.51952000  0.19903000  0.15299000  1.0 0.2399991293
H  H147  1  0.39184000  0.11107000  0.13661000  1.0 0.2512046666
H  H148  1  0.41863000  0.16421000  0.15542000  1.0 0.2512046666
H  H149  1  0.74038000  0.99722000  0.15146000  1.0 0.1264714789
H  H150  1  0.68052000  0.98925000  0.18320000  1.0 0.1106146965
H  H151  1  0.76721000  0.90419000  0.17848000  1.0 0.0884588477
H  H152  1  0.42451000  0.97707000  0.23648000  1.0 0.1179494663
H  H153  1  0.49196000  0.98618000  0.23272000  1.0 0.1106146965
H  H154  1  0.41054000  0.07580000  0.23593000  1.0 0.0837026193
H  H155  1  0.66736000  0.11703000  0.14117000  1.0 0.1264714789
H  H156  1  0.62982000  0.12510000  0.08473000  1.0 0.1106146965
H  H157  1  0.59494000  0.16293000  0.19593000  1.0 0.0884588477
H  H158  1  0.41649000  0.13315000  0.98862000  1.0 0.0968261042
H  H159  1  0.39630000  0.08470000  0.03216000  1.0 0.1179494663
H  H160  1  0.43816000  0.19300000  0.06578000  1.0 0.0884588477
H  H161  1  0.25792000  0.33148000  0.39887000  1.0 0.2578285309
H  H162  1  0.26588000  0.29052000  0.35236000  1.0 0.2512046666
H  H163  1  0.26122000  0.47271000  0.58959000  1.0 0.2512046666
H  H164  1  0.26568000  0.51479000  0.63553000  1.0 0.2399991293
H  H165  1  0.40425000  0.45944000  0.68556000  1.0 0.2512046666
H  H166  1  0.34701000  0.48048000  0.69903000  1.0 0.2512046666
H  H167  1  0.36339000  0.60816000  0.61107000  1.0 0.2512046666
H  H168  1  0.34458000  0.58137000  0.66421000  1.0 0.2512046666
H  H169  1  0.34854000  0.25962000  0.49722000  1.0 0.1264714789
H  H170  1  0.31680000  0.31948000  0.48925000  1.0 0.1106146965
H  H171  1  0.32152000  0.23279000  0.40419000  1.0 0.0884588477
H  H172  1  0.26352000  0.57549000  0.47707000  1.0 0.1179494663
H  H173  1  0.26728000  0.50804000  0.48618000  1.0 0.1106146965
H  H174  1  0.26407000  0.58946000  0.57580000  1.0 0.0837026193
H  H175  1  0.35883000  0.33264000  0.61703000  1.0 0.1264714789
H  H176  1  0.41527000  0.37018000  0.62510000  1.0 0.1106146965
H  H177  1  0.30407000  0.40506000  0.66293000  1.0 0.0884588477
H  H178  1  0.51138000  0.58351000  0.63315000  1.0 0.0968261042
H  H179  1  0.46784000  0.60370000  0.58470000  1.0 0.1179494663
H  H180  1  0.43422000  0.56184000  0.69300000  1.0 0.0884588477
H  H181  1  0.74208000  0.83148000  0.10113000  1.0 0.2578285309
H  H182  1  0.73412000  0.79052000  0.14764000  1.0 0.2578285309
H  H183  1  0.73878000  0.97271000  0.91041000  1.0 0.2512046666
H  H184  1  0.73432000  0.01479000  0.86447000  1.0 0.2399991293
H  H185  1  0.59575000  0.95944000  0.81444000  1.0 0.2578285309
H  H186  1  0.65299000  0.98048000  0.80097000  1.0 0.2512046666
H  H187  1  0.63661000  0.10816000  0.88893000  1.0 0.2512046666
H  H188  1  0.65542000  0.08137000  0.83579000  1.0 0.2512046666
H  H189  1  0.65146000  0.75962000  0.00278000  1.0 0.1264714789
H  H190  1  0.68320000  0.81948000  0.01075000  1.0 0.1106146965
H  H191  1  0.67848000  0.73279000  0.09581000  1.0 0.0884588477
H  H192  1  0.73648000  0.07549000  0.02293000  1.0 0.1179494663
H  H193  1  0.73272000  0.00804000  0.01382000  1.0 0.1106146965
H  H194  1  0.73593000  0.08946000  0.92420000  1.0 0.0837026193
H  H195  1  0.64117000  0.83264000  0.88297000  1.0 0.1264714789
H  H196  1  0.58473000  0.87018000  0.87490000  1.0 0.1106146965
H  H197  1  0.69593000  0.90506000  0.83707000  1.0 0.0884588477
H  H198  1  0.48862000  0.08351000  0.86685000  1.0 0.0968261042
H  H199  1  0.53216000  0.10370000  0.91530000  1.0 0.1179494663
H  H200  1  0.56578000  0.06184000  0.80700000  1.0 0.0884588477
H  H201  1  0.75792000  0.16852000  0.60113000  1.0 0.2578285309
H  H202  1  0.76588000  0.20948000  0.64764000  1.0 0.2512046666
H  H203  1  0.76122000  0.02729000  0.41041000  1.0 0.2578285309
H  H204  1  0.76568000  0.98521000  0.36447000  1.0 0.2399991293
H  H205  1  0.90425000  0.04056000  0.31444000  1.0 0.2578285309
H  H206  1  0.84701000  0.01952000  0.30097000  1.0 0.2512046666
H  H207  1  0.86339000  0.89184000  0.38893000  1.0 0.2512046666
H  H208  1  0.84458000  0.91863000  0.33579000  1.0 0.2512046666
H  H209  1  0.84854000  0.24038000  0.50278000  1.0 0.1264714789
H  H210  1  0.81680000  0.18052000  0.51075000  1.0 0.1106146965
H  H211  1  0.82152000  0.26721000  0.59581000  1.0 0.0884588477
H  H212  1  0.76352000  0.92451000  0.52293000  1.0 0.1179494663
H  H213  1  0.76728000  0.99196000  0.51382000  1.0 0.1106146965
H  H214  1  0.76407000  0.91054000  0.42420000  1.0 0.0837026193
H  H215  1  0.85883000  0.16736000  0.38297000  1.0 0.1264714789
H  H216  1  0.91527000  0.12982000  0.37490000  1.0 0.1106146965
H  H217  1  0.80407000  0.09494000  0.33707000  1.0 0.0884588477
H  H218  1  0.01138000  0.91649000  0.36685000  1.0 0.0968261042
H  H219  1  0.96784000  0.89630000  0.41530000  1.0 0.1179494663
H  H220  1  0.93422000  0.93816000  0.30700000  1.0 0.0884588477
H  H221  1  0.24208000  0.66852000  0.89887000  1.0 0.2578285309
H  H222  1  0.23412000  0.70948000  0.85236000  1.0 0.2578285309
H  H223  1  0.23878000  0.52729000  0.08959000  1.0 0.2512046666
H  H224  1  0.23432000  0.48521000  0.13553000  1.0 0.2399991293
H  H225  1  0.09575000  0.54056000  0.18556000  1.0 0.2512046666
H  H226  1  0.15299000  0.51952000  0.19903000  1.0 0.2399991293
H  H227  1  0.13661000  0.39184000  0.11107000  1.0 0.2512046666
H  H228  1  0.15542000  0.41863000  0.16421000  1.0 0.2512046666
H  H229  1  0.15146000  0.74038000  0.99722000  1.0 0.1264714789
H  H230  1  0.18320000  0.68052000  0.98925000  1.0 0.1106146965
H  H231  1  0.17848000  0.76721000  0.90419000  1.0 0.0884588477
H  H232  1  0.23648000  0.42451000  0.97707000  1.0 0.1179494663
H  H233  1  0.23272000  0.49196000  0.98618000  1.0 0.1106146965
H  H234  1  0.23593000  0.41054000  0.07580000  1.0 0.0837026193
H  H235  1  0.14117000  0.66736000  0.11703000  1.0 0.1264714789
H  H236  1  0.08473000  0.62982000  0.12510000  1.0 0.1106146965
H  H237  1  0.19593000  0.59494000  0.16293000  1.0 0.0884588477
H  H238  1  0.98862000  0.41649000  0.13315000  1.0 0.0968261042
H  H239  1  0.03216000  0.39630000  0.08470000  1.0 0.1179494663
H  H240  1  0.06578000  0.43816000  0.19300000  1.0 0.0884588477
Rh  Rh1  1  0.59483000  0.36461000  0.50238000  1.0 0.4769734744
Rh  Rh2  1  0.90517000  0.63539000  0.00238000  1.0 0.4769734744
Rh  Rh3  1  0.40517000  0.86461000  0.99762000  1.0 0.4769734744
Rh  Rh4  1  0.09483000  0.13539000  0.49762000  1.0 0.4769734744
Rh  Rh5  1  0.50238000  0.59483000  0.36461000  1.0 0.4769734744
Rh  Rh6  1  0.00238000  0.90517000  0.63539000  1.0 0.4769734744
Rh  Rh7  1  0.99762000  0.40517000  0.86461000  1.0 0.4769734744
Rh  Rh8  1  0.49762000  0.09483000  0.13539000  1.0 0.4769734744
Rh  Rh9  1  0.36461000  0.50238000  0.59483000  1.0 0.4769734744
Rh  Rh10  1  0.63539000  0.00238000  0.90517000  1.0 0.4769734744
Rh  Rh11  1  0.86461000  0.99762000  0.40517000  1.0 0.4769734744
Rh  Rh12  1  0.13539000  0.49762000  0.09483000  1.0 0.4769734744
Rh  Rh13  1  0.35372000  0.35372000  0.35372000  1.0 0.470178376
Rh  Rh14  1  0.14628000  0.64628000  0.85372000  1.0 0.470178376
Rh  Rh15  1  0.64628000  0.85372000  0.14628000  1.0 0.470178376
Rh  Rh16  1  0.85372000  0.14628000  0.64628000  1.0 0.470178376
C  C1  1  0.46910000  0.33720000  0.28870000  1.0 -0.2091605169
C  C2  1  0.42460000  0.29930000  0.26270000  1.0 -0.0161708064
C  C3  1  0.45000000  0.24590000  0.23450000  1.0 0.3867826613
C  C4  1  0.50260000  0.27790000  0.54530000  1.0 -0.2091605169
C  C5  1  0.56060000  0.25200000  0.55170000  1.0 -0.0035204824
C  C6  1  0.55900000  0.18810000  0.55130000  1.0 0.548629704
C  C7  1  0.62000000  0.37360000  0.37190000  1.0 -0.2311487256
C  C8  1  0.67050000  0.34580000  0.40280000  1.0 0.0244536611
C  C9  1  0.72590000  0.35450000  0.36800000  1.0 0.5266681444
C  C10  1  0.61740000  0.47280000  0.57780000  1.0 -0.2015466165
C  C11  1  0.66200000  0.42900000  0.59050000  1.0 -0.0260329953
C  C12  1  0.68810000  0.43360000  0.64610000  1.0 0.541375625
C  C13  1  0.03090000  0.66280000  0.78870000  1.0 -0.2091605169
C  C14  1  0.07540000  0.70070000  0.76270000  1.0 -0.013617469
C  C15  1  0.05000000  0.75410000  0.73450000  1.0 0.3867826613
C  C16  1  0.99740000  0.72210000  0.04530000  1.0 -0.2091605169
C  C17  1  0.93940000  0.74800000  0.05170000  1.0 -0.0035204824
C  C18  1  0.94100000  0.81190000  0.05130000  1.0 0.548629704
C  C19  1  0.88000000  0.62640000  0.87190000  1.0 -0.2311487256
C  C20  1  0.82950000  0.65420000  0.90280000  1.0 0.0307509452
C  C21  1  0.77410000  0.64550000  0.86800000  1.0 0.5245297729
C  C22  1  0.88260000  0.52720000  0.07780000  1.0 -0.2015466165
C  C23  1  0.83800000  0.57100000  0.09050000  1.0 -0.0260329953
C  C24  1  0.81190000  0.56640000  0.14610000  1.0 0.541375625
C  C25  1  0.53090000  0.83720000  0.21130000  1.0 -0.2091605169
C  C26  1  0.57540000  0.79930000  0.23730000  1.0 -0.0161708064
C  C27  1  0.55000000  0.74590000  0.26550000  1.0 0.3867826613
C  C28  1  0.49740000  0.77790000  0.95470000  1.0 -0.2091605169
C  C29  1  0.43940000  0.75200000  0.94830000  1.0 -0.0035204824
C  C30  1  0.44100000  0.68810000  0.94870000  1.0 0.548629704
C  C31  1  0.38000000  0.87360000  0.12810000  1.0 -0.2311487256
C  C32  1  0.32950000  0.84580000  0.09720000  1.0 0.0244536611
C  C33  1  0.27410000  0.85450000  0.13200000  1.0 0.5266681444
C  C34  1  0.38260000  0.97280000  0.92220000  1.0 -0.2015466165
C  C35  1  0.33800000  0.92900000  0.90950000  1.0 -0.0260329953
C  C36  1  0.31190000  0.93360000  0.85390000  1.0 0.541375625
C  C37  1  0.96910000  0.16280000  0.71130000  1.0 -0.2091605169
C  C38  1  0.92460000  0.20070000  0.73730000  1.0 -0.013617469
C  C39  1  0.95000000  0.25410000  0.76550000  1.0 0.3847890674
C  C40  1  0.00260000  0.22210000  0.45470000  1.0 -0.2091605169
C  C41  1  0.06060000  0.24800000  0.44830000  1.0 -0.0035204824
C  C42  1  0.05900000  0.31190000  0.44870000  1.0 0.548629704
C  C43  1  0.12000000  0.12640000  0.62810000  1.0 -0.2311487256
C  C44  1  0.17050000  0.15420000  0.59720000  1.0 0.0244536611
C  C45  1  0.22590000  0.14550000  0.63200000  1.0 0.5266681444
C  C46  1  0.11740000  0.02720000  0.42220000  1.0 -0.2015466165
C  C47  1  0.16200000  0.07100000  0.40950000  1.0 -0.0260329953
C  C48  1  0.18810000  0.06640000  0.35390000  1.0 0.541375625
C  C49  1  0.28870000  0.46910000  0.33720000  1.0 -0.2091605169
C  C50  1  0.26270000  0.42460000  0.29930000  1.0 -0.0161708064
C  C51  1  0.23450000  0.45000000  0.24590000  1.0 0.3867826613
C  C52  1  0.54530000  0.50260000  0.27790000  1.0 -0.2091605169
C  C53  1  0.55170000  0.56060000  0.25200000  1.0 -0.0035204824
C  C54  1  0.55130000  0.55900000  0.18810000  1.0 0.548629704
C  C55  1  0.37190000  0.62000000  0.37360000  1.0 -0.2311487256
C  C56  1  0.40280000  0.67050000  0.34580000  1.0 0.0244536611
C  C57  1  0.36800000  0.72590000  0.35450000  1.0 0.5266681444
C  C58  1  0.57780000  0.61740000  0.47280000  1.0 -0.2015466165
C  C59  1  0.59050000  0.66200000  0.42900000  1.0 -0.0260329953
C  C60  1  0.64610000  0.68810000  0.43360000  1.0 0.541375625
C  C61  1  0.78870000  0.03090000  0.66280000  1.0 -0.2091605169
C  C62  1  0.76270000  0.07540000  0.70070000  1.0 -0.013617469
C  C63  1  0.73450000  0.05000000  0.75410000  1.0 0.3867826613
C  C64  1  0.04530000  0.99740000  0.72210000  1.0 -0.2091605169
C  C65  1  0.05170000  0.93940000  0.74800000  1.0 -0.0035204824
C  C66  1  0.05130000  0.94100000  0.81190000  1.0 0.548629704
C  C67  1  0.87190000  0.88000000  0.62640000  1.0 -0.2311487256
C  C68  1  0.90280000  0.82950000  0.65420000  1.0 0.0307509452
C  C69  1  0.86800000  0.77410000  0.64550000  1.0 0.5245297729
C  C70  1  0.07780000  0.88260000  0.52720000  1.0 -0.2015466165
C  C71  1  0.09050000  0.83800000  0.57100000  1.0 -0.0260329953
C  C72  1  0.14610000  0.81190000  0.56640000  1.0 0.541375625
C  C73  1  0.21130000  0.53090000  0.83720000  1.0 -0.2091605169
C  C74  1  0.23730000  0.57540000  0.79930000  1.0 -0.0161708064
C  C75  1  0.26550000  0.55000000  0.74590000  1.0 0.3867826613
C  C76  1  0.95470000  0.49740000  0.77790000  1.0 -0.2091605169
C  C77  1  0.94830000  0.43940000  0.75200000  1.0 -0.0035204824
C  C78  1  0.94870000  0.44100000  0.68810000  1.0 0.548629704
C  C79  1  0.12810000  0.38000000  0.87360000  1.0 -0.2311487256
C  C80  1  0.09720000  0.32950000  0.84580000  1.0 0.0244536611
C  C81  1  0.13200000  0.27410000  0.85450000  1.0 0.5266681444
C  C82  1  0.92220000  0.38260000  0.97280000  1.0 -0.2015466165
C  C83  1  0.90950000  0.33800000  0.92900000  1.0 -0.0260329953
C  C84  1  0.85390000  0.31190000  0.93360000  1.0 0.541375625
C  C85  1  0.71130000  0.96910000  0.16280000  1.0 -0.2091605169
C  C86  1  0.73730000  0.92460000  0.20070000  1.0 -0.013617469
C  C87  1  0.76550000  0.95000000  0.25410000  1.0 0.3867826613
C  C88  1  0.45470000  0.00260000  0.22210000  1.0 -0.2091605169
C  C89  1  0.44830000  0.06060000  0.24800000  1.0 -0.0035204824
C  C90  1  0.44870000  0.05900000  0.31190000  1.0 0.548629704
C  C91  1  0.62810000  0.12000000  0.12640000  1.0 -0.2311487256
C  C92  1  0.59720000  0.17050000  0.15420000  1.0 0.0244536611
C  C93  1  0.63200000  0.22590000  0.14550000  1.0 0.5266681444
C  C94  1  0.42220000  0.11740000  0.02720000  1.0 -0.2015466165
C  C95  1  0.40950000  0.16200000  0.07100000  1.0 -0.0260329953
C  C96  1  0.35390000  0.18810000  0.06640000  1.0 0.541375625
C  C97  1  0.33720000  0.28870000  0.46910000  1.0 -0.2091605169
C  C98  1  0.29930000  0.26270000  0.42460000  1.0 -0.0161708064
C  C99  1  0.24590000  0.23450000  0.45000000  1.0 0.3867826613
C  C100  1  0.27790000  0.54530000  0.50260000  1.0 -0.2091605169
C  C101  1  0.25200000  0.55170000  0.56060000  1.0 -0.0035204824
C  C102  1  0.18810000  0.55130000  0.55900000  1.0 0.548629704
C  C103  1  0.37360000  0.37190000  0.62000000  1.0 -0.2311487256
C  C104  1  0.34580000  0.40280000  0.67050000  1.0 0.0244536611
C  C105  1  0.35450000  0.36800000  0.72590000  1.0 0.5266681444
C  C106  1  0.47280000  0.57780000  0.61740000  1.0 -0.2015466165
C  C107  1  0.42900000  0.59050000  0.66200000  1.0 -0.0260329953
C  C108  1  0.43360000  0.64610000  0.68810000  1.0 0.541375625
C  C109  1  0.66280000  0.78870000  0.03090000  1.0 -0.2091605169
C  C110  1  0.70070000  0.76270000  0.07540000  1.0 -0.013617469
C  C111  1  0.75410000  0.73450000  0.05000000  1.0 0.3867826613
C  C112  1  0.72210000  0.04530000  0.99740000  1.0 -0.2091605169
C  C113  1  0.74800000  0.05170000  0.93940000  1.0 -0.0035204824
C  C114  1  0.81190000  0.05130000  0.94100000  1.0 0.548629704
C  C115  1  0.62640000  0.87190000  0.88000000  1.0 -0.2311487256
C  C116  1  0.65420000  0.90280000  0.82950000  1.0 0.0307509452
C  C117  1  0.64550000  0.86800000  0.77410000  1.0 0.5245297729
C  C118  1  0.52720000  0.07780000  0.88260000  1.0 -0.2015466165
C  C119  1  0.57100000  0.09050000  0.83800000  1.0 -0.0260329953
C  C120  1  0.56640000  0.14610000  0.81190000  1.0 0.541375625
C  C121  1  0.83720000  0.21130000  0.53090000  1.0 -0.2091605169
C  C122  1  0.79930000  0.23730000  0.57540000  1.0 -0.0161708064
C  C123  1  0.74590000  0.26550000  0.55000000  1.0 0.3867826613
C  C124  1  0.77790000  0.95470000  0.49740000  1.0 -0.2091605169
C  C125  1  0.75200000  0.94830000  0.43940000  1.0 -0.0035204824
C  C126  1  0.68810000  0.94870000  0.44100000  1.0 0.548629704
C  C127  1  0.87360000  0.12810000  0.38000000  1.0 -0.2311487256
C  C128  1  0.84580000  0.09720000  0.32950000  1.0 0.0244536611
C  C129  1  0.85450000  0.13200000  0.27410000  1.0 0.5266681444
C  C130  1  0.97280000  0.92220000  0.38260000  1.0 -0.2015466165
C  C131  1  0.92900000  0.90950000  0.33800000  1.0 -0.0260329953
C  C132  1  0.93360000  0.85390000  0.31190000  1.0 0.541375625
C  C133  1  0.16280000  0.71130000  0.96910000  1.0 -0.2091605169
C  C134  1  0.20070000  0.73730000  0.92460000  1.0 -0.0161708064
C  C135  1  0.25410000  0.76550000  0.95000000  1.0 0.3867826613
C  C136  1  0.22210000  0.45470000  0.00260000  1.0 -0.2091605169
C  C137  1  0.24800000  0.44830000  0.06060000  1.0 -0.0035204824
C  C138  1  0.31190000  0.44870000  0.05900000  1.0 0.548629704
C  C139  1  0.12640000  0.62810000  0.12000000  1.0 -0.2311487256
C  C140  1  0.15420000  0.59720000  0.17050000  1.0 0.0244536611
C  C141  1  0.14550000  0.63200000  0.22590000  1.0 0.5266681444
C  C142  1  0.02720000  0.42220000  0.11740000  1.0 -0.2015466165
C  C143  1  0.07100000  0.40950000  0.16200000  1.0 -0.0260329953
C  C144  1  0.06640000  0.35390000  0.18810000  1.0 0.541375625
S  S1  1  0.43340000  0.40007000  0.31733000  1.0 -0.3096746103
S  S2  1  0.50873000  0.35530000  0.55044000  1.0 -0.3234874453
S  S3  1  0.55590000  0.35600000  0.41211000  1.0 -0.3096746103
S  S4  1  0.59423000  0.46400000  0.50314000  1.0 -0.3234874453
S  S5  1  0.06660000  0.59993000  0.81733000  1.0 -0.3096746103
S  S6  1  0.99127000  0.64470000  0.05044000  1.0 -0.3234874453
S  S7  1  0.94410000  0.64400000  0.91211000  1.0 -0.3096746103
S  S8  1  0.90577000  0.53600000  0.00314000  1.0 -0.3234874453
S  S9  1  0.56660000  0.90007000  0.18267000  1.0 -0.3096746103
S  S10  1  0.49127000  0.85530000  0.94956000  1.0 -0.3234874453
S  S11  1  0.44410000  0.85600000  0.08789000  1.0 -0.3096746103
S  S12  1  0.40577000  0.96400000  0.99686000  1.0 -0.3234874453
S  S13  1  0.93340000  0.09993000  0.68267000  1.0 -0.3096746103
S  S14  1  0.00873000  0.14470000  0.44956000  1.0 -0.3234874453
S  S15  1  0.05590000  0.14400000  0.58789000  1.0 -0.3096746103
S  S16  1  0.09423000  0.03600000  0.49686000  1.0 -0.3234874453
S  S17  1  0.31733000  0.43340000  0.40007000  1.0 -0.3096746103
S  S18  1  0.55044000  0.50873000  0.35530000  1.0 -0.3234874453
S  S19  1  0.41211000  0.55590000  0.35600000  1.0 -0.3096746103
S  S20  1  0.50314000  0.59423000  0.46400000  1.0 -0.3234874453
S  S21  1  0.81733000  0.06660000  0.59993000  1.0 -0.3096746103
S  S22  1  0.05044000  0.99127000  0.64470000  1.0 -0.3234874453
S  S23  1  0.91211000  0.94410000  0.64400000  1.0 -0.3096746103
S  S24  1  0.00314000  0.90577000  0.53600000  1.0 -0.3234874453
S  S25  1  0.18267000  0.56660000  0.90007000  1.0 -0.3096746103
S  S26  1  0.94956000  0.49127000  0.85530000  1.0 -0.3234874453
S  S27  1  0.08789000  0.44410000  0.85600000  1.0 -0.3096746103
S  S28  1  0.99686000  0.40577000  0.96400000  1.0 -0.3234874453
S  S29  1  0.68267000  0.93340000  0.09993000  1.0 -0.3096746103
S  S30  1  0.44956000  0.00873000  0.14470000  1.0 -0.3234874453
S  S31  1  0.58789000  0.05590000  0.14400000  1.0 -0.3096746103
S  S32  1  0.49686000  0.09423000  0.03600000  1.0 -0.3234874453
S  S33  1  0.40007000  0.31733000  0.43340000  1.0 -0.3096746103
S  S34  1  0.35530000  0.55044000  0.50873000  1.0 -0.3234874453
S  S35  1  0.35600000  0.41211000  0.55590000  1.0 -0.3096746103
S  S36  1  0.46400000  0.50314000  0.59423000  1.0 -0.3234874453
S  S37  1  0.59993000  0.81733000  0.06660000  1.0 -0.3096746103
S  S38  1  0.64470000  0.05044000  0.99127000  1.0 -0.3234874453
S  S39  1  0.64400000  0.91211000  0.94410000  1.0 -0.3096746103
S  S40  1  0.53600000  0.00314000  0.90577000  1.0 -0.3234874453
S  S41  1  0.90007000  0.18267000  0.56660000  1.0 -0.3096746103
S  S42  1  0.85530000  0.94956000  0.49127000  1.0 -0.3234874453
S  S43  1  0.85600000  0.08789000  0.44410000  1.0 -0.3096746103
S  S44  1  0.96400000  0.99686000  0.40577000  1.0 -0.3234874453
S  S45  1  0.09993000  0.68267000  0.93340000  1.0 -0.3096746103
S  S46  1  0.14470000  0.44956000  0.00873000  1.0 -0.3234874453
S  S47  1  0.14400000  0.58789000  0.05590000  1.0 -0.3096746103
S  S48  1  0.03600000  0.49686000  0.09423000  1.0 -0.3234874453
N  N1  1  0.38260000  0.28320000  0.30730000  1.0 -0.4718866604
N  N2  1  0.59910000  0.27610000  0.50710000  1.0 -0.4966739239
N  N3  1  0.67320000  0.36760000  0.46040000  1.0 -0.4758728586
N  N4  1  0.63620000  0.37120000  0.57990000  1.0 -0.4758728586
N  N5  1  0.11740000  0.71680000  0.80730000  1.0 -0.4718866604
N  N6  1  0.90090000  0.72390000  0.00710000  1.0 -0.4949841321
N  N7  1  0.82680000  0.63240000  0.96040000  1.0 -0.4718866604
N  N8  1  0.86380000  0.62880000  0.07990000  1.0 -0.4758728586
N  N9  1  0.61740000  0.78320000  0.19270000  1.0 -0.4718866604
N  N10  1  0.40090000  0.77610000  0.99290000  1.0 -0.4966739239
N  N11  1  0.32680000  0.86760000  0.03960000  1.0 -0.4718866604
N  N12  1  0.36380000  0.87120000  0.92010000  1.0 -0.4758728586
N  N13  1  0.88260000  0.21680000  0.69270000  1.0 -0.4718866604
N  N14  1  0.09910000  0.22390000  0.49290000  1.0 -0.4966739239
N  N15  1  0.17320000  0.13240000  0.53960000  1.0 -0.4718866604
N  N16  1  0.13620000  0.12880000  0.42010000  1.0 -0.4758728586
N  N17  1  0.30730000  0.38260000  0.28320000  1.0 -0.4718866604
N  N18  1  0.50710000  0.59910000  0.27610000  1.0 -0.4966739239
N  N19  1  0.46040000  0.67320000  0.36760000  1.0 -0.4758728586
N  N20  1  0.57990000  0.63620000  0.37120000  1.0 -0.4758728586
N  N21  1  0.80730000  0.11740000  0.71680000  1.0 -0.4718866604
N  N22  1  0.00710000  0.90090000  0.72390000  1.0 -0.4966739239
N  N23  1  0.96040000  0.82680000  0.63240000  1.0 -0.4718866604
N  N24  1  0.07990000  0.86380000  0.62880000  1.0 -0.4758728586
N  N25  1  0.19270000  0.61740000  0.78320000  1.0 -0.4718866604
N  N26  1  0.99290000  0.40090000  0.77610000  1.0 -0.4966739239
N  N27  1  0.03960000  0.32680000  0.86760000  1.0 -0.4758728586
N  N28  1  0.92010000  0.36380000  0.87120000  1.0 -0.4718866604
N  N29  1  0.69270000  0.88260000  0.21680000  1.0 -0.4718866604
N  N30  1  0.49290000  0.09910000  0.22390000  1.0 -0.4966739239
N  N31  1  0.53960000  0.17320000  0.13240000  1.0 -0.4718866604
N  N32  1  0.42010000  0.13620000  0.12880000  1.0 -0.4758728586
N  N33  1  0.28320000  0.30730000  0.38260000  1.0 -0.4718866604
N  N34  1  0.27610000  0.50710000  0.59910000  1.0 -0.4966739239
N  N35  1  0.36760000  0.46040000  0.67320000  1.0 -0.4758728586
N  N36  1  0.37120000  0.57990000  0.63620000  1.0 -0.4758728586
N  N37  1  0.71680000  0.80730000  0.11740000  1.0 -0.4718866604
N  N38  1  0.72390000  0.00710000  0.90090000  1.0 -0.4949841321
N  N39  1  0.63240000  0.96040000  0.82680000  1.0 -0.4718866604
N  N40  1  0.62880000  0.07990000  0.86380000  1.0 -0.4758728586
N  N41  1  0.78320000  0.19270000  0.61740000  1.0 -0.4718866604
N  N42  1  0.77610000  0.99290000  0.40090000  1.0 -0.4966739239
N  N43  1  0.86760000  0.03960000  0.32680000  1.0 -0.4718866604
N  N44  1  0.87120000  0.92010000  0.36380000  1.0 -0.4718866604
N  N45  1  0.21680000  0.69270000  0.88260000  1.0 -0.4718866604
N  N46  1  0.22390000  0.49290000  0.09910000  1.0 -0.4966739239
N  N47  1  0.13240000  0.53960000  0.17320000  1.0 -0.4718866604
N  N48  1  0.12880000  0.42010000  0.13620000  1.0 -0.4758728586
O  O1  1  0.42530000  0.20240000  0.23660000  1.0 -0.0797621268
O  O2  1  0.50380000  0.25500000  0.21460000  1.0 -0.2746029815
O  O3  1  0.58930000  0.16040000  0.52080000  1.0 -0.5339192322
O  O4  1  0.52480000  0.16530000  0.58910000  1.0 -0.5182554444
O  O5  1  0.76840000  0.37460000  0.39130000  1.0 -0.2920602829
O  O6  1  0.73410000  0.34510000  0.32270000  1.0 -0.3991776701
O  O7  1  0.69160000  0.39520000  0.67720000  1.0 -0.4211895586
O  O8  1  0.70630000  0.48260000  0.66350000  1.0 -0.6089335353
O  O9  1  0.46420000  0.20420000  0.26950000  1.0 -0.1946750502
O  O10  1  0.45640000  0.24750000  0.18110000  1.0 -0.255044219
O  O11  1  0.57170000  0.04680000  0.52110000  1.0 -0.013617469
O  O12  1  0.67800000  0.32600000  0.11600000  1.0 -0.5689252635
O  O13  1  0.43700000  0.97900000  0.52200000  1.0 -0.1305851808
O  O14  1  0.46880000  0.07150000  0.57610000  1.0 0.0478433371
O  O15  1  0.68430000  0.66160000  0.65830000  1.0 -0.0035204824
O  O16  1  0.52060000  0.06230000  0.52550000  1.0 -0.2207541089
O  O17  1  0.53300000  0.05300000  0.57900000  1.0 0.0307509452
O  O18  1  0.07470000  0.79760000  0.73660000  1.0 -0.0797621268
O  O19  1  0.99620000  0.74500000  0.71460000  1.0 -0.276301045
O  O20  1  0.91070000  0.83960000  0.02080000  1.0 -0.5339192322
O  O21  1  0.97520000  0.83470000  0.08910000  1.0 -0.5182554444
O  O22  1  0.73160000  0.62540000  0.89130000  1.0 -0.2961020292
O  O23  1  0.76590000  0.65490000  0.82270000  1.0 -0.3991776701
O  O24  1  0.80840000  0.60480000  0.17720000  1.0 -0.4211895586
O  O25  1  0.79370000  0.51740000  0.16350000  1.0 -0.6089335353
O  O26  1  0.03580000  0.79580000  0.76950000  1.0 -0.2015466165
O  O27  1  0.04360000  0.75250000  0.68110000  1.0 -0.2530965925
O  O28  1  0.92830000  0.95320000  0.02110000  1.0 -0.013617469
O  O29  1  0.82200000  0.67400000  0.61600000  1.0 -0.5689252635
O  O30  1  0.06300000  0.02100000  0.02200000  1.0 -0.1305851808
O  O31  1  0.03120000  0.92850000  0.07610000  1.0 0.0478433371
O  O32  1  0.81570000  0.33840000  0.15830000  1.0 -0.0035204824
O  O33  1  0.97940000  0.93770000  0.02550000  1.0 -0.2207541089
O  O34  1  0.96700000  0.94700000  0.07900000  1.0 0.0374196379
O  O35  1  0.57470000  0.70240000  0.26340000  1.0 -0.0797621268
O  O36  1  0.49620000  0.75500000  0.28540000  1.0 -0.276301045
O  O37  1  0.41070000  0.66040000  0.97920000  1.0 -0.5339192322
O  O38  1  0.47520000  0.66530000  0.91090000  1.0 -0.5182554444
O  O39  1  0.23160000  0.87460000  0.10870000  1.0 -0.2920602829
O  O40  1  0.26590000  0.84510000  0.17730000  1.0 -0.3991776701
O  O41  1  0.30840000  0.89520000  0.82280000  1.0 -0.4282017669
O  O42  1  0.29370000  0.98260000  0.83650000  1.0 -0.6089335353
O  O43  1  0.53580000  0.70420000  0.23050000  1.0 -0.1946750502
O  O44  1  0.54360000  0.74750000  0.31890000  1.0 -0.2530965925
O  O45  1  0.42830000  0.54680000  0.97890000  1.0 -0.013617469
O  O46  1  0.32200000  0.82600000  0.38400000  1.0 -0.5689252635
O  O47  1  0.56300000  0.47900000  0.97800000  1.0 -0.1305851808
O  O48  1  0.53120000  0.57150000  0.92390000  1.0 0.0478433371
O  O49  1  0.31570000  0.16160000  0.84170000  1.0 -0.0035204824
O  O50  1  0.47940000  0.56230000  0.97450000  1.0 -0.2207541089
O  O51  1  0.46700000  0.55300000  0.92100000  1.0 0.0307509452
O  O52  1  0.92530000  0.29760000  0.76340000  1.0 -0.0797621268
O  O53  1  0.00380000  0.24500000  0.78540000  1.0 -0.276301045
O  O54  1  0.08930000  0.33960000  0.47920000  1.0 -0.5339192322
O  O55  1  0.02480000  0.33470000  0.41090000  1.0 -0.5182554444
O  O56  1  0.26840000  0.12540000  0.60870000  1.0 -0.2961020292
O  O57  1  0.23410000  0.15490000  0.67730000  1.0 -0.3991776701
O  O58  1  0.19160000  0.10480000  0.32280000  1.0 -0.4211895586
O  O59  1  0.20630000  0.01740000  0.33650000  1.0 -0.6089335353
O  O60  1  0.96420000  0.29580000  0.73050000  1.0 -0.2015466165
O  O61  1  0.95640000  0.25250000  0.81890000  1.0 -0.255044219
O  O62  1  0.07170000  0.45320000  0.47890000  1.0 -0.013617469
O  O63  1  0.17800000  0.17400000  0.88400000  1.0 -0.5797929387
O  O64  1  0.93700000  0.52100000  0.47800000  1.0 -0.1305851808
O  O65  1  0.96880000  0.42850000  0.42390000  1.0 0.0374196379
O  O66  1  0.18430000  0.83840000  0.34170000  1.0 -0.0035204824
O  O67  1  0.02060000  0.43770000  0.47450000  1.0 -0.2207541089
O  O68  1  0.03300000  0.44700000  0.42100000  1.0 0.0374196379
O  O69  1  0.23660000  0.42530000  0.20240000  1.0 -0.0797621268
O  O70  1  0.21460000  0.50380000  0.25500000  1.0 -0.2746029815
O  O71  1  0.52080000  0.58930000  0.16040000  1.0 -0.5339192322
O  O72  1  0.58910000  0.52480000  0.16530000  1.0 -0.5182554444
O  O73  1  0.39130000  0.76840000  0.37460000  1.0 -0.2920602829
O  O74  1  0.32270000  0.73410000  0.34510000  1.0 -0.3991776701
O  O75  1  0.67720000  0.69160000  0.39520000  1.0 -0.4211895586
O  O76  1  0.66350000  0.70630000  0.48260000  1.0 -0.6089335353
O  O77  1  0.26950000  0.46420000  0.20420000  1.0 -0.1946750502
O  O78  1  0.18110000  0.45640000  0.24750000  1.0 -0.255044219
O  O79  1  0.52110000  0.57170000  0.04680000  1.0 -0.013617469
O  O80  1  0.11600000  0.67800000  0.32600000  1.0 -0.5689252635
O  O81  1  0.52200000  0.43700000  0.97900000  1.0 -0.1305851808
O  O82  1  0.57610000  0.46880000  0.07150000  1.0 0.0478433371
O  O83  1  0.65830000  0.68430000  0.66160000  1.0 -0.0035204824
O  O84  1  0.52550000  0.52060000  0.06230000  1.0 -0.2207541089
O  O85  1  0.57900000  0.53300000  0.05300000  1.0 0.0307509452
O  O86  1  0.73660000  0.07470000  0.79760000  1.0 -0.0797621268
O  O87  1  0.71460000  0.99620000  0.74500000  1.0 -0.276301045
O  O88  1  0.02080000  0.91070000  0.83960000  1.0 -0.5339192322
O  O89  1  0.08910000  0.97520000  0.83470000  1.0 -0.5182554444
O  O90  1  0.89130000  0.73160000  0.62540000  1.0 -0.2961020292
O  O91  1  0.82270000  0.76590000  0.65490000  1.0 -0.3991776701
O  O92  1  0.17720000  0.80840000  0.60480000  1.0 -0.4211895586
O  O93  1  0.16350000  0.79370000  0.51740000  1.0 -0.6089335353
O  O94  1  0.76950000  0.03580000  0.79580000  1.0 -0.2015466165
O  O95  1  0.68110000  0.04360000  0.75250000  1.0 -0.2530965925
O  O96  1  0.02110000  0.92830000  0.95320000  1.0 -0.013617469
O  O97  1  0.61600000  0.82200000  0.67400000  1.0 -0.5689252635
O  O98  1  0.02200000  0.06300000  0.02100000  1.0 -0.1305851808
O  O99  1  0.07610000  0.03120000  0.92850000  1.0 0.0478433371
O  O100  1  0.15830000  0.81570000  0.33840000  1.0 -0.0035204824
O  O101  1  0.02550000  0.97940000  0.93770000  1.0 -0.2207541089
O  O102  1  0.07900000  0.96700000  0.94700000  1.0 0.0307509452
O  O103  1  0.26340000  0.57470000  0.70240000  1.0 -0.0797621268
O  O104  1  0.28540000  0.49620000  0.75500000  1.0 -0.276301045
O  O105  1  0.97920000  0.41070000  0.66040000  1.0 -0.5339192322
O  O106  1  0.91090000  0.47520000  0.66530000  1.0 -0.5182554444
O  O107  1  0.10870000  0.23160000  0.87460000  1.0 -0.2920602829
O  O108  1  0.17730000  0.26590000  0.84510000  1.0 -0.3991776701
O  O109  1  0.82280000  0.30840000  0.89520000  1.0 -0.4282017669
O  O110  1  0.83650000  0.29370000  0.98260000  1.0 -0.6089335353
O  O111  1  0.23050000  0.53580000  0.70420000  1.0 -0.1946750502
O  O112  1  0.31890000  0.54360000  0.74750000  1.0 -0.2530965925
O  O113  1  0.97890000  0.42830000  0.54680000  1.0 -0.013617469
O  O114  1  0.38400000  0.32200000  0.82600000  1.0 -0.5689252635
O  O115  1  0.97800000  0.56300000  0.47900000  1.0 -0.1305851808
O  O116  1  0.92390000  0.53120000  0.57150000  1.0 0.0478433371
O  O117  1  0.84170000  0.31570000  0.16160000  1.0 -0.0035204824
O  O118  1  0.97450000  0.47940000  0.56230000  1.0 -0.2207541089
O  O119  1  0.92100000  0.46700000  0.55300000  1.0 0.0374196379
O  O120  1  0.76340000  0.92530000  0.29760000  1.0 -0.0797621268
O  O121  1  0.78540000  0.00380000  0.24500000  1.0 -0.276301045
O  O122  1  0.47920000  0.08930000  0.33960000  1.0 -0.5339192322
O  O123  1  0.41090000  0.02480000  0.33470000  1.0 -0.5182554444
O  O124  1  0.60870000  0.26840000  0.12540000  1.0 -0.2961020292
O  O125  1  0.67730000  0.23410000  0.15490000  1.0 -0.3991776701
O  O126  1  0.32280000  0.19160000  0.10480000  1.0 -0.4211895586
O  O127  1  0.33650000  0.20630000  0.01740000  1.0 -0.6089335353
O  O128  1  0.73050000  0.96420000  0.29580000  1.0 -0.2015466165
O  O129  1  0.81890000  0.95640000  0.25250000  1.0 -0.255044219
O  O130  1  0.47890000  0.07170000  0.45320000  1.0 -0.013617469
O  O131  1  0.88400000  0.17800000  0.17400000  1.0 -0.5797929387
O  O132  1  0.47800000  0.93700000  0.52100000  1.0 -0.1305851808
O  O133  1  0.42390000  0.96880000  0.42850000  1.0 0.0374196379
O  O134  1  0.34170000  0.18430000  0.83840000  1.0 -0.0035204824
O  O135  1  0.47450000  0.02060000  0.43770000  1.0 -0.2207541089
O  O136  1  0.42100000  0.03300000  0.44700000  1.0 0.0374196379
O  O137  1  0.20240000  0.23660000  0.42530000  1.0 -0.0797621268
O  O138  1  0.25500000  0.21460000  0.50380000  1.0 -0.2746029815
O  O139  1  0.16040000  0.52080000  0.58930000  1.0 -0.5339192322
O  O140  1  0.16530000  0.58910000  0.52480000  1.0 -0.5182554444
O  O141  1  0.37460000  0.39130000  0.76840000  1.0 -0.2920602829
O  O142  1  0.34510000  0.32270000  0.73410000  1.0 -0.3991776701
O  O143  1  0.39520000  0.67720000  0.69160000  1.0 -0.4211895586
O  O144  1  0.48260000  0.66350000  0.70630000  1.0 -0.6089335353
O  O145  1  0.20420000  0.26950000  0.46420000  1.0 -0.1946750502
O  O146  1  0.24750000  0.18110000  0.45640000  1.0 -0.255044219
O  O147  1  0.04680000  0.52110000  0.57170000  1.0 -0.013617469
O  O148  1  0.32600000  0.11600000  0.67800000  1.0 -0.5689252635
O  O149  1  0.97900000  0.52200000  0.43700000  1.0 -0.1305851808
O  O150  1  0.07150000  0.57610000  0.46880000  1.0 0.0478433371
O  O151  1  0.66160000  0.65830000  0.68430000  1.0 -0.0035204824
O  O152  1  0.06230000  0.52550000  0.52060000  1.0 -0.2207541089
O  O153  1  0.05300000  0.57900000  0.53300000  1.0 0.0307509452
O  O154  1  0.79760000  0.73660000  0.07470000  1.0 -0.0797621268
O  O155  1  0.74500000  0.71460000  0.99620000  1.0 -0.276301045
O  O156  1  0.83960000  0.02080000  0.91070000  1.0 -0.5339192322
O  O157  1  0.83470000  0.08910000  0.97520000  1.0 -0.5182554444
O  O158  1  0.62540000  0.89130000  0.73160000  1.0 -0.2961020292
O  O159  1  0.65490000  0.82270000  0.76590000  1.0 -0.3991776701
O  O160  1  0.60480000  0.17720000  0.80840000  1.0 -0.4211895586
O  O161  1  0.51740000  0.16350000  0.79370000  1.0 -0.6089335353
O  O162  1  0.79580000  0.76950000  0.03580000  1.0 -0.2015466165
O  O163  1  0.75250000  0.68110000  0.04360000  1.0 -0.2530965925
O  O164  1  0.95320000  0.02110000  0.92830000  1.0 -0.013617469
O  O165  1  0.67400000  0.61600000  0.82200000  1.0 -0.5689252635
O  O166  1  0.02100000  0.02200000  0.06300000  1.0 -0.1305851808
O  O167  1  0.92850000  0.07610000  0.03120000  1.0 0.0478433371
O  O168  1  0.33840000  0.15830000  0.81570000  1.0 -0.0035204824
O  O169  1  0.93770000  0.02550000  0.97940000  1.0 -0.2207541089
O  O170  1  0.94700000  0.07900000  0.96700000  1.0 0.0374196379
O  O171  1  0.70240000  0.26340000  0.57470000  1.0 -0.0797621268
O  O172  1  0.75500000  0.28540000  0.49620000  1.0 -0.276301045
O  O173  1  0.66040000  0.97920000  0.41070000  1.0 -0.5339192322
O  O174  1  0.66530000  0.91090000  0.47520000  1.0 -0.5182554444
O  O175  1  0.87460000  0.10870000  0.23160000  1.0 -0.2920602829
O  O176  1  0.84510000  0.17730000  0.26590000  1.0 -0.3991776701
O  O177  1  0.89520000  0.82280000  0.30840000  1.0 -0.4282017669
O  O178  1  0.98260000  0.83650000  0.29370000  1.0 -0.6089335353
O  O179  1  0.70420000  0.23050000  0.53580000  1.0 -0.1946750502
O  O180  1  0.74750000  0.31890000  0.54360000  1.0 -0.2530965925
O  O181  1  0.54680000  0.97890000  0.42830000  1.0 -0.013617469
O  O182  1  0.82600000  0.38400000  0.32200000  1.0 -0.5689252635
O  O183  1  0.47900000  0.97800000  0.56300000  1.0 -0.1305851808
O  O184  1  0.57150000  0.92390000  0.53120000  1.0 0.0478433371
O  O185  1  0.16160000  0.84170000  0.31570000  1.0 -0.0035204824
O  O186  1  0.56230000  0.97450000  0.47940000  1.0 -0.2207541089
O  O187  1  0.55300000  0.92100000  0.46700000  1.0 0.0307509452
O  O188  1  0.29760000  0.76340000  0.92530000  1.0 -0.0797621268
O  O189  1  0.24500000  0.78540000  0.00380000  1.0 -0.276301045
O  O190  1  0.33960000  0.47920000  0.08930000  1.0 -0.5339192322
O  O191  1  0.33470000  0.41090000  0.02480000  1.0 -0.5182554444
O  O192  1  0.12540000  0.60870000  0.26840000  1.0 -0.2961020292
O  O193  1  0.15490000  0.67730000  0.23410000  1.0 -0.3991776701
O  O194  1  0.10480000  0.32280000  0.19160000  1.0 -0.4211895586
O  O195  1  0.01740000  0.33650000  0.20630000  1.0 -0.6089335353
O  O196  1  0.29580000  0.73050000  0.96420000  1.0 -0.2015466165
O  O197  1  0.25250000  0.81890000  0.95640000  1.0 -0.255044219
O  O198  1  0.45320000  0.47890000  0.07170000  1.0 -0.013617469
O  O199  1  0.17400000  0.88400000  0.17800000  1.0 -0.5797929387
O  O200  1  0.52100000  0.47800000  0.93700000  1.0 -0.1305851808
O  O201  1  0.42850000  0.42390000  0.96880000  1.0 0.0374196379
O  O202  1  0.83840000  0.34170000  0.18430000  1.0 -0.0035204824
O  O203  1  0.43770000  0.47450000  0.02060000  1.0 -0.2207541089
O  O204  1  0.44700000  0.42100000  0.03300000  1.0 0.0374196379
O  O205  1  0.45430000  0.45430000  0.45430000  1.0 -0.8193248332
O  O206  1  0.04570000  0.54570000  0.95430000  1.0 -0.8193248332
O  O207  1  0.54570000  0.95430000  0.04570000  1.0 -0.8193248332
O  O208  1  0.95430000  0.04570000  0.54570000  1.0 -0.8193248332
O  O209  1  0.60520000  0.10520000  0.39480000  1.0 -0.4486492893
O  O210  1  0.89480000  0.89480000  0.89480000  1.0 -0.4434311808
O  O211  1  0.39480000  0.60520000  0.10520000  1.0 -0.4486492893
O  O212  1  0.10520000  0.39480000  0.60520000  1.0 -0.4486492893
