# DDEC6 charges by PACMAN v1.1 (https://github.com/mtap-research/PACMAN-charge/)
data_DACNOO_ASR_pacman
_symmetry_space_group_name_H-M   'P 1'
_cell_length_a   23.67600000
_cell_length_b   23.67600000
_cell_length_c   23.67600000
_cell_angle_alpha   90.00000000
_cell_angle_beta   90.00000000
_cell_angle_gamma   90.00000000
_symmetry_Int_Tables_number   1
_chemical_formula_structural   Sm9Zn4H60Rh4C36S12N12O35
_chemical_formula_sum   'Sm36 Zn16 H240 Rh16 C144 S48 N48 O140'
_cell_volume   13271.65225978
_cell_formula_units_Z   4
loop_
 _symmetry_equiv_pos_site_id
 _symmetry_equiv_pos_as_xyz
  1  'x, y, z'
loop_
 _atom_site_type_symbol
 _atom_site_label
 _atom_site_symmetry_multiplicity
 _atom_site_fract_x
 _atom_site_fract_y
 _atom_site_fract_z
 _atom_site_occupancy
 _atom_site_charge
Sm  Sm1  1  0.69395000  0.27324000  0.17398000  1.0 1.5326835108
Sm  Sm2  1  0.67681000  0.19490000  0.31150000  1.0 0.0426524515
Sm  Sm3  1  0.69892000  0.17890000  0.24647000  1.0 0.2483335448
Sm  Sm4  1  0.80605000  0.72676000  0.67398000  1.0 1.5326835108
Sm  Sm5  1  0.82319000  0.80510000  0.81150000  1.0 0.0426524515
Sm  Sm6  1  0.80108000  0.82110000  0.74647000  1.0 0.2483335448
Sm  Sm7  1  0.30605000  0.77324000  0.32602000  1.0 1.5326835108
Sm  Sm8  1  0.32319000  0.69490000  0.18850000  1.0 0.0426524515
Sm  Sm9  1  0.30108000  0.67890000  0.25353000  1.0 0.2483335448
Sm  Sm10  1  0.19395000  0.22676000  0.82602000  1.0 1.5326835108
Sm  Sm11  1  0.17681000  0.30510000  0.68850000  1.0 0.0426524515
Sm  Sm12  1  0.19892000  0.32110000  0.75353000  1.0 0.2483335448
Sm  Sm13  1  0.17398000  0.69395000  0.27324000  1.0 1.5326835108
Sm  Sm14  1  0.31150000  0.67681000  0.19490000  1.0 0.0426524515
Sm  Sm15  1  0.24647000  0.69892000  0.17890000  1.0 0.2483335448
Sm  Sm16  1  0.67398000  0.80605000  0.72676000  1.0 1.5326835108
Sm  Sm17  1  0.81150000  0.82319000  0.80510000  1.0 0.0426524515
Sm  Sm18  1  0.74647000  0.80108000  0.82110000  1.0 0.2483335448
Sm  Sm19  1  0.32602000  0.30605000  0.77324000  1.0 1.5326835108
Sm  Sm20  1  0.18850000  0.32319000  0.69490000  1.0 0.0426524515
Sm  Sm21  1  0.25353000  0.30108000  0.67890000  1.0 0.2483335448
Sm  Sm22  1  0.82602000  0.19395000  0.22676000  1.0 1.5353587298
Sm  Sm23  1  0.68850000  0.17681000  0.30510000  1.0 0.0426524515
Sm  Sm24  1  0.75353000  0.19892000  0.32110000  1.0 0.2483335448
Sm  Sm25  1  0.27324000  0.17398000  0.69395000  1.0 1.5326835108
Sm  Sm26  1  0.19490000  0.31150000  0.67681000  1.0 0.0426524515
Sm  Sm27  1  0.17890000  0.24647000  0.69892000  1.0 0.2483335448
Sm  Sm28  1  0.72676000  0.67398000  0.80605000  1.0 1.5326835108
Sm  Sm29  1  0.80510000  0.81150000  0.82319000  1.0 0.0426524515
Sm  Sm30  1  0.82110000  0.74647000  0.80108000  1.0 0.2483335448
Sm  Sm31  1  0.77324000  0.32602000  0.30605000  1.0 1.5326835108
Sm  Sm32  1  0.69490000  0.18850000  0.32319000  1.0 0.0426524515
Sm  Sm33  1  0.67890000  0.25353000  0.30108000  1.0 0.2483335448
Sm  Sm34  1  0.22676000  0.82602000  0.19395000  1.0 1.5326835108
Sm  Sm35  1  0.30510000  0.68850000  0.17681000  1.0 0.0426524515
Sm  Sm36  1  0.32110000  0.75353000  0.19892000  1.0 0.2483335448
Zn  Zn1  1  0.37071000  0.32828000  0.26159000  1.0 0.5420655711
Zn  Zn2  1  0.12929000  0.67172000  0.76159000  1.0 0.5420655711
Zn  Zn3  1  0.62929000  0.82828000  0.23841000  1.0 0.5420655711
Zn  Zn4  1  0.87071000  0.17172000  0.73841000  1.0 0.5420655711
Zn  Zn5  1  0.26159000  0.37071000  0.32828000  1.0 0.5420655711
Zn  Zn6  1  0.76159000  0.12929000  0.67172000  1.0 0.5420655711
Zn  Zn7  1  0.23841000  0.62929000  0.82828000  1.0 0.5420655711
Zn  Zn8  1  0.73841000  0.87071000  0.17172000  1.0 0.5420655711
Zn  Zn9  1  0.32828000  0.26159000  0.37071000  1.0 0.5420655711
Zn  Zn10  1  0.67172000  0.76159000  0.12929000  1.0 0.5420655711
Zn  Zn11  1  0.82828000  0.23841000  0.62929000  1.0 0.5420655711
Zn  Zn12  1  0.17172000  0.73841000  0.87071000  1.0 0.5420655711
Zn  Zn13  1  0.25636000  0.25636000  0.25636000  1.0 0.5420655711
Zn  Zn14  1  0.24364000  0.74364000  0.75636000  1.0 0.5420655711
Zn  Zn15  1  0.74364000  0.75636000  0.24364000  1.0 0.5420655711
Zn  Zn16  1  0.75636000  0.24364000  0.74364000  1.0 0.5420655711
H  H1  1  0.42501000  0.49976000  0.35957000  1.0 0.2759407713
H  H2  1  0.46563000  0.49284000  0.40601000  1.0 0.267799228
H  H3  1  0.49802000  0.16607000  0.28562000  1.0 0.2483335448
H  H4  1  0.49369000  0.12464000  0.23964000  1.0 0.2483335448
H  H5  1  0.39421000  0.15418000  0.14763000  1.0 0.2483335448
H  H6  1  0.41454000  0.10059000  0.17143000  1.0 0.267799228
H  H7  1  0.35318000  0.07483000  0.29455000  1.0 0.2483335448
H  H8  1  0.41014000  0.06111000  0.27418000  1.0 0.267799228
H  H9  1  0.49777000  0.41124000  0.26197000  1.0 0.1283624313
H  H10  1  0.43811000  0.44257000  0.26954000  1.0 0.1192377729
H  H11  1  0.52487000  0.43936000  0.35460000  1.0 0.090762218
H  H12  1  0.49814000  0.28658000  0.19173000  1.0 0.1192377729
H  H13  1  0.49056000  0.27360000  0.25784000  1.0 0.1192377729
H  H14  1  0.50081000  0.18837000  0.17189000  1.0 0.0973572909
H  H15  1  0.24879000  0.12914000  0.17167000  1.0 0.1192377729
H  H16  1  0.29039000  0.17945000  0.15294000  1.0 0.1130963071
H  H17  1  0.32848000  0.06913000  0.18968000  1.0 0.090762218
H  H18  1  0.39777000  0.13657000  0.42339000  1.0 0.1283624313
H  H19  1  0.34173000  0.13063000  0.38546000  1.0 0.1130963071
H  H20  1  0.45232000  0.09050000  0.35225000  1.0 0.090762218
H  H21  1  0.07499000  0.50024000  0.85957000  1.0 0.2759407713
H  H22  1  0.03437000  0.50716000  0.90601000  1.0 0.267799228
H  H23  1  0.00198000  0.83393000  0.78562000  1.0 0.2483335448
H  H24  1  0.00631000  0.87536000  0.73964000  1.0 0.2483335448
H  H25  1  0.10579000  0.84582000  0.64763000  1.0 0.2483335448
H  H26  1  0.08546000  0.89941000  0.67143000  1.0 0.267799228
H  H27  1  0.14682000  0.92517000  0.79455000  1.0 0.2483335448
H  H28  1  0.08986000  0.93889000  0.77418000  1.0 0.267799228
H  H29  1  0.00223000  0.58876000  0.76197000  1.0 0.1283624313
H  H30  1  0.06189000  0.55743000  0.76954000  1.0 0.1192377729
H  H31  1  0.97513000  0.56064000  0.85460000  1.0 0.090762218
H  H32  1  0.00186000  0.71342000  0.69173000  1.0 0.1192377729
H  H33  1  0.00944000  0.72640000  0.75784000  1.0 0.1192377729
H  H34  1  0.99919000  0.81163000  0.67189000  1.0 0.0973572909
H  H35  1  0.25121000  0.87086000  0.67167000  1.0 0.1192377729
H  H36  1  0.20961000  0.82055000  0.65294000  1.0 0.1130963071
H  H37  1  0.17152000  0.93087000  0.68968000  1.0 0.090762218
H  H38  1  0.10223000  0.86343000  0.92339000  1.0 0.1283624313
H  H39  1  0.15827000  0.86937000  0.88546000  1.0 0.1130963071
H  H40  1  0.04768000  0.90950000  0.85225000  1.0 0.090762218
H  H41  1  0.57499000  0.99976000  0.14043000  1.0 0.2759407713
H  H42  1  0.53437000  0.99284000  0.09399000  1.0 0.267799228
H  H43  1  0.50198000  0.66607000  0.21438000  1.0 0.2483335448
H  H44  1  0.50631000  0.62464000  0.26036000  1.0 0.2483335448
H  H45  1  0.60579000  0.65418000  0.35237000  1.0 0.2551517217
H  H46  1  0.58546000  0.60059000  0.32857000  1.0 0.267799228
H  H47  1  0.64682000  0.57483000  0.20545000  1.0 0.2483335448
H  H48  1  0.58986000  0.56111000  0.22582000  1.0 0.267799228
H  H49  1  0.50223000  0.91124000  0.23803000  1.0 0.1283624313
H  H50  1  0.56189000  0.94257000  0.23046000  1.0 0.1192377729
H  H51  1  0.47513000  0.93936000  0.14540000  1.0 0.090762218
H  H52  1  0.50186000  0.78658000  0.30827000  1.0 0.1192377729
H  H53  1  0.50944000  0.77360000  0.24216000  1.0 0.1192377729
H  H54  1  0.49919000  0.68837000  0.32811000  1.0 0.0973572909
H  H55  1  0.75121000  0.62914000  0.32833000  1.0 0.1192377729
H  H56  1  0.70961000  0.67945000  0.34706000  1.0 0.1130963071
H  H57  1  0.67152000  0.56913000  0.31032000  1.0 0.090762218
H  H58  1  0.60223000  0.63657000  0.07661000  1.0 0.1283624313
H  H59  1  0.65827000  0.63063000  0.11454000  1.0 0.1130963071
H  H60  1  0.54768000  0.59050000  0.14775000  1.0 0.090762218
H  H61  1  0.92501000  0.00024000  0.64043000  1.0 0.2759407713
H  H62  1  0.96563000  0.00716000  0.59399000  1.0 0.267799228
H  H63  1  0.99802000  0.33393000  0.71438000  1.0 0.2483335448
H  H64  1  0.99369000  0.37536000  0.76036000  1.0 0.2483335448
H  H65  1  0.89421000  0.34582000  0.85237000  1.0 0.2551517217
H  H66  1  0.91454000  0.39941000  0.82857000  1.0 0.267799228
H  H67  1  0.85318000  0.42517000  0.70545000  1.0 0.2483335448
H  H68  1  0.91014000  0.43889000  0.72582000  1.0 0.267799228
H  H69  1  0.99777000  0.08876000  0.73803000  1.0 0.1283624313
H  H70  1  0.93811000  0.05743000  0.73046000  1.0 0.1192377729
H  H71  1  0.02487000  0.06064000  0.64540000  1.0 0.090762218
H  H72  1  0.99814000  0.21342000  0.80827000  1.0 0.1192377729
H  H73  1  0.99056000  0.22640000  0.74216000  1.0 0.1192377729
H  H74  1  0.00081000  0.31163000  0.82811000  1.0 0.0973572909
H  H75  1  0.74879000  0.37086000  0.82833000  1.0 0.1192377729
H  H76  1  0.79039000  0.32055000  0.84706000  1.0 0.1130963071
H  H77  1  0.82848000  0.43087000  0.81032000  1.0 0.090762218
H  H78  1  0.89777000  0.36343000  0.57661000  1.0 0.1283624313
H  H79  1  0.84173000  0.36937000  0.61454000  1.0 0.1130963071
H  H80  1  0.95232000  0.40950000  0.64775000  1.0 0.090762218
H  H81  1  0.35957000  0.42501000  0.49976000  1.0 0.2759407713
H  H82  1  0.40601000  0.46563000  0.49284000  1.0 0.267799228
H  H83  1  0.28562000  0.49802000  0.16607000  1.0 0.2483335448
H  H84  1  0.23964000  0.49369000  0.12464000  1.0 0.2483335448
H  H85  1  0.14763000  0.39421000  0.15418000  1.0 0.2483335448
H  H86  1  0.17143000  0.41454000  0.10059000  1.0 0.267799228
H  H87  1  0.29455000  0.35318000  0.07483000  1.0 0.2483335448
H  H88  1  0.27418000  0.41014000  0.06111000  1.0 0.267799228
H  H89  1  0.26197000  0.49777000  0.41124000  1.0 0.1283624313
H  H90  1  0.26954000  0.43811000  0.44257000  1.0 0.1192377729
H  H91  1  0.35460000  0.52487000  0.43936000  1.0 0.090762218
H  H92  1  0.19173000  0.49814000  0.28658000  1.0 0.1192377729
H  H93  1  0.25784000  0.49056000  0.27360000  1.0 0.1192377729
H  H94  1  0.17189000  0.50081000  0.18837000  1.0 0.0973572909
H  H95  1  0.17167000  0.24879000  0.12914000  1.0 0.1192377729
H  H96  1  0.15294000  0.29039000  0.17945000  1.0 0.1130963071
H  H97  1  0.18968000  0.32848000  0.06913000  1.0 0.090762218
H  H98  1  0.42339000  0.39777000  0.13657000  1.0 0.1283624313
H  H99  1  0.38546000  0.34173000  0.13063000  1.0 0.1130963071
H  H100  1  0.35225000  0.45232000  0.09050000  1.0 0.090762218
H  H101  1  0.85957000  0.07499000  0.50024000  1.0 0.2759407713
H  H102  1  0.90601000  0.03437000  0.50716000  1.0 0.267799228
H  H103  1  0.78562000  0.00198000  0.83393000  1.0 0.2483335448
H  H104  1  0.73964000  0.00631000  0.87536000  1.0 0.2483335448
H  H105  1  0.64763000  0.10579000  0.84582000  1.0 0.2483335448
H  H106  1  0.67143000  0.08546000  0.89941000  1.0 0.267799228
H  H107  1  0.79455000  0.14682000  0.92517000  1.0 0.2483335448
H  H108  1  0.77418000  0.08986000  0.93889000  1.0 0.267799228
H  H109  1  0.76197000  0.00223000  0.58876000  1.0 0.1283624313
H  H110  1  0.76954000  0.06189000  0.55743000  1.0 0.1192377729
H  H111  1  0.85460000  0.97513000  0.56064000  1.0 0.090762218
H  H112  1  0.69173000  0.00186000  0.71342000  1.0 0.1192377729
H  H113  1  0.75784000  0.00944000  0.72640000  1.0 0.1192377729
H  H114  1  0.67189000  0.99919000  0.81163000  1.0 0.0973572909
H  H115  1  0.67167000  0.25121000  0.87086000  1.0 0.1192377729
H  H116  1  0.65294000  0.20961000  0.82055000  1.0 0.1130963071
H  H117  1  0.68968000  0.17152000  0.93087000  1.0 0.090762218
H  H118  1  0.92339000  0.10223000  0.86343000  1.0 0.1283624313
H  H119  1  0.88546000  0.15827000  0.86937000  1.0 0.1130963071
H  H120  1  0.85225000  0.04768000  0.90950000  1.0 0.090762218
H  H121  1  0.14043000  0.57499000  0.99976000  1.0 0.2759407713
H  H122  1  0.09399000  0.53437000  0.99284000  1.0 0.267799228
H  H123  1  0.21438000  0.50198000  0.66607000  1.0 0.2483335448
H  H124  1  0.26036000  0.50631000  0.62464000  1.0 0.2483335448
H  H125  1  0.35237000  0.60579000  0.65418000  1.0 0.2483335448
H  H126  1  0.32857000  0.58546000  0.60059000  1.0 0.267799228
H  H127  1  0.20545000  0.64682000  0.57483000  1.0 0.2483335448
H  H128  1  0.22582000  0.58986000  0.56111000  1.0 0.267799228
H  H129  1  0.23803000  0.50223000  0.91124000  1.0 0.1283624313
H  H130  1  0.23046000  0.56189000  0.94257000  1.0 0.1192377729
H  H131  1  0.14540000  0.47513000  0.93936000  1.0 0.090762218
H  H132  1  0.30827000  0.50186000  0.78658000  1.0 0.1192377729
H  H133  1  0.24216000  0.50944000  0.77360000  1.0 0.1192377729
H  H134  1  0.32811000  0.49919000  0.68837000  1.0 0.0973572909
H  H135  1  0.32833000  0.75121000  0.62914000  1.0 0.1192377729
H  H136  1  0.34706000  0.70961000  0.67945000  1.0 0.1130963071
H  H137  1  0.31032000  0.67152000  0.56913000  1.0 0.090762218
H  H138  1  0.07661000  0.60223000  0.63657000  1.0 0.1283624313
H  H139  1  0.11454000  0.65827000  0.63063000  1.0 0.1130963071
H  H140  1  0.14775000  0.54768000  0.59050000  1.0 0.090762218
H  H141  1  0.64043000  0.92501000  0.00024000  1.0 0.2759407713
H  H142  1  0.59399000  0.96563000  0.00716000  1.0 0.267799228
H  H143  1  0.71438000  0.99802000  0.33393000  1.0 0.2483335448
H  H144  1  0.76036000  0.99369000  0.37536000  1.0 0.2483335448
H  H145  1  0.85237000  0.89421000  0.34582000  1.0 0.2551517217
H  H146  1  0.82857000  0.91454000  0.39941000  1.0 0.267799228
H  H147  1  0.70545000  0.85318000  0.42517000  1.0 0.2483335448
H  H148  1  0.72582000  0.91014000  0.43889000  1.0 0.267799228
H  H149  1  0.73803000  0.99777000  0.08876000  1.0 0.1283624313
H  H150  1  0.73046000  0.93811000  0.05743000  1.0 0.1192377729
H  H151  1  0.64540000  0.02487000  0.06064000  1.0 0.090762218
H  H152  1  0.80827000  0.99814000  0.21342000  1.0 0.1192377729
H  H153  1  0.74216000  0.99056000  0.22640000  1.0 0.1192377729
H  H154  1  0.82811000  0.00081000  0.31163000  1.0 0.0973572909
H  H155  1  0.82833000  0.74879000  0.37086000  1.0 0.1192377729
H  H156  1  0.84706000  0.79039000  0.32055000  1.0 0.1130963071
H  H157  1  0.81032000  0.82848000  0.43087000  1.0 0.090762218
H  H158  1  0.57661000  0.89777000  0.36343000  1.0 0.1283624313
H  H159  1  0.61454000  0.84173000  0.36937000  1.0 0.1130963071
H  H160  1  0.64775000  0.95232000  0.40950000  1.0 0.090762218
H  H161  1  0.49976000  0.35957000  0.42501000  1.0 0.2759407713
H  H162  1  0.49284000  0.40601000  0.46563000  1.0 0.267799228
H  H163  1  0.16607000  0.28562000  0.49802000  1.0 0.2483335448
H  H164  1  0.12464000  0.23964000  0.49369000  1.0 0.2483335448
H  H165  1  0.15418000  0.14763000  0.39421000  1.0 0.2483335448
H  H166  1  0.10059000  0.17143000  0.41454000  1.0 0.267799228
H  H167  1  0.07483000  0.29455000  0.35318000  1.0 0.2483335448
H  H168  1  0.06111000  0.27418000  0.41014000  1.0 0.267799228
H  H169  1  0.41124000  0.26197000  0.49777000  1.0 0.1283624313
H  H170  1  0.44257000  0.26954000  0.43811000  1.0 0.1192377729
H  H171  1  0.43936000  0.35460000  0.52487000  1.0 0.090762218
H  H172  1  0.28658000  0.19173000  0.49814000  1.0 0.1192377729
H  H173  1  0.27360000  0.25784000  0.49056000  1.0 0.1192377729
H  H174  1  0.18837000  0.17189000  0.50081000  1.0 0.0973572909
H  H175  1  0.12914000  0.17167000  0.24879000  1.0 0.1192377729
H  H176  1  0.17945000  0.15294000  0.29039000  1.0 0.1130963071
H  H177  1  0.06913000  0.18968000  0.32848000  1.0 0.090762218
H  H178  1  0.13657000  0.42339000  0.39777000  1.0 0.1283624313
H  H179  1  0.13063000  0.38546000  0.34173000  1.0 0.1130963071
H  H180  1  0.09050000  0.35225000  0.45232000  1.0 0.090762218
H  H181  1  0.50024000  0.85957000  0.07499000  1.0 0.2759407713
H  H182  1  0.50716000  0.90601000  0.03437000  1.0 0.267799228
H  H183  1  0.83393000  0.78562000  0.00198000  1.0 0.2483335448
H  H184  1  0.87536000  0.73964000  0.00631000  1.0 0.2483335448
H  H185  1  0.84582000  0.64763000  0.10579000  1.0 0.2551517217
H  H186  1  0.89941000  0.67143000  0.08546000  1.0 0.267799228
H  H187  1  0.92517000  0.79455000  0.14682000  1.0 0.2483335448
H  H188  1  0.93889000  0.77418000  0.08986000  1.0 0.267799228
H  H189  1  0.58876000  0.76197000  0.00223000  1.0 0.1283624313
H  H190  1  0.55743000  0.76954000  0.06189000  1.0 0.1192377729
H  H191  1  0.56064000  0.85460000  0.97513000  1.0 0.090762218
H  H192  1  0.71342000  0.69173000  0.00186000  1.0 0.1192377729
H  H193  1  0.72640000  0.75784000  0.00944000  1.0 0.1192377729
H  H194  1  0.81163000  0.67189000  0.99919000  1.0 0.0973572909
H  H195  1  0.87086000  0.67167000  0.25121000  1.0 0.1192377729
H  H196  1  0.82055000  0.65294000  0.20961000  1.0 0.1130963071
H  H197  1  0.93087000  0.68968000  0.17152000  1.0 0.090762218
H  H198  1  0.86343000  0.92339000  0.10223000  1.0 0.1283624313
H  H199  1  0.86937000  0.88546000  0.15827000  1.0 0.1130963071
H  H200  1  0.90950000  0.85225000  0.04768000  1.0 0.090762218
H  H201  1  0.99976000  0.14043000  0.57499000  1.0 0.2759407713
H  H202  1  0.99284000  0.09399000  0.53437000  1.0 0.267799228
H  H203  1  0.66607000  0.21438000  0.50198000  1.0 0.2483335448
H  H204  1  0.62464000  0.26036000  0.50631000  1.0 0.2483335448
H  H205  1  0.65418000  0.35237000  0.60579000  1.0 0.2483335448
H  H206  1  0.60059000  0.32857000  0.58546000  1.0 0.267799228
H  H207  1  0.57483000  0.20545000  0.64682000  1.0 0.2483335448
H  H208  1  0.56111000  0.22582000  0.58986000  1.0 0.267799228
H  H209  1  0.91124000  0.23803000  0.50223000  1.0 0.1283624313
H  H210  1  0.94257000  0.23046000  0.56189000  1.0 0.1192377729
H  H211  1  0.93936000  0.14540000  0.47513000  1.0 0.090762218
H  H212  1  0.78658000  0.30827000  0.50186000  1.0 0.1192377729
H  H213  1  0.77360000  0.24216000  0.50944000  1.0 0.1192377729
H  H214  1  0.68837000  0.32811000  0.49919000  1.0 0.0973572909
H  H215  1  0.62914000  0.32833000  0.75121000  1.0 0.1192377729
H  H216  1  0.67945000  0.34706000  0.70961000  1.0 0.1130963071
H  H217  1  0.56913000  0.31032000  0.67152000  1.0 0.090762218
H  H218  1  0.63657000  0.07661000  0.60223000  1.0 0.1283624313
H  H219  1  0.63063000  0.11454000  0.65827000  1.0 0.1130963071
H  H220  1  0.59050000  0.14775000  0.54768000  1.0 0.090762218
H  H221  1  0.00024000  0.64043000  0.92501000  1.0 0.2759407713
H  H222  1  0.00716000  0.59399000  0.96563000  1.0 0.267799228
H  H223  1  0.33393000  0.71438000  0.99802000  1.0 0.2483335448
H  H224  1  0.37536000  0.76036000  0.99369000  1.0 0.2483335448
H  H225  1  0.34582000  0.85237000  0.89421000  1.0 0.2551517217
H  H226  1  0.39941000  0.82857000  0.91454000  1.0 0.267799228
H  H227  1  0.42517000  0.70545000  0.85318000  1.0 0.2483335448
H  H228  1  0.43889000  0.72582000  0.91014000  1.0 0.267799228
H  H229  1  0.08876000  0.73803000  0.99777000  1.0 0.1283624313
H  H230  1  0.05743000  0.73046000  0.93811000  1.0 0.1192377729
H  H231  1  0.06064000  0.64540000  0.02487000  1.0 0.090762218
H  H232  1  0.21342000  0.80827000  0.99814000  1.0 0.1192377729
H  H233  1  0.22640000  0.74216000  0.99056000  1.0 0.1192377729
H  H234  1  0.31163000  0.82811000  0.00081000  1.0 0.0973572909
H  H235  1  0.37086000  0.82833000  0.74879000  1.0 0.1192377729
H  H236  1  0.32055000  0.84706000  0.79039000  1.0 0.1130963071
H  H237  1  0.43087000  0.81032000  0.82848000  1.0 0.090762218
H  H238  1  0.36343000  0.57661000  0.89777000  1.0 0.1283624313
H  H239  1  0.36937000  0.61454000  0.84173000  1.0 0.1130963071
H  H240  1  0.40950000  0.64775000  0.95232000  1.0 0.090762218
Rh  Rh1  1  0.39431000  0.16553000  0.25401000  1.0 0.4693715161
Rh  Rh2  1  0.10569000  0.83447000  0.75401000  1.0 0.4693715161
Rh  Rh3  1  0.60569000  0.66553000  0.24599000  1.0 0.4693715161
Rh  Rh4  1  0.89431000  0.33447000  0.74599000  1.0 0.4693715161
Rh  Rh5  1  0.25401000  0.39431000  0.16553000  1.0 0.4693715161
Rh  Rh6  1  0.75401000  0.10569000  0.83447000  1.0 0.4693715161
Rh  Rh7  1  0.24599000  0.60569000  0.66553000  1.0 0.4693715161
Rh  Rh8  1  0.74599000  0.89431000  0.33447000  1.0 0.4693715161
Rh  Rh9  1  0.16553000  0.25401000  0.39431000  1.0 0.4693715161
Rh  Rh10  1  0.83447000  0.75401000  0.10569000  1.0 0.4693715161
Rh  Rh11  1  0.66553000  0.24599000  0.60569000  1.0 0.4693715161
Rh  Rh12  1  0.33447000  0.74599000  0.89431000  1.0 0.4693715161
Rh  Rh13  1  0.40469000  0.40469000  0.40469000  1.0 0.4693715161
Rh  Rh14  1  0.09531000  0.59531000  0.90469000  1.0 0.4693715161
Rh  Rh15  1  0.59531000  0.90469000  0.09531000  1.0 0.4693715161
Rh  Rh16  1  0.90469000  0.09531000  0.59531000  1.0 0.4693715161
C  C1  1  0.46860000  0.42240000  0.28980000  1.0 -0.2099038619
C  C2  1  0.49440000  0.46070000  0.33460000  1.0 0.0153919841
C  C3  1  0.52070000  0.51320000  0.30680000  1.0 0.492885205
C  C4  1  0.48250000  0.25940000  0.21940000  1.0 -0.17265777
C  C5  1  0.51010000  0.20110000  0.21110000  1.0 -0.0337652632
C  C6  1  0.57220000  0.20410000  0.21510000  1.0 0.4693715161
C  C7  1  0.28660000  0.14590000  0.17760000  1.0 -0.2099038619
C  C8  1  0.33320000  0.10240000  0.16410000  1.0 0.0495076059
C  C9  1  0.32440000  0.08280000  0.10250000  1.0 0.4693715161
C  C10  1  0.38330000  0.13520000  0.38420000  1.0 -0.2099038619
C  C11  1  0.41030000  0.08650000  0.35190000  1.0 0.0495076059
C  C12  1  0.39250000  0.02950000  0.38210000  1.0 0.4322234421
C  C13  1  0.03140000  0.57760000  0.78980000  1.0 -0.2099038619
C  C14  1  0.00560000  0.53930000  0.83460000  1.0 0.0153919841
C  C15  1  0.97930000  0.48680000  0.80680000  1.0 0.492885205
C  C16  1  0.01750000  0.74060000  0.71940000  1.0 -0.17265777
C  C17  1  0.98990000  0.79890000  0.71110000  1.0 -0.0337652632
C  C18  1  0.92780000  0.79590000  0.71510000  1.0 0.4693715161
C  C19  1  0.21340000  0.85410000  0.67760000  1.0 -0.2099038619
C  C20  1  0.16680000  0.89760000  0.66410000  1.0 0.0495076059
C  C21  1  0.17560000  0.91720000  0.60250000  1.0 0.4693715161
C  C22  1  0.11670000  0.86480000  0.88420000  1.0 -0.2099038619
C  C23  1  0.08970000  0.91350000  0.85190000  1.0 0.0495076059
C  C24  1  0.10750000  0.97050000  0.88210000  1.0 0.4322234421
C  C25  1  0.53140000  0.92240000  0.21020000  1.0 -0.2099038619
C  C26  1  0.50560000  0.96070000  0.16540000  1.0 0.0153919841
C  C27  1  0.47930000  0.01320000  0.19320000  1.0 0.492885205
C  C28  1  0.51750000  0.75940000  0.28060000  1.0 -0.17265777
C  C29  1  0.48990000  0.70110000  0.28890000  1.0 -0.0337652632
C  C30  1  0.42780000  0.70410000  0.28490000  1.0 0.4693715161
C  C31  1  0.71340000  0.64590000  0.32240000  1.0 -0.2099038619
C  C32  1  0.66680000  0.60240000  0.33590000  1.0 0.0495076059
C  C33  1  0.67560000  0.58280000  0.39750000  1.0 0.4693715161
C  C34  1  0.61670000  0.63520000  0.11580000  1.0 -0.2099038619
C  C35  1  0.58970000  0.58650000  0.14810000  1.0 0.0495076059
C  C36  1  0.60750000  0.52950000  0.11790000  1.0 0.4322234421
C  C37  1  0.96860000  0.07760000  0.71020000  1.0 -0.2099038619
C  C38  1  0.99440000  0.03930000  0.66540000  1.0 0.0153919841
C  C39  1  0.02070000  0.98680000  0.69320000  1.0 0.492885205
C  C40  1  0.98250000  0.24060000  0.78060000  1.0 -0.17265777
C  C41  1  0.01010000  0.29890000  0.78890000  1.0 -0.0337652632
C  C42  1  0.07220000  0.29590000  0.78490000  1.0 0.4693715161
C  C43  1  0.78660000  0.35410000  0.82240000  1.0 -0.2099038619
C  C44  1  0.83320000  0.39760000  0.83590000  1.0 0.0495076059
C  C45  1  0.82440000  0.41720000  0.89750000  1.0 0.4693715161
C  C46  1  0.88330000  0.36480000  0.61580000  1.0 -0.2099038619
C  C47  1  0.91030000  0.41350000  0.64810000  1.0 0.0495076059
C  C48  1  0.89250000  0.47050000  0.61790000  1.0 0.4322234421
C  C49  1  0.28980000  0.46860000  0.42240000  1.0 -0.2099038619
C  C50  1  0.33460000  0.49440000  0.46070000  1.0 0.0153919841
C  C51  1  0.30680000  0.52070000  0.51320000  1.0 0.492885205
C  C52  1  0.21940000  0.48250000  0.25940000  1.0 -0.17265777
C  C53  1  0.21110000  0.51010000  0.20110000  1.0 -0.0337652632
C  C54  1  0.21510000  0.57220000  0.20410000  1.0 0.4693715161
C  C55  1  0.17760000  0.28660000  0.14590000  1.0 -0.2099038619
C  C56  1  0.16410000  0.33320000  0.10240000  1.0 0.0495076059
C  C57  1  0.10250000  0.32440000  0.08280000  1.0 0.4693715161
C  C58  1  0.38420000  0.38330000  0.13520000  1.0 -0.2099038619
C  C59  1  0.35190000  0.41030000  0.08650000  1.0 0.0495076059
C  C60  1  0.38210000  0.39250000  0.02950000  1.0 0.4322234421
C  C61  1  0.78980000  0.03140000  0.57760000  1.0 -0.2099038619
C  C62  1  0.83460000  0.00560000  0.53930000  1.0 0.0153919841
C  C63  1  0.80680000  0.97930000  0.48680000  1.0 0.492885205
C  C64  1  0.71940000  0.01750000  0.74060000  1.0 -0.17265777
C  C65  1  0.71110000  0.98990000  0.79890000  1.0 -0.0337652632
C  C66  1  0.71510000  0.92780000  0.79590000  1.0 0.4693715161
C  C67  1  0.67760000  0.21340000  0.85410000  1.0 -0.2099038619
C  C68  1  0.66410000  0.16680000  0.89760000  1.0 0.0495076059
C  C69  1  0.60250000  0.17560000  0.91720000  1.0 0.4693715161
C  C70  1  0.88420000  0.11670000  0.86480000  1.0 -0.2099038619
C  C71  1  0.85190000  0.08970000  0.91350000  1.0 0.0495076059
C  C72  1  0.88210000  0.10750000  0.97050000  1.0 0.4322234421
C  C73  1  0.21020000  0.53140000  0.92240000  1.0 -0.2099038619
C  C74  1  0.16540000  0.50560000  0.96070000  1.0 0.0149103804
C  C75  1  0.19320000  0.47930000  0.01320000  1.0 0.492885205
C  C76  1  0.28060000  0.51750000  0.75940000  1.0 -0.17265777
C  C77  1  0.28890000  0.48990000  0.70110000  1.0 -0.0337652632
C  C78  1  0.28490000  0.42780000  0.70410000  1.0 0.4693715161
C  C79  1  0.32240000  0.71340000  0.64590000  1.0 -0.2099038619
C  C80  1  0.33590000  0.66680000  0.60240000  1.0 0.0495076059
C  C81  1  0.39750000  0.67560000  0.58280000  1.0 0.4693715161
C  C82  1  0.11580000  0.61670000  0.63520000  1.0 -0.2099038619
C  C83  1  0.14810000  0.58970000  0.58650000  1.0 0.0495076059
C  C84  1  0.11790000  0.60750000  0.52950000  1.0 0.4322234421
C  C85  1  0.71020000  0.96860000  0.07760000  1.0 -0.2099038619
C  C86  1  0.66540000  0.99440000  0.03930000  1.0 0.0153919841
C  C87  1  0.69320000  0.02070000  0.98680000  1.0 0.492885205
C  C88  1  0.78060000  0.98250000  0.24060000  1.0 -0.17265777
C  C89  1  0.78890000  0.01010000  0.29890000  1.0 -0.0337652632
C  C90  1  0.78490000  0.07220000  0.29590000  1.0 0.4693715161
C  C91  1  0.82240000  0.78660000  0.35410000  1.0 -0.2099038619
C  C92  1  0.83590000  0.83320000  0.39760000  1.0 0.0495076059
C  C93  1  0.89750000  0.82440000  0.41720000  1.0 0.4693715161
C  C94  1  0.61580000  0.88330000  0.36480000  1.0 -0.2099038619
C  C95  1  0.64810000  0.91030000  0.41350000  1.0 0.0495076059
C  C96  1  0.61790000  0.89250000  0.47050000  1.0 0.4322234421
C  C97  1  0.42240000  0.28980000  0.46860000  1.0 -0.2099038619
C  C98  1  0.46070000  0.33460000  0.49440000  1.0 0.0153919841
C  C99  1  0.51320000  0.30680000  0.52070000  1.0 0.492885205
C  C100  1  0.25940000  0.21940000  0.48250000  1.0 -0.17265777
C  C101  1  0.20110000  0.21110000  0.51010000  1.0 -0.0337652632
C  C102  1  0.20410000  0.21510000  0.57220000  1.0 0.4693715161
C  C103  1  0.14590000  0.17760000  0.28660000  1.0 -0.2099038619
C  C104  1  0.10240000  0.16410000  0.33320000  1.0 0.0495076059
C  C105  1  0.08280000  0.10250000  0.32440000  1.0 0.4693715161
C  C106  1  0.13520000  0.38420000  0.38330000  1.0 -0.2099038619
C  C107  1  0.08650000  0.35190000  0.41030000  1.0 0.0495076059
C  C108  1  0.02950000  0.38210000  0.39250000  1.0 0.4322234421
C  C109  1  0.57760000  0.78980000  0.03140000  1.0 -0.2099038619
C  C110  1  0.53930000  0.83460000  0.00560000  1.0 0.0153919841
C  C111  1  0.48680000  0.80680000  0.97930000  1.0 0.492885205
C  C112  1  0.74060000  0.71940000  0.01750000  1.0 -0.17265777
C  C113  1  0.79890000  0.71110000  0.98990000  1.0 -0.0337652632
C  C114  1  0.79590000  0.71510000  0.92780000  1.0 0.4693715161
C  C115  1  0.85410000  0.67760000  0.21340000  1.0 -0.2099038619
C  C116  1  0.89760000  0.66410000  0.16680000  1.0 0.0495076059
C  C117  1  0.91720000  0.60250000  0.17560000  1.0 0.4693715161
C  C118  1  0.86480000  0.88420000  0.11670000  1.0 -0.2099038619
C  C119  1  0.91350000  0.85190000  0.08970000  1.0 0.0495076059
C  C120  1  0.97050000  0.88210000  0.10750000  1.0 0.4322234421
C  C121  1  0.92240000  0.21020000  0.53140000  1.0 -0.2099038619
C  C122  1  0.96070000  0.16540000  0.50560000  1.0 0.0153919841
C  C123  1  0.01320000  0.19320000  0.47930000  1.0 0.492885205
C  C124  1  0.75940000  0.28060000  0.51750000  1.0 -0.17265777
C  C125  1  0.70110000  0.28890000  0.48990000  1.0 -0.0337652632
C  C126  1  0.70410000  0.28490000  0.42780000  1.0 0.4693715161
C  C127  1  0.64590000  0.32240000  0.71340000  1.0 -0.2099038619
C  C128  1  0.60240000  0.33590000  0.66680000  1.0 0.0495076059
C  C129  1  0.58280000  0.39750000  0.67560000  1.0 0.4693715161
C  C130  1  0.63520000  0.11580000  0.61670000  1.0 -0.2099038619
C  C131  1  0.58650000  0.14810000  0.58970000  1.0 0.0495076059
C  C132  1  0.52950000  0.11790000  0.60750000  1.0 0.4322234421
C  C133  1  0.07760000  0.71020000  0.96860000  1.0 -0.2099038619
C  C134  1  0.03930000  0.66540000  0.99440000  1.0 0.0149103804
C  C135  1  0.98680000  0.69320000  0.02070000  1.0 0.492885205
C  C136  1  0.24060000  0.78060000  0.98250000  1.0 -0.17265777
C  C137  1  0.29890000  0.78890000  0.01010000  1.0 -0.0337652632
C  C138  1  0.29590000  0.78490000  0.07220000  1.0 0.4693715161
C  C139  1  0.35410000  0.82240000  0.78660000  1.0 -0.2099038619
C  C140  1  0.39760000  0.83590000  0.83320000  1.0 0.0495076059
C  C141  1  0.41720000  0.89750000  0.82440000  1.0 0.4693715161
C  C142  1  0.36480000  0.61580000  0.88330000  1.0 -0.2099038619
C  C143  1  0.41350000  0.64810000  0.91030000  1.0 0.0495076059
C  C144  1  0.47050000  0.61790000  0.89250000  1.0 0.4322234421
S  S1  1  0.44005000  0.35952000  0.32477000  1.0 -0.2995008208
S  S2  1  0.40526000  0.25234000  0.20911000  1.0 -0.2995008208
S  S3  1  0.29598000  0.16606000  0.25250000  1.0 -0.3089405568
S  S4  1  0.40270000  0.20187000  0.34506000  1.0 -0.3196737142
S  S5  1  0.05995000  0.64048000  0.82477000  1.0 -0.2995008208
S  S6  1  0.09474000  0.74766000  0.70911000  1.0 -0.2995008208
S  S7  1  0.20402000  0.83394000  0.75250000  1.0 -0.3089405568
S  S8  1  0.09730000  0.79813000  0.84506000  1.0 -0.3196737142
S  S9  1  0.55995000  0.85952000  0.17523000  1.0 -0.2995008208
S  S10  1  0.59474000  0.75234000  0.29089000  1.0 -0.2995008208
S  S11  1  0.70402000  0.66606000  0.24750000  1.0 -0.3089405568
S  S12  1  0.59730000  0.70187000  0.15494000  1.0 -0.3196737142
S  S13  1  0.94005000  0.14048000  0.67523000  1.0 -0.2995008208
S  S14  1  0.90526000  0.24766000  0.79089000  1.0 -0.2995008208
S  S15  1  0.79598000  0.33394000  0.74750000  1.0 -0.3089405568
S  S16  1  0.90270000  0.29813000  0.65494000  1.0 -0.3196737142
S  S17  1  0.32477000  0.44005000  0.35952000  1.0 -0.2995008208
S  S18  1  0.20911000  0.40526000  0.25234000  1.0 -0.2995008208
S  S19  1  0.25250000  0.29598000  0.16606000  1.0 -0.3089405568
S  S20  1  0.34506000  0.40270000  0.20187000  1.0 -0.3196737142
S  S21  1  0.82477000  0.05995000  0.64048000  1.0 -0.2995008208
S  S22  1  0.70911000  0.09474000  0.74766000  1.0 -0.2995008208
S  S23  1  0.75250000  0.20402000  0.83394000  1.0 -0.3089405568
S  S24  1  0.84506000  0.09730000  0.79813000  1.0 -0.3196737142
S  S25  1  0.17523000  0.55995000  0.85952000  1.0 -0.2995008208
S  S26  1  0.29089000  0.59474000  0.75234000  1.0 -0.2995008208
S  S27  1  0.24750000  0.70402000  0.66606000  1.0 -0.3089405568
S  S28  1  0.15494000  0.59730000  0.70187000  1.0 -0.3196737142
S  S29  1  0.67523000  0.94005000  0.14048000  1.0 -0.2995008208
S  S30  1  0.79089000  0.90526000  0.24766000  1.0 -0.2995008208
S  S31  1  0.74750000  0.79598000  0.33394000  1.0 -0.3089405568
S  S32  1  0.65494000  0.90270000  0.29813000  1.0 -0.3196737142
S  S33  1  0.35952000  0.32477000  0.44005000  1.0 -0.2995008208
S  S34  1  0.25234000  0.20911000  0.40526000  1.0 -0.2995008208
S  S35  1  0.16606000  0.25250000  0.29598000  1.0 -0.3089405568
S  S36  1  0.20187000  0.34506000  0.40270000  1.0 -0.3196737142
S  S37  1  0.64048000  0.82477000  0.05995000  1.0 -0.2995008208
S  S38  1  0.74766000  0.70911000  0.09474000  1.0 -0.2995008208
S  S39  1  0.83394000  0.75250000  0.20402000  1.0 -0.3089405568
S  S40  1  0.79813000  0.84506000  0.09730000  1.0 -0.3196737142
S  S41  1  0.85952000  0.17523000  0.55995000  1.0 -0.2995008208
S  S42  1  0.75234000  0.29089000  0.59474000  1.0 -0.2995008208
S  S43  1  0.66606000  0.24750000  0.70402000  1.0 -0.3089405568
S  S44  1  0.70187000  0.15494000  0.59730000  1.0 -0.3196737142
S  S45  1  0.14048000  0.67523000  0.94005000  1.0 -0.2995008208
S  S46  1  0.24766000  0.79089000  0.90526000  1.0 -0.2995008208
S  S47  1  0.33394000  0.74750000  0.79598000  1.0 -0.3089405568
S  S48  1  0.29813000  0.65494000  0.90270000  1.0 -0.3196737142
N  N1  1  0.44959000  0.47513000  0.37591000  1.0 -0.4692489923
N  N2  1  0.48380000  0.16020000  0.25040000  1.0 -0.4893576927
N  N3  1  0.38740000  0.12770000  0.17460000  1.0 -0.4585861238
N  N4  1  0.38980000  0.08656000  0.29450000  1.0 -0.4692489923
N  N5  1  0.05041000  0.52487000  0.87591000  1.0 -0.4692489923
N  N6  1  0.01620000  0.83980000  0.75040000  1.0 -0.4893576927
N  N7  1  0.11260000  0.87230000  0.67460000  1.0 -0.4585861238
N  N8  1  0.11020000  0.91344000  0.79450000  1.0 -0.4692489923
N  N9  1  0.55041000  0.97513000  0.12409000  1.0 -0.4692489923
N  N10  1  0.51620000  0.66020000  0.24960000  1.0 -0.4893576927
N  N11  1  0.61260000  0.62770000  0.32540000  1.0 -0.4585861238
N  N12  1  0.61020000  0.58656000  0.20550000  1.0 -0.4692489923
N  N13  1  0.94959000  0.02487000  0.62409000  1.0 -0.4692489923
N  N14  1  0.98380000  0.33980000  0.74960000  1.0 -0.4893576927
N  N15  1  0.88740000  0.37230000  0.82540000  1.0 -0.4585861238
N  N16  1  0.88980000  0.41344000  0.70550000  1.0 -0.4692489923
N  N17  1  0.37591000  0.44959000  0.47513000  1.0 -0.4692489923
N  N18  1  0.25040000  0.48380000  0.16020000  1.0 -0.4893576927
N  N19  1  0.17460000  0.38740000  0.12770000  1.0 -0.4585861238
N  N20  1  0.29450000  0.38980000  0.08656000  1.0 -0.4692489923
N  N21  1  0.87591000  0.05041000  0.52487000  1.0 -0.4692489923
N  N22  1  0.75040000  0.01620000  0.83980000  1.0 -0.4893576927
N  N23  1  0.67460000  0.11260000  0.87230000  1.0 -0.4585861238
N  N24  1  0.79450000  0.11020000  0.91344000  1.0 -0.4692489923
N  N25  1  0.12409000  0.55041000  0.97513000  1.0 -0.4692489923
N  N26  1  0.24960000  0.51620000  0.66020000  1.0 -0.4893576927
N  N27  1  0.32540000  0.61260000  0.62770000  1.0 -0.4585861238
N  N28  1  0.20550000  0.61020000  0.58656000  1.0 -0.4692489923
N  N29  1  0.62409000  0.94959000  0.02487000  1.0 -0.4692489923
N  N30  1  0.74960000  0.98380000  0.33980000  1.0 -0.4893576927
N  N31  1  0.82540000  0.88740000  0.37230000  1.0 -0.4585861238
N  N32  1  0.70550000  0.88980000  0.41344000  1.0 -0.4692489923
N  N33  1  0.47513000  0.37591000  0.44959000  1.0 -0.4692489923
N  N34  1  0.16020000  0.25040000  0.48380000  1.0 -0.4893576927
N  N35  1  0.12770000  0.17460000  0.38740000  1.0 -0.4585861238
N  N36  1  0.08656000  0.29450000  0.38980000  1.0 -0.4692489923
N  N37  1  0.52487000  0.87591000  0.05041000  1.0 -0.4692489923
N  N38  1  0.83980000  0.75040000  0.01620000  1.0 -0.4893576927
N  N39  1  0.87230000  0.67460000  0.11260000  1.0 -0.4585861238
N  N40  1  0.91344000  0.79450000  0.11020000  1.0 -0.4692489923
N  N41  1  0.97513000  0.12409000  0.55041000  1.0 -0.4692489923
N  N42  1  0.66020000  0.24960000  0.51620000  1.0 -0.4893576927
N  N43  1  0.62770000  0.32540000  0.61260000  1.0 -0.4585861238
N  N44  1  0.58656000  0.20550000  0.61020000  1.0 -0.4692489923
N  N45  1  0.02487000  0.62409000  0.94959000  1.0 -0.4692489923
N  N46  1  0.33980000  0.74960000  0.98380000  1.0 -0.4893576927
N  N47  1  0.37230000  0.82540000  0.88740000  1.0 -0.4585861238
N  N48  1  0.41344000  0.70550000  0.88980000  1.0 -0.4692489923
O  O1  1  0.50300000  0.55950000  0.31900000  1.0 -0.4954950591
O  O2  1  0.56380000  0.50750000  0.28160000  1.0 -0.4893576927
O  O3  1  0.59430000  0.16110000  0.22430000  1.0 -0.1886397423
O  O4  1  0.59920000  0.23550000  0.18680000  1.0 -0.5173386903
O  O5  1  0.36270000  0.08070000  0.07190000  1.0 -0.3628205629
O  O6  1  0.28200000  0.05990000  0.08730000  1.0 -0.3529892386
O  O7  1  0.36910000  0.99220000  0.36110000  1.0 -0.2995008208
O  O8  1  0.40280000  0.02040000  0.42900000  1.0 -0.2995008208
O  O9  1  0.71880000  0.18610000  0.21490000  1.0 -0.6989550264
O  O10  1  0.58860000  0.18520000  0.27200000  1.0 -0.2476641134
O  O11  1  0.99700000  0.44050000  0.81900000  1.0 -0.4954950591
O  O12  1  0.93620000  0.49250000  0.78160000  1.0 -0.4893576927
O  O13  1  0.90570000  0.83890000  0.72430000  1.0 -0.1886397423
O  O14  1  0.90080000  0.76450000  0.68680000  1.0 -0.5173386903
O  O15  1  0.13730000  0.91930000  0.57190000  1.0 -0.3628205629
O  O16  1  0.21800000  0.94010000  0.58730000  1.0 -0.3529892386
O  O17  1  0.13090000  0.00780000  0.86110000  1.0 -0.2995008208
O  O18  1  0.09720000  0.97960000  0.92900000  1.0 -0.2995008208
O  O19  1  0.78120000  0.81390000  0.71490000  1.0 -0.6989550264
O  O20  1  0.91140000  0.81480000  0.77200000  1.0 -0.2476641134
O  O21  1  0.49700000  0.05950000  0.18100000  1.0 -0.4954950591
O  O22  1  0.43620000  0.00750000  0.21840000  1.0 -0.4893576927
O  O23  1  0.40570000  0.66110000  0.27570000  1.0 -0.1886397423
O  O24  1  0.40080000  0.73550000  0.31320000  1.0 -0.5173386903
O  O25  1  0.63730000  0.58070000  0.42810000  1.0 -0.3628205629
O  O26  1  0.71800000  0.55990000  0.41270000  1.0 -0.3529892386
O  O27  1  0.63090000  0.49220000  0.13890000  1.0 -0.2995008208
O  O28  1  0.59720000  0.52040000  0.07100000  1.0 -0.2995008208
O  O29  1  0.28120000  0.68610000  0.28510000  1.0 -0.6989550264
O  O30  1  0.41140000  0.68520000  0.22800000  1.0 -0.2476641134
O  O31  1  0.00300000  0.94050000  0.68100000  1.0 -0.4954950591
O  O32  1  0.06380000  0.99250000  0.71840000  1.0 -0.4893576927
O  O33  1  0.09430000  0.33890000  0.77570000  1.0 -0.1886397423
O  O34  1  0.09920000  0.26450000  0.81320000  1.0 -0.5173386903
O  O35  1  0.86270000  0.41930000  0.92810000  1.0 -0.3628205629
O  O36  1  0.78200000  0.44010000  0.91270000  1.0 -0.3529892386
O  O37  1  0.86910000  0.50780000  0.63890000  1.0 -0.2995008208
O  O38  1  0.90280000  0.47960000  0.57100000  1.0 -0.2995008208
O  O39  1  0.21880000  0.31390000  0.78510000  1.0 -0.6989550264
O  O40  1  0.08860000  0.31480000  0.72800000  1.0 -0.2476641134
O  O41  1  0.31900000  0.50300000  0.55950000  1.0 -0.4954950591
O  O42  1  0.28160000  0.56380000  0.50750000  1.0 -0.4893576927
O  O43  1  0.22430000  0.59430000  0.16110000  1.0 -0.1886397423
O  O44  1  0.18680000  0.59920000  0.23550000  1.0 -0.5173386903
O  O45  1  0.07190000  0.36270000  0.08070000  1.0 -0.3628205629
O  O46  1  0.08730000  0.28200000  0.05990000  1.0 -0.3529892386
O  O47  1  0.36110000  0.36910000  0.99220000  1.0 -0.2995008208
O  O48  1  0.42900000  0.40280000  0.02040000  1.0 -0.2995008208
O  O49  1  0.21490000  0.71880000  0.18610000  1.0 -0.6989550264
O  O50  1  0.27200000  0.58860000  0.18520000  1.0 -0.2476641134
O  O51  1  0.81900000  0.99700000  0.44050000  1.0 -0.4954950591
O  O52  1  0.78160000  0.93620000  0.49250000  1.0 -0.4893576927
O  O53  1  0.72430000  0.90570000  0.83890000  1.0 -0.1886397423
O  O54  1  0.68680000  0.90080000  0.76450000  1.0 -0.5173386903
O  O55  1  0.57190000  0.13730000  0.91930000  1.0 -0.3628205629
O  O56  1  0.58730000  0.21800000  0.94010000  1.0 -0.3529892386
O  O57  1  0.86110000  0.13090000  0.00780000  1.0 -0.2995008208
O  O58  1  0.92900000  0.09720000  0.97960000  1.0 -0.2995008208
O  O59  1  0.71490000  0.78120000  0.81390000  1.0 -0.6989550264
O  O60  1  0.77200000  0.91140000  0.81480000  1.0 -0.2476641134
O  O61  1  0.18100000  0.49700000  0.05950000  1.0 -0.4954950591
O  O62  1  0.21840000  0.43620000  0.00750000  1.0 -0.4893576927
O  O63  1  0.27570000  0.40570000  0.66110000  1.0 -0.1886397423
O  O64  1  0.31320000  0.40080000  0.73550000  1.0 -0.5173386903
O  O65  1  0.42810000  0.63730000  0.58070000  1.0 -0.3628205629
O  O66  1  0.41270000  0.71800000  0.55990000  1.0 -0.3529892386
O  O67  1  0.13890000  0.63090000  0.49220000  1.0 -0.2995008208
O  O68  1  0.07100000  0.59720000  0.52040000  1.0 -0.2995008208
O  O69  1  0.28510000  0.28120000  0.68610000  1.0 -0.6989550264
O  O70  1  0.22800000  0.41140000  0.68520000  1.0 -0.2476641134
O  O71  1  0.68100000  0.00300000  0.94050000  1.0 -0.4954950591
O  O72  1  0.71840000  0.06380000  0.99250000  1.0 -0.4893576927
O  O73  1  0.77570000  0.09430000  0.33890000  1.0 -0.1886397423
O  O74  1  0.81320000  0.09920000  0.26450000  1.0 -0.5173386903
O  O75  1  0.92810000  0.86270000  0.41930000  1.0 -0.3628205629
O  O76  1  0.91270000  0.78200000  0.44010000  1.0 -0.3529892386
O  O77  1  0.63890000  0.86910000  0.50780000  1.0 -0.2995008208
O  O78  1  0.57100000  0.90280000  0.47960000  1.0 -0.2995008208
O  O79  1  0.78510000  0.21880000  0.31390000  1.0 -0.6989550264
O  O80  1  0.72800000  0.08860000  0.31480000  1.0 -0.2476641134
O  O81  1  0.55950000  0.31900000  0.50300000  1.0 -0.4954950591
O  O82  1  0.50750000  0.28160000  0.56380000  1.0 -0.4893576927
O  O83  1  0.16110000  0.22430000  0.59430000  1.0 -0.1886397423
O  O84  1  0.23550000  0.18680000  0.59920000  1.0 -0.5173386903
O  O85  1  0.08070000  0.07190000  0.36270000  1.0 -0.3628205629
O  O86  1  0.05990000  0.08730000  0.28200000  1.0 -0.3529892386
O  O87  1  0.99220000  0.36110000  0.36910000  1.0 -0.2995008208
O  O88  1  0.02040000  0.42900000  0.40280000  1.0 -0.2995008208
O  O89  1  0.18610000  0.21490000  0.71880000  1.0 -0.6989550264
O  O90  1  0.18520000  0.27200000  0.58860000  1.0 -0.2476641134
O  O91  1  0.44050000  0.81900000  0.99700000  1.0 -0.4954950591
O  O92  1  0.49250000  0.78160000  0.93620000  1.0 -0.4893576927
O  O93  1  0.83890000  0.72430000  0.90570000  1.0 -0.1886397423
O  O94  1  0.76450000  0.68680000  0.90080000  1.0 -0.5173386903
O  O95  1  0.91930000  0.57190000  0.13730000  1.0 -0.3628205629
O  O96  1  0.94010000  0.58730000  0.21800000  1.0 -0.3529892386
O  O97  1  0.00780000  0.86110000  0.13090000  1.0 -0.2995008208
O  O98  1  0.97960000  0.92900000  0.09720000  1.0 -0.2995008208
O  O99  1  0.81390000  0.71490000  0.78120000  1.0 -0.6989550264
O  O100  1  0.81480000  0.77200000  0.91140000  1.0 -0.2476641134
O  O101  1  0.05950000  0.18100000  0.49700000  1.0 -0.4893576927
O  O102  1  0.00750000  0.21840000  0.43620000  1.0 -0.4893576927
O  O103  1  0.66110000  0.27570000  0.40570000  1.0 -0.1886397423
O  O104  1  0.73550000  0.31320000  0.40080000  1.0 -0.5173386903
O  O105  1  0.58070000  0.42810000  0.63730000  1.0 -0.3628205629
O  O106  1  0.55990000  0.41270000  0.71800000  1.0 -0.3529892386
O  O107  1  0.49220000  0.13890000  0.63090000  1.0 -0.2995008208
O  O108  1  0.52040000  0.07100000  0.59720000  1.0 -0.2995008208
O  O109  1  0.68610000  0.28510000  0.28120000  1.0 -0.6989550264
O  O110  1  0.68520000  0.22800000  0.41140000  1.0 -0.2476641134
O  O111  1  0.94050000  0.68100000  0.00300000  1.0 -0.4954950591
O  O112  1  0.99250000  0.71840000  0.06380000  1.0 -0.4893576927
O  O113  1  0.33890000  0.77570000  0.09430000  1.0 -0.1886397423
O  O114  1  0.26450000  0.81320000  0.09920000  1.0 -0.5173386903
O  O115  1  0.41930000  0.92810000  0.86270000  1.0 -0.3628205629
O  O116  1  0.44010000  0.91270000  0.78200000  1.0 -0.3529892386
O  O117  1  0.50780000  0.63890000  0.86910000  1.0 -0.2995008208
O  O118  1  0.47960000  0.57100000  0.90280000  1.0 -0.2995008208
O  O119  1  0.31390000  0.78510000  0.21880000  1.0 -0.6989550264
O  O120  1  0.31480000  0.72800000  0.08860000  1.0 -0.2476641134
O  O121  1  0.30418000  0.30418000  0.30418000  1.0 -0.8145016999
O  O122  1  0.19582000  0.69582000  0.80418000  1.0 -0.8145016999
O  O123  1  0.69582000  0.80418000  0.19582000  1.0 -0.8151030512
O  O124  1  0.80418000  0.19582000  0.69582000  1.0 -0.8145016999
O  O125  1  0.79070000  0.29070000  0.20930000  1.0 -0.2386299418
O  O126  1  0.62710000  0.12710000  0.37290000  1.0 -0.0162475029
O  O127  1  0.65780000  0.15780000  0.34220000  1.0 -0.1583400601
O  O128  1  0.76640000  0.26640000  0.23360000  1.0 -0.7336806626
O  O129  1  0.70930000  0.70930000  0.70930000  1.0 -0.2386299418
O  O130  1  0.87290000  0.87290000  0.87290000  1.0 -0.0162475029
O  O131  1  0.84220000  0.84220000  0.84220000  1.0 -0.1583400601
O  O132  1  0.73360000  0.73360000  0.73360000  1.0 -0.7336806626
O  O133  1  0.20930000  0.79070000  0.29070000  1.0 -0.2386299418
O  O134  1  0.37290000  0.62710000  0.12710000  1.0 -0.0162475029
O  O135  1  0.34220000  0.65780000  0.15780000  1.0 -0.1583400601
O  O136  1  0.23360000  0.76640000  0.26640000  1.0 -0.7336806626
O  O137  1  0.29070000  0.20930000  0.79070000  1.0 -0.2386299418
O  O138  1  0.12710000  0.37290000  0.62710000  1.0 -0.0148934936
O  O139  1  0.15780000  0.34220000  0.65780000  1.0 -0.1583400601
O  O140  1  0.26640000  0.23360000  0.76640000  1.0 -0.7336806626
