# DDEC6 charges by PACMAN v1.1 (https://github.com/mtap-research/PACMAN-charge/)
data_DACNII_ASR_pacman
_symmetry_space_group_name_H-M   'P 1'
_cell_length_a   23.46940000
_cell_length_b   23.46940000
_cell_length_c   23.46940000
_cell_angle_alpha   90.00000000
_cell_angle_beta   90.00000000
_cell_angle_gamma   90.00000000
_symmetry_Int_Tables_number   1
_chemical_formula_structural   Nd5Zn2H30Rh2C18S6N6O25
_chemical_formula_sum   'Nd40 Zn16 H240 Rh16 C144 S48 N48 O200'
_cell_volume   12927.24443473
_cell_formula_units_Z   8
loop_
 _symmetry_equiv_pos_site_id
 _symmetry_equiv_pos_as_xyz
  1  'x, y, z'
loop_
 _atom_site_type_symbol
 _atom_site_label
 _atom_site_symmetry_multiplicity
 _atom_site_fract_x
 _atom_site_fract_y
 _atom_site_fract_z
 _atom_site_occupancy
 _atom_site_charge
Nd  Nd1  1  0.59510000  0.06120000  0.49470000  1.0 0.5400187535
Nd  Nd2  1  0.71043000  0.30049000  0.22776000  1.0 0.644459686
Nd  Nd3  1  0.75330000  0.58240000  0.64220000  1.0 1.5670966916
Nd  Nd4  1  0.90490000  0.93880000  0.99470000  1.0 0.5400187535
Nd  Nd5  1  0.78957000  0.69951000  0.72776000  1.0 0.6473515047
Nd  Nd6  1  0.74670000  0.41760000  0.14220000  1.0 1.5629122668
Nd  Nd7  1  0.40490000  0.56120000  0.00530000  1.0 0.5400187535
Nd  Nd8  1  0.28957000  0.80049000  0.27224000  1.0 0.6473515047
Nd  Nd9  1  0.24670000  0.08240000  0.85780000  1.0 1.5670966916
Nd  Nd10  1  0.09510000  0.43880000  0.50530000  1.0 0.5400187535
Nd  Nd11  1  0.21043000  0.19951000  0.77224000  1.0 0.644459686
Nd  Nd12  1  0.25330000  0.91760000  0.35780000  1.0 1.5629122668
Nd  Nd13  1  0.49470000  0.59510000  0.06120000  1.0 0.5400187535
Nd  Nd14  1  0.22776000  0.71043000  0.30049000  1.0 0.6473515047
Nd  Nd15  1  0.64220000  0.75330000  0.58240000  1.0 1.5670966916
Nd  Nd16  1  0.99470000  0.90490000  0.93880000  1.0 0.5400187535
Nd  Nd17  1  0.72776000  0.78957000  0.69951000  1.0 0.6473515047
Nd  Nd18  1  0.14220000  0.74670000  0.41760000  1.0 1.5629122668
Nd  Nd19  1  0.00530000  0.40490000  0.56120000  1.0 0.5400187535
Nd  Nd20  1  0.27224000  0.28957000  0.80049000  1.0 0.6473515047
Nd  Nd21  1  0.85780000  0.24670000  0.08240000  1.0 1.5629122668
Nd  Nd22  1  0.50530000  0.09510000  0.43880000  1.0 0.5400187535
Nd  Nd23  1  0.77224000  0.21043000  0.19951000  1.0 0.644459686
Nd  Nd24  1  0.35780000  0.25330000  0.91760000  1.0 1.5670966916
Nd  Nd25  1  0.06120000  0.49470000  0.59510000  1.0 0.5400187535
Nd  Nd26  1  0.30049000  0.22776000  0.71043000  1.0 0.6473515047
Nd  Nd27  1  0.58240000  0.64220000  0.75330000  1.0 1.5670966916
Nd  Nd28  1  0.93880000  0.99470000  0.90490000  1.0 0.5400187535
Nd  Nd29  1  0.69951000  0.72776000  0.78957000  1.0 0.6473515047
Nd  Nd30  1  0.41760000  0.14220000  0.74670000  1.0 1.5670966916
Nd  Nd31  1  0.56120000  0.00530000  0.40490000  1.0 0.5400187535
Nd  Nd32  1  0.80049000  0.27224000  0.28957000  1.0 0.6473515047
Nd  Nd33  1  0.08240000  0.85780000  0.24670000  1.0 1.5629122668
Nd  Nd34  1  0.43880000  0.50530000  0.09510000  1.0 0.5400187535
Nd  Nd35  1  0.19951000  0.77224000  0.21043000  1.0 0.6473515047
Nd  Nd36  1  0.91760000  0.35780000  0.25330000  1.0 1.5629122668
Nd  Nd37  1  0.49058000  0.99058000  0.50942000  1.0 0.6684265548
Nd  Nd38  1  0.00942000  0.00942000  0.00942000  1.0 0.6684265548
Nd  Nd39  1  0.50942000  0.49058000  0.99058000  1.0 0.6684265548
Nd  Nd40  1  0.99058000  0.50942000  0.49058000  1.0 0.6644636604
Zn  Zn1  1  0.49871000  0.43390000  0.38877000  1.0 0.5302731408
Zn  Zn2  1  0.00129000  0.56610000  0.88877000  1.0 0.5302731408
Zn  Zn3  1  0.50129000  0.93390000  0.11123000  1.0 0.5302731408
Zn  Zn4  1  0.99871000  0.06610000  0.61123000  1.0 0.5302731408
Zn  Zn5  1  0.38877000  0.49871000  0.43390000  1.0 0.5302731408
Zn  Zn6  1  0.88877000  0.00129000  0.56610000  1.0 0.5302731408
Zn  Zn7  1  0.11123000  0.50129000  0.93390000  1.0 0.5302731408
Zn  Zn8  1  0.61123000  0.99871000  0.06610000  1.0 0.5302731408
Zn  Zn9  1  0.43390000  0.38877000  0.49871000  1.0 0.5302731408
Zn  Zn10  1  0.56610000  0.88877000  0.00129000  1.0 0.5302731408
Zn  Zn11  1  0.93390000  0.11123000  0.50129000  1.0 0.5302731408
Zn  Zn12  1  0.06610000  0.61123000  0.99871000  1.0 0.5302731408
Zn  Zn13  1  0.50481000  0.50481000  0.50481000  1.0 0.5182716015
Zn  Zn14  1  0.99519000  0.49519000  0.00481000  1.0 0.5182716015
Zn  Zn15  1  0.49519000  0.00481000  0.99519000  1.0 0.5182716015
Zn  Zn16  1  0.00481000  0.99519000  0.49519000  1.0 0.5182716015
H  H1  1  0.40053000  0.25990000  0.33216000  1.0 0.2663606791
H  H2  1  0.35363000  0.26844000  0.29141000  1.0 0.2594305066
H  H3  1  0.59191000  0.26175000  0.47370000  1.0 0.2509229072
H  H4  1  0.63851000  0.26596000  0.51542000  1.0 0.236426315
H  H5  1  0.68801000  0.40657000  0.45955000  1.0 0.2509229072
H  H6  1  0.70180000  0.34920000  0.48044000  1.0 0.2509229072
H  H7  1  0.61468000  0.36525000  0.61105000  1.0 0.2509229072
H  H8  1  0.66828000  0.34705000  0.58422000  1.0 0.2594305066
H  H9  1  0.50013000  0.35241000  0.26105000  1.0 0.128788023
H  H10  1  0.49183000  0.31987000  0.32077000  1.0 0.1190260646
H  H11  1  0.40591000  0.32567000  0.23342000  1.0 0.0911505332
H  H12  1  0.48068000  0.26456000  0.57710000  1.0 0.128788023
H  H13  1  0.48900000  0.26870000  0.50933000  1.0 0.1072480512
H  H14  1  0.58014000  0.26644000  0.58975000  1.0 0.0790300227
H  H15  1  0.61991000  0.36089000  0.33289000  1.0 0.1190260646
H  H16  1  0.62813000  0.41763000  0.37031000  1.0 0.1190260646
H  H17  1  0.66641000  0.30632000  0.40478000  1.0 0.0790300227
H  H18  1  0.63453000  0.51460000  0.58411000  1.0 0.0911505332
H  H19  1  0.58593000  0.47096000  0.60429000  1.0 0.1190260646
H  H20  1  0.69711000  0.43684000  0.56588000  1.0 0.0723550683
H  H21  1  0.09947000  0.74010000  0.83216000  1.0 0.2663606791
H  H22  1  0.14637000  0.73156000  0.79141000  1.0 0.2594305066
H  H23  1  0.90809000  0.73825000  0.97370000  1.0 0.2509229072
H  H24  1  0.86149000  0.73404000  0.01542000  1.0 0.236426315
H  H25  1  0.81199000  0.59343000  0.95955000  1.0 0.2509229072
H  H26  1  0.79820000  0.65080000  0.98044000  1.0 0.2509229072
H  H27  1  0.88532000  0.63475000  0.11105000  1.0 0.2509229072
H  H28  1  0.83172000  0.65295000  0.08422000  1.0 0.2594305066
H  H29  1  0.99987000  0.64759000  0.76105000  1.0 0.128788023
H  H30  1  0.00817000  0.68013000  0.82077000  1.0 0.1190260646
H  H31  1  0.09409000  0.67433000  0.73342000  1.0 0.0911505332
H  H32  1  0.01932000  0.73544000  0.07710000  1.0 0.128788023
H  H33  1  0.01100000  0.73130000  0.00933000  1.0 0.1072480512
H  H34  1  0.91986000  0.73356000  0.08975000  1.0 0.0790300227
H  H35  1  0.88009000  0.63911000  0.83289000  1.0 0.1190260646
H  H36  1  0.87187000  0.58237000  0.87031000  1.0 0.1190260646
H  H37  1  0.83359000  0.69368000  0.90478000  1.0 0.0790300227
H  H38  1  0.86547000  0.48540000  0.08411000  1.0 0.0911505332
H  H39  1  0.91407000  0.52904000  0.10429000  1.0 0.1190260646
H  H40  1  0.80289000  0.56316000  0.06588000  1.0 0.0723550683
H  H41  1  0.59947000  0.75990000  0.16784000  1.0 0.2663606791
H  H42  1  0.64637000  0.76844000  0.20859000  1.0 0.2594305066
H  H43  1  0.40809000  0.76175000  0.02630000  1.0 0.2509229072
H  H44  1  0.36149000  0.76596000  0.98458000  1.0 0.236426315
H  H45  1  0.31199000  0.90657000  0.04045000  1.0 0.2509229072
H  H46  1  0.29820000  0.84920000  0.01956000  1.0 0.2509229072
H  H47  1  0.38532000  0.86525000  0.88895000  1.0 0.2509229072
H  H48  1  0.33172000  0.84705000  0.91578000  1.0 0.2594305066
H  H49  1  0.49987000  0.85241000  0.23895000  1.0 0.128788023
H  H50  1  0.50817000  0.81987000  0.17923000  1.0 0.1190260646
H  H51  1  0.59409000  0.82567000  0.26658000  1.0 0.0911505332
H  H52  1  0.51932000  0.76456000  0.92290000  1.0 0.128788023
H  H53  1  0.51100000  0.76870000  0.99067000  1.0 0.1072480512
H  H54  1  0.41986000  0.76644000  0.91025000  1.0 0.0790300227
H  H55  1  0.38009000  0.86089000  0.16711000  1.0 0.1190260646
H  H56  1  0.37187000  0.91763000  0.12969000  1.0 0.1190260646
H  H57  1  0.33359000  0.80632000  0.09522000  1.0 0.0790300227
H  H58  1  0.36547000  0.01460000  0.91589000  1.0 0.0911505332
H  H59  1  0.41407000  0.97096000  0.89571000  1.0 0.1190260646
H  H60  1  0.30289000  0.93684000  0.93412000  1.0 0.0723550683
H  H61  1  0.90053000  0.24010000  0.66784000  1.0 0.2663606791
H  H62  1  0.85363000  0.23156000  0.70859000  1.0 0.2594305066
H  H63  1  0.09191000  0.23825000  0.52630000  1.0 0.2509229072
H  H64  1  0.13851000  0.23404000  0.48458000  1.0 0.236426315
H  H65  1  0.18801000  0.09343000  0.54045000  1.0 0.2509229072
H  H66  1  0.20180000  0.15080000  0.51956000  1.0 0.2509229072
H  H67  1  0.11468000  0.13475000  0.38895000  1.0 0.2509229072
H  H68  1  0.16828000  0.15295000  0.41578000  1.0 0.2594305066
H  H69  1  0.00013000  0.14759000  0.73895000  1.0 0.128788023
H  H70  1  0.99183000  0.18013000  0.67923000  1.0 0.1190260646
H  H71  1  0.90591000  0.17433000  0.76658000  1.0 0.0911505332
H  H72  1  0.98068000  0.23544000  0.42290000  1.0 0.128788023
H  H73  1  0.98900000  0.23130000  0.49067000  1.0 0.1072480512
H  H74  1  0.08014000  0.23356000  0.41025000  1.0 0.0790300227
H  H75  1  0.11991000  0.13911000  0.66711000  1.0 0.1190260646
H  H76  1  0.12813000  0.08237000  0.62969000  1.0 0.1190260646
H  H77  1  0.16641000  0.19368000  0.59522000  1.0 0.0790300227
H  H78  1  0.13453000  0.98540000  0.41589000  1.0 0.0911505332
H  H79  1  0.08593000  0.02904000  0.39571000  1.0 0.1190260646
H  H80  1  0.19711000  0.06316000  0.43412000  1.0 0.0723550683
H  H81  1  0.33216000  0.40053000  0.25990000  1.0 0.2663606791
H  H82  1  0.29141000  0.35363000  0.26844000  1.0 0.2594305066
H  H83  1  0.47370000  0.59191000  0.26175000  1.0 0.2509229072
H  H84  1  0.51542000  0.63851000  0.26596000  1.0 0.236426315
H  H85  1  0.45955000  0.68801000  0.40657000  1.0 0.2509229072
H  H86  1  0.48044000  0.70180000  0.34920000  1.0 0.2509229072
H  H87  1  0.61105000  0.61468000  0.36525000  1.0 0.2509229072
H  H88  1  0.58422000  0.66828000  0.34705000  1.0 0.2594305066
H  H89  1  0.26105000  0.50013000  0.35241000  1.0 0.128788023
H  H90  1  0.32077000  0.49183000  0.31987000  1.0 0.1190260646
H  H91  1  0.23342000  0.40591000  0.32567000  1.0 0.0911505332
H  H92  1  0.57710000  0.48068000  0.26456000  1.0 0.128788023
H  H93  1  0.50933000  0.48900000  0.26870000  1.0 0.1072480512
H  H94  1  0.58975000  0.58014000  0.26644000  1.0 0.0790300227
H  H95  1  0.33289000  0.61991000  0.36089000  1.0 0.1190260646
H  H96  1  0.37031000  0.62813000  0.41763000  1.0 0.1190260646
H  H97  1  0.40478000  0.66641000  0.30632000  1.0 0.0790300227
H  H98  1  0.58411000  0.63453000  0.51460000  1.0 0.0911505332
H  H99  1  0.60429000  0.58593000  0.47096000  1.0 0.1190260646
H  H100  1  0.56588000  0.69711000  0.43684000  1.0 0.0723550683
H  H101  1  0.83216000  0.09947000  0.74010000  1.0 0.2663606791
H  H102  1  0.79141000  0.14637000  0.73156000  1.0 0.2594305066
H  H103  1  0.97370000  0.90809000  0.73825000  1.0 0.2509229072
H  H104  1  0.01542000  0.86149000  0.73404000  1.0 0.236426315
H  H105  1  0.95955000  0.81199000  0.59343000  1.0 0.2509229072
H  H106  1  0.98044000  0.79820000  0.65080000  1.0 0.2509229072
H  H107  1  0.11105000  0.88532000  0.63475000  1.0 0.2509229072
H  H108  1  0.08422000  0.83172000  0.65295000  1.0 0.2594305066
H  H109  1  0.76105000  0.99987000  0.64759000  1.0 0.128788023
H  H110  1  0.82077000  0.00817000  0.68013000  1.0 0.1190260646
H  H111  1  0.73342000  0.09409000  0.67433000  1.0 0.0911505332
H  H112  1  0.07710000  0.01932000  0.73544000  1.0 0.128788023
H  H113  1  0.00933000  0.01100000  0.73130000  1.0 0.1072480512
H  H114  1  0.08975000  0.91986000  0.73356000  1.0 0.0790300227
H  H115  1  0.83289000  0.88009000  0.63911000  1.0 0.1190260646
H  H116  1  0.87031000  0.87187000  0.58237000  1.0 0.1190260646
H  H117  1  0.90478000  0.83359000  0.69368000  1.0 0.0790300227
H  H118  1  0.08411000  0.86547000  0.48540000  1.0 0.0911505332
H  H119  1  0.10429000  0.91407000  0.52904000  1.0 0.1190260646
H  H120  1  0.06588000  0.80289000  0.56316000  1.0 0.0723550683
H  H121  1  0.16784000  0.59947000  0.75990000  1.0 0.2663606791
H  H122  1  0.20859000  0.64637000  0.76844000  1.0 0.2594305066
H  H123  1  0.02630000  0.40809000  0.76175000  1.0 0.2509229072
H  H124  1  0.98458000  0.36149000  0.76596000  1.0 0.236426315
H  H125  1  0.04045000  0.31199000  0.90657000  1.0 0.2509229072
H  H126  1  0.01956000  0.29820000  0.84920000  1.0 0.2509229072
H  H127  1  0.88895000  0.38532000  0.86525000  1.0 0.2509229072
H  H128  1  0.91578000  0.33172000  0.84705000  1.0 0.2594305066
H  H129  1  0.23895000  0.49987000  0.85241000  1.0 0.128788023
H  H130  1  0.17923000  0.50817000  0.81987000  1.0 0.1190260646
H  H131  1  0.26658000  0.59409000  0.82567000  1.0 0.0911505332
H  H132  1  0.92290000  0.51932000  0.76456000  1.0 0.128788023
H  H133  1  0.99067000  0.51100000  0.76870000  1.0 0.1072480512
H  H134  1  0.91025000  0.41986000  0.76644000  1.0 0.0790300227
H  H135  1  0.16711000  0.38009000  0.86089000  1.0 0.1190260646
H  H136  1  0.12969000  0.37187000  0.91763000  1.0 0.1190260646
H  H137  1  0.09522000  0.33359000  0.80632000  1.0 0.0790300227
H  H138  1  0.91589000  0.36547000  0.01460000  1.0 0.0911505332
H  H139  1  0.89571000  0.41407000  0.97096000  1.0 0.1190260646
H  H140  1  0.93412000  0.30289000  0.93684000  1.0 0.0723550683
H  H141  1  0.66784000  0.90053000  0.24010000  1.0 0.2663606791
H  H142  1  0.70859000  0.85363000  0.23156000  1.0 0.2594305066
H  H143  1  0.52630000  0.09191000  0.23825000  1.0 0.2509229072
H  H144  1  0.48458000  0.13851000  0.23404000  1.0 0.236426315
H  H145  1  0.54045000  0.18801000  0.09343000  1.0 0.2509229072
H  H146  1  0.51956000  0.20180000  0.15080000  1.0 0.2509229072
H  H147  1  0.38895000  0.11468000  0.13475000  1.0 0.2509229072
H  H148  1  0.41578000  0.16828000  0.15295000  1.0 0.2594305066
H  H149  1  0.73895000  0.00013000  0.14759000  1.0 0.128788023
H  H150  1  0.67923000  0.99183000  0.18013000  1.0 0.1190260646
H  H151  1  0.76658000  0.90591000  0.17433000  1.0 0.0911505332
H  H152  1  0.42290000  0.98068000  0.23544000  1.0 0.128788023
H  H153  1  0.49067000  0.98900000  0.23130000  1.0 0.1072480512
H  H154  1  0.41025000  0.08014000  0.23356000  1.0 0.0790300227
H  H155  1  0.66711000  0.11991000  0.13911000  1.0 0.1190260646
H  H156  1  0.62969000  0.12813000  0.08237000  1.0 0.1190260646
H  H157  1  0.59522000  0.16641000  0.19368000  1.0 0.0790300227
H  H158  1  0.41589000  0.13453000  0.98540000  1.0 0.0911505332
H  H159  1  0.39571000  0.08593000  0.02904000  1.0 0.1190260646
H  H160  1  0.43412000  0.19711000  0.06316000  1.0 0.0723550683
H  H161  1  0.25990000  0.33216000  0.40053000  1.0 0.2663606791
H  H162  1  0.26844000  0.29141000  0.35363000  1.0 0.2594305066
H  H163  1  0.26175000  0.47370000  0.59191000  1.0 0.2509229072
H  H164  1  0.26596000  0.51542000  0.63851000  1.0 0.236426315
H  H165  1  0.40657000  0.45955000  0.68801000  1.0 0.2509229072
H  H166  1  0.34920000  0.48044000  0.70180000  1.0 0.2509229072
H  H167  1  0.36525000  0.61105000  0.61468000  1.0 0.2509229072
H  H168  1  0.34705000  0.58422000  0.66828000  1.0 0.2594305066
H  H169  1  0.35241000  0.26105000  0.50013000  1.0 0.128788023
H  H170  1  0.31987000  0.32077000  0.49183000  1.0 0.1190260646
H  H171  1  0.32567000  0.23342000  0.40591000  1.0 0.0911505332
H  H172  1  0.26456000  0.57710000  0.48068000  1.0 0.128788023
H  H173  1  0.26870000  0.50933000  0.48900000  1.0 0.1072480512
H  H174  1  0.26644000  0.58975000  0.58014000  1.0 0.0790300227
H  H175  1  0.36089000  0.33289000  0.61991000  1.0 0.1190260646
H  H176  1  0.41763000  0.37031000  0.62813000  1.0 0.1190260646
H  H177  1  0.30632000  0.40478000  0.66641000  1.0 0.0790300227
H  H178  1  0.51460000  0.58411000  0.63453000  1.0 0.0911505332
H  H179  1  0.47096000  0.60429000  0.58593000  1.0 0.1190260646
H  H180  1  0.43684000  0.56588000  0.69711000  1.0 0.0723550683
H  H181  1  0.74010000  0.83216000  0.09947000  1.0 0.2663606791
H  H182  1  0.73156000  0.79141000  0.14637000  1.0 0.2594305066
H  H183  1  0.73825000  0.97370000  0.90809000  1.0 0.2509229072
H  H184  1  0.73404000  0.01542000  0.86149000  1.0 0.236426315
H  H185  1  0.59343000  0.95955000  0.81199000  1.0 0.2509229072
H  H186  1  0.65080000  0.98044000  0.79820000  1.0 0.2509229072
H  H187  1  0.63475000  0.11105000  0.88532000  1.0 0.2509229072
H  H188  1  0.65295000  0.08422000  0.83172000  1.0 0.2594305066
H  H189  1  0.64759000  0.76105000  0.99987000  1.0 0.128788023
H  H190  1  0.68013000  0.82077000  0.00817000  1.0 0.1190260646
H  H191  1  0.67433000  0.73342000  0.09409000  1.0 0.0911505332
H  H192  1  0.73544000  0.07710000  0.01932000  1.0 0.128788023
H  H193  1  0.73130000  0.00933000  0.01100000  1.0 0.1072480512
H  H194  1  0.73356000  0.08975000  0.91986000  1.0 0.0790300227
H  H195  1  0.63911000  0.83289000  0.88009000  1.0 0.1190260646
H  H196  1  0.58237000  0.87031000  0.87187000  1.0 0.1190260646
H  H197  1  0.69368000  0.90478000  0.83359000  1.0 0.0790300227
H  H198  1  0.48540000  0.08411000  0.86547000  1.0 0.0911505332
H  H199  1  0.52904000  0.10429000  0.91407000  1.0 0.1190260646
H  H200  1  0.56316000  0.06588000  0.80289000  1.0 0.0723550683
H  H201  1  0.75990000  0.16784000  0.59947000  1.0 0.2663606791
H  H202  1  0.76844000  0.20859000  0.64637000  1.0 0.2594305066
H  H203  1  0.76175000  0.02630000  0.40809000  1.0 0.2509229072
H  H204  1  0.76596000  0.98458000  0.36149000  1.0 0.236426315
H  H205  1  0.90657000  0.04045000  0.31199000  1.0 0.2509229072
H  H206  1  0.84920000  0.01956000  0.29820000  1.0 0.2509229072
H  H207  1  0.86525000  0.88895000  0.38532000  1.0 0.2509229072
H  H208  1  0.84705000  0.91578000  0.33172000  1.0 0.2594305066
H  H209  1  0.85241000  0.23895000  0.49987000  1.0 0.128788023
H  H210  1  0.81987000  0.17923000  0.50817000  1.0 0.1190260646
H  H211  1  0.82567000  0.26658000  0.59409000  1.0 0.0911505332
H  H212  1  0.76456000  0.92290000  0.51932000  1.0 0.128788023
H  H213  1  0.76870000  0.99067000  0.51100000  1.0 0.1072480512
H  H214  1  0.76644000  0.91025000  0.41986000  1.0 0.0790300227
H  H215  1  0.86089000  0.16711000  0.38009000  1.0 0.1190260646
H  H216  1  0.91763000  0.12969000  0.37187000  1.0 0.1190260646
H  H217  1  0.80632000  0.09522000  0.33359000  1.0 0.0790300227
H  H218  1  0.01460000  0.91589000  0.36547000  1.0 0.0911505332
H  H219  1  0.97096000  0.89571000  0.41407000  1.0 0.1190260646
H  H220  1  0.93684000  0.93412000  0.30289000  1.0 0.0723550683
H  H221  1  0.24010000  0.66784000  0.90053000  1.0 0.2663606791
H  H222  1  0.23156000  0.70859000  0.85363000  1.0 0.2594305066
H  H223  1  0.23825000  0.52630000  0.09191000  1.0 0.2509229072
H  H224  1  0.23404000  0.48458000  0.13851000  1.0 0.236426315
H  H225  1  0.09343000  0.54045000  0.18801000  1.0 0.2509229072
H  H226  1  0.15080000  0.51956000  0.20180000  1.0 0.2509229072
H  H227  1  0.13475000  0.38895000  0.11468000  1.0 0.2509229072
H  H228  1  0.15295000  0.41578000  0.16828000  1.0 0.2594305066
H  H229  1  0.14759000  0.73895000  0.00013000  1.0 0.128788023
H  H230  1  0.18013000  0.67923000  0.99183000  1.0 0.1190260646
H  H231  1  0.17433000  0.76658000  0.90591000  1.0 0.0911505332
H  H232  1  0.23544000  0.42290000  0.98068000  1.0 0.128788023
H  H233  1  0.23130000  0.49067000  0.98900000  1.0 0.1072480512
H  H234  1  0.23356000  0.41025000  0.08014000  1.0 0.0790300227
H  H235  1  0.13911000  0.66711000  0.11991000  1.0 0.1190260646
H  H236  1  0.08237000  0.62969000  0.12813000  1.0 0.1190260646
H  H237  1  0.19368000  0.59522000  0.16641000  1.0 0.0790300227
H  H238  1  0.98540000  0.41589000  0.13453000  1.0 0.0911505332
H  H239  1  0.02904000  0.39571000  0.08593000  1.0 0.1190260646
H  H240  1  0.06316000  0.43412000  0.19711000  1.0 0.0723550683
Rh  Rh1  1  0.59795000  0.36676000  0.50346000  1.0 0.4708644488
Rh  Rh2  1  0.90205000  0.63324000  0.00346000  1.0 0.4708644488
Rh  Rh3  1  0.40205000  0.86676000  0.99654000  1.0 0.4708644488
Rh  Rh4  1  0.09795000  0.13324000  0.49654000  1.0 0.4708644488
Rh  Rh5  1  0.50346000  0.59795000  0.36676000  1.0 0.4708644488
Rh  Rh6  1  0.00346000  0.90205000  0.63324000  1.0 0.4708644488
Rh  Rh7  1  0.99654000  0.40205000  0.86676000  1.0 0.4708644488
Rh  Rh8  1  0.49654000  0.09795000  0.13324000  1.0 0.4708644488
Rh  Rh9  1  0.36676000  0.50346000  0.59795000  1.0 0.4708644488
Rh  Rh10  1  0.63324000  0.00346000  0.90205000  1.0 0.4708644488
Rh  Rh11  1  0.86676000  0.99654000  0.40205000  1.0 0.4708644488
Rh  Rh12  1  0.13324000  0.49654000  0.09795000  1.0 0.4708644488
Rh  Rh13  1  0.35563000  0.35563000  0.35563000  1.0 0.4791015003
Rh  Rh14  1  0.14437000  0.64437000  0.85563000  1.0 0.4791015003
Rh  Rh15  1  0.64437000  0.85563000  0.14437000  1.0 0.4791015003
Rh  Rh16  1  0.85563000  0.14437000  0.64437000  1.0 0.4791015003
C  C1  1  0.47180000  0.34070000  0.29000000  1.0 -0.2230971154
C  C2  1  0.42630000  0.30310000  0.26320000  1.0 -0.0074561809
C  C3  1  0.45340000  0.24990000  0.23450000  1.0 0.3849287543
C  C4  1  0.50580000  0.27930000  0.54660000  1.0 -0.2099555817
C  C5  1  0.56450000  0.25370000  0.55220000  1.0 -0.0021862381
C  C6  1  0.56210000  0.18850000  0.55360000  1.0 0.5523539198
C  C7  1  0.62300000  0.37580000  0.37220000  1.0 -0.2099555817
C  C8  1  0.67350000  0.34830000  0.40290000  1.0 0.0135315546
C  C9  1  0.72980000  0.35810000  0.36920000  1.0 0.358006886
C  C10  1  0.61910000  0.47570000  0.57870000  1.0 -0.2277843989
C  C11  1  0.66480000  0.43150000  0.59320000  1.0 0.0285759706
C  C12  1  0.68880000  0.43570000  0.65290000  1.0 0.5735464407
C  C13  1  0.02820000  0.65930000  0.79000000  1.0 -0.2230971154
C  C14  1  0.07370000  0.69690000  0.76320000  1.0 -0.0074561809
C  C15  1  0.04660000  0.75010000  0.73450000  1.0 0.3856326852
C  C16  1  0.99420000  0.72070000  0.04660000  1.0 -0.2099555817
C  C17  1  0.93550000  0.74630000  0.05220000  1.0 -0.0021862381
C  C18  1  0.93790000  0.81150000  0.05360000  1.0 0.5523539198
C  C19  1  0.87700000  0.62420000  0.87220000  1.0 -0.2099555817
C  C20  1  0.82650000  0.65170000  0.90290000  1.0 0.0135315546
C  C21  1  0.77020000  0.64190000  0.86920000  1.0 0.358006886
C  C22  1  0.88090000  0.52430000  0.07870000  1.0 -0.2277843989
C  C23  1  0.83520000  0.56850000  0.09320000  1.0 0.0285759706
C  C24  1  0.81120000  0.56430000  0.15290000  1.0 0.5735464407
C  C25  1  0.52820000  0.84070000  0.21000000  1.0 -0.2230971154
C  C26  1  0.57370000  0.80310000  0.23680000  1.0 -0.0074561809
C  C27  1  0.54660000  0.74990000  0.26550000  1.0 0.3856326852
C  C28  1  0.49420000  0.77930000  0.95340000  1.0 -0.2099555817
C  C29  1  0.43550000  0.75370000  0.94780000  1.0 -0.0021862381
C  C30  1  0.43790000  0.68850000  0.94640000  1.0 0.5523539198
C  C31  1  0.37700000  0.87580000  0.12780000  1.0 -0.2099555817
C  C32  1  0.32650000  0.84830000  0.09710000  1.0 0.0135315546
C  C33  1  0.27020000  0.85810000  0.13080000  1.0 0.358006886
C  C34  1  0.38090000  0.97570000  0.92130000  1.0 -0.2277843989
C  C35  1  0.33520000  0.93150000  0.90680000  1.0 0.0285759706
C  C36  1  0.31120000  0.93570000  0.84710000  1.0 0.5735464407
C  C37  1  0.97180000  0.15930000  0.71000000  1.0 -0.2230971154
C  C38  1  0.92630000  0.19690000  0.73680000  1.0 -0.0074561809
C  C39  1  0.95340000  0.25010000  0.76550000  1.0 0.3849287543
C  C40  1  0.00580000  0.22070000  0.45340000  1.0 -0.2099555817
C  C41  1  0.06450000  0.24630000  0.44780000  1.0 -0.0021862381
C  C42  1  0.06210000  0.31150000  0.44640000  1.0 0.5523539198
C  C43  1  0.12300000  0.12420000  0.62780000  1.0 -0.2099555817
C  C44  1  0.17350000  0.15170000  0.59710000  1.0 0.0135315546
C  C45  1  0.22980000  0.14190000  0.63080000  1.0 0.358006886
C  C46  1  0.11910000  0.02430000  0.42130000  1.0 -0.2277843989
C  C47  1  0.16480000  0.06850000  0.40680000  1.0 0.0285759706
C  C48  1  0.18880000  0.06430000  0.34710000  1.0 0.5735464407
C  C49  1  0.29000000  0.47180000  0.34070000  1.0 -0.2230971154
C  C50  1  0.26320000  0.42630000  0.30310000  1.0 -0.0074561809
C  C51  1  0.23450000  0.45340000  0.24990000  1.0 0.3849287543
C  C52  1  0.54660000  0.50580000  0.27930000  1.0 -0.2099555817
C  C53  1  0.55220000  0.56450000  0.25370000  1.0 -0.0021862381
C  C54  1  0.55360000  0.56210000  0.18850000  1.0 0.5523539198
C  C55  1  0.37220000  0.62300000  0.37580000  1.0 -0.2099555817
C  C56  1  0.40290000  0.67350000  0.34830000  1.0 0.0135315546
C  C57  1  0.36920000  0.72980000  0.35810000  1.0 0.358006886
C  C58  1  0.57870000  0.61910000  0.47570000  1.0 -0.2277843989
C  C59  1  0.59320000  0.66480000  0.43150000  1.0 0.0285759706
C  C60  1  0.65290000  0.68880000  0.43570000  1.0 0.5735464407
C  C61  1  0.79000000  0.02820000  0.65930000  1.0 -0.2230971154
C  C62  1  0.76320000  0.07370000  0.69690000  1.0 -0.0074561809
C  C63  1  0.73450000  0.04660000  0.75010000  1.0 0.3849287543
C  C64  1  0.04660000  0.99420000  0.72070000  1.0 -0.2099555817
C  C65  1  0.05220000  0.93550000  0.74630000  1.0 -0.0021862381
C  C66  1  0.05360000  0.93790000  0.81150000  1.0 0.5523539198
C  C67  1  0.87220000  0.87700000  0.62420000  1.0 -0.2099555817
C  C68  1  0.90290000  0.82650000  0.65170000  1.0 0.0135315546
C  C69  1  0.86920000  0.77020000  0.64190000  1.0 0.358006886
C  C70  1  0.07870000  0.88090000  0.52430000  1.0 -0.2277843989
C  C71  1  0.09320000  0.83520000  0.56850000  1.0 0.0285759706
C  C72  1  0.15290000  0.81120000  0.56430000  1.0 0.5735464407
C  C73  1  0.21000000  0.52820000  0.84070000  1.0 -0.2230971154
C  C74  1  0.23680000  0.57370000  0.80310000  1.0 -0.0074561809
C  C75  1  0.26550000  0.54660000  0.74990000  1.0 0.3856326852
C  C76  1  0.95340000  0.49420000  0.77930000  1.0 -0.2099555817
C  C77  1  0.94780000  0.43550000  0.75370000  1.0 -0.0021862381
C  C78  1  0.94640000  0.43790000  0.68850000  1.0 0.5523539198
C  C79  1  0.12780000  0.37700000  0.87580000  1.0 -0.2099555817
C  C80  1  0.09710000  0.32650000  0.84830000  1.0 0.0135315546
C  C81  1  0.13080000  0.27020000  0.85810000  1.0 0.358006886
C  C82  1  0.92130000  0.38090000  0.97570000  1.0 -0.2277843989
C  C83  1  0.90680000  0.33520000  0.93150000  1.0 0.0285759706
C  C84  1  0.84710000  0.31120000  0.93570000  1.0 0.5735464407
C  C85  1  0.71000000  0.97180000  0.15930000  1.0 -0.2230971154
C  C86  1  0.73680000  0.92630000  0.19690000  1.0 -0.0074561809
C  C87  1  0.76550000  0.95340000  0.25010000  1.0 0.3856326852
C  C88  1  0.45340000  0.00580000  0.22070000  1.0 -0.2099555817
C  C89  1  0.44780000  0.06450000  0.24630000  1.0 -0.0021862381
C  C90  1  0.44640000  0.06210000  0.31150000  1.0 0.5523539198
C  C91  1  0.62780000  0.12300000  0.12420000  1.0 -0.2099555817
C  C92  1  0.59710000  0.17350000  0.15170000  1.0 0.0135315546
C  C93  1  0.63080000  0.22980000  0.14190000  1.0 0.358006886
C  C94  1  0.42130000  0.11910000  0.02430000  1.0 -0.2277843989
C  C95  1  0.40680000  0.16480000  0.06850000  1.0 0.0285759706
C  C96  1  0.34710000  0.18880000  0.06430000  1.0 0.5735464407
C  C97  1  0.34070000  0.29000000  0.47180000  1.0 -0.2230971154
C  C98  1  0.30310000  0.26320000  0.42630000  1.0 -0.0074561809
C  C99  1  0.24990000  0.23450000  0.45340000  1.0 0.3849287543
C  C100  1  0.27930000  0.54660000  0.50580000  1.0 -0.2099555817
C  C101  1  0.25370000  0.55220000  0.56450000  1.0 -0.0021862381
C  C102  1  0.18850000  0.55360000  0.56210000  1.0 0.5523539198
C  C103  1  0.37580000  0.37220000  0.62300000  1.0 -0.2099555817
C  C104  1  0.34830000  0.40290000  0.67350000  1.0 0.0135315546
C  C105  1  0.35810000  0.36920000  0.72980000  1.0 0.358006886
C  C106  1  0.47570000  0.57870000  0.61910000  1.0 -0.2277843989
C  C107  1  0.43150000  0.59320000  0.66480000  1.0 0.0285759706
C  C108  1  0.43570000  0.65290000  0.68880000  1.0 0.5735464407
C  C109  1  0.65930000  0.79000000  0.02820000  1.0 -0.2230971154
C  C110  1  0.69690000  0.76320000  0.07370000  1.0 -0.0074561809
C  C111  1  0.75010000  0.73450000  0.04660000  1.0 0.3849287543
C  C112  1  0.72070000  0.04660000  0.99420000  1.0 -0.2099555817
C  C113  1  0.74630000  0.05220000  0.93550000  1.0 -0.0021862381
C  C114  1  0.81150000  0.05360000  0.93790000  1.0 0.5523539198
C  C115  1  0.62420000  0.87220000  0.87700000  1.0 -0.2099555817
C  C116  1  0.65170000  0.90290000  0.82650000  1.0 0.0135315546
C  C117  1  0.64190000  0.86920000  0.77020000  1.0 0.358006886
C  C118  1  0.52430000  0.07870000  0.88090000  1.0 -0.2277843989
C  C119  1  0.56850000  0.09320000  0.83520000  1.0 0.0285759706
C  C120  1  0.56430000  0.15290000  0.81120000  1.0 0.5735464407
C  C121  1  0.84070000  0.21000000  0.52820000  1.0 -0.2230971154
C  C122  1  0.80310000  0.23680000  0.57370000  1.0 -0.0074561809
C  C123  1  0.74990000  0.26550000  0.54660000  1.0 0.3849287543
C  C124  1  0.77930000  0.95340000  0.49420000  1.0 -0.2099555817
C  C125  1  0.75370000  0.94780000  0.43550000  1.0 -0.0021862381
C  C126  1  0.68850000  0.94640000  0.43790000  1.0 0.5523539198
C  C127  1  0.87580000  0.12780000  0.37700000  1.0 -0.2099555817
C  C128  1  0.84830000  0.09710000  0.32650000  1.0 0.0135315546
C  C129  1  0.85810000  0.13080000  0.27020000  1.0 0.358006886
C  C130  1  0.97570000  0.92130000  0.38090000  1.0 -0.2277843989
C  C131  1  0.93150000  0.90680000  0.33520000  1.0 0.0285759706
C  C132  1  0.93570000  0.84710000  0.31120000  1.0 0.5735464407
C  C133  1  0.15930000  0.71000000  0.97180000  1.0 -0.2230971154
C  C134  1  0.19690000  0.73680000  0.92630000  1.0 -0.0074561809
C  C135  1  0.25010000  0.76550000  0.95340000  1.0 0.3856326852
C  C136  1  0.22070000  0.45340000  0.00580000  1.0 -0.2099555817
C  C137  1  0.24630000  0.44780000  0.06450000  1.0 -0.0021862381
C  C138  1  0.31150000  0.44640000  0.06210000  1.0 0.5523539198
C  C139  1  0.12420000  0.62780000  0.12300000  1.0 -0.2099555817
C  C140  1  0.15170000  0.59710000  0.17350000  1.0 0.0135315546
C  C141  1  0.14190000  0.63080000  0.22980000  1.0 0.358006886
C  C142  1  0.02430000  0.42130000  0.11910000  1.0 -0.2277843989
C  C143  1  0.06850000  0.40680000  0.16480000  1.0 0.0285759706
C  C144  1  0.06430000  0.34710000  0.18880000  1.0 0.5735464407
S  S1  1  0.43485000  0.40311000  0.31890000  1.0 -0.3019421083
S  S2  1  0.51181000  0.35687000  0.55204000  1.0 -0.3103949216
S  S3  1  0.55823000  0.35833000  0.41295000  1.0 -0.2898107325
S  S4  1  0.59694000  0.46632000  0.50499000  1.0 -0.3019421083
S  S5  1  0.06515000  0.59689000  0.81890000  1.0 -0.3019421083
S  S6  1  0.98819000  0.64313000  0.05204000  1.0 -0.3103949216
S  S7  1  0.94177000  0.64167000  0.91295000  1.0 -0.2898107325
S  S8  1  0.90306000  0.53368000  0.00499000  1.0 -0.3019421083
S  S9  1  0.56515000  0.90311000  0.18110000  1.0 -0.3019421083
S  S10  1  0.48819000  0.85687000  0.94796000  1.0 -0.3103949216
S  S11  1  0.44177000  0.85833000  0.08705000  1.0 -0.2898107325
S  S12  1  0.40306000  0.96632000  0.99501000  1.0 -0.3103949216
S  S13  1  0.93485000  0.09689000  0.68110000  1.0 -0.3019421083
S  S14  1  0.01181000  0.14313000  0.44796000  1.0 -0.3103949216
S  S15  1  0.05823000  0.14167000  0.58705000  1.0 -0.2898107325
S  S16  1  0.09694000  0.03368000  0.49501000  1.0 -0.3103949216
S  S17  1  0.31890000  0.43485000  0.40311000  1.0 -0.3019421083
S  S18  1  0.55204000  0.51181000  0.35687000  1.0 -0.3103949216
S  S19  1  0.41295000  0.55823000  0.35833000  1.0 -0.2898107325
S  S20  1  0.50499000  0.59694000  0.46632000  1.0 -0.3019421083
S  S21  1  0.81890000  0.06515000  0.59689000  1.0 -0.3019421083
S  S22  1  0.05204000  0.98819000  0.64313000  1.0 -0.3103949216
S  S23  1  0.91295000  0.94177000  0.64167000  1.0 -0.2898107325
S  S24  1  0.00499000  0.90306000  0.53368000  1.0 -0.3019421083
S  S25  1  0.18110000  0.56515000  0.90311000  1.0 -0.3019421083
S  S26  1  0.94796000  0.48819000  0.85687000  1.0 -0.3103949216
S  S27  1  0.08705000  0.44177000  0.85833000  1.0 -0.2898107325
S  S28  1  0.99501000  0.40306000  0.96632000  1.0 -0.3019421083
S  S29  1  0.68110000  0.93485000  0.09689000  1.0 -0.3019421083
S  S30  1  0.44796000  0.01181000  0.14313000  1.0 -0.3103949216
S  S31  1  0.58705000  0.05823000  0.14167000  1.0 -0.2898107325
S  S32  1  0.49501000  0.09694000  0.03368000  1.0 -0.3103949216
S  S33  1  0.40311000  0.31890000  0.43485000  1.0 -0.3019421083
S  S34  1  0.35687000  0.55204000  0.51181000  1.0 -0.3103949216
S  S35  1  0.35833000  0.41295000  0.55823000  1.0 -0.2898107325
S  S36  1  0.46632000  0.50499000  0.59694000  1.0 -0.3019421083
S  S37  1  0.59689000  0.81890000  0.06515000  1.0 -0.3019421083
S  S38  1  0.64313000  0.05204000  0.98819000  1.0 -0.3103949216
S  S39  1  0.64167000  0.91295000  0.94177000  1.0 -0.2898107325
S  S40  1  0.53368000  0.00499000  0.90306000  1.0 -0.3019421083
S  S41  1  0.90311000  0.18110000  0.56515000  1.0 -0.3019421083
S  S42  1  0.85687000  0.94796000  0.48819000  1.0 -0.3103949216
S  S43  1  0.85833000  0.08705000  0.44177000  1.0 -0.2898107325
S  S44  1  0.96632000  0.99501000  0.40306000  1.0 -0.3019421083
S  S45  1  0.09689000  0.68110000  0.93485000  1.0 -0.3019421083
S  S46  1  0.14313000  0.44796000  0.01181000  1.0 -0.3103949216
S  S47  1  0.14167000  0.58705000  0.05823000  1.0 -0.2898107325
S  S48  1  0.03368000  0.49501000  0.09694000  1.0 -0.3103949216
N  N1  1  0.38400000  0.28562000  0.30832000  1.0 -0.4733498108
N  N2  1  0.60200000  0.27670000  0.50800000  1.0 -0.5007172673
N  N3  1  0.67570000  0.36980000  0.46050000  1.0 -0.4733498108
N  N4  1  0.63990000  0.37340000  0.58270000  1.0 -0.4868623956
N  N5  1  0.11600000  0.71438000  0.80832000  1.0 -0.4733498108
N  N6  1  0.89800000  0.72330000  0.00800000  1.0 -0.5007172673
N  N7  1  0.82430000  0.63020000  0.96050000  1.0 -0.4733498108
N  N8  1  0.86010000  0.62660000  0.08270000  1.0 -0.4868623956
N  N9  1  0.61600000  0.78562000  0.19168000  1.0 -0.4733498108
N  N10  1  0.39800000  0.77670000  0.99200000  1.0 -0.5007172673
N  N11  1  0.32430000  0.86980000  0.03950000  1.0 -0.4733498108
N  N12  1  0.36010000  0.87340000  0.91730000  1.0 -0.4868623956
N  N13  1  0.88400000  0.21438000  0.69168000  1.0 -0.4733498108
N  N14  1  0.10200000  0.22330000  0.49200000  1.0 -0.5007172673
N  N15  1  0.17570000  0.13020000  0.53950000  1.0 -0.4733498108
N  N16  1  0.13990000  0.12660000  0.41730000  1.0 -0.4868623956
N  N17  1  0.30832000  0.38400000  0.28562000  1.0 -0.4733498108
N  N18  1  0.50800000  0.60200000  0.27670000  1.0 -0.5007172673
N  N19  1  0.46050000  0.67570000  0.36980000  1.0 -0.4733498108
N  N20  1  0.58270000  0.63990000  0.37340000  1.0 -0.4868623956
N  N21  1  0.80832000  0.11600000  0.71438000  1.0 -0.4733498108
N  N22  1  0.00800000  0.89800000  0.72330000  1.0 -0.5007172673
N  N23  1  0.96050000  0.82430000  0.63020000  1.0 -0.4733498108
N  N24  1  0.08270000  0.86010000  0.62660000  1.0 -0.4868623956
N  N25  1  0.19168000  0.61600000  0.78562000  1.0 -0.4733498108
N  N26  1  0.99200000  0.39800000  0.77670000  1.0 -0.5007172673
N  N27  1  0.03950000  0.32430000  0.86980000  1.0 -0.4733498108
N  N28  1  0.91730000  0.36010000  0.87340000  1.0 -0.4868623956
N  N29  1  0.69168000  0.88400000  0.21438000  1.0 -0.4733498108
N  N30  1  0.49200000  0.10200000  0.22330000  1.0 -0.5007172673
N  N31  1  0.53950000  0.17570000  0.13020000  1.0 -0.4733498108
N  N32  1  0.41730000  0.13990000  0.12660000  1.0 -0.4868623956
N  N33  1  0.28562000  0.30832000  0.38400000  1.0 -0.4733498108
N  N34  1  0.27670000  0.50800000  0.60200000  1.0 -0.5007172673
N  N35  1  0.36980000  0.46050000  0.67570000  1.0 -0.4733498108
N  N36  1  0.37340000  0.58270000  0.63990000  1.0 -0.4868623956
N  N37  1  0.71438000  0.80832000  0.11600000  1.0 -0.4733498108
N  N38  1  0.72330000  0.00800000  0.89800000  1.0 -0.5007172673
N  N39  1  0.63020000  0.96050000  0.82430000  1.0 -0.4733498108
N  N40  1  0.62660000  0.08270000  0.86010000  1.0 -0.4868623956
N  N41  1  0.78562000  0.19168000  0.61600000  1.0 -0.4733498108
N  N42  1  0.77670000  0.99200000  0.39800000  1.0 -0.5007172673
N  N43  1  0.86980000  0.03950000  0.32430000  1.0 -0.4733498108
N  N44  1  0.87340000  0.91730000  0.36010000  1.0 -0.4868623956
N  N45  1  0.21438000  0.69168000  0.88400000  1.0 -0.4733498108
N  N46  1  0.22330000  0.49200000  0.10200000  1.0 -0.5007172673
N  N47  1  0.13020000  0.53950000  0.17570000  1.0 -0.4733498108
N  N48  1  0.12660000  0.41730000  0.13990000  1.0 -0.4868623956
O  O1  1  0.42460000  0.20630000  0.23340000  1.0 -0.1194196625
O  O2  1  0.50390000  0.25550000  0.21570000  1.0 -0.2735532311
O  O3  1  0.59190000  0.16140000  0.52050000  1.0 -0.5477589157
O  O4  1  0.53080000  0.16620000  0.59260000  1.0 -0.5007172673
O  O5  1  0.76760000  0.36230000  0.39340000  1.0 0.0723550683
O  O6  1  0.73430000  0.35270000  0.31610000  1.0 -0.1693089629
O  O7  1  0.69830000  0.39390000  0.67730000  1.0 -0.4868623956
O  O8  1  0.70920000  0.48540000  0.66480000  1.0 -0.6941213595
O  O9  1  0.69200000  0.33940000  0.14360000  1.0 -1.1015611675
O  O10  1  0.46510000  0.20720000  0.26470000  1.0 -0.1693089629
O  O11  1  0.45570000  0.24950000  0.18240000  1.0 -0.2277843989
O  O12  1  0.57600000  0.04680000  0.52330000  1.0 -0.1194196625
O  O13  1  0.46920000  0.07290000  0.57450000  1.0 -0.2898107325
O  O14  1  0.52080000  0.06740000  0.52040000  1.0 -0.2813988457
O  O15  1  0.76230000  0.39670000  0.38940000  1.0 -0.1194196625
O  O16  1  0.73800000  0.33540000  0.33540000  1.0 -0.0157729215
O  O17  1  0.07540000  0.79370000  0.73340000  1.0 -0.1194196625
O  O18  1  0.99610000  0.74450000  0.71570000  1.0 -0.2735532311
O  O19  1  0.90810000  0.83860000  0.02050000  1.0 -0.5477589157
O  O20  1  0.96920000  0.83380000  0.09260000  1.0 -0.5007172673
O  O21  1  0.73240000  0.63770000  0.89340000  1.0 0.0723550683
O  O22  1  0.76570000  0.64730000  0.81610000  1.0 -0.1693089629
O  O23  1  0.80170000  0.60610000  0.17730000  1.0 -0.4868623956
O  O24  1  0.79080000  0.51460000  0.16480000  1.0 -0.6941213595
O  O25  1  0.80800000  0.66060000  0.64360000  1.0 -1.1015611675
O  O26  1  0.03490000  0.79280000  0.76470000  1.0 -0.1693089629
O  O27  1  0.04430000  0.75050000  0.68240000  1.0 -0.2230971154
O  O28  1  0.92400000  0.95320000  0.02330000  1.0 -0.1194196625
O  O29  1  0.03080000  0.92710000  0.07450000  1.0 -0.2898107325
O  O30  1  0.97920000  0.93260000  0.02040000  1.0 -0.2813988457
O  O31  1  0.73770000  0.60330000  0.88940000  1.0 -0.1194196625
O  O32  1  0.76200000  0.66460000  0.83540000  1.0 -0.0157729215
O  O33  1  0.57540000  0.70630000  0.26660000  1.0 -0.1194196625
O  O34  1  0.49610000  0.75550000  0.28430000  1.0 -0.2735532311
O  O35  1  0.40810000  0.66140000  0.97950000  1.0 -0.5477589157
O  O36  1  0.46920000  0.66620000  0.90740000  1.0 -0.5007172673
O  O37  1  0.23240000  0.86230000  0.10660000  1.0 0.0723550683
O  O38  1  0.26570000  0.85270000  0.18390000  1.0 -0.1693089629
O  O39  1  0.30170000  0.89390000  0.82270000  1.0 -0.4868623956
O  O40  1  0.29080000  0.98540000  0.83520000  1.0 -0.6941213595
O  O41  1  0.30800000  0.83940000  0.35640000  1.0 -1.1015611675
O  O42  1  0.53490000  0.70720000  0.23530000  1.0 -0.1693089629
O  O43  1  0.54430000  0.74950000  0.31760000  1.0 -0.2277843989
O  O44  1  0.42400000  0.54680000  0.97670000  1.0 -0.1194196625
O  O45  1  0.53080000  0.57290000  0.92550000  1.0 -0.2898107325
O  O46  1  0.47920000  0.56740000  0.97960000  1.0 -0.2813988457
O  O47  1  0.23770000  0.89670000  0.11060000  1.0 -0.1194196625
O  O48  1  0.26200000  0.83540000  0.16460000  1.0 -0.0157729215
O  O49  1  0.92460000  0.29370000  0.76660000  1.0 -0.1194196625
O  O50  1  0.00390000  0.24450000  0.78430000  1.0 -0.2735532311
O  O51  1  0.09190000  0.33860000  0.47950000  1.0 -0.5477589157
O  O52  1  0.03080000  0.33380000  0.40740000  1.0 -0.5007172673
O  O53  1  0.26760000  0.13770000  0.60660000  1.0 0.0723550683
O  O54  1  0.23430000  0.14730000  0.68390000  1.0 -0.1693089629
O  O55  1  0.19830000  0.10610000  0.32270000  1.0 -0.4868623956
O  O56  1  0.20920000  0.01460000  0.33520000  1.0 -0.6941213595
O  O57  1  0.19200000  0.16060000  0.85640000  1.0 -1.1015611675
O  O58  1  0.96510000  0.29280000  0.73530000  1.0 -0.1693089629
O  O59  1  0.95570000  0.25050000  0.81760000  1.0 -0.2277843989
O  O60  1  0.07600000  0.45320000  0.47670000  1.0 -0.1194196625
O  O61  1  0.96920000  0.42710000  0.42550000  1.0 -0.2898107325
O  O62  1  0.02080000  0.43260000  0.47960000  1.0 -0.2813988457
O  O63  1  0.26230000  0.10330000  0.61060000  1.0 -0.1194196625
O  O64  1  0.23800000  0.16460000  0.66460000  1.0 -0.0157729215
O  O65  1  0.23340000  0.42460000  0.20630000  1.0 -0.1194196625
O  O66  1  0.21570000  0.50390000  0.25550000  1.0 -0.2735532311
O  O67  1  0.52050000  0.59190000  0.16140000  1.0 -0.5477589157
O  O68  1  0.59260000  0.53080000  0.16620000  1.0 -0.5007172673
O  O69  1  0.39340000  0.76760000  0.36230000  1.0 0.0723550683
O  O70  1  0.31610000  0.73430000  0.35270000  1.0 -0.1693089629
O  O71  1  0.67730000  0.69830000  0.39390000  1.0 -0.4868623956
O  O72  1  0.66480000  0.70920000  0.48540000  1.0 -0.6941213595
O  O73  1  0.14360000  0.69200000  0.33940000  1.0 -1.1015611675
O  O74  1  0.26470000  0.46510000  0.20720000  1.0 -0.1693089629
O  O75  1  0.18240000  0.45570000  0.24950000  1.0 -0.2277843989
O  O76  1  0.52330000  0.57600000  0.04680000  1.0 -0.1194196625
O  O77  1  0.57450000  0.46920000  0.07290000  1.0 -0.2813988457
O  O78  1  0.52040000  0.52080000  0.06740000  1.0 -0.2813988457
O  O79  1  0.38940000  0.76230000  0.39670000  1.0 -0.1194196625
O  O80  1  0.33540000  0.73800000  0.33540000  1.0 -0.0157729215
O  O81  1  0.73340000  0.07540000  0.79370000  1.0 -0.1194196625
O  O82  1  0.71570000  0.99610000  0.74450000  1.0 -0.2735532311
O  O83  1  0.02050000  0.90810000  0.83860000  1.0 -0.5477589157
O  O84  1  0.09260000  0.96920000  0.83380000  1.0 -0.5007172673
O  O85  1  0.89340000  0.73240000  0.63770000  1.0 0.0723550683
O  O86  1  0.81610000  0.76570000  0.64730000  1.0 -0.1693089629
O  O87  1  0.17730000  0.80170000  0.60610000  1.0 -0.4868623956
O  O88  1  0.16480000  0.79080000  0.51460000  1.0 -0.6941213595
O  O89  1  0.64360000  0.80800000  0.66060000  1.0 -1.1015611675
O  O90  1  0.76470000  0.03490000  0.79280000  1.0 -0.1693089629
O  O91  1  0.68240000  0.04430000  0.75050000  1.0 -0.2277843989
O  O92  1  0.02330000  0.92400000  0.95320000  1.0 -0.1253143337
O  O93  1  0.07450000  0.03080000  0.92710000  1.0 -0.2898107325
O  O94  1  0.02040000  0.97920000  0.93260000  1.0 -0.2813988457
O  O95  1  0.88940000  0.73770000  0.60330000  1.0 -0.1194196625
O  O96  1  0.83540000  0.76200000  0.66460000  1.0 -0.0157729215
O  O97  1  0.26660000  0.57540000  0.70630000  1.0 -0.1194196625
O  O98  1  0.28430000  0.49610000  0.75550000  1.0 -0.2735532311
O  O99  1  0.97950000  0.40810000  0.66140000  1.0 -0.5477589157
O  O100  1  0.90740000  0.46920000  0.66620000  1.0 -0.5007172673
O  O101  1  0.10660000  0.23240000  0.86230000  1.0 0.0723550683
O  O102  1  0.18390000  0.26570000  0.85270000  1.0 -0.1693089629
O  O103  1  0.82270000  0.30170000  0.89390000  1.0 -0.4868623956
O  O104  1  0.83520000  0.29080000  0.98540000  1.0 -0.6941213595
O  O105  1  0.35640000  0.30800000  0.83940000  1.0 -1.1015611675
O  O106  1  0.23530000  0.53490000  0.70720000  1.0 -0.1693089629
O  O107  1  0.31760000  0.54430000  0.74950000  1.0 -0.2230971154
O  O108  1  0.97670000  0.42400000  0.54680000  1.0 -0.1194196625
O  O109  1  0.92550000  0.53080000  0.57290000  1.0 -0.2898107325
O  O110  1  0.97960000  0.47920000  0.56740000  1.0 -0.2813988457
O  O111  1  0.11060000  0.23770000  0.89670000  1.0 -0.1194196625
O  O112  1  0.16460000  0.26200000  0.83540000  1.0 -0.0157729215
O  O113  1  0.76660000  0.92460000  0.29370000  1.0 -0.1194196625
O  O114  1  0.78430000  0.00390000  0.24450000  1.0 -0.2735532311
O  O115  1  0.47950000  0.09190000  0.33860000  1.0 -0.5477589157
O  O116  1  0.40740000  0.03080000  0.33380000  1.0 -0.5007172673
O  O117  1  0.60660000  0.26760000  0.13770000  1.0 0.0723550683
O  O118  1  0.68390000  0.23430000  0.14730000  1.0 -0.1693089629
O  O119  1  0.32270000  0.19830000  0.10610000  1.0 -0.4868623956
O  O120  1  0.33520000  0.20920000  0.01460000  1.0 -0.6941213595
O  O121  1  0.85640000  0.19200000  0.16060000  1.0 -1.1015611675
O  O122  1  0.73530000  0.96510000  0.29280000  1.0 -0.1693089629
O  O123  1  0.81760000  0.95570000  0.25050000  1.0 -0.2277843989
O  O124  1  0.47670000  0.07600000  0.45320000  1.0 -0.1194196625
O  O125  1  0.42550000  0.96920000  0.42710000  1.0 -0.2898107325
O  O126  1  0.47960000  0.02080000  0.43260000  1.0 -0.2813988457
O  O127  1  0.61060000  0.26230000  0.10330000  1.0 -0.1194196625
O  O128  1  0.66460000  0.23800000  0.16460000  1.0 -0.0157729215
O  O129  1  0.20630000  0.23340000  0.42460000  1.0 -0.1194196625
O  O130  1  0.25550000  0.21570000  0.50390000  1.0 -0.2735532311
O  O131  1  0.16140000  0.52050000  0.59190000  1.0 -0.5477589157
O  O132  1  0.16620000  0.59260000  0.53080000  1.0 -0.5007172673
O  O133  1  0.36230000  0.39340000  0.76760000  1.0 0.0723550683
O  O134  1  0.35270000  0.31610000  0.73430000  1.0 -0.1693089629
O  O135  1  0.39390000  0.67730000  0.69830000  1.0 -0.4868623956
O  O136  1  0.48540000  0.66480000  0.70920000  1.0 -0.6941213595
O  O137  1  0.33940000  0.14360000  0.69200000  1.0 -1.1015611675
O  O138  1  0.20720000  0.26470000  0.46510000  1.0 -0.1693089629
O  O139  1  0.24950000  0.18240000  0.45570000  1.0 -0.2277843989
O  O140  1  0.04680000  0.52330000  0.57600000  1.0 -0.1194196625
O  O141  1  0.07290000  0.57450000  0.46920000  1.0 -0.2898107325
O  O142  1  0.06740000  0.52040000  0.52080000  1.0 -0.2813988457
O  O143  1  0.39670000  0.38940000  0.76230000  1.0 -0.1194196625
O  O144  1  0.33540000  0.33540000  0.73800000  1.0 -0.0157729215
O  O145  1  0.79370000  0.73340000  0.07540000  1.0 -0.1194196625
O  O146  1  0.74450000  0.71570000  0.99610000  1.0 -0.2735532311
O  O147  1  0.83860000  0.02050000  0.90810000  1.0 -0.5477589157
O  O148  1  0.83380000  0.09260000  0.96920000  1.0 -0.5007172673
O  O149  1  0.63770000  0.89340000  0.73240000  1.0 0.0723550683
O  O150  1  0.64730000  0.81610000  0.76570000  1.0 -0.1693089629
O  O151  1  0.60610000  0.17730000  0.80170000  1.0 -0.4868623956
O  O152  1  0.51460000  0.16480000  0.79080000  1.0 -0.6941213595
O  O153  1  0.66060000  0.64360000  0.80800000  1.0 -1.1015611675
O  O154  1  0.79280000  0.76470000  0.03490000  1.0 -0.1693089629
O  O155  1  0.75050000  0.68240000  0.04430000  1.0 -0.2277843989
O  O156  1  0.95320000  0.02330000  0.92400000  1.0 -0.1194196625
O  O157  1  0.92710000  0.07450000  0.03080000  1.0 -0.2898107325
O  O158  1  0.93260000  0.02040000  0.97920000  1.0 -0.2813988457
O  O159  1  0.60330000  0.88940000  0.73770000  1.0 -0.1194196625
O  O160  1  0.66460000  0.83540000  0.76200000  1.0 -0.0157729215
O  O161  1  0.70630000  0.26660000  0.57540000  1.0 -0.1194196625
O  O162  1  0.75550000  0.28430000  0.49610000  1.0 -0.2735532311
O  O163  1  0.66140000  0.97950000  0.40810000  1.0 -0.5477589157
O  O164  1  0.66620000  0.90740000  0.46920000  1.0 -0.5007172673
O  O165  1  0.86230000  0.10660000  0.23240000  1.0 0.0723550683
O  O166  1  0.85270000  0.18390000  0.26570000  1.0 -0.1693089629
O  O167  1  0.89390000  0.82270000  0.30170000  1.0 -0.4868623956
O  O168  1  0.98540000  0.83520000  0.29080000  1.0 -0.6941213595
O  O169  1  0.83940000  0.35640000  0.30800000  1.0 -1.1015611675
O  O170  1  0.70720000  0.23530000  0.53490000  1.0 -0.1693089629
O  O171  1  0.74950000  0.31760000  0.54430000  1.0 -0.2277843989
O  O172  1  0.54680000  0.97670000  0.42400000  1.0 -0.1194196625
O  O173  1  0.57290000  0.92550000  0.53080000  1.0 -0.2898107325
O  O174  1  0.56740000  0.97960000  0.47920000  1.0 -0.2813988457
O  O175  1  0.89670000  0.11060000  0.23770000  1.0 -0.1194196625
O  O176  1  0.83540000  0.16460000  0.26200000  1.0 -0.0157729215
O  O177  1  0.29370000  0.76660000  0.92460000  1.0 -0.1194196625
O  O178  1  0.24450000  0.78430000  0.00390000  1.0 -0.2735532311
O  O179  1  0.33860000  0.47950000  0.09190000  1.0 -0.5477589157
O  O180  1  0.33380000  0.40740000  0.03080000  1.0 -0.5007172673
O  O181  1  0.13770000  0.60660000  0.26760000  1.0 0.0723550683
O  O182  1  0.14730000  0.68390000  0.23430000  1.0 -0.1693089629
O  O183  1  0.10610000  0.32270000  0.19830000  1.0 -0.4868623956
O  O184  1  0.01460000  0.33520000  0.20920000  1.0 -0.6941213595
O  O185  1  0.16060000  0.85640000  0.19200000  1.0 -1.1015611675
O  O186  1  0.29280000  0.73530000  0.96510000  1.0 -0.1693089629
O  O187  1  0.25050000  0.81760000  0.95570000  1.0 -0.2230971154
O  O188  1  0.45320000  0.47670000  0.07600000  1.0 -0.1194196625
O  O189  1  0.42710000  0.42550000  0.96920000  1.0 -0.2813988457
O  O190  1  0.43260000  0.47960000  0.02080000  1.0 -0.2813988457
O  O191  1  0.10330000  0.61060000  0.26230000  1.0 -0.1194196625
O  O192  1  0.16460000  0.66460000  0.23800000  1.0 -0.0157729215
O  O193  1  0.45616000  0.45616000  0.45616000  1.0 -0.816770592
O  O194  1  0.04384000  0.54384000  0.95616000  1.0 -0.816770592
O  O195  1  0.54384000  0.95616000  0.04384000  1.0 -0.816770592
O  O196  1  0.95616000  0.04384000  0.54384000  1.0 -0.816770592
O  O197  1  0.60650000  0.10650000  0.39350000  1.0 -0.4868623956
O  O198  1  0.89350000  0.89350000  0.89350000  1.0 -0.4868623956
O  O199  1  0.39350000  0.60650000  0.10650000  1.0 -0.4868623956
O  O200  1  0.10650000  0.39350000  0.60650000  1.0 -0.4868623956
