# DDEC6 charges by PACMAN v1.1 (https://github.com/mtap-research/PACMAN-charge/)
data_DACPIK_ASR_pacman
_symmetry_space_group_name_H-M   'P 1'
_cell_length_a   23.81000000
_cell_length_b   23.81000000
_cell_length_c   23.81000000
_cell_angle_alpha   90.00000000
_cell_angle_beta   90.00000000
_cell_angle_gamma   90.00000000
_symmetry_Int_Tables_number   1
_chemical_formula_structural   Ho10Zn4H73Rh4C42S12(N2O7)6
_chemical_formula_sum   'Ho40 Zn16 H292 Rh16 C168 S48 N48 O168'
_cell_volume   13498.27234100
_cell_formula_units_Z   4
loop_
 _symmetry_equiv_pos_site_id
 _symmetry_equiv_pos_as_xyz
  1  'x, y, z'
loop_
 _atom_site_type_symbol
 _atom_site_label
 _atom_site_symmetry_multiplicity
 _atom_site_fract_x
 _atom_site_fract_y
 _atom_site_fract_z
 _atom_site_occupancy
 _atom_site_charge
Ho  Ho1  1  0.52141000  0.44053000  0.56706000  1.0 2.1208331293
Ho  Ho2  1  0.29830000  0.17609000  0.75626000  1.0 0.4963236458
Ho  Ho3  1  0.27500000  0.19810000  0.21750000  1.0 0.9809344451
Ho  Ho4  1  0.97859000  0.55947000  0.06706000  1.0 2.1208331293
Ho  Ho5  1  0.20170000  0.82391000  0.25626000  1.0 0.4936035431
Ho  Ho6  1  0.22500000  0.80190000  0.71750000  1.0 0.9809344451
Ho  Ho7  1  0.47859000  0.94053000  0.93294000  1.0 2.1208331293
Ho  Ho8  1  0.70170000  0.67609000  0.74374000  1.0 0.4963236458
Ho  Ho9  1  0.72500000  0.69810000  0.28250000  1.0 0.9809344451
Ho  Ho10  1  0.02141000  0.05947000  0.43294000  1.0 2.1208331293
Ho  Ho11  1  0.79830000  0.32391000  0.24374000  1.0 0.4963236458
Ho  Ho12  1  0.77500000  0.30190000  0.78250000  1.0 0.9852845973
Ho  Ho13  1  0.56706000  0.52141000  0.44053000  1.0 2.1208331293
Ho  Ho14  1  0.75626000  0.29830000  0.17609000  1.0 0.4963236458
Ho  Ho15  1  0.21750000  0.27500000  0.19810000  1.0 0.9809344451
Ho  Ho16  1  0.06706000  0.97859000  0.55947000  1.0 2.1208331293
Ho  Ho17  1  0.25626000  0.20170000  0.82391000  1.0 0.4963236458
Ho  Ho18  1  0.71750000  0.22500000  0.80190000  1.0 0.9852845973
Ho  Ho19  1  0.93294000  0.47859000  0.94053000  1.0 2.1208331293
Ho  Ho20  1  0.74374000  0.70170000  0.67609000  1.0 0.4963236458
Ho  Ho21  1  0.28250000  0.72500000  0.69810000  1.0 0.9809344451
Ho  Ho22  1  0.43294000  0.02141000  0.05947000  1.0 2.1208331293
Ho  Ho23  1  0.24374000  0.79830000  0.32391000  1.0 0.4936035431
Ho  Ho24  1  0.78250000  0.77500000  0.30190000  1.0 0.9809344451
Ho  Ho25  1  0.44053000  0.56706000  0.52141000  1.0 2.1208331293
Ho  Ho26  1  0.17609000  0.75626000  0.29830000  1.0 0.4936035431
Ho  Ho27  1  0.19810000  0.21750000  0.27500000  1.0 0.9809344451
Ho  Ho28  1  0.55947000  0.06706000  0.97859000  1.0 2.1208331293
Ho  Ho29  1  0.82391000  0.25626000  0.20170000  1.0 0.4963236458
Ho  Ho30  1  0.80190000  0.71750000  0.22500000  1.0 0.9809344451
Ho  Ho31  1  0.94053000  0.93294000  0.47859000  1.0 2.1208331293
Ho  Ho32  1  0.67609000  0.74374000  0.70170000  1.0 0.4936035431
Ho  Ho33  1  0.69810000  0.28250000  0.72500000  1.0 0.9852845973
Ho  Ho34  1  0.05947000  0.43294000  0.02141000  1.0 2.1208331293
Ho  Ho35  1  0.32391000  0.24374000  0.79830000  1.0 0.4963236458
Ho  Ho36  1  0.30190000  0.78250000  0.77500000  1.0 0.9809344451
Ho  Ho37  1  0.43492000  0.43492000  0.43492000  1.0 2.1429515786
Ho  Ho38  1  0.06508000  0.56508000  0.93492000  1.0 2.1429515786
Ho  Ho39  1  0.56508000  0.93492000  0.06508000  1.0 2.1429515786
Ho  Ho40  1  0.93492000  0.06508000  0.56508000  1.0 2.1429515786
Zn  Zn1  1  0.51741000  0.08119000  0.37391000  1.0 0.5420224834
Zn  Zn2  1  0.98259000  0.91881000  0.87391000  1.0 0.5420224834
Zn  Zn3  1  0.48259000  0.58119000  0.12609000  1.0 0.5420224834
Zn  Zn4  1  0.01741000  0.41881000  0.62609000  1.0 0.5420224834
Zn  Zn5  1  0.37391000  0.51741000  0.08119000  1.0 0.5420224834
Zn  Zn6  1  0.87391000  0.98259000  0.91881000  1.0 0.5420224834
Zn  Zn7  1  0.12609000  0.48259000  0.58119000  1.0 0.5420224834
Zn  Zn8  1  0.62609000  0.01741000  0.41881000  1.0 0.5420224834
Zn  Zn9  1  0.08119000  0.37391000  0.51741000  1.0 0.5420224834
Zn  Zn10  1  0.91881000  0.87391000  0.98259000  1.0 0.5420224834
Zn  Zn11  1  0.58119000  0.12609000  0.48259000  1.0 0.5420224834
Zn  Zn12  1  0.41881000  0.62609000  0.01741000  1.0 0.5420224834
Zn  Zn13  1  0.51125000  0.01125000  0.48875000  1.0 0.5345655984
Zn  Zn14  1  0.98875000  0.98875000  0.98875000  1.0 0.5420224834
Zn  Zn15  1  0.48875000  0.51125000  0.01125000  1.0 0.5345655984
Zn  Zn16  1  0.01125000  0.48875000  0.51125000  1.0 0.5345655984
H  H1  1  0.61667000  0.25598000  0.32134000  1.0 0.2689702239
H  H2  1  0.65943000  0.24632000  0.27790000  1.0 0.2789326242
H  H3  1  0.41580000  0.24913000  0.45435000  1.0 0.2689702239
H  H4  1  0.37498000  0.24478000  0.50056000  1.0 0.2789326242
H  H5  1  0.40714000  0.14970000  0.59454000  1.0 0.2689702239
H  H6  1  0.35321000  0.16783000  0.57043000  1.0 0.2689702239
H  H7  1  0.32899000  0.10533000  0.45045000  1.0 0.256107999
H  H8  1  0.31608000  0.16325000  0.46707000  1.0 0.2689702239
H  H9  1  0.51417000  0.16751000  0.25321000  1.0 0.1305152516
H  H10  1  0.52417000  0.19645000  0.31325000  1.0 0.1162428363
H  H11  1  0.60282000  0.19813000  0.22226000  1.0 0.1045708067
H  H12  1  0.53648000  0.25466000  0.54623000  1.0 0.1362827427
H  H13  1  0.52182000  0.24484000  0.48111000  1.0 0.1162428363
H  H14  1  0.44029000  0.25494000  0.56867000  1.0 0.1113651625
H  H15  1  0.38483000  0.00307000  0.57078000  1.0 0.1305152516
H  H16  1  0.43365000  0.04569000  0.58933000  1.0 0.1162428363
H  H17  1  0.32400000  0.07928000  0.55335000  1.0 0.088631936
H  H18  1  0.39460000  0.14536000  0.31979000  1.0 0.1305152516
H  H19  1  0.38892000  0.09082000  0.35907000  1.0 0.1162428363
H  H20  1  0.34359000  0.20042000  0.38594000  1.0 0.088631936
H  H21  1  0.54878000  0.40209000  0.45402000  1.0 0.4230807132
H  H22  1  0.35828000  0.52626000  0.69715000  1.0 0.159303636
H  H23  1  0.38228000  0.46353000  0.69986000  1.0 0.1495626302
H  H24  1  0.41556000  0.51357000  0.72995000  1.0 0.159303636
H  H25  1  0.88333000  0.74402000  0.82134000  1.0 0.2689702239
H  H26  1  0.84057000  0.75368000  0.77790000  1.0 0.2789326242
H  H27  1  0.08420000  0.75087000  0.95435000  1.0 0.2689702239
H  H28  1  0.12502000  0.75522000  0.00056000  1.0 0.2789326242
H  H29  1  0.09286000  0.85030000  0.09454000  1.0 0.2689702239
H  H30  1  0.14679000  0.83217000  0.07043000  1.0 0.2689702239
H  H31  1  0.17101000  0.89467000  0.95045000  1.0 0.256107999
H  H32  1  0.18392000  0.83675000  0.96707000  1.0 0.2689702239
H  H33  1  0.98583000  0.83249000  0.75321000  1.0 0.1305152516
H  H34  1  0.97583000  0.80355000  0.81325000  1.0 0.1162428363
H  H35  1  0.89718000  0.80187000  0.72226000  1.0 0.1045708067
H  H36  1  0.96352000  0.74534000  0.04623000  1.0 0.1362827427
H  H37  1  0.97818000  0.75516000  0.98111000  1.0 0.1162428363
H  H38  1  0.05971000  0.74506000  0.06867000  1.0 0.1113651625
H  H39  1  0.11517000  0.99693000  0.07078000  1.0 0.1305152516
H  H40  1  0.06635000  0.95431000  0.08933000  1.0 0.1162428363
H  H41  1  0.17600000  0.92072000  0.05335000  1.0 0.088631936
H  H42  1  0.10540000  0.85464000  0.81979000  1.0 0.1305152516
H  H43  1  0.11108000  0.90918000  0.85907000  1.0 0.1162428363
H  H44  1  0.15641000  0.79958000  0.88594000  1.0 0.088631936
H  H45  1  0.95122000  0.59791000  0.95402000  1.0 0.4230807132
H  H46  1  0.14172000  0.47374000  0.19715000  1.0 0.159303636
H  H47  1  0.11772000  0.53647000  0.19986000  1.0 0.1495626302
H  H48  1  0.08444000  0.48643000  0.22995000  1.0 0.159303636
H  H49  1  0.38333000  0.75598000  0.17866000  1.0 0.2689702239
H  H50  1  0.34057000  0.74632000  0.22210000  1.0 0.2789326242
H  H51  1  0.58420000  0.74913000  0.04565000  1.0 0.2689702239
H  H52  1  0.62502000  0.74478000  0.99944000  1.0 0.2789326242
H  H53  1  0.59286000  0.64970000  0.90546000  1.0 0.2689702239
H  H54  1  0.64679000  0.66783000  0.92957000  1.0 0.2689702239
H  H55  1  0.67101000  0.60533000  0.04955000  1.0 0.256107999
H  H56  1  0.68392000  0.66325000  0.03293000  1.0 0.2689702239
H  H57  1  0.48583000  0.66751000  0.24679000  1.0 0.1305152516
H  H58  1  0.47583000  0.69645000  0.18675000  1.0 0.1162428363
H  H59  1  0.39718000  0.69813000  0.27774000  1.0 0.1045708067
H  H60  1  0.46352000  0.75466000  0.95377000  1.0 0.1362827427
H  H61  1  0.47818000  0.74484000  0.01889000  1.0 0.1162428363
H  H62  1  0.55971000  0.75494000  0.93133000  1.0 0.1113651625
H  H63  1  0.61517000  0.50307000  0.92922000  1.0 0.1305152516
H  H64  1  0.56635000  0.54569000  0.91067000  1.0 0.1162428363
H  H65  1  0.67600000  0.57928000  0.94665000  1.0 0.088631936
H  H66  1  0.60540000  0.64536000  0.18021000  1.0 0.1305152516
H  H67  1  0.61108000  0.59082000  0.14093000  1.0 0.1162428363
H  H68  1  0.65641000  0.70042000  0.11406000  1.0 0.088631936
H  H69  1  0.45122000  0.90209000  0.04598000  1.0 0.4230807132
H  H70  1  0.64172000  0.02626000  0.80285000  1.0 0.159303636
H  H71  1  0.61772000  0.96353000  0.80014000  1.0 0.1495626302
H  H72  1  0.58444000  0.01357000  0.77005000  1.0 0.159303636
H  H73  1  0.11667000  0.24402000  0.67866000  1.0 0.2689702239
H  H74  1  0.15943000  0.25368000  0.72210000  1.0 0.2789326242
H  H75  1  0.91580000  0.25087000  0.54565000  1.0 0.2689702239
H  H76  1  0.87498000  0.25522000  0.49944000  1.0 0.2789326242
H  H77  1  0.90714000  0.35030000  0.40546000  1.0 0.2689702239
H  H78  1  0.85321000  0.33217000  0.42957000  1.0 0.2689702239
H  H79  1  0.82899000  0.39467000  0.54955000  1.0 0.256107999
H  H80  1  0.81608000  0.33675000  0.53293000  1.0 0.2689702239
H  H81  1  0.01417000  0.33249000  0.74679000  1.0 0.1305152516
H  H82  1  0.02417000  0.30355000  0.68675000  1.0 0.1162428363
H  H83  1  0.10282000  0.30187000  0.77774000  1.0 0.1045708067
H  H84  1  0.03648000  0.24534000  0.45377000  1.0 0.1362827427
H  H85  1  0.02182000  0.25516000  0.51889000  1.0 0.1162428363
H  H86  1  0.94029000  0.24506000  0.43133000  1.0 0.1113651625
H  H87  1  0.88483000  0.49693000  0.42922000  1.0 0.1305152516
H  H88  1  0.93365000  0.45431000  0.41067000  1.0 0.1162428363
H  H89  1  0.82400000  0.42072000  0.44665000  1.0 0.088631936
H  H90  1  0.89460000  0.35464000  0.68021000  1.0 0.1305152516
H  H91  1  0.88892000  0.40918000  0.64093000  1.0 0.1162428363
H  H92  1  0.84359000  0.29958000  0.61406000  1.0 0.088631936
H  H93  1  0.04878000  0.09791000  0.54598000  1.0 0.4230807132
H  H94  1  0.85828000  0.97374000  0.30285000  1.0 0.159303636
H  H95  1  0.88228000  0.03647000  0.30014000  1.0 0.1495626302
H  H96  1  0.91556000  0.98643000  0.27005000  1.0 0.159303636
H  H97  1  0.32134000  0.61667000  0.25598000  1.0 0.2689702239
H  H98  1  0.27790000  0.65943000  0.24632000  1.0 0.2789326242
H  H99  1  0.45435000  0.41580000  0.24913000  1.0 0.2689702239
H  H100  1  0.50056000  0.37498000  0.24478000  1.0 0.2789326242
H  H101  1  0.59454000  0.40714000  0.14970000  1.0 0.2689702239
H  H102  1  0.57043000  0.35321000  0.16783000  1.0 0.2689702239
H  H103  1  0.45045000  0.32899000  0.10533000  1.0 0.256107999
H  H104  1  0.46707000  0.31608000  0.16325000  1.0 0.2689702239
H  H105  1  0.25321000  0.51417000  0.16751000  1.0 0.1305152516
H  H106  1  0.31325000  0.52417000  0.19645000  1.0 0.1162428363
H  H107  1  0.22226000  0.60282000  0.19813000  1.0 0.1045708067
H  H108  1  0.54623000  0.53648000  0.25466000  1.0 0.1362827427
H  H109  1  0.48111000  0.52182000  0.24484000  1.0 0.1162428363
H  H110  1  0.56867000  0.44029000  0.25494000  1.0 0.1113651625
H  H111  1  0.57078000  0.38483000  0.00307000  1.0 0.1305152516
H  H112  1  0.58933000  0.43365000  0.04569000  1.0 0.1162428363
H  H113  1  0.55335000  0.32400000  0.07928000  1.0 0.088631936
H  H114  1  0.31979000  0.39460000  0.14536000  1.0 0.1305152516
H  H115  1  0.35907000  0.38892000  0.09082000  1.0 0.1162428363
H  H116  1  0.38594000  0.34359000  0.20042000  1.0 0.088631936
H  H117  1  0.45402000  0.54878000  0.40209000  1.0 0.4230807132
H  H118  1  0.69715000  0.35828000  0.52626000  1.0 0.159303636
H  H119  1  0.69986000  0.38228000  0.46353000  1.0 0.1495626302
H  H120  1  0.72995000  0.41556000  0.51357000  1.0 0.159303636
H  H121  1  0.82134000  0.88333000  0.74402000  1.0 0.2689702239
H  H122  1  0.77790000  0.84057000  0.75368000  1.0 0.2789326242
H  H123  1  0.95435000  0.08420000  0.75087000  1.0 0.2689702239
H  H124  1  0.00056000  0.12502000  0.75522000  1.0 0.2789326242
H  H125  1  0.09454000  0.09286000  0.85030000  1.0 0.2689702239
H  H126  1  0.07043000  0.14679000  0.83217000  1.0 0.2689702239
H  H127  1  0.95045000  0.17101000  0.89467000  1.0 0.256107999
H  H128  1  0.96707000  0.18392000  0.83675000  1.0 0.2689702239
H  H129  1  0.75321000  0.98583000  0.83249000  1.0 0.1305152516
H  H130  1  0.81325000  0.97583000  0.80355000  1.0 0.1162428363
H  H131  1  0.72226000  0.89718000  0.80187000  1.0 0.1045708067
H  H132  1  0.04623000  0.96352000  0.74534000  1.0 0.1362827427
H  H133  1  0.98111000  0.97818000  0.75516000  1.0 0.1162428363
H  H134  1  0.06867000  0.05971000  0.74506000  1.0 0.1113651625
H  H135  1  0.07078000  0.11517000  0.99693000  1.0 0.1305152516
H  H136  1  0.08933000  0.06635000  0.95431000  1.0 0.1162428363
H  H137  1  0.05335000  0.17600000  0.92072000  1.0 0.088631936
H  H138  1  0.81979000  0.10540000  0.85464000  1.0 0.1305152516
H  H139  1  0.85907000  0.11108000  0.90918000  1.0 0.1162428363
H  H140  1  0.88594000  0.15641000  0.79958000  1.0 0.088631936
H  H141  1  0.95402000  0.95122000  0.59791000  1.0 0.4230807132
H  H142  1  0.19715000  0.14172000  0.47374000  1.0 0.159303636
H  H143  1  0.19986000  0.11772000  0.53647000  1.0 0.1495626302
H  H144  1  0.22995000  0.08444000  0.48643000  1.0 0.159303636
H  H145  1  0.17866000  0.38333000  0.75598000  1.0 0.2689702239
H  H146  1  0.22210000  0.34057000  0.74632000  1.0 0.2789326242
H  H147  1  0.04565000  0.58420000  0.74913000  1.0 0.2689702239
H  H148  1  0.99944000  0.62502000  0.74478000  1.0 0.2789326242
H  H149  1  0.90546000  0.59286000  0.64970000  1.0 0.2689702239
H  H150  1  0.92957000  0.64679000  0.66783000  1.0 0.2689702239
H  H151  1  0.04955000  0.67101000  0.60533000  1.0 0.256107999
H  H152  1  0.03293000  0.68392000  0.66325000  1.0 0.2689702239
H  H153  1  0.24679000  0.48583000  0.66751000  1.0 0.1305152516
H  H154  1  0.18675000  0.47583000  0.69645000  1.0 0.1162428363
H  H155  1  0.27774000  0.39718000  0.69813000  1.0 0.1045708067
H  H156  1  0.95377000  0.46352000  0.75466000  1.0 0.1362827427
H  H157  1  0.01889000  0.47818000  0.74484000  1.0 0.1162428363
H  H158  1  0.93133000  0.55971000  0.75494000  1.0 0.1113651625
H  H159  1  0.92922000  0.61517000  0.50307000  1.0 0.1305152516
H  H160  1  0.91067000  0.56635000  0.54569000  1.0 0.1162428363
H  H161  1  0.94665000  0.67600000  0.57928000  1.0 0.088631936
H  H162  1  0.18021000  0.60540000  0.64536000  1.0 0.1305152516
H  H163  1  0.14093000  0.61108000  0.59082000  1.0 0.1162428363
H  H164  1  0.11406000  0.65641000  0.70042000  1.0 0.088631936
H  H165  1  0.04598000  0.45122000  0.90209000  1.0 0.4230807132
H  H166  1  0.80285000  0.64172000  0.02626000  1.0 0.159303636
H  H167  1  0.80014000  0.61772000  0.96353000  1.0 0.1495626302
H  H168  1  0.77005000  0.58444000  0.01357000  1.0 0.159303636
H  H169  1  0.67866000  0.11667000  0.24402000  1.0 0.2689702239
H  H170  1  0.72210000  0.15943000  0.25368000  1.0 0.2789326242
H  H171  1  0.54565000  0.91580000  0.25087000  1.0 0.2689702239
H  H172  1  0.49944000  0.87498000  0.25522000  1.0 0.2789326242
H  H173  1  0.40546000  0.90714000  0.35030000  1.0 0.2689702239
H  H174  1  0.42957000  0.85321000  0.33217000  1.0 0.2689702239
H  H175  1  0.54955000  0.82899000  0.39467000  1.0 0.256107999
H  H176  1  0.53293000  0.81608000  0.33675000  1.0 0.2689702239
H  H177  1  0.74679000  0.01417000  0.33249000  1.0 0.1305152516
H  H178  1  0.68675000  0.02417000  0.30355000  1.0 0.1162428363
H  H179  1  0.77774000  0.10282000  0.30187000  1.0 0.1045708067
H  H180  1  0.45377000  0.03648000  0.24534000  1.0 0.1362827427
H  H181  1  0.51889000  0.02182000  0.25516000  1.0 0.1162428363
H  H182  1  0.43133000  0.94029000  0.24506000  1.0 0.1113651625
H  H183  1  0.42922000  0.88483000  0.49693000  1.0 0.1305152516
H  H184  1  0.41067000  0.93365000  0.45431000  1.0 0.1162428363
H  H185  1  0.44665000  0.82400000  0.42072000  1.0 0.088631936
H  H186  1  0.68021000  0.89460000  0.35464000  1.0 0.1305152516
H  H187  1  0.64093000  0.88892000  0.40918000  1.0 0.1162428363
H  H188  1  0.61406000  0.84359000  0.29958000  1.0 0.088631936
H  H189  1  0.54598000  0.04878000  0.09791000  1.0 0.4230807132
H  H190  1  0.30285000  0.85828000  0.97374000  1.0 0.159303636
H  H191  1  0.30014000  0.88228000  0.03647000  1.0 0.1495626302
H  H192  1  0.27005000  0.91556000  0.98643000  1.0 0.159303636
H  H193  1  0.25598000  0.32134000  0.61667000  1.0 0.2689702239
H  H194  1  0.24632000  0.27790000  0.65943000  1.0 0.2789326242
H  H195  1  0.24913000  0.45435000  0.41580000  1.0 0.2689702239
H  H196  1  0.24478000  0.50056000  0.37498000  1.0 0.2789326242
H  H197  1  0.14970000  0.59454000  0.40714000  1.0 0.2689702239
H  H198  1  0.16783000  0.57043000  0.35321000  1.0 0.2689702239
H  H199  1  0.10533000  0.45045000  0.32899000  1.0 0.256107999
H  H200  1  0.16325000  0.46707000  0.31608000  1.0 0.2689702239
H  H201  1  0.16751000  0.25321000  0.51417000  1.0 0.1305152516
H  H202  1  0.19645000  0.31325000  0.52417000  1.0 0.1162428363
H  H203  1  0.19813000  0.22226000  0.60282000  1.0 0.1045708067
H  H204  1  0.25466000  0.54623000  0.53648000  1.0 0.1362827427
H  H205  1  0.24484000  0.48111000  0.52182000  1.0 0.1162428363
H  H206  1  0.25494000  0.56867000  0.44029000  1.0 0.1113651625
H  H207  1  0.00307000  0.57078000  0.38483000  1.0 0.1305152516
H  H208  1  0.04569000  0.58933000  0.43365000  1.0 0.1162428363
H  H209  1  0.07928000  0.55335000  0.32400000  1.0 0.088631936
H  H210  1  0.14536000  0.31979000  0.39460000  1.0 0.1305152516
H  H211  1  0.09082000  0.35907000  0.38892000  1.0 0.1162428363
H  H212  1  0.20042000  0.38594000  0.34359000  1.0 0.088631936
H  H213  1  0.40209000  0.45402000  0.54878000  1.0 0.4230807132
H  H214  1  0.52626000  0.69715000  0.35828000  1.0 0.159303636
H  H215  1  0.46353000  0.69986000  0.38228000  1.0 0.1495626302
H  H216  1  0.51357000  0.72995000  0.41556000  1.0 0.159303636
H  H217  1  0.74402000  0.82134000  0.88333000  1.0 0.2689702239
H  H218  1  0.75368000  0.77790000  0.84057000  1.0 0.2789326242
H  H219  1  0.75087000  0.95435000  0.08420000  1.0 0.2689702239
H  H220  1  0.75522000  0.00056000  0.12502000  1.0 0.2789326242
H  H221  1  0.85030000  0.09454000  0.09286000  1.0 0.2689702239
H  H222  1  0.83217000  0.07043000  0.14679000  1.0 0.2689702239
H  H223  1  0.89467000  0.95045000  0.17101000  1.0 0.256107999
H  H224  1  0.83675000  0.96707000  0.18392000  1.0 0.2689702239
H  H225  1  0.83249000  0.75321000  0.98583000  1.0 0.1305152516
H  H226  1  0.80355000  0.81325000  0.97583000  1.0 0.1162428363
H  H227  1  0.80187000  0.72226000  0.89718000  1.0 0.1045708067
H  H228  1  0.74534000  0.04623000  0.96352000  1.0 0.1362827427
H  H229  1  0.75516000  0.98111000  0.97818000  1.0 0.1162428363
H  H230  1  0.74506000  0.06867000  0.05971000  1.0 0.1113651625
H  H231  1  0.99693000  0.07078000  0.11517000  1.0 0.1305152516
H  H232  1  0.95431000  0.08933000  0.06635000  1.0 0.1162428363
H  H233  1  0.92072000  0.05335000  0.17600000  1.0 0.088631936
H  H234  1  0.85464000  0.81979000  0.10540000  1.0 0.1305152516
H  H235  1  0.90918000  0.85907000  0.11108000  1.0 0.1162428363
H  H236  1  0.79958000  0.88594000  0.15641000  1.0 0.088631936
H  H237  1  0.59791000  0.95402000  0.95122000  1.0 0.4230807132
H  H238  1  0.47374000  0.19715000  0.14172000  1.0 0.159303636
H  H239  1  0.53647000  0.19986000  0.11772000  1.0 0.1495626302
H  H240  1  0.48643000  0.22995000  0.08444000  1.0 0.159303636
H  H241  1  0.75598000  0.17866000  0.38333000  1.0 0.2689702239
H  H242  1  0.74632000  0.22210000  0.34057000  1.0 0.2789326242
H  H243  1  0.74913000  0.04565000  0.58420000  1.0 0.2689702239
H  H244  1  0.74478000  0.99944000  0.62502000  1.0 0.2789326242
H  H245  1  0.64970000  0.90546000  0.59286000  1.0 0.2689702239
H  H246  1  0.66783000  0.92957000  0.64679000  1.0 0.2689702239
H  H247  1  0.60533000  0.04955000  0.67101000  1.0 0.256107999
H  H248  1  0.66325000  0.03293000  0.68392000  1.0 0.2689702239
H  H249  1  0.66751000  0.24679000  0.48583000  1.0 0.1305152516
H  H250  1  0.69645000  0.18675000  0.47583000  1.0 0.1162428363
H  H251  1  0.69813000  0.27774000  0.39718000  1.0 0.1045708067
H  H252  1  0.75466000  0.95377000  0.46352000  1.0 0.1362827427
H  H253  1  0.74484000  0.01889000  0.47818000  1.0 0.1162428363
H  H254  1  0.75494000  0.93133000  0.55971000  1.0 0.1113651625
H  H255  1  0.50307000  0.92922000  0.61517000  1.0 0.1305152516
H  H256  1  0.54569000  0.91067000  0.56635000  1.0 0.1162428363
H  H257  1  0.57928000  0.94665000  0.67600000  1.0 0.088631936
H  H258  1  0.64536000  0.18021000  0.60540000  1.0 0.1305152516
H  H259  1  0.59082000  0.14093000  0.61108000  1.0 0.1162428363
H  H260  1  0.70042000  0.11406000  0.65641000  1.0 0.088631936
H  H261  1  0.90209000  0.04598000  0.45122000  1.0 0.4230807132
H  H262  1  0.02626000  0.80285000  0.64172000  1.0 0.159303636
H  H263  1  0.96353000  0.80014000  0.61772000  1.0 0.1495626302
H  H264  1  0.01357000  0.77005000  0.58444000  1.0 0.159303636
H  H265  1  0.24402000  0.67866000  0.11667000  1.0 0.2689702239
H  H266  1  0.25368000  0.72210000  0.15943000  1.0 0.2789326242
H  H267  1  0.25087000  0.54565000  0.91580000  1.0 0.2689702239
H  H268  1  0.25522000  0.49944000  0.87498000  1.0 0.2789326242
H  H269  1  0.35030000  0.40546000  0.90714000  1.0 0.2689702239
H  H270  1  0.33217000  0.42957000  0.85321000  1.0 0.2689702239
H  H271  1  0.39467000  0.54955000  0.82899000  1.0 0.256107999
H  H272  1  0.33675000  0.53293000  0.81608000  1.0 0.2689702239
H  H273  1  0.33249000  0.74679000  0.01417000  1.0 0.1305152516
H  H274  1  0.30355000  0.68675000  0.02417000  1.0 0.1162428363
H  H275  1  0.30187000  0.77774000  0.10282000  1.0 0.1045708067
H  H276  1  0.24534000  0.45377000  0.03648000  1.0 0.1362827427
H  H277  1  0.25516000  0.51889000  0.02182000  1.0 0.1162428363
H  H278  1  0.24506000  0.43133000  0.94029000  1.0 0.1113651625
H  H279  1  0.49693000  0.42922000  0.88483000  1.0 0.1305152516
H  H280  1  0.45431000  0.41067000  0.93365000  1.0 0.1162428363
H  H281  1  0.42072000  0.44665000  0.82400000  1.0 0.088631936
H  H282  1  0.35464000  0.68021000  0.89460000  1.0 0.1305152516
H  H283  1  0.40918000  0.64093000  0.88892000  1.0 0.1162428363
H  H284  1  0.29958000  0.61406000  0.84359000  1.0 0.088631936
H  H285  1  0.09791000  0.54598000  0.04878000  1.0 0.4230807132
H  H286  1  0.97374000  0.30285000  0.85828000  1.0 0.159303636
H  H287  1  0.03647000  0.30014000  0.88228000  1.0 0.1495626302
H  H288  1  0.98643000  0.27005000  0.91556000  1.0 0.159303636
H  H289  1  0.55504000  0.55504000  0.55504000  1.0 0.4367903775
H  H290  1  0.94496000  0.44496000  0.05504000  1.0 0.4367903775
H  H291  1  0.44496000  0.05504000  0.94496000  1.0 0.4367903775
H  H292  1  0.05504000  0.94496000  0.44496000  1.0 0.4367903775
Rh  Rh1  1  0.41838000  0.14716000  0.48835000  1.0 0.4765119153
Rh  Rh2  1  0.08162000  0.85284000  0.98835000  1.0 0.4765119153
Rh  Rh3  1  0.58162000  0.64716000  0.01165000  1.0 0.4765119153
Rh  Rh4  1  0.91838000  0.35284000  0.51165000  1.0 0.4765119153
Rh  Rh5  1  0.48835000  0.41838000  0.14716000  1.0 0.4765119153
Rh  Rh6  1  0.98835000  0.08162000  0.85284000  1.0 0.4680669658
Rh  Rh7  1  0.01165000  0.58162000  0.64716000  1.0 0.4765119153
Rh  Rh8  1  0.51165000  0.91838000  0.35284000  1.0 0.4765119153
Rh  Rh9  1  0.14716000  0.48835000  0.41838000  1.0 0.4765119153
Rh  Rh10  1  0.85284000  0.98835000  0.08162000  1.0 0.4765119153
Rh  Rh11  1  0.64716000  0.01165000  0.58162000  1.0 0.4765119153
Rh  Rh12  1  0.35284000  0.51165000  0.91838000  1.0 0.4765119153
Rh  Rh13  1  0.65915000  0.15915000  0.34085000  1.0 0.4619910425
Rh  Rh14  1  0.84085000  0.84085000  0.84085000  1.0 0.4619910425
Rh  Rh15  1  0.34085000  0.65915000  0.15915000  1.0 0.4619910425
Rh  Rh16  1  0.15915000  0.34085000  0.65915000  1.0 0.4619910425
C  C1  1  0.54310000  0.17780000  0.28120000  1.0 -0.209091043
C  C2  1  0.58520000  0.21750000  0.25510000  1.0 0.0199909031
C  C3  1  0.55590000  0.27030000  0.23370000  1.0 0.4680669658
C  C4  1  0.50910000  0.23760000  0.52000000  1.0 -0.209091043
C  C5  1  0.45220000  0.26240000  0.52910000  1.0 0.0199909031
C  C6  1  0.45600000  0.32690000  0.51990000  1.0 0.6199783987
C  C7  1  0.40050000  0.04110000  0.56470000  1.0 -0.1925797432
C  C8  1  0.35700000  0.08480000  0.57880000  1.0 0.0253872878
C  C9  1  0.33630000  0.08110000  0.64020000  1.0 0.5155088014
C  C10  1  0.39220000  0.13230000  0.35920000  1.0 -0.2014769557
C  C11  1  0.34070000  0.15860000  0.38830000  1.0 0.0139434071
C  C12  1  0.28830000  0.13950000  0.35700000  1.0 0.5888294386
C  C13  1  0.42610000  0.51380000  0.64280000  1.0 0.757411719
C  C14  1  0.39250000  0.50330000  0.69750000  1.0 -0.5906350904
C  C15  1  0.95690000  0.82220000  0.78120000  1.0 -0.209091043
C  C16  1  0.91480000  0.78250000  0.75510000  1.0 0.0199909031
C  C17  1  0.94410000  0.72970000  0.73370000  1.0 0.4680669658
C  C18  1  0.99090000  0.76240000  0.02000000  1.0 -0.209091043
C  C19  1  0.04780000  0.73760000  0.02910000  1.0 0.0199909031
C  C20  1  0.04400000  0.67310000  0.01990000  1.0 0.6199783987
C  C21  1  0.09950000  0.95890000  0.06470000  1.0 -0.1925797432
C  C22  1  0.14300000  0.91520000  0.07880000  1.0 0.0253872878
C  C23  1  0.16370000  0.91890000  0.14020000  1.0 0.5155088014
C  C24  1  0.10780000  0.86770000  0.85920000  1.0 -0.2014769557
C  C25  1  0.15930000  0.84140000  0.88830000  1.0 0.0139434071
C  C26  1  0.21170000  0.86050000  0.85700000  1.0 0.5888294386
C  C27  1  0.07390000  0.48620000  0.14280000  1.0 0.757411719
C  C28  1  0.10750000  0.49670000  0.19750000  1.0 -0.5906350904
C  C29  1  0.45690000  0.67780000  0.21880000  1.0 -0.209091043
C  C30  1  0.41480000  0.71750000  0.24490000  1.0 0.0199909031
C  C31  1  0.44410000  0.77030000  0.26630000  1.0 0.4680669658
C  C32  1  0.49090000  0.73760000  0.98000000  1.0 -0.209091043
C  C33  1  0.54780000  0.76240000  0.97090000  1.0 0.0199909031
C  C34  1  0.54400000  0.82690000  0.98010000  1.0 0.6199783987
C  C35  1  0.59950000  0.54110000  0.93530000  1.0 -0.1925797432
C  C36  1  0.64300000  0.58480000  0.92120000  1.0 0.0253872878
C  C37  1  0.66370000  0.58110000  0.85980000  1.0 0.5155088014
C  C38  1  0.60780000  0.63230000  0.14080000  1.0 -0.2014769557
C  C39  1  0.65930000  0.65860000  0.11170000  1.0 0.0139434071
C  C40  1  0.71170000  0.63950000  0.14300000  1.0 0.5888294386
C  C41  1  0.57390000  0.01380000  0.85720000  1.0 0.757411719
C  C42  1  0.60750000  0.00330000  0.80250000  1.0 -0.5906350904
C  C43  1  0.04310000  0.32220000  0.71880000  1.0 -0.209091043
C  C44  1  0.08520000  0.28250000  0.74490000  1.0 0.0199909031
C  C45  1  0.05590000  0.22970000  0.76630000  1.0 0.4680669658
C  C46  1  0.00910000  0.26240000  0.48000000  1.0 -0.209091043
C  C47  1  0.95220000  0.23760000  0.47090000  1.0 0.0199909031
C  C48  1  0.95600000  0.17310000  0.48010000  1.0 0.6199783987
C  C49  1  0.90050000  0.45890000  0.43530000  1.0 -0.1925797432
C  C50  1  0.85700000  0.41520000  0.42120000  1.0 0.0253872878
C  C51  1  0.83630000  0.41890000  0.35980000  1.0 0.5155088014
C  C52  1  0.89220000  0.36770000  0.64080000  1.0 -0.2014769557
C  C53  1  0.84070000  0.34140000  0.61170000  1.0 0.0139434071
C  C54  1  0.78830000  0.36050000  0.64300000  1.0 0.5888294386
C  C55  1  0.92610000  0.98620000  0.35720000  1.0 0.757411719
C  C56  1  0.89250000  0.99670000  0.30250000  1.0 -0.5906350904
C  C57  1  0.28120000  0.54310000  0.17780000  1.0 -0.209091043
C  C58  1  0.25510000  0.58520000  0.21750000  1.0 0.0199909031
C  C59  1  0.23370000  0.55590000  0.27030000  1.0 0.4680669658
C  C60  1  0.52000000  0.50910000  0.23760000  1.0 -0.209091043
C  C61  1  0.52910000  0.45220000  0.26240000  1.0 0.0199909031
C  C62  1  0.51990000  0.45600000  0.32690000  1.0 0.6199783987
C  C63  1  0.56470000  0.40050000  0.04110000  1.0 -0.1925797432
C  C64  1  0.57880000  0.35700000  0.08480000  1.0 0.0253872878
C  C65  1  0.64020000  0.33630000  0.08110000  1.0 0.5155088014
C  C66  1  0.35920000  0.39220000  0.13230000  1.0 -0.2014769557
C  C67  1  0.38830000  0.34070000  0.15860000  1.0 0.0139434071
C  C68  1  0.35700000  0.28830000  0.13950000  1.0 0.5888294386
C  C69  1  0.64280000  0.42610000  0.51380000  1.0 0.757411719
C  C70  1  0.69750000  0.39250000  0.50330000  1.0 -0.5906350904
C  C71  1  0.78120000  0.95690000  0.82220000  1.0 -0.209091043
C  C72  1  0.75510000  0.91480000  0.78250000  1.0 0.0199909031
C  C73  1  0.73370000  0.94410000  0.72970000  1.0 0.4680669658
C  C74  1  0.02000000  0.99090000  0.76240000  1.0 -0.209091043
C  C75  1  0.02910000  0.04780000  0.73760000  1.0 0.0199909031
C  C76  1  0.01990000  0.04400000  0.67310000  1.0 0.6199783987
C  C77  1  0.06470000  0.09950000  0.95890000  1.0 -0.1925797432
C  C78  1  0.07880000  0.14300000  0.91520000  1.0 0.0253872878
C  C79  1  0.14020000  0.16370000  0.91890000  1.0 0.5155088014
C  C80  1  0.85920000  0.10780000  0.86770000  1.0 -0.2014769557
C  C81  1  0.88830000  0.15930000  0.84140000  1.0 0.0139434071
C  C82  1  0.85700000  0.21170000  0.86050000  1.0 0.5888294386
C  C83  1  0.14280000  0.07390000  0.48620000  1.0 0.757411719
C  C84  1  0.19750000  0.10750000  0.49670000  1.0 -0.5906350904
C  C85  1  0.21880000  0.45690000  0.67780000  1.0 -0.209091043
C  C86  1  0.24490000  0.41480000  0.71750000  1.0 0.0199909031
C  C87  1  0.26630000  0.44410000  0.77030000  1.0 0.4680669658
C  C88  1  0.98000000  0.49090000  0.73760000  1.0 -0.209091043
C  C89  1  0.97090000  0.54780000  0.76240000  1.0 0.0199909031
C  C90  1  0.98010000  0.54400000  0.82690000  1.0 0.6199783987
C  C91  1  0.93530000  0.59950000  0.54110000  1.0 -0.1925797432
C  C92  1  0.92120000  0.64300000  0.58480000  1.0 0.0253872878
C  C93  1  0.85980000  0.66370000  0.58110000  1.0 0.5155088014
C  C94  1  0.14080000  0.60780000  0.63230000  1.0 -0.2014769557
C  C95  1  0.11170000  0.65930000  0.65860000  1.0 0.0139434071
C  C96  1  0.14300000  0.71170000  0.63950000  1.0 0.5888294386
C  C97  1  0.85720000  0.57390000  0.01380000  1.0 0.757411719
C  C98  1  0.80250000  0.60750000  0.00330000  1.0 -0.5906350904
C  C99  1  0.71880000  0.04310000  0.32220000  1.0 -0.209091043
C  C100  1  0.74490000  0.08520000  0.28250000  1.0 0.0199909031
C  C101  1  0.76630000  0.05590000  0.22970000  1.0 0.4680669658
C  C102  1  0.48000000  0.00910000  0.26240000  1.0 -0.209091043
C  C103  1  0.47090000  0.95220000  0.23760000  1.0 0.0199909031
C  C104  1  0.48010000  0.95600000  0.17310000  1.0 0.6199783987
C  C105  1  0.43530000  0.90050000  0.45890000  1.0 -0.1925797432
C  C106  1  0.42120000  0.85700000  0.41520000  1.0 0.0253872878
C  C107  1  0.35980000  0.83630000  0.41890000  1.0 0.5155088014
C  C108  1  0.64080000  0.89220000  0.36770000  1.0 -0.2014769557
C  C109  1  0.61170000  0.84070000  0.34140000  1.0 0.0139434071
C  C110  1  0.64300000  0.78830000  0.36050000  1.0 0.5888294386
C  C111  1  0.35720000  0.92610000  0.98620000  1.0 0.757411719
C  C112  1  0.30250000  0.89250000  0.99670000  1.0 -0.5906350904
C  C113  1  0.17780000  0.28120000  0.54310000  1.0 -0.209091043
C  C114  1  0.21750000  0.25510000  0.58520000  1.0 0.0199909031
C  C115  1  0.27030000  0.23370000  0.55590000  1.0 0.4680669658
C  C116  1  0.23760000  0.52000000  0.50910000  1.0 -0.209091043
C  C117  1  0.26240000  0.52910000  0.45220000  1.0 0.0199909031
C  C118  1  0.32690000  0.51990000  0.45600000  1.0 0.6199783987
C  C119  1  0.04110000  0.56470000  0.40050000  1.0 -0.1925797432
C  C120  1  0.08480000  0.57880000  0.35700000  1.0 0.0253872878
C  C121  1  0.08110000  0.64020000  0.33630000  1.0 0.5155088014
C  C122  1  0.13230000  0.35920000  0.39220000  1.0 -0.2014769557
C  C123  1  0.15860000  0.38830000  0.34070000  1.0 0.0139434071
C  C124  1  0.13950000  0.35700000  0.28830000  1.0 0.5888294386
C  C125  1  0.51380000  0.64280000  0.42610000  1.0 0.757411719
C  C126  1  0.50330000  0.69750000  0.39250000  1.0 -0.5906350904
C  C127  1  0.82220000  0.78120000  0.95690000  1.0 -0.209091043
C  C128  1  0.78250000  0.75510000  0.91480000  1.0 0.0199909031
C  C129  1  0.72970000  0.73370000  0.94410000  1.0 0.4680669658
C  C130  1  0.76240000  0.02000000  0.99090000  1.0 -0.209091043
C  C131  1  0.73760000  0.02910000  0.04780000  1.0 0.0199909031
C  C132  1  0.67310000  0.01990000  0.04400000  1.0 0.6199783987
C  C133  1  0.95890000  0.06470000  0.09950000  1.0 -0.1925797432
C  C134  1  0.91520000  0.07880000  0.14300000  1.0 0.0253872878
C  C135  1  0.91890000  0.14020000  0.16370000  1.0 0.5155088014
C  C136  1  0.86770000  0.85920000  0.10780000  1.0 -0.2014769557
C  C137  1  0.84140000  0.88830000  0.15930000  1.0 0.0139434071
C  C138  1  0.86050000  0.85700000  0.21170000  1.0 0.5888294386
C  C139  1  0.48620000  0.14280000  0.07390000  1.0 0.757411719
C  C140  1  0.49670000  0.19750000  0.10750000  1.0 -0.5906350904
C  C141  1  0.67780000  0.21880000  0.45690000  1.0 -0.209091043
C  C142  1  0.71750000  0.24490000  0.41480000  1.0 0.0199909031
C  C143  1  0.77030000  0.26630000  0.44410000  1.0 0.4680669658
C  C144  1  0.73760000  0.98000000  0.49090000  1.0 -0.209091043
C  C145  1  0.76240000  0.97090000  0.54780000  1.0 0.0199909031
C  C146  1  0.82690000  0.98010000  0.54400000  1.0 0.6199783987
C  C147  1  0.54110000  0.93530000  0.59950000  1.0 -0.1925797432
C  C148  1  0.58480000  0.92120000  0.64300000  1.0 0.0253872878
C  C149  1  0.58110000  0.85980000  0.66370000  1.0 0.5155088014
C  C150  1  0.63230000  0.14080000  0.60780000  1.0 -0.2014769557
C  C151  1  0.65860000  0.11170000  0.65930000  1.0 0.0139434071
C  C152  1  0.63950000  0.14300000  0.71170000  1.0 0.5888294386
C  C153  1  0.01380000  0.85720000  0.57390000  1.0 0.757411719
C  C154  1  0.00330000  0.80250000  0.60750000  1.0 -0.5906350904
C  C155  1  0.32220000  0.71880000  0.04310000  1.0 -0.209091043
C  C156  1  0.28250000  0.74490000  0.08520000  1.0 0.0199909031
C  C157  1  0.22970000  0.76630000  0.05590000  1.0 0.4680669658
C  C158  1  0.26240000  0.48000000  0.00910000  1.0 -0.209091043
C  C159  1  0.23760000  0.47090000  0.95220000  1.0 0.0199909031
C  C160  1  0.17310000  0.48010000  0.95600000  1.0 0.6199783987
C  C161  1  0.45890000  0.43530000  0.90050000  1.0 -0.1925797432
C  C162  1  0.41520000  0.42120000  0.85700000  1.0 0.0253872878
C  C163  1  0.41890000  0.35980000  0.83630000  1.0 0.5155088014
C  C164  1  0.36770000  0.64080000  0.89220000  1.0 -0.2014769557
C  C165  1  0.34140000  0.61170000  0.84070000  1.0 0.0139434071
C  C166  1  0.36050000  0.64300000  0.78830000  1.0 0.5888294386
C  C167  1  0.98620000  0.35720000  0.92610000  1.0 0.757411719
C  C168  1  0.99670000  0.30250000  0.89250000  1.0 -0.5906350904
S  S1  1  0.57953000  0.11480000  0.30556000  1.0 -0.2748738223
S  S2  1  0.50420000  0.16136000  0.53262000  1.0 -0.2970563254
S  S3  1  0.42095000  0.04947000  0.49158000  1.0 -0.2796792868
S  S4  1  0.45532000  0.15368000  0.39803000  1.0 -0.2970563254
S  S5  1  0.92047000  0.88520000  0.80556000  1.0 -0.2748738223
S  S6  1  0.99580000  0.83864000  0.03262000  1.0 -0.2970563254
S  S7  1  0.07905000  0.95053000  0.99158000  1.0 -0.2796792868
S  S8  1  0.04468000  0.84632000  0.89803000  1.0 -0.2970563254
S  S9  1  0.42047000  0.61480000  0.19444000  1.0 -0.2796792868
S  S10  1  0.49580000  0.66136000  0.96738000  1.0 -0.2970563254
S  S11  1  0.57905000  0.54947000  0.00842000  1.0 -0.2796792868
S  S12  1  0.54468000  0.65368000  0.10197000  1.0 -0.2970563254
S  S13  1  0.07953000  0.38520000  0.69444000  1.0 -0.2796792868
S  S14  1  0.00420000  0.33864000  0.46738000  1.0 -0.2970563254
S  S15  1  0.92095000  0.45053000  0.50842000  1.0 -0.2796792868
S  S16  1  0.95532000  0.34632000  0.60197000  1.0 -0.2970563254
S  S17  1  0.30556000  0.57953000  0.11480000  1.0 -0.2796792868
S  S18  1  0.53262000  0.50420000  0.16136000  1.0 -0.2970563254
S  S19  1  0.49158000  0.42095000  0.04947000  1.0 -0.2796792868
S  S20  1  0.39803000  0.45532000  0.15368000  1.0 -0.2970563254
S  S21  1  0.80556000  0.92047000  0.88520000  1.0 -0.2748738223
S  S22  1  0.03262000  0.99580000  0.83864000  1.0 -0.2970563254
S  S23  1  0.99158000  0.07905000  0.95053000  1.0 -0.2796792868
S  S24  1  0.89803000  0.04468000  0.84632000  1.0 -0.2970563254
S  S25  1  0.19444000  0.42047000  0.61480000  1.0 -0.2796792868
S  S26  1  0.96738000  0.49580000  0.66136000  1.0 -0.2970563254
S  S27  1  0.00842000  0.57905000  0.54947000  1.0 -0.2796792868
S  S28  1  0.10197000  0.54468000  0.65368000  1.0 -0.2970563254
S  S29  1  0.69444000  0.07953000  0.38520000  1.0 -0.2748738223
S  S30  1  0.46738000  0.00420000  0.33864000  1.0 -0.2970563254
S  S31  1  0.50842000  0.92095000  0.45053000  1.0 -0.2796792868
S  S32  1  0.60197000  0.95532000  0.34632000  1.0 -0.2970563254
S  S33  1  0.11480000  0.30556000  0.57953000  1.0 -0.2796792868
S  S34  1  0.16136000  0.53262000  0.50420000  1.0 -0.2970563254
S  S35  1  0.04947000  0.49158000  0.42095000  1.0 -0.2796792868
S  S36  1  0.15368000  0.39803000  0.45532000  1.0 -0.2970563254
S  S37  1  0.88520000  0.80556000  0.92047000  1.0 -0.2748738223
S  S38  1  0.83864000  0.03262000  0.99580000  1.0 -0.2970563254
S  S39  1  0.95053000  0.99158000  0.07905000  1.0 -0.2796792868
S  S40  1  0.84632000  0.89803000  0.04468000  1.0 -0.2970563254
S  S41  1  0.61480000  0.19444000  0.42047000  1.0 -0.2796792868
S  S42  1  0.66136000  0.96738000  0.49580000  1.0 -0.2970563254
S  S43  1  0.54947000  0.00842000  0.57905000  1.0 -0.2796792868
S  S44  1  0.65368000  0.10197000  0.54468000  1.0 -0.2970563254
S  S45  1  0.38520000  0.69444000  0.07953000  1.0 -0.2796792868
S  S46  1  0.33864000  0.46738000  0.00420000  1.0 -0.2970563254
S  S47  1  0.45053000  0.50842000  0.92095000  1.0 -0.2796792868
S  S48  1  0.34632000  0.60197000  0.95532000  1.0 -0.2970563254
N  N1  1  0.63000000  0.23040000  0.29630000  1.0 -0.4320862138
N  N2  1  0.41040000  0.23550000  0.48960000  1.0 -0.4529671886
N  N3  1  0.38100000  0.14170000  0.56780000  1.0 -0.4629301447
N  N4  1  0.34120000  0.14150000  0.44810000  1.0 -0.4717093973
N  N5  1  0.87000000  0.76960000  0.79630000  1.0 -0.4320862138
N  N6  1  0.08960000  0.76450000  0.98960000  1.0 -0.4529671886
N  N7  1  0.11900000  0.85830000  0.06780000  1.0 -0.4629301447
N  N8  1  0.15880000  0.85850000  0.94810000  1.0 -0.4717093973
N  N9  1  0.37000000  0.73040000  0.20370000  1.0 -0.4320862138
N  N10  1  0.58960000  0.73550000  0.01040000  1.0 -0.4529671886
N  N11  1  0.61900000  0.64170000  0.93220000  1.0 -0.4629301447
N  N12  1  0.65880000  0.64150000  0.05190000  1.0 -0.4717093973
N  N13  1  0.13000000  0.26960000  0.70370000  1.0 -0.4320862138
N  N14  1  0.91040000  0.26450000  0.51040000  1.0 -0.4529671886
N  N15  1  0.88100000  0.35830000  0.43220000  1.0 -0.4629301447
N  N16  1  0.84120000  0.35850000  0.55190000  1.0 -0.4717093973
N  N17  1  0.29630000  0.63000000  0.23040000  1.0 -0.4320862138
N  N18  1  0.48960000  0.41040000  0.23550000  1.0 -0.4529671886
N  N19  1  0.56780000  0.38100000  0.14170000  1.0 -0.4629301447
N  N20  1  0.44810000  0.34120000  0.14150000  1.0 -0.4717093973
N  N21  1  0.79630000  0.87000000  0.76960000  1.0 -0.4320862138
N  N22  1  0.98960000  0.08960000  0.76450000  1.0 -0.4529671886
N  N23  1  0.06780000  0.11900000  0.85830000  1.0 -0.4629301447
N  N24  1  0.94810000  0.15880000  0.85850000  1.0 -0.4717093973
N  N25  1  0.20370000  0.37000000  0.73040000  1.0 -0.4320862138
N  N26  1  0.01040000  0.58960000  0.73550000  1.0 -0.4529671886
N  N27  1  0.93220000  0.61900000  0.64170000  1.0 -0.4629301447
N  N28  1  0.05190000  0.65880000  0.64150000  1.0 -0.4717093973
N  N29  1  0.70370000  0.13000000  0.26960000  1.0 -0.4320862138
N  N30  1  0.51040000  0.91040000  0.26450000  1.0 -0.4529671886
N  N31  1  0.43220000  0.88100000  0.35830000  1.0 -0.4629301447
N  N32  1  0.55190000  0.84120000  0.35850000  1.0 -0.4717093973
N  N33  1  0.23040000  0.29630000  0.63000000  1.0 -0.4320862138
N  N34  1  0.23550000  0.48960000  0.41040000  1.0 -0.4529671886
N  N35  1  0.14170000  0.56780000  0.38100000  1.0 -0.4629301447
N  N36  1  0.14150000  0.44810000  0.34120000  1.0 -0.4717093973
N  N37  1  0.76960000  0.79630000  0.87000000  1.0 -0.4320862138
N  N38  1  0.76450000  0.98960000  0.08960000  1.0 -0.4529671886
N  N39  1  0.85830000  0.06780000  0.11900000  1.0 -0.4629301447
N  N40  1  0.85850000  0.94810000  0.15880000  1.0 -0.4717093973
N  N41  1  0.73040000  0.20370000  0.37000000  1.0 -0.4320862138
N  N42  1  0.73550000  0.01040000  0.58960000  1.0 -0.4529671886
N  N43  1  0.64170000  0.93220000  0.61900000  1.0 -0.4629301447
N  N44  1  0.64150000  0.05190000  0.65880000  1.0 -0.4717093973
N  N45  1  0.26960000  0.70370000  0.13000000  1.0 -0.4320862138
N  N46  1  0.26450000  0.51040000  0.91040000  1.0 -0.4529671886
N  N47  1  0.35830000  0.43220000  0.88100000  1.0 -0.4629301447
N  N48  1  0.35850000  0.55190000  0.84120000  1.0 -0.4717093973
O  O1  1  0.57140000  0.31590000  0.24670000  1.0 -0.4238525846
O  O2  1  0.52600000  0.26700000  0.19610000  1.0 -0.4320862138
O  O3  1  0.43080000  0.34770000  0.47590000  1.0 -0.7309877766
O  O4  1  0.48270000  0.35230000  0.55330000  1.0 -0.6147772216
O  O5  1  0.33880000  0.12170000  0.67010000  1.0 -0.4949637347
O  O6  1  0.31190000  0.03730000  0.65190000  1.0 -0.4428732687
O  O7  1  0.26180000  0.09940000  0.37520000  1.0 -0.4717093973
O  O8  1  0.27890000  0.16320000  0.31140000  1.0 -0.5982574814
O  O9  1  0.52670000  0.43520000  0.46740000  1.0 -1.182138353
O  O10  1  0.47280000  0.48460000  0.63990000  1.0 -0.7445800447
O  O11  1  0.39820000  0.54930000  0.60620000  1.0 -0.7932275527
O  O12  1  0.20740000  0.14810000  0.23600000  1.0 -0.6716091477
O  O13  1  0.24860000  0.19470000  0.70410000  1.0 -0.4963978683
O  O14  1  0.92860000  0.68410000  0.74670000  1.0 -0.4238525846
O  O15  1  0.97400000  0.73300000  0.69610000  1.0 -0.4320862138
O  O16  1  0.06920000  0.65230000  0.97590000  1.0 -0.7309877766
O  O17  1  0.01730000  0.64770000  0.05330000  1.0 -0.6147772216
O  O18  1  0.16120000  0.87830000  0.17010000  1.0 -0.4949637347
O  O19  1  0.18810000  0.96270000  0.15190000  1.0 -0.4428732687
O  O20  1  0.23820000  0.90060000  0.87520000  1.0 -0.4717093973
O  O21  1  0.22110000  0.83680000  0.81140000  1.0 -0.5982574814
O  O22  1  0.97330000  0.56480000  0.96740000  1.0 -1.182138353
O  O23  1  0.02720000  0.51540000  0.13990000  1.0 -0.7445800447
O  O24  1  0.10180000  0.45070000  0.10620000  1.0 -0.7932275527
O  O25  1  0.29260000  0.85190000  0.73600000  1.0 -0.6716091477
O  O26  1  0.25140000  0.80530000  0.20410000  1.0 -0.4963978683
O  O27  1  0.42860000  0.81590000  0.25330000  1.0 -0.4238525846
O  O28  1  0.47400000  0.76700000  0.30390000  1.0 -0.4320862138
O  O29  1  0.56920000  0.84770000  0.02410000  1.0 -0.7309877766
O  O30  1  0.51730000  0.85230000  0.94670000  1.0 -0.6147772216
O  O31  1  0.66120000  0.62170000  0.82990000  1.0 -0.4949637347
O  O32  1  0.68810000  0.53730000  0.84810000  1.0 -0.4428732687
O  O33  1  0.73820000  0.59940000  0.12480000  1.0 -0.4717093973
O  O34  1  0.72110000  0.66320000  0.18860000  1.0 -0.5982574814
O  O35  1  0.47330000  0.93520000  0.03260000  1.0 -1.182138353
O  O36  1  0.52720000  0.98460000  0.86010000  1.0 -0.7445800447
O  O37  1  0.60180000  0.04930000  0.89380000  1.0 -0.7932275527
O  O38  1  0.79260000  0.64810000  0.26400000  1.0 -0.6716091477
O  O39  1  0.75140000  0.69470000  0.79590000  1.0 -0.4963978683
O  O40  1  0.07140000  0.18410000  0.75330000  1.0 -0.4238525846
O  O41  1  0.02600000  0.23300000  0.80390000  1.0 -0.4320862138
O  O42  1  0.93080000  0.15230000  0.52410000  1.0 -0.7309877766
O  O43  1  0.98270000  0.14770000  0.44670000  1.0 -0.6147772216
O  O44  1  0.83880000  0.37830000  0.32990000  1.0 -0.4949637347
O  O45  1  0.81190000  0.46270000  0.34810000  1.0 -0.4428732687
O  O46  1  0.76180000  0.40060000  0.62480000  1.0 -0.4717093973
O  O47  1  0.77890000  0.33680000  0.68860000  1.0 -0.5982574814
O  O48  1  0.02670000  0.06480000  0.53260000  1.0 -1.182138353
O  O49  1  0.97280000  0.01540000  0.36010000  1.0 -0.7445800447
O  O50  1  0.89820000  0.95070000  0.39380000  1.0 -0.7932275527
O  O51  1  0.70740000  0.35190000  0.76400000  1.0 -0.6716091477
O  O52  1  0.74860000  0.30530000  0.29590000  1.0 -0.4963978683
O  O53  1  0.24670000  0.57140000  0.31590000  1.0 -0.4238525846
O  O54  1  0.19610000  0.52600000  0.26700000  1.0 -0.4320862138
O  O55  1  0.47590000  0.43080000  0.34770000  1.0 -0.7309877766
O  O56  1  0.55330000  0.48270000  0.35230000  1.0 -0.6147772216
O  O57  1  0.67010000  0.33880000  0.12170000  1.0 -0.4949637347
O  O58  1  0.65190000  0.31190000  0.03730000  1.0 -0.4428732687
O  O59  1  0.37520000  0.26180000  0.09940000  1.0 -0.4717093973
O  O60  1  0.31140000  0.27890000  0.16320000  1.0 -0.5982574814
O  O61  1  0.46740000  0.52670000  0.43520000  1.0 -1.182138353
O  O62  1  0.63990000  0.47280000  0.48460000  1.0 -0.7445800447
O  O63  1  0.60620000  0.39820000  0.54930000  1.0 -0.7932275527
O  O64  1  0.23600000  0.20740000  0.14810000  1.0 -0.6716091477
O  O65  1  0.70410000  0.24860000  0.19470000  1.0 -0.4963978683
O  O66  1  0.74670000  0.92860000  0.68410000  1.0 -0.4238525846
O  O67  1  0.69610000  0.97400000  0.73300000  1.0 -0.4320862138
O  O68  1  0.97590000  0.06920000  0.65230000  1.0 -0.7309877766
O  O69  1  0.05330000  0.01730000  0.64770000  1.0 -0.6147772216
O  O70  1  0.17010000  0.16120000  0.87830000  1.0 -0.4949637347
O  O71  1  0.15190000  0.18810000  0.96270000  1.0 -0.4428732687
O  O72  1  0.87520000  0.23820000  0.90060000  1.0 -0.4717093973
O  O73  1  0.81140000  0.22110000  0.83680000  1.0 -0.5982574814
O  O74  1  0.96740000  0.97330000  0.56480000  1.0 -1.182138353
O  O75  1  0.13990000  0.02720000  0.51540000  1.0 -0.7445800447
O  O76  1  0.10620000  0.10180000  0.45070000  1.0 -0.7932275527
O  O77  1  0.73600000  0.29260000  0.85190000  1.0 -0.6716091477
O  O78  1  0.20410000  0.25140000  0.80530000  1.0 -0.4963978683
O  O79  1  0.25330000  0.42860000  0.81590000  1.0 -0.4238525846
O  O80  1  0.30390000  0.47400000  0.76700000  1.0 -0.4320862138
O  O81  1  0.02410000  0.56920000  0.84770000  1.0 -0.7309877766
O  O82  1  0.94670000  0.51730000  0.85230000  1.0 -0.6147772216
O  O83  1  0.82990000  0.66120000  0.62170000  1.0 -0.4963978683
O  O84  1  0.84810000  0.68810000  0.53730000  1.0 -0.4428732687
O  O85  1  0.12480000  0.73820000  0.59940000  1.0 -0.4717093973
O  O86  1  0.18860000  0.72110000  0.66320000  1.0 -0.5982574814
O  O87  1  0.03260000  0.47330000  0.93520000  1.0 -1.182138353
O  O88  1  0.86010000  0.52720000  0.98460000  1.0 -0.7445800447
O  O89  1  0.89380000  0.60180000  0.04930000  1.0 -0.7932275527
O  O90  1  0.26400000  0.79260000  0.64810000  1.0 -0.6716091477
O  O91  1  0.79590000  0.75140000  0.69470000  1.0 -0.4963978683
O  O92  1  0.75330000  0.07140000  0.18410000  1.0 -0.4238525846
O  O93  1  0.80390000  0.02600000  0.23300000  1.0 -0.4320862138
O  O94  1  0.52410000  0.93080000  0.15230000  1.0 -0.7309877766
O  O95  1  0.44670000  0.98270000  0.14770000  1.0 -0.6147772216
O  O96  1  0.32990000  0.83880000  0.37830000  1.0 -0.4949637347
O  O97  1  0.34810000  0.81190000  0.46270000  1.0 -0.4428732687
O  O98  1  0.62480000  0.76180000  0.40060000  1.0 -0.4717093973
O  O99  1  0.68860000  0.77890000  0.33680000  1.0 -0.5982574814
O  O100  1  0.53260000  0.02670000  0.06480000  1.0 -1.182138353
O  O101  1  0.36010000  0.97280000  0.01540000  1.0 -0.7445800447
O  O102  1  0.39380000  0.89820000  0.95070000  1.0 -0.7932275527
O  O103  1  0.76400000  0.70740000  0.35190000  1.0 -0.6716091477
O  O104  1  0.29590000  0.74860000  0.30530000  1.0 -0.4963978683
O  O105  1  0.31590000  0.24670000  0.57140000  1.0 -0.4238525846
O  O106  1  0.26700000  0.19610000  0.52600000  1.0 -0.4320862138
O  O107  1  0.34770000  0.47590000  0.43080000  1.0 -0.7309877766
O  O108  1  0.35230000  0.55330000  0.48270000  1.0 -0.6147772216
O  O109  1  0.12170000  0.67010000  0.33880000  1.0 -0.4949637347
O  O110  1  0.03730000  0.65190000  0.31190000  1.0 -0.4428732687
O  O111  1  0.09940000  0.37520000  0.26180000  1.0 -0.4717093973
O  O112  1  0.16320000  0.31140000  0.27890000  1.0 -0.5982574814
O  O113  1  0.43520000  0.46740000  0.52670000  1.0 -1.182138353
O  O114  1  0.48460000  0.63990000  0.47280000  1.0 -0.7445800447
O  O115  1  0.54930000  0.60620000  0.39820000  1.0 -0.7932275527
O  O116  1  0.14810000  0.23600000  0.20740000  1.0 -0.6716091477
O  O117  1  0.19470000  0.70410000  0.24860000  1.0 -0.4963978683
O  O118  1  0.68410000  0.74670000  0.92860000  1.0 -0.4238525846
O  O119  1  0.73300000  0.69610000  0.97400000  1.0 -0.4320862138
O  O120  1  0.65230000  0.97590000  0.06920000  1.0 -0.7309877766
O  O121  1  0.64770000  0.05330000  0.01730000  1.0 -0.6147772216
O  O122  1  0.87830000  0.17010000  0.16120000  1.0 -0.4949637347
O  O123  1  0.96270000  0.15190000  0.18810000  1.0 -0.4428732687
O  O124  1  0.90060000  0.87520000  0.23820000  1.0 -0.4717093973
O  O125  1  0.83680000  0.81140000  0.22110000  1.0 -0.5982574814
O  O126  1  0.56480000  0.96740000  0.97330000  1.0 -1.182138353
O  O127  1  0.51540000  0.13990000  0.02720000  1.0 -0.7445800447
O  O128  1  0.45070000  0.10620000  0.10180000  1.0 -0.7932275527
O  O129  1  0.85190000  0.73600000  0.29260000  1.0 -0.6716091477
O  O130  1  0.80530000  0.20410000  0.25140000  1.0 -0.4963978683
O  O131  1  0.81590000  0.25330000  0.42860000  1.0 -0.4238525846
O  O132  1  0.76700000  0.30390000  0.47400000  1.0 -0.4320862138
O  O133  1  0.84770000  0.02410000  0.56920000  1.0 -0.7309877766
O  O134  1  0.85230000  0.94670000  0.51730000  1.0 -0.6147772216
O  O135  1  0.62170000  0.82990000  0.66120000  1.0 -0.4949637347
O  O136  1  0.53730000  0.84810000  0.68810000  1.0 -0.4428732687
O  O137  1  0.59940000  0.12480000  0.73820000  1.0 -0.4717093973
O  O138  1  0.66320000  0.18860000  0.72110000  1.0 -0.5982574814
O  O139  1  0.93520000  0.03260000  0.47330000  1.0 -1.182138353
O  O140  1  0.98460000  0.86010000  0.52720000  1.0 -0.7445800447
O  O141  1  0.04930000  0.89380000  0.60180000  1.0 -0.7932275527
O  O142  1  0.64810000  0.26400000  0.79260000  1.0 -0.6716091477
O  O143  1  0.69470000  0.79590000  0.75140000  1.0 -0.4963978683
O  O144  1  0.18410000  0.75330000  0.07140000  1.0 -0.4238525846
O  O145  1  0.23300000  0.80390000  0.02600000  1.0 -0.4320862138
O  O146  1  0.15230000  0.52410000  0.93080000  1.0 -0.7309877766
O  O147  1  0.14770000  0.44670000  0.98270000  1.0 -0.6147772216
O  O148  1  0.37830000  0.32990000  0.83880000  1.0 -0.4949637347
O  O149  1  0.46270000  0.34810000  0.81190000  1.0 -0.4428732687
O  O150  1  0.40060000  0.62480000  0.76180000  1.0 -0.4717093973
O  O151  1  0.33680000  0.68860000  0.77890000  1.0 -0.5982574814
O  O152  1  0.06480000  0.53260000  0.02670000  1.0 -1.182138353
O  O153  1  0.01540000  0.36010000  0.97280000  1.0 -0.7445800447
O  O154  1  0.95070000  0.39380000  0.89820000  1.0 -0.7932275527
O  O155  1  0.35190000  0.76400000  0.70740000  1.0 -0.6716091477
O  O156  1  0.30530000  0.29590000  0.74860000  1.0 -0.4963978683
O  O157  1  0.55903000  0.05903000  0.44097000  1.0 -0.8152566645
O  O158  1  0.94097000  0.94097000  0.94097000  1.0 -0.8152566645
O  O159  1  0.44097000  0.55903000  0.05903000  1.0 -0.8152566645
O  O160  1  0.05903000  0.44097000  0.55903000  1.0 -0.8141964965
O  O161  1  0.53079000  0.53079000  0.53079000  1.0 -1.2585878962
O  O162  1  0.96921000  0.46921000  0.03079000  1.0 -1.2585878962
O  O163  1  0.46921000  0.03079000  0.96921000  1.0 -1.2585878962
O  O164  1  0.03079000  0.96921000  0.46921000  1.0 -1.2585878962
O  O165  1  0.29230000  0.20770000  0.79230000  1.0 -0.3335911327
O  O166  1  0.20770000  0.79230000  0.29230000  1.0 -0.3335911327
O  O167  1  0.70770000  0.70770000  0.70770000  1.0 -0.3335911327
O  O168  1  0.79230000  0.29230000  0.20770000  1.0 -0.3335911327
