# DDEC6 charges by PACMAN v1.1 (https://github.com/mtap-research/PACMAN-charge/)
data_DACPUW_ASR_pacman
_symmetry_space_group_name_H-M   'P 1'
_cell_length_a   23.63700000
_cell_length_b   23.63700000
_cell_length_c   23.63700000
_cell_angle_alpha   90.00000000
_cell_angle_beta   90.00000000
_cell_angle_gamma   90.00000000
_symmetry_Int_Tables_number   1
_chemical_formula_structural   Tm13Zn4H73Rh4C42S12(NO4)12
_chemical_formula_sum   'Tm52 Zn16 H292 Rh16 C168 S48 N48 O192'
_cell_volume   13206.17553585
_cell_formula_units_Z   4
loop_
 _symmetry_equiv_pos_site_id
 _symmetry_equiv_pos_as_xyz
  1  'x, y, z'
loop_
 _atom_site_type_symbol
 _atom_site_label
 _atom_site_symmetry_multiplicity
 _atom_site_fract_x
 _atom_site_fract_y
 _atom_site_fract_z
 _atom_site_occupancy
 _atom_site_charge
Tm  Tm1  1  0.05876000  0.43078000  0.02157000  1.0 1.2408519085
Tm  Tm2  1  0.28460000  0.72470000  0.69880000  1.0 0.880443662
Tm  Tm3  1  0.32680000  0.24320000  0.79950000  1.0 0.5079306807
Tm  Tm4  1  0.05956000  0.44070000  0.03701000  1.0 1.0864043232
Tm  Tm5  1  0.44124000  0.56922000  0.52157000  1.0 1.2408519085
Tm  Tm6  1  0.21540000  0.27530000  0.19880000  1.0 0.880443662
Tm  Tm7  1  0.17320000  0.75680000  0.29950000  1.0 0.5079306807
Tm  Tm8  1  0.44044000  0.55930000  0.53701000  1.0 1.0864043232
Tm  Tm9  1  0.94124000  0.93078000  0.47843000  1.0 1.2408519085
Tm  Tm10  1  0.71540000  0.22470000  0.80120000  1.0 0.880443662
Tm  Tm11  1  0.67320000  0.74320000  0.70050000  1.0 0.5079306807
Tm  Tm12  1  0.94044000  0.94070000  0.46299000  1.0 1.0841736789
Tm  Tm13  1  0.55876000  0.06922000  0.97843000  1.0 1.2408519085
Tm  Tm14  1  0.78460000  0.77530000  0.30120000  1.0 0.880443662
Tm  Tm15  1  0.82680000  0.25680000  0.20050000  1.0 0.5079306807
Tm  Tm16  1  0.55956000  0.05930000  0.96299000  1.0 1.0841736789
Tm  Tm17  1  0.02157000  0.05876000  0.43078000  1.0 1.2408519085
Tm  Tm18  1  0.69880000  0.28460000  0.72470000  1.0 0.880443662
Tm  Tm19  1  0.79950000  0.32680000  0.24320000  1.0 0.5079306807
Tm  Tm20  1  0.03701000  0.05956000  0.44070000  1.0 1.0864043232
Tm  Tm21  1  0.52157000  0.44124000  0.56922000  1.0 1.2408519085
Tm  Tm22  1  0.19880000  0.21540000  0.27530000  1.0 0.880443662
Tm  Tm23  1  0.29950000  0.17320000  0.75680000  1.0 0.5079306807
Tm  Tm24  1  0.53701000  0.44044000  0.55930000  1.0 1.0864043232
Tm  Tm25  1  0.47843000  0.94124000  0.93078000  1.0 1.2408519085
Tm  Tm26  1  0.80120000  0.71540000  0.22470000  1.0 0.880443662
Tm  Tm27  1  0.70050000  0.67320000  0.74320000  1.0 0.5079306807
Tm  Tm28  1  0.46299000  0.94044000  0.94070000  1.0 1.0841736789
Tm  Tm29  1  0.97843000  0.55876000  0.06922000  1.0 1.2408519085
Tm  Tm30  1  0.30120000  0.78460000  0.77530000  1.0 0.880443662
Tm  Tm31  1  0.20050000  0.82680000  0.25680000  1.0 0.5079306807
Tm  Tm32  1  0.96299000  0.55956000  0.05930000  1.0 1.0841736789
Tm  Tm33  1  0.43078000  0.02157000  0.05876000  1.0 1.2408519085
Tm  Tm34  1  0.72470000  0.69880000  0.28460000  1.0 0.880443662
Tm  Tm35  1  0.24320000  0.79950000  0.32680000  1.0 0.5079306807
Tm  Tm36  1  0.44070000  0.03701000  0.05956000  1.0 1.0864043232
Tm  Tm37  1  0.56922000  0.52157000  0.44124000  1.0 1.2408519085
Tm  Tm38  1  0.27530000  0.19880000  0.21540000  1.0 0.880443662
Tm  Tm39  1  0.75680000  0.29950000  0.17320000  1.0 0.5079306807
Tm  Tm40  1  0.55930000  0.53701000  0.44044000  1.0 1.0841736789
Tm  Tm41  1  0.93078000  0.47843000  0.94124000  1.0 1.2408519085
Tm  Tm42  1  0.22470000  0.80120000  0.71540000  1.0 0.880443662
Tm  Tm43  1  0.74320000  0.70050000  0.67320000  1.0 0.5079306807
Tm  Tm44  1  0.94070000  0.46299000  0.94044000  1.0 1.0841736789
Tm  Tm45  1  0.06922000  0.97843000  0.55876000  1.0 1.2408519085
Tm  Tm46  1  0.77530000  0.30120000  0.78460000  1.0 0.880443662
Tm  Tm47  1  0.25680000  0.20050000  0.82680000  1.0 0.5079306807
Tm  Tm48  1  0.05930000  0.96299000  0.55956000  1.0 1.0864043232
Tm  Tm49  1  0.06328000  0.56328000  0.93672000  1.0 2.1109683509
Tm  Tm50  1  0.43672000  0.43672000  0.43672000  1.0 2.1109683509
Tm  Tm51  1  0.93672000  0.06328000  0.56328000  1.0 2.1109683509
Tm  Tm52  1  0.56328000  0.93672000  0.06328000  1.0 2.1109683509
Zn  Zn1  1  0.41897000  0.62582000  0.01655000  1.0 0.5495485336
Zn  Zn2  1  0.08103000  0.37418000  0.51655000  1.0 0.5495485336
Zn  Zn3  1  0.58103000  0.12582000  0.48345000  1.0 0.5495485336
Zn  Zn4  1  0.91897000  0.87418000  0.98345000  1.0 0.5495485336
Zn  Zn5  1  0.01655000  0.41897000  0.62582000  1.0 0.5495485336
Zn  Zn6  1  0.51655000  0.08103000  0.37418000  1.0 0.5495485336
Zn  Zn7  1  0.48345000  0.58103000  0.12582000  1.0 0.5495485336
Zn  Zn8  1  0.98345000  0.91897000  0.87418000  1.0 0.5495485336
Zn  Zn9  1  0.62582000  0.01655000  0.41897000  1.0 0.5495485336
Zn  Zn10  1  0.37418000  0.51655000  0.08103000  1.0 0.5495485336
Zn  Zn11  1  0.12582000  0.48345000  0.58103000  1.0 0.5495485336
Zn  Zn12  1  0.87418000  0.98345000  0.91897000  1.0 0.5495485336
Zn  Zn13  1  0.48954000  0.51046000  0.01046000  1.0 0.54056026
Zn  Zn14  1  0.01046000  0.48954000  0.51046000  1.0 0.54056026
Zn  Zn15  1  0.51046000  0.01046000  0.48954000  1.0 0.54056026
Zn  Zn16  1  0.98954000  0.98954000  0.98954000  1.0 0.54056026
H  H1  1  0.24601000  0.67901000  0.11325000  1.0 0.2804312057
H  H2  1  0.25350000  0.72093000  0.15855000  1.0 0.2985622879
H  H3  1  0.24906000  0.54461000  0.91780000  1.0 0.2804312057
H  H4  1  0.25281000  0.49877000  0.87583000  1.0 0.2903259988
H  H5  1  0.35258000  0.40254000  0.90671000  1.0 0.2804312057
H  H6  1  0.33189000  0.42621000  0.85290000  1.0 0.2804312057
H  H7  1  0.39392000  0.55197000  0.82826000  1.0 0.2671355551
H  H8  1  0.33626000  0.53352000  0.81458000  1.0 0.2804312057
H  H9  1  0.33666000  0.75075000  0.01535000  1.0 0.137873725
H  H10  1  0.30611000  0.69063000  0.02322000  1.0 0.1214694246
H  H11  1  0.30572000  0.77926000  0.10548000  1.0 0.1214694246
H  H12  1  0.24677000  0.44903000  0.03743000  1.0 0.137873725
H  H13  1  0.25578000  0.51512000  0.02470000  1.0 0.1214694246
H  H14  1  0.24314000  0.42938000  0.93984000  1.0 0.1214694246
H  H15  1  0.49800000  0.42634000  0.88302000  1.0 0.137873725
H  H16  1  0.45443000  0.40783000  0.93192000  1.0 0.1214694246
H  H17  1  0.42026000  0.44831000  0.82248000  1.0 0.1025846212
H  H18  1  0.34832000  0.67993000  0.89472000  1.0 0.137873725
H  H19  1  0.40495000  0.64308000  0.88847000  1.0 0.1274356689
H  H20  1  0.29644000  0.61137000  0.84513000  1.0 0.1025846212
H  H21  1  0.04610000  0.44967000  0.90448000  1.0 0.4058197435
H  H22  1  0.14438000  0.47871000  0.18498000  1.0 0.1708189096
H  H23  1  0.12546000  0.54313000  0.17623000  1.0 0.1637167033
H  H24  1  0.09822000  0.50631000  0.22610000  1.0 0.1757991906
H  H25  1  0.25399000  0.32099000  0.61325000  1.0 0.2804312057
H  H26  1  0.24650000  0.27907000  0.65855000  1.0 0.2985622879
H  H27  1  0.25094000  0.45539000  0.41780000  1.0 0.2804312057
H  H28  1  0.24719000  0.50123000  0.37583000  1.0 0.2903259988
H  H29  1  0.14742000  0.59746000  0.40671000  1.0 0.2804312057
H  H30  1  0.16811000  0.57379000  0.35290000  1.0 0.2804312057
H  H31  1  0.10608000  0.44803000  0.32826000  1.0 0.2671355551
H  H32  1  0.16374000  0.46648000  0.31458000  1.0 0.2804312057
H  H33  1  0.16334000  0.24925000  0.51535000  1.0 0.137873725
H  H34  1  0.19389000  0.30937000  0.52322000  1.0 0.1214694246
H  H35  1  0.19428000  0.22074000  0.60548000  1.0 0.1214694246
H  H36  1  0.25323000  0.55097000  0.53743000  1.0 0.137873725
H  H37  1  0.24422000  0.48488000  0.52470000  1.0 0.1214694246
H  H38  1  0.25686000  0.57062000  0.43984000  1.0 0.1214694246
H  H39  1  0.00200000  0.57366000  0.38302000  1.0 0.137873725
H  H40  1  0.04557000  0.59217000  0.43192000  1.0 0.1214694246
H  H41  1  0.07974000  0.55169000  0.32248000  1.0 0.1025846212
H  H42  1  0.15168000  0.32007000  0.39472000  1.0 0.137873725
H  H43  1  0.09505000  0.35692000  0.38847000  1.0 0.1274356689
H  H44  1  0.20356000  0.38863000  0.34513000  1.0 0.1025846212
H  H45  1  0.45390000  0.55033000  0.40448000  1.0 0.4058197435
H  H46  1  0.35562000  0.52129000  0.68498000  1.0 0.1708189096
H  H47  1  0.37454000  0.45687000  0.67623000  1.0 0.1637167033
H  H48  1  0.40178000  0.49369000  0.72610000  1.0 0.1757991906
H  H49  1  0.75399000  0.17901000  0.38675000  1.0 0.2804312057
H  H50  1  0.74650000  0.22093000  0.34145000  1.0 0.2985622879
H  H51  1  0.75094000  0.04461000  0.58220000  1.0 0.2804312057
H  H52  1  0.74719000  0.99877000  0.62417000  1.0 0.2903259988
H  H53  1  0.64742000  0.90254000  0.59329000  1.0 0.2804312057
H  H54  1  0.66811000  0.92621000  0.64710000  1.0 0.2804312057
H  H55  1  0.60608000  0.05197000  0.67174000  1.0 0.2671355551
H  H56  1  0.66374000  0.03352000  0.68542000  1.0 0.2804312057
H  H57  1  0.66334000  0.25075000  0.48465000  1.0 0.137873725
H  H58  1  0.69389000  0.19063000  0.47678000  1.0 0.1214694246
H  H59  1  0.69428000  0.27926000  0.39452000  1.0 0.1214694246
H  H60  1  0.75323000  0.94903000  0.46257000  1.0 0.137873725
H  H61  1  0.74422000  0.01512000  0.47530000  1.0 0.1214694246
H  H62  1  0.75686000  0.92938000  0.56016000  1.0 0.1214694246
H  H63  1  0.50200000  0.92634000  0.61698000  1.0 0.137873725
H  H64  1  0.54557000  0.90783000  0.56808000  1.0 0.1214694246
H  H65  1  0.57974000  0.94831000  0.67752000  1.0 0.1025846212
H  H66  1  0.65168000  0.17993000  0.60528000  1.0 0.137873725
H  H67  1  0.59505000  0.14308000  0.61153000  1.0 0.1274356689
H  H68  1  0.70356000  0.11137000  0.65487000  1.0 0.1025846212
H  H69  1  0.95390000  0.94967000  0.59552000  1.0 0.4058197435
H  H70  1  0.85562000  0.97871000  0.31502000  1.0 0.1708189096
H  H71  1  0.87454000  0.04313000  0.32377000  1.0 0.1637167033
H  H72  1  0.90178000  0.00631000  0.27390000  1.0 0.1757991906
H  H73  1  0.74601000  0.82099000  0.88675000  1.0 0.2804312057
H  H74  1  0.75350000  0.77907000  0.84145000  1.0 0.2985622879
H  H75  1  0.74906000  0.95539000  0.08220000  1.0 0.2804312057
H  H76  1  0.75281000  0.00123000  0.12417000  1.0 0.2903259988
H  H77  1  0.85258000  0.09746000  0.09329000  1.0 0.2804312057
H  H78  1  0.83189000  0.07379000  0.14710000  1.0 0.2804312057
H  H79  1  0.89392000  0.94803000  0.17174000  1.0 0.2671355551
H  H80  1  0.83626000  0.96648000  0.18542000  1.0 0.2804312057
H  H81  1  0.83666000  0.74925000  0.98465000  1.0 0.137873725
H  H82  1  0.80611000  0.80937000  0.97678000  1.0 0.1214694246
H  H83  1  0.80572000  0.72074000  0.89452000  1.0 0.1214694246
H  H84  1  0.74677000  0.05097000  0.96257000  1.0 0.137873725
H  H85  1  0.75578000  0.98488000  0.97530000  1.0 0.1214694246
H  H86  1  0.74314000  0.07062000  0.06016000  1.0 0.1214694246
H  H87  1  0.99800000  0.07366000  0.11698000  1.0 0.137873725
H  H88  1  0.95443000  0.09217000  0.06808000  1.0 0.1214694246
H  H89  1  0.92026000  0.05169000  0.17752000  1.0 0.1025846212
H  H90  1  0.84832000  0.82007000  0.10528000  1.0 0.137873725
H  H91  1  0.90495000  0.85692000  0.11153000  1.0 0.1274356689
H  H92  1  0.79644000  0.88863000  0.15487000  1.0 0.1025846212
H  H93  1  0.54610000  0.05033000  0.09552000  1.0 0.4058197435
H  H94  1  0.64438000  0.02129000  0.81502000  1.0 0.1708189096
H  H95  1  0.62546000  0.95687000  0.82377000  1.0 0.1637167033
H  H96  1  0.59822000  0.99369000  0.77390000  1.0 0.1757991906
H  H97  1  0.11325000  0.24601000  0.67901000  1.0 0.2804312057
H  H98  1  0.15855000  0.25350000  0.72093000  1.0 0.2985622879
H  H99  1  0.91780000  0.24906000  0.54461000  1.0 0.2804312057
H  H100  1  0.87583000  0.25281000  0.49877000  1.0 0.2903259988
H  H101  1  0.90671000  0.35258000  0.40254000  1.0 0.2804312057
H  H102  1  0.85290000  0.33189000  0.42621000  1.0 0.2804312057
H  H103  1  0.82826000  0.39392000  0.55197000  1.0 0.2671355551
H  H104  1  0.81458000  0.33626000  0.53352000  1.0 0.2804312057
H  H105  1  0.01535000  0.33666000  0.75075000  1.0 0.137873725
H  H106  1  0.02322000  0.30611000  0.69063000  1.0 0.1214694246
H  H107  1  0.10548000  0.30572000  0.77926000  1.0 0.1214694246
H  H108  1  0.03743000  0.24677000  0.44903000  1.0 0.137873725
H  H109  1  0.02470000  0.25578000  0.51512000  1.0 0.1214694246
H  H110  1  0.93984000  0.24314000  0.42938000  1.0 0.1214694246
H  H111  1  0.88302000  0.49800000  0.42634000  1.0 0.137873725
H  H112  1  0.93192000  0.45443000  0.40783000  1.0 0.1214694246
H  H113  1  0.82248000  0.42026000  0.44831000  1.0 0.1025846212
H  H114  1  0.89472000  0.34832000  0.67993000  1.0 0.137873725
H  H115  1  0.88847000  0.40495000  0.64308000  1.0 0.1274356689
H  H116  1  0.84513000  0.29644000  0.61137000  1.0 0.1025846212
H  H117  1  0.90448000  0.04610000  0.44967000  1.0 0.4058197435
H  H118  1  0.18498000  0.14438000  0.47871000  1.0 0.1708189096
H  H119  1  0.17623000  0.12546000  0.54313000  1.0 0.1637167033
H  H120  1  0.22610000  0.09822000  0.50631000  1.0 0.1757991906
H  H121  1  0.61325000  0.25399000  0.32099000  1.0 0.2804312057
H  H122  1  0.65855000  0.24650000  0.27907000  1.0 0.2985622879
H  H123  1  0.41780000  0.25094000  0.45539000  1.0 0.2804312057
H  H124  1  0.37583000  0.24719000  0.50123000  1.0 0.2903259988
H  H125  1  0.40671000  0.14742000  0.59746000  1.0 0.2804312057
H  H126  1  0.35290000  0.16811000  0.57379000  1.0 0.2804312057
H  H127  1  0.32826000  0.10608000  0.44803000  1.0 0.2671355551
H  H128  1  0.31458000  0.16374000  0.46648000  1.0 0.2804312057
H  H129  1  0.51535000  0.16334000  0.24925000  1.0 0.137873725
H  H130  1  0.52322000  0.19389000  0.30937000  1.0 0.1214694246
H  H131  1  0.60548000  0.19428000  0.22074000  1.0 0.1214694246
H  H132  1  0.53743000  0.25323000  0.55097000  1.0 0.137873725
H  H133  1  0.52470000  0.24422000  0.48488000  1.0 0.1214694246
H  H134  1  0.43984000  0.25686000  0.57062000  1.0 0.1214694246
H  H135  1  0.38302000  0.00200000  0.57366000  1.0 0.137873725
H  H136  1  0.43192000  0.04557000  0.59217000  1.0 0.1214694246
H  H137  1  0.32248000  0.07974000  0.55169000  1.0 0.1025846212
H  H138  1  0.39472000  0.15168000  0.32007000  1.0 0.137873725
H  H139  1  0.38847000  0.09505000  0.35692000  1.0 0.1274356689
H  H140  1  0.34513000  0.20356000  0.38863000  1.0 0.1025846212
H  H141  1  0.40448000  0.45390000  0.55033000  1.0 0.4058197435
H  H142  1  0.68498000  0.35562000  0.52129000  1.0 0.1708189096
H  H143  1  0.67623000  0.37454000  0.45687000  1.0 0.1637167033
H  H144  1  0.72610000  0.40178000  0.49369000  1.0 0.1757991906
H  H145  1  0.38675000  0.75399000  0.17901000  1.0 0.2804312057
H  H146  1  0.34145000  0.74650000  0.22093000  1.0 0.2985622879
H  H147  1  0.58220000  0.75094000  0.04461000  1.0 0.2804312057
H  H148  1  0.62417000  0.74719000  0.99877000  1.0 0.2903259988
H  H149  1  0.59329000  0.64742000  0.90254000  1.0 0.2804312057
H  H150  1  0.64710000  0.66811000  0.92621000  1.0 0.2804312057
H  H151  1  0.67174000  0.60608000  0.05197000  1.0 0.2671355551
H  H152  1  0.68542000  0.66374000  0.03352000  1.0 0.2804312057
H  H153  1  0.48465000  0.66334000  0.25075000  1.0 0.137873725
H  H154  1  0.47678000  0.69389000  0.19063000  1.0 0.1214694246
H  H155  1  0.39452000  0.69428000  0.27926000  1.0 0.1214694246
H  H156  1  0.46257000  0.75323000  0.94903000  1.0 0.137873725
H  H157  1  0.47530000  0.74422000  0.01512000  1.0 0.1214694246
H  H158  1  0.56016000  0.75686000  0.92938000  1.0 0.1214694246
H  H159  1  0.61698000  0.50200000  0.92634000  1.0 0.137873725
H  H160  1  0.56808000  0.54557000  0.90783000  1.0 0.1214694246
H  H161  1  0.67752000  0.57974000  0.94831000  1.0 0.1025846212
H  H162  1  0.60528000  0.65168000  0.17993000  1.0 0.137873725
H  H163  1  0.61153000  0.59505000  0.14308000  1.0 0.1274356689
H  H164  1  0.65487000  0.70356000  0.11137000  1.0 0.1025846212
H  H165  1  0.59552000  0.95390000  0.94967000  1.0 0.4058197435
H  H166  1  0.31502000  0.85562000  0.97871000  1.0 0.1708189096
H  H167  1  0.32377000  0.87454000  0.04313000  1.0 0.1637167033
H  H168  1  0.27390000  0.90178000  0.00631000  1.0 0.1757991906
H  H169  1  0.88675000  0.74601000  0.82099000  1.0 0.2804312057
H  H170  1  0.84145000  0.75350000  0.77907000  1.0 0.2985622879
H  H171  1  0.08220000  0.74906000  0.95539000  1.0 0.2804312057
H  H172  1  0.12417000  0.75281000  0.00123000  1.0 0.2903259988
H  H173  1  0.09329000  0.85258000  0.09746000  1.0 0.2804312057
H  H174  1  0.14710000  0.83189000  0.07379000  1.0 0.2804312057
H  H175  1  0.17174000  0.89392000  0.94803000  1.0 0.2671355551
H  H176  1  0.18542000  0.83626000  0.96648000  1.0 0.2804312057
H  H177  1  0.98465000  0.83666000  0.74925000  1.0 0.137873725
H  H178  1  0.97678000  0.80611000  0.80937000  1.0 0.1214694246
H  H179  1  0.89452000  0.80572000  0.72074000  1.0 0.1214694246
H  H180  1  0.96257000  0.74677000  0.05097000  1.0 0.137873725
H  H181  1  0.97530000  0.75578000  0.98488000  1.0 0.1214694246
H  H182  1  0.06016000  0.74314000  0.07062000  1.0 0.1214694246
H  H183  1  0.11698000  0.99800000  0.07366000  1.0 0.137873725
H  H184  1  0.06808000  0.95443000  0.09217000  1.0 0.1214694246
H  H185  1  0.17752000  0.92026000  0.05169000  1.0 0.1025846212
H  H186  1  0.10528000  0.84832000  0.82007000  1.0 0.137873725
H  H187  1  0.11153000  0.90495000  0.85692000  1.0 0.1274356689
H  H188  1  0.15487000  0.79644000  0.88863000  1.0 0.1025846212
H  H189  1  0.09552000  0.54610000  0.05033000  1.0 0.4058197435
H  H190  1  0.81502000  0.64438000  0.02129000  1.0 0.1708189096
H  H191  1  0.82377000  0.62546000  0.95687000  1.0 0.1637167033
H  H192  1  0.77390000  0.59822000  0.99369000  1.0 0.1757991906
H  H193  1  0.67901000  0.11325000  0.24601000  1.0 0.2804312057
H  H194  1  0.72093000  0.15855000  0.25350000  1.0 0.2985622879
H  H195  1  0.54461000  0.91780000  0.24906000  1.0 0.2804312057
H  H196  1  0.49877000  0.87583000  0.25281000  1.0 0.2903259988
H  H197  1  0.40254000  0.90671000  0.35258000  1.0 0.2804312057
H  H198  1  0.42621000  0.85290000  0.33189000  1.0 0.2804312057
H  H199  1  0.55197000  0.82826000  0.39392000  1.0 0.2671355551
H  H200  1  0.53352000  0.81458000  0.33626000  1.0 0.2804312057
H  H201  1  0.75075000  0.01535000  0.33666000  1.0 0.137873725
H  H202  1  0.69063000  0.02322000  0.30611000  1.0 0.1214694246
H  H203  1  0.77926000  0.10548000  0.30572000  1.0 0.1214694246
H  H204  1  0.44903000  0.03743000  0.24677000  1.0 0.137873725
H  H205  1  0.51512000  0.02470000  0.25578000  1.0 0.1214694246
H  H206  1  0.42938000  0.93984000  0.24314000  1.0 0.1214694246
H  H207  1  0.42634000  0.88302000  0.49800000  1.0 0.137873725
H  H208  1  0.40783000  0.93192000  0.45443000  1.0 0.1214694246
H  H209  1  0.44831000  0.82248000  0.42026000  1.0 0.1025846212
H  H210  1  0.67993000  0.89472000  0.34832000  1.0 0.137873725
H  H211  1  0.64308000  0.88847000  0.40495000  1.0 0.1274356689
H  H212  1  0.61137000  0.84513000  0.29644000  1.0 0.1025846212
H  H213  1  0.44967000  0.90448000  0.04610000  1.0 0.4058197435
H  H214  1  0.47871000  0.18498000  0.14438000  1.0 0.1708189096
H  H215  1  0.54313000  0.17623000  0.12546000  1.0 0.1637167033
H  H216  1  0.50631000  0.22610000  0.09822000  1.0 0.1757991906
H  H217  1  0.32099000  0.61325000  0.25399000  1.0 0.2804312057
H  H218  1  0.27907000  0.65855000  0.24650000  1.0 0.2985622879
H  H219  1  0.45539000  0.41780000  0.25094000  1.0 0.2804312057
H  H220  1  0.50123000  0.37583000  0.24719000  1.0 0.2903259988
H  H221  1  0.59746000  0.40671000  0.14742000  1.0 0.2804312057
H  H222  1  0.57379000  0.35290000  0.16811000  1.0 0.2804312057
H  H223  1  0.44803000  0.32826000  0.10608000  1.0 0.2671355551
H  H224  1  0.46648000  0.31458000  0.16374000  1.0 0.2804312057
H  H225  1  0.24925000  0.51535000  0.16334000  1.0 0.137873725
H  H226  1  0.30937000  0.52322000  0.19389000  1.0 0.1214694246
H  H227  1  0.22074000  0.60548000  0.19428000  1.0 0.1214694246
H  H228  1  0.55097000  0.53743000  0.25323000  1.0 0.137873725
H  H229  1  0.48488000  0.52470000  0.24422000  1.0 0.1214694246
H  H230  1  0.57062000  0.43984000  0.25686000  1.0 0.1214694246
H  H231  1  0.57366000  0.38302000  0.00200000  1.0 0.137873725
H  H232  1  0.59217000  0.43192000  0.04557000  1.0 0.1214694246
H  H233  1  0.55169000  0.32248000  0.07974000  1.0 0.1025846212
H  H234  1  0.32007000  0.39472000  0.15168000  1.0 0.137873725
H  H235  1  0.35692000  0.38847000  0.09505000  1.0 0.1274356689
H  H236  1  0.38863000  0.34513000  0.20356000  1.0 0.1025846212
H  H237  1  0.55033000  0.40448000  0.45390000  1.0 0.4058197435
H  H238  1  0.52129000  0.68498000  0.35562000  1.0 0.1708189096
H  H239  1  0.45687000  0.67623000  0.37454000  1.0 0.1637167033
H  H240  1  0.49369000  0.72610000  0.40178000  1.0 0.1757991906
H  H241  1  0.17901000  0.38675000  0.75399000  1.0 0.2804312057
H  H242  1  0.22093000  0.34145000  0.74650000  1.0 0.2985622879
H  H243  1  0.04461000  0.58220000  0.75094000  1.0 0.2804312057
H  H244  1  0.99877000  0.62417000  0.74719000  1.0 0.2903259988
H  H245  1  0.90254000  0.59329000  0.64742000  1.0 0.2804312057
H  H246  1  0.92621000  0.64710000  0.66811000  1.0 0.2804312057
H  H247  1  0.05197000  0.67174000  0.60608000  1.0 0.2671355551
H  H248  1  0.03352000  0.68542000  0.66374000  1.0 0.2804312057
H  H249  1  0.25075000  0.48465000  0.66334000  1.0 0.137873725
H  H250  1  0.19063000  0.47678000  0.69389000  1.0 0.1214694246
H  H251  1  0.27926000  0.39452000  0.69428000  1.0 0.1214694246
H  H252  1  0.94903000  0.46257000  0.75323000  1.0 0.137873725
H  H253  1  0.01512000  0.47530000  0.74422000  1.0 0.1214694246
H  H254  1  0.92938000  0.56016000  0.75686000  1.0 0.1214694246
H  H255  1  0.92634000  0.61698000  0.50200000  1.0 0.137873725
H  H256  1  0.90783000  0.56808000  0.54557000  1.0 0.1214694246
H  H257  1  0.94831000  0.67752000  0.57974000  1.0 0.1025846212
H  H258  1  0.17993000  0.60528000  0.65168000  1.0 0.137873725
H  H259  1  0.14308000  0.61153000  0.59505000  1.0 0.1274356689
H  H260  1  0.11137000  0.65487000  0.70356000  1.0 0.1025846212
H  H261  1  0.94967000  0.59552000  0.95390000  1.0 0.4058197435
H  H262  1  0.97871000  0.31502000  0.85562000  1.0 0.1708189096
H  H263  1  0.04313000  0.32377000  0.87454000  1.0 0.1637167033
H  H264  1  0.00631000  0.27390000  0.90178000  1.0 0.1757991906
H  H265  1  0.82099000  0.88675000  0.74601000  1.0 0.2804312057
H  H266  1  0.77907000  0.84145000  0.75350000  1.0 0.2985622879
H  H267  1  0.95539000  0.08220000  0.74906000  1.0 0.2804312057
H  H268  1  0.00123000  0.12417000  0.75281000  1.0 0.2903259988
H  H269  1  0.09746000  0.09329000  0.85258000  1.0 0.2804312057
H  H270  1  0.07379000  0.14710000  0.83189000  1.0 0.2804312057
H  H271  1  0.94803000  0.17174000  0.89392000  1.0 0.2671355551
H  H272  1  0.96648000  0.18542000  0.83626000  1.0 0.2804312057
H  H273  1  0.74925000  0.98465000  0.83666000  1.0 0.137873725
H  H274  1  0.80937000  0.97678000  0.80611000  1.0 0.1214694246
H  H275  1  0.72074000  0.89452000  0.80572000  1.0 0.1214694246
H  H276  1  0.05097000  0.96257000  0.74677000  1.0 0.137873725
H  H277  1  0.98488000  0.97530000  0.75578000  1.0 0.1214694246
H  H278  1  0.07062000  0.06016000  0.74314000  1.0 0.1214694246
H  H279  1  0.07366000  0.11698000  0.99800000  1.0 0.137873725
H  H280  1  0.09217000  0.06808000  0.95443000  1.0 0.1214694246
H  H281  1  0.05169000  0.17752000  0.92026000  1.0 0.1025846212
H  H282  1  0.82007000  0.10528000  0.84832000  1.0 0.137873725
H  H283  1  0.85692000  0.11153000  0.90495000  1.0 0.1274356689
H  H284  1  0.88863000  0.15487000  0.79644000  1.0 0.1025846212
H  H285  1  0.05033000  0.09552000  0.54610000  1.0 0.4058197435
H  H286  1  0.02129000  0.81502000  0.64438000  1.0 0.1708189096
H  H287  1  0.95687000  0.82377000  0.62546000  1.0 0.1637167033
H  H288  1  0.99369000  0.77390000  0.59822000  1.0 0.1757991906
H  H289  1  0.94390000  0.44390000  0.05610000  1.0 0.4404527764
H  H290  1  0.55610000  0.55610000  0.55610000  1.0 0.4404527764
H  H291  1  0.05610000  0.94390000  0.44390000  1.0 0.4404527764
H  H292  1  0.44390000  0.05610000  0.94390000  1.0 0.4404527764
Rh  Rh1  1  0.35248000  0.51047000  0.91814000  1.0 0.459485598
Rh  Rh2  1  0.14752000  0.48953000  0.41814000  1.0 0.459485598
Rh  Rh3  1  0.64752000  0.01047000  0.58186000  1.0 0.459485598
Rh  Rh4  1  0.85248000  0.98953000  0.08186000  1.0 0.459485598
Rh  Rh5  1  0.91814000  0.35248000  0.51047000  1.0 0.459485598
Rh  Rh6  1  0.41814000  0.14752000  0.48953000  1.0 0.459485598
Rh  Rh7  1  0.58186000  0.64752000  0.01047000  1.0 0.459485598
Rh  Rh8  1  0.08186000  0.85248000  0.98953000  1.0 0.459485598
Rh  Rh9  1  0.51047000  0.91814000  0.35248000  1.0 0.459485598
Rh  Rh10  1  0.48953000  0.41814000  0.14752000  1.0 0.459485598
Rh  Rh11  1  0.01047000  0.58186000  0.64752000  1.0 0.459485598
Rh  Rh12  1  0.98953000  0.08186000  0.85248000  1.0 0.459485598
Rh  Rh13  1  0.34115000  0.65885000  0.15885000  1.0 0.459485598
Rh  Rh14  1  0.15885000  0.34115000  0.65885000  1.0 0.459485598
Rh  Rh15  1  0.65885000  0.15885000  0.34115000  1.0 0.459485598
Rh  Rh16  1  0.84115000  0.84115000  0.84115000  1.0 0.4540436264
C  C1  1  0.32530000  0.72190000  0.04350000  1.0 -0.2085386537
C  C2  1  0.28560000  0.74760000  0.08590000  1.0 0.0180236454
C  C3  1  0.23290000  0.77170000  0.05670000  1.0 0.5031308528
C  C4  1  0.26320000  0.47650000  0.01040000  1.0 -0.2085386537
C  C5  1  0.23660000  0.46900000  0.95300000  1.0 0.0180236454
C  C6  1  0.17260000  0.47960000  0.95720000  1.0 0.6614466902
C  C7  1  0.45980000  0.43290000  0.89880000  1.0 -0.1845415649
C  C8  1  0.41530000  0.42160000  0.85490000  1.0 0.0317292902
C  C9  1  0.42020000  0.35840000  0.83270000  1.0 0.5734124974
C  C10  1  0.36330000  0.64090000  0.89210000  1.0 -0.1891863263
C  C11  1  0.33850000  0.61160000  0.84070000  1.0 0.011942754
C  C12  1  0.35180000  0.64400000  0.78870000  1.0 0.5495485336
C  C13  1  0.06460000  0.48560000  0.14650000  1.0 0.7487918433
C  C14  1  0.11260000  0.50530000  0.18720000  1.0 -0.6158086065
C  C15  1  0.17470000  0.27810000  0.54350000  1.0 -0.2085386537
C  C16  1  0.21440000  0.25240000  0.58590000  1.0 0.0180236454
C  C17  1  0.26710000  0.22830000  0.55670000  1.0 0.5031308528
C  C18  1  0.23680000  0.52350000  0.51040000  1.0 -0.2085386537
C  C19  1  0.26340000  0.53100000  0.45300000  1.0 0.0180236454
C  C20  1  0.32740000  0.52040000  0.45720000  1.0 0.6614466902
C  C21  1  0.04020000  0.56710000  0.39880000  1.0 -0.1845415649
C  C22  1  0.08470000  0.57840000  0.35490000  1.0 0.0317292902
C  C23  1  0.07980000  0.64160000  0.33270000  1.0 0.5734124974
C  C24  1  0.13670000  0.35910000  0.39210000  1.0 -0.1891863263
C  C25  1  0.16150000  0.38840000  0.34070000  1.0 0.011942754
C  C26  1  0.14820000  0.35600000  0.28870000  1.0 0.5495485336
C  C27  1  0.43540000  0.51440000  0.64650000  1.0 0.7487918433
C  C28  1  0.38740000  0.49470000  0.68720000  1.0 -0.6158086065
C  C29  1  0.67470000  0.22190000  0.45650000  1.0 -0.2085386537
C  C30  1  0.71440000  0.24760000  0.41410000  1.0 0.0180236454
C  C31  1  0.76710000  0.27170000  0.44330000  1.0 0.5031308528
C  C32  1  0.73680000  0.97650000  0.48960000  1.0 -0.2085386537
C  C33  1  0.76340000  0.96900000  0.54700000  1.0 0.0180236454
C  C34  1  0.82740000  0.97960000  0.54280000  1.0 0.6614466902
C  C35  1  0.54020000  0.93290000  0.60120000  1.0 -0.1845415649
C  C36  1  0.58470000  0.92160000  0.64510000  1.0 0.0317292902
C  C37  1  0.57980000  0.85840000  0.66730000  1.0 0.5734124974
C  C38  1  0.63670000  0.14090000  0.60790000  1.0 -0.1891863263
C  C39  1  0.66150000  0.11160000  0.65930000  1.0 0.011942754
C  C40  1  0.64820000  0.14400000  0.71130000  1.0 0.5495485336
C  C41  1  0.93540000  0.98560000  0.35350000  1.0 0.7487918433
C  C42  1  0.88740000  0.00530000  0.31280000  1.0 -0.6158086065
C  C43  1  0.82530000  0.77810000  0.95650000  1.0 -0.2085386537
C  C44  1  0.78560000  0.75240000  0.91410000  1.0 0.0180236454
C  C45  1  0.73290000  0.72830000  0.94330000  1.0 0.5031308528
C  C46  1  0.76320000  0.02350000  0.98960000  1.0 -0.2085386537
C  C47  1  0.73660000  0.03100000  0.04700000  1.0 0.0180236454
C  C48  1  0.67260000  0.02040000  0.04280000  1.0 0.6614466902
C  C49  1  0.95980000  0.06710000  0.10120000  1.0 -0.1845415649
C  C50  1  0.91530000  0.07840000  0.14510000  1.0 0.0317292902
C  C51  1  0.92020000  0.14160000  0.16730000  1.0 0.5734124974
C  C52  1  0.86330000  0.85910000  0.10790000  1.0 -0.1891863263
C  C53  1  0.83850000  0.88840000  0.15930000  1.0 0.011942754
C  C54  1  0.85180000  0.85600000  0.21130000  1.0 0.5495485336
C  C55  1  0.56460000  0.01440000  0.85350000  1.0 0.7487918433
C  C56  1  0.61260000  0.99470000  0.81280000  1.0 -0.6158086065
C  C57  1  0.04350000  0.32530000  0.72190000  1.0 -0.2085386537
C  C58  1  0.08590000  0.28560000  0.74760000  1.0 0.0180236454
C  C59  1  0.05670000  0.23290000  0.77170000  1.0 0.5031308528
C  C60  1  0.01040000  0.26320000  0.47650000  1.0 -0.2085386537
C  C61  1  0.95300000  0.23660000  0.46900000  1.0 0.0180236454
C  C62  1  0.95720000  0.17260000  0.47960000  1.0 0.6614466902
C  C63  1  0.89880000  0.45980000  0.43290000  1.0 -0.1845415649
C  C64  1  0.85490000  0.41530000  0.42160000  1.0 0.0317292902
C  C65  1  0.83270000  0.42020000  0.35840000  1.0 0.5734124974
C  C66  1  0.89210000  0.36330000  0.64090000  1.0 -0.1891863263
C  C67  1  0.84070000  0.33850000  0.61160000  1.0 0.011942754
C  C68  1  0.78870000  0.35180000  0.64400000  1.0 0.5495485336
C  C69  1  0.14650000  0.06460000  0.48560000  1.0 0.7487918433
C  C70  1  0.18720000  0.11260000  0.50530000  1.0 -0.6158086065
C  C71  1  0.54350000  0.17470000  0.27810000  1.0 -0.2085386537
C  C72  1  0.58590000  0.21440000  0.25240000  1.0 0.0180236454
C  C73  1  0.55670000  0.26710000  0.22830000  1.0 0.5031308528
C  C74  1  0.51040000  0.23680000  0.52350000  1.0 -0.2085386537
C  C75  1  0.45300000  0.26340000  0.53100000  1.0 0.0180236454
C  C76  1  0.45720000  0.32740000  0.52040000  1.0 0.6614466902
C  C77  1  0.39880000  0.04020000  0.56710000  1.0 -0.1845415649
C  C78  1  0.35490000  0.08470000  0.57840000  1.0 0.0317292902
C  C79  1  0.33270000  0.07980000  0.64160000  1.0 0.5734124974
C  C80  1  0.39210000  0.13670000  0.35910000  1.0 -0.1891863263
C  C81  1  0.34070000  0.16150000  0.38840000  1.0 0.011942754
C  C82  1  0.28870000  0.14820000  0.35600000  1.0 0.5495485336
C  C83  1  0.64650000  0.43540000  0.51440000  1.0 0.7487918433
C  C84  1  0.68720000  0.38740000  0.49470000  1.0 -0.6158086065
C  C85  1  0.45650000  0.67470000  0.22190000  1.0 -0.2085386537
C  C86  1  0.41410000  0.71440000  0.24760000  1.0 0.0180236454
C  C87  1  0.44330000  0.76710000  0.27170000  1.0 0.5031308528
C  C88  1  0.48960000  0.73680000  0.97650000  1.0 -0.2085386537
C  C89  1  0.54700000  0.76340000  0.96900000  1.0 0.0180236454
C  C90  1  0.54280000  0.82740000  0.97960000  1.0 0.6614466902
C  C91  1  0.60120000  0.54020000  0.93290000  1.0 -0.1845415649
C  C92  1  0.64510000  0.58470000  0.92160000  1.0 0.0317292902
C  C93  1  0.66730000  0.57980000  0.85840000  1.0 0.5734124974
C  C94  1  0.60790000  0.63670000  0.14090000  1.0 -0.1891863263
C  C95  1  0.65930000  0.66150000  0.11160000  1.0 0.011942754
C  C96  1  0.71130000  0.64820000  0.14400000  1.0 0.5495485336
C  C97  1  0.35350000  0.93540000  0.98560000  1.0 0.7487918433
C  C98  1  0.31280000  0.88740000  0.00530000  1.0 -0.6158086065
C  C99  1  0.95650000  0.82530000  0.77810000  1.0 -0.2085386537
C  C100  1  0.91410000  0.78560000  0.75240000  1.0 0.0180236454
C  C101  1  0.94330000  0.73290000  0.72830000  1.0 0.5031308528
C  C102  1  0.98960000  0.76320000  0.02350000  1.0 -0.2085386537
C  C103  1  0.04700000  0.73660000  0.03100000  1.0 0.0180236454
C  C104  1  0.04280000  0.67260000  0.02040000  1.0 0.6614466902
C  C105  1  0.10120000  0.95980000  0.06710000  1.0 -0.1845415649
C  C106  1  0.14510000  0.91530000  0.07840000  1.0 0.0317292902
C  C107  1  0.16730000  0.92020000  0.14160000  1.0 0.5734124974
C  C108  1  0.10790000  0.86330000  0.85910000  1.0 -0.1891863263
C  C109  1  0.15930000  0.83850000  0.88840000  1.0 0.011942754
C  C110  1  0.21130000  0.85180000  0.85600000  1.0 0.5495485336
C  C111  1  0.85350000  0.56460000  0.01440000  1.0 0.7487918433
C  C112  1  0.81280000  0.61260000  0.99470000  1.0 -0.6158086065
C  C113  1  0.72190000  0.04350000  0.32530000  1.0 -0.2085386537
C  C114  1  0.74760000  0.08590000  0.28560000  1.0 0.0180236454
C  C115  1  0.77170000  0.05670000  0.23290000  1.0 0.5031308528
C  C116  1  0.47650000  0.01040000  0.26320000  1.0 -0.2085386537
C  C117  1  0.46900000  0.95300000  0.23660000  1.0 0.0180236454
C  C118  1  0.47960000  0.95720000  0.17260000  1.0 0.6614466902
C  C119  1  0.43290000  0.89880000  0.45980000  1.0 -0.1845415649
C  C120  1  0.42160000  0.85490000  0.41530000  1.0 0.0317292902
C  C121  1  0.35840000  0.83270000  0.42020000  1.0 0.5734124974
C  C122  1  0.64090000  0.89210000  0.36330000  1.0 -0.1891863263
C  C123  1  0.61160000  0.84070000  0.33850000  1.0 0.011942754
C  C124  1  0.64400000  0.78870000  0.35180000  1.0 0.5495485336
C  C125  1  0.48560000  0.14650000  0.06460000  1.0 0.7487918433
C  C126  1  0.50530000  0.18720000  0.11260000  1.0 -0.6158086065
C  C127  1  0.27810000  0.54350000  0.17470000  1.0 -0.2085386537
C  C128  1  0.25240000  0.58590000  0.21440000  1.0 0.0180236454
C  C129  1  0.22830000  0.55670000  0.26710000  1.0 0.5031308528
C  C130  1  0.52350000  0.51040000  0.23680000  1.0 -0.2085386537
C  C131  1  0.53100000  0.45300000  0.26340000  1.0 0.0180236454
C  C132  1  0.52040000  0.45720000  0.32740000  1.0 0.6614466902
C  C133  1  0.56710000  0.39880000  0.04020000  1.0 -0.1845415649
C  C134  1  0.57840000  0.35490000  0.08470000  1.0 0.0317292902
C  C135  1  0.64160000  0.33270000  0.07980000  1.0 0.5734124974
C  C136  1  0.35910000  0.39210000  0.13670000  1.0 -0.1891863263
C  C137  1  0.38840000  0.34070000  0.16150000  1.0 0.011942754
C  C138  1  0.35600000  0.28870000  0.14820000  1.0 0.5495485336
C  C139  1  0.51440000  0.64650000  0.43540000  1.0 0.7487918433
C  C140  1  0.49470000  0.68720000  0.38740000  1.0 -0.6158086065
C  C141  1  0.22190000  0.45650000  0.67470000  1.0 -0.2085386537
C  C142  1  0.24760000  0.41410000  0.71440000  1.0 0.0180236454
C  C143  1  0.27170000  0.44330000  0.76710000  1.0 0.5031308528
C  C144  1  0.97650000  0.48960000  0.73680000  1.0 -0.2085386537
C  C145  1  0.96900000  0.54700000  0.76340000  1.0 0.0180236454
C  C146  1  0.97960000  0.54280000  0.82740000  1.0 0.6614466902
C  C147  1  0.93290000  0.60120000  0.54020000  1.0 -0.1845415649
C  C148  1  0.92160000  0.64510000  0.58470000  1.0 0.0317292902
C  C149  1  0.85840000  0.66730000  0.57980000  1.0 0.5734124974
C  C150  1  0.14090000  0.60790000  0.63670000  1.0 -0.1891863263
C  C151  1  0.11160000  0.65930000  0.66150000  1.0 0.011942754
C  C152  1  0.14400000  0.71130000  0.64820000  1.0 0.5495485336
C  C153  1  0.98560000  0.35350000  0.93540000  1.0 0.7487918433
C  C154  1  0.00530000  0.31280000  0.88740000  1.0 -0.6158086065
C  C155  1  0.77810000  0.95650000  0.82530000  1.0 -0.2085386537
C  C156  1  0.75240000  0.91410000  0.78560000  1.0 0.0180236454
C  C157  1  0.72830000  0.94330000  0.73290000  1.0 0.5031308528
C  C158  1  0.02350000  0.98960000  0.76320000  1.0 -0.2085386537
C  C159  1  0.03100000  0.04700000  0.73660000  1.0 0.0180236454
C  C160  1  0.02040000  0.04280000  0.67260000  1.0 0.6614466902
C  C161  1  0.06710000  0.10120000  0.95980000  1.0 -0.1845415649
C  C162  1  0.07840000  0.14510000  0.91530000  1.0 0.0317292902
C  C163  1  0.14160000  0.16730000  0.92020000  1.0 0.5734124974
C  C164  1  0.85910000  0.10790000  0.86330000  1.0 -0.1891863263
C  C165  1  0.88840000  0.15930000  0.83850000  1.0 0.011942754
C  C166  1  0.85600000  0.21130000  0.85180000  1.0 0.5495485336
C  C167  1  0.01440000  0.85350000  0.56460000  1.0 0.7487918433
C  C168  1  0.99470000  0.81280000  0.61260000  1.0 -0.6158086065
S  S1  1  0.38765000  0.69498000  0.08015000  1.0 -0.270551071
S  S2  1  0.33918000  0.46489000  0.00414000  1.0 -0.2786331181
S  S3  1  0.45114000  0.50831000  0.91965000  1.0 -0.2897145094
S  S4  1  0.34477000  0.60160000  0.95598000  1.0 -0.2897145094
S  S5  1  0.11235000  0.30502000  0.58015000  1.0 -0.270551071
S  S6  1  0.16082000  0.53511000  0.50414000  1.0 -0.2786331181
S  S7  1  0.04886000  0.49169000  0.41965000  1.0 -0.2897145094
S  S8  1  0.15523000  0.39840000  0.45598000  1.0 -0.2897145094
S  S9  1  0.61235000  0.19498000  0.41985000  1.0 -0.270551071
S  S10  1  0.66082000  0.96489000  0.49586000  1.0 -0.2786331181
S  S11  1  0.54886000  0.00831000  0.58035000  1.0 -0.2897145094
S  S12  1  0.65523000  0.10160000  0.54402000  1.0 -0.2897145094
S  S13  1  0.88765000  0.80502000  0.91985000  1.0 -0.270551071
S  S14  1  0.83918000  0.03511000  0.99586000  1.0 -0.2786331181
S  S15  1  0.95114000  0.99169000  0.08035000  1.0 -0.2897145094
S  S16  1  0.84477000  0.89840000  0.04402000  1.0 -0.2897145094
S  S17  1  0.08015000  0.38765000  0.69498000  1.0 -0.270551071
S  S18  1  0.00414000  0.33918000  0.46489000  1.0 -0.2786331181
S  S19  1  0.91965000  0.45114000  0.50831000  1.0 -0.2897145094
S  S20  1  0.95598000  0.34477000  0.60160000  1.0 -0.2897145094
S  S21  1  0.58015000  0.11235000  0.30502000  1.0 -0.270551071
S  S22  1  0.50414000  0.16082000  0.53511000  1.0 -0.2786331181
S  S23  1  0.41965000  0.04886000  0.49169000  1.0 -0.2897145094
S  S24  1  0.45598000  0.15523000  0.39840000  1.0 -0.2897145094
S  S25  1  0.41985000  0.61235000  0.19498000  1.0 -0.270551071
S  S26  1  0.49586000  0.66082000  0.96489000  1.0 -0.2786331181
S  S27  1  0.58035000  0.54886000  0.00831000  1.0 -0.2897145094
S  S28  1  0.54402000  0.65523000  0.10160000  1.0 -0.2897145094
S  S29  1  0.91985000  0.88765000  0.80502000  1.0 -0.270551071
S  S30  1  0.99586000  0.83918000  0.03511000  1.0 -0.2786331181
S  S31  1  0.08035000  0.95114000  0.99169000  1.0 -0.2897145094
S  S32  1  0.04402000  0.84477000  0.89840000  1.0 -0.2897145094
S  S33  1  0.69498000  0.08015000  0.38765000  1.0 -0.270551071
S  S34  1  0.46489000  0.00414000  0.33918000  1.0 -0.2786331181
S  S35  1  0.50831000  0.91965000  0.45114000  1.0 -0.2897145094
S  S36  1  0.60160000  0.95598000  0.34477000  1.0 -0.2897145094
S  S37  1  0.30502000  0.58015000  0.11235000  1.0 -0.270551071
S  S38  1  0.53511000  0.50414000  0.16082000  1.0 -0.2786331181
S  S39  1  0.49169000  0.41965000  0.04886000  1.0 -0.2897145094
S  S40  1  0.39840000  0.45598000  0.15523000  1.0 -0.2897145094
S  S41  1  0.19498000  0.41985000  0.61235000  1.0 -0.270551071
S  S42  1  0.96489000  0.49586000  0.66082000  1.0 -0.2786331181
S  S43  1  0.00831000  0.58035000  0.54886000  1.0 -0.2897145094
S  S44  1  0.10160000  0.54402000  0.65523000  1.0 -0.2897145094
S  S45  1  0.80502000  0.91985000  0.88765000  1.0 -0.270551071
S  S46  1  0.03511000  0.99586000  0.83918000  1.0 -0.2786331181
S  S47  1  0.99169000  0.08035000  0.95114000  1.0 -0.2897145094
S  S48  1  0.89840000  0.04402000  0.84477000  1.0 -0.2897145094
N  N1  1  0.27100000  0.70380000  0.12880000  1.0 -0.4220694923
N  N2  1  0.26270000  0.50920000  0.91150000  1.0 -0.450968508
N  N3  1  0.35880000  0.42970000  0.88020000  1.0 -0.450968508
N  N4  1  0.35740000  0.55290000  0.84030000  1.0 -0.4562724261
N  N5  1  0.22900000  0.29620000  0.62880000  1.0 -0.4220694923
N  N6  1  0.23730000  0.49080000  0.41150000  1.0 -0.450968508
N  N7  1  0.14120000  0.57030000  0.38020000  1.0 -0.450968508
N  N8  1  0.14260000  0.44710000  0.34030000  1.0 -0.4562724261
N  N9  1  0.72900000  0.20380000  0.37120000  1.0 -0.4220694923
N  N10  1  0.73730000  0.00920000  0.58850000  1.0 -0.450968508
N  N11  1  0.64120000  0.92970000  0.61980000  1.0 -0.450968508
N  N12  1  0.64260000  0.05290000  0.65970000  1.0 -0.4562724261
N  N13  1  0.77100000  0.79620000  0.87120000  1.0 -0.4220694923
N  N14  1  0.76270000  0.99080000  0.08850000  1.0 -0.450968508
N  N15  1  0.85880000  0.07030000  0.11980000  1.0 -0.450968508
N  N16  1  0.85740000  0.94710000  0.15970000  1.0 -0.4562724261
N  N17  1  0.12880000  0.27100000  0.70380000  1.0 -0.4220694923
N  N18  1  0.91150000  0.26270000  0.50920000  1.0 -0.450968508
N  N19  1  0.88020000  0.35880000  0.42970000  1.0 -0.450968508
N  N20  1  0.84030000  0.35740000  0.55290000  1.0 -0.4562724261
N  N21  1  0.62880000  0.22900000  0.29620000  1.0 -0.4220694923
N  N22  1  0.41150000  0.23730000  0.49080000  1.0 -0.450968508
N  N23  1  0.38020000  0.14120000  0.57030000  1.0 -0.450968508
N  N24  1  0.34030000  0.14260000  0.44710000  1.0 -0.4562724261
N  N25  1  0.37120000  0.72900000  0.20380000  1.0 -0.4220694923
N  N26  1  0.58850000  0.73730000  0.00920000  1.0 -0.450968508
N  N27  1  0.61980000  0.64120000  0.92970000  1.0 -0.450968508
N  N28  1  0.65970000  0.64260000  0.05290000  1.0 -0.4562724261
N  N29  1  0.87120000  0.77100000  0.79620000  1.0 -0.4220694923
N  N30  1  0.08850000  0.76270000  0.99080000  1.0 -0.450968508
N  N31  1  0.11980000  0.85880000  0.07030000  1.0 -0.450968508
N  N32  1  0.15970000  0.85740000  0.94710000  1.0 -0.4562724261
N  N33  1  0.70380000  0.12880000  0.27100000  1.0 -0.4220694923
N  N34  1  0.50920000  0.91150000  0.26270000  1.0 -0.450968508
N  N35  1  0.42970000  0.88020000  0.35880000  1.0 -0.450968508
N  N36  1  0.55290000  0.84030000  0.35740000  1.0 -0.4562724261
N  N37  1  0.29620000  0.62880000  0.22900000  1.0 -0.4220694923
N  N38  1  0.49080000  0.41150000  0.23730000  1.0 -0.450968508
N  N39  1  0.57030000  0.38020000  0.14120000  1.0 -0.450968508
N  N40  1  0.44710000  0.34030000  0.14260000  1.0 -0.4562724261
N  N41  1  0.20380000  0.37120000  0.72900000  1.0 -0.4220694923
N  N42  1  0.00920000  0.58850000  0.73730000  1.0 -0.450968508
N  N43  1  0.92970000  0.61980000  0.64120000  1.0 -0.450968508
N  N44  1  0.05290000  0.65970000  0.64260000  1.0 -0.4562724261
N  N45  1  0.79620000  0.87120000  0.77100000  1.0 -0.4220694923
N  N46  1  0.99080000  0.08850000  0.76270000  1.0 -0.450968508
N  N47  1  0.07030000  0.11980000  0.85880000  1.0 -0.450968508
N  N48  1  0.94710000  0.15970000  0.85740000  1.0 -0.4562724261
O  O1  1  0.18700000  0.75090000  0.06570000  1.0 -0.4750589732
O  O2  1  0.23800000  0.81290000  0.02820000  1.0 -0.4750589732
O  O3  1  0.14610000  0.44400000  0.98390000  1.0 -0.6470922137
O  O4  1  0.15070000  0.52440000  0.93470000  1.0 -0.7102723722
O  O5  1  0.37170000  0.32870000  0.83980000  1.0 -0.5961148743
O  O6  1  0.46550000  0.34830000  0.80730000  1.0 -0.4896951521
O  O7  1  0.39320000  0.62480000  0.76020000  1.0 -0.3769241447
O  O8  1  0.33970000  0.68830000  0.77800000  1.0 -0.4896951521
O  O9  1  0.03250000  0.47160000  0.93800000  1.0 -1.1565446262
O  O10  1  0.07060000  0.44480000  0.11220000  1.0 -0.5760646169
O  O11  1  0.01840000  0.51190000  0.14070000  1.0 -0.5880647187
O  O12  1  0.01150000  0.37170000  0.08740000  1.0 -0.5482224411
O  O13  1  0.11740000  0.35660000  0.05030000  1.0 -0.3738129709
O  O14  1  0.34770000  0.76680000  0.70220000  1.0 -0.5482224411
O  O15  1  0.29720000  0.29240000  0.75720000  1.0 -0.5430811373
O  O16  1  0.31300000  0.24910000  0.56570000  1.0 -0.4745359425
O  O17  1  0.26200000  0.18710000  0.52820000  1.0 -0.4750589732
O  O18  1  0.35390000  0.55600000  0.48390000  1.0 -0.6470922137
O  O19  1  0.34930000  0.47560000  0.43470000  1.0 -0.7102723722
O  O20  1  0.12830000  0.67130000  0.33980000  1.0 -0.5961148743
O  O21  1  0.03450000  0.65170000  0.30730000  1.0 -0.4896951521
O  O22  1  0.10680000  0.37520000  0.26020000  1.0 -0.3769241447
O  O23  1  0.16030000  0.31170000  0.27800000  1.0 -0.4896951521
O  O24  1  0.46750000  0.52840000  0.43800000  1.0 -1.1565446262
O  O25  1  0.42940000  0.55520000  0.61220000  1.0 -0.5760646169
O  O26  1  0.48160000  0.48810000  0.64070000  1.0 -0.5880647187
O  O27  1  0.48850000  0.62830000  0.58740000  1.0 -0.5482224411
O  O28  1  0.38260000  0.64340000  0.55030000  1.0 -0.3738129709
O  O29  1  0.15230000  0.23320000  0.20220000  1.0 -0.5482224411
O  O30  1  0.20280000  0.70760000  0.25720000  1.0 -0.5430811373
O  O31  1  0.81300000  0.25090000  0.43430000  1.0 -0.4750589732
O  O32  1  0.76200000  0.31290000  0.47180000  1.0 -0.4750589732
O  O33  1  0.85390000  0.94400000  0.51610000  1.0 -0.6470922137
O  O34  1  0.84930000  0.02440000  0.56530000  1.0 -0.7102723722
O  O35  1  0.62830000  0.82870000  0.66020000  1.0 -0.5880647187
O  O36  1  0.53450000  0.84830000  0.69270000  1.0 -0.4896951521
O  O37  1  0.60680000  0.12480000  0.73980000  1.0 -0.3769241447
O  O38  1  0.66030000  0.18830000  0.72200000  1.0 -0.4896951521
O  O39  1  0.96750000  0.97160000  0.56200000  1.0 -1.1565446262
O  O40  1  0.92940000  0.94480000  0.38780000  1.0 -0.5760646169
O  O41  1  0.98160000  0.01190000  0.35930000  1.0 -0.5880647187
O  O42  1  0.98850000  0.87170000  0.41260000  1.0 -0.5482224411
O  O43  1  0.88260000  0.85660000  0.44970000  1.0 -0.3738129709
O  O44  1  0.65230000  0.26680000  0.79780000  1.0 -0.5482224411
O  O45  1  0.70280000  0.79240000  0.74280000  1.0 -0.5430811373
O  O46  1  0.68700000  0.74910000  0.93430000  1.0 -0.4750589732
O  O47  1  0.73800000  0.68710000  0.97180000  1.0 -0.4750589732
O  O48  1  0.64610000  0.05600000  0.01610000  1.0 -0.6470922137
O  O49  1  0.65070000  0.97560000  0.06530000  1.0 -0.7102723722
O  O50  1  0.87170000  0.17130000  0.16020000  1.0 -0.5961148743
O  O51  1  0.96550000  0.15170000  0.19270000  1.0 -0.4896951521
O  O52  1  0.89320000  0.87520000  0.23980000  1.0 -0.3769241447
O  O53  1  0.83970000  0.81170000  0.22200000  1.0 -0.4896951521
O  O54  1  0.53250000  0.02840000  0.06200000  1.0 -1.1565446262
O  O55  1  0.57060000  0.05520000  0.88780000  1.0 -0.5760646169
O  O56  1  0.51840000  0.98810000  0.85930000  1.0 -0.5880647187
O  O57  1  0.51150000  0.12830000  0.91260000  1.0 -0.5482224411
O  O58  1  0.61740000  0.14340000  0.94970000  1.0 -0.3738129709
O  O59  1  0.84770000  0.73320000  0.29780000  1.0 -0.5482224411
O  O60  1  0.79720000  0.20760000  0.24280000  1.0 -0.5430811373
O  O61  1  0.06570000  0.18700000  0.75090000  1.0 -0.4745359425
O  O62  1  0.02820000  0.23800000  0.81290000  1.0 -0.4750589732
O  O63  1  0.98390000  0.14610000  0.44400000  1.0 -0.6470922137
O  O64  1  0.93470000  0.15070000  0.52440000  1.0 -0.7102723722
O  O65  1  0.83980000  0.37170000  0.32870000  1.0 -0.5961148743
O  O66  1  0.80730000  0.46550000  0.34830000  1.0 -0.4896951521
O  O67  1  0.76020000  0.39320000  0.62480000  1.0 -0.3769241447
O  O68  1  0.77800000  0.33970000  0.68830000  1.0 -0.4896951521
O  O69  1  0.93800000  0.03250000  0.47160000  1.0 -1.1565446262
O  O70  1  0.11220000  0.07060000  0.44480000  1.0 -0.5760646169
O  O71  1  0.14070000  0.01840000  0.51190000  1.0 -0.5880647187
O  O72  1  0.08740000  0.01150000  0.37170000  1.0 -0.5482224411
O  O73  1  0.05030000  0.11740000  0.35660000  1.0 -0.3738129709
O  O74  1  0.70220000  0.34770000  0.76680000  1.0 -0.5482224411
O  O75  1  0.75720000  0.29720000  0.29240000  1.0 -0.5430811373
O  O76  1  0.56570000  0.31300000  0.24910000  1.0 -0.4750589732
O  O77  1  0.52820000  0.26200000  0.18710000  1.0 -0.4750589732
O  O78  1  0.48390000  0.35390000  0.55600000  1.0 -0.6470922137
O  O79  1  0.43470000  0.34930000  0.47560000  1.0 -0.7102723722
O  O80  1  0.33980000  0.12830000  0.67130000  1.0 -0.5961148743
O  O81  1  0.30730000  0.03450000  0.65170000  1.0 -0.4896951521
O  O82  1  0.26020000  0.10680000  0.37520000  1.0 -0.3769241447
O  O83  1  0.27800000  0.16030000  0.31170000  1.0 -0.4896951521
O  O84  1  0.43800000  0.46750000  0.52840000  1.0 -1.1565446262
O  O85  1  0.61220000  0.42940000  0.55520000  1.0 -0.5760646169
O  O86  1  0.64070000  0.48160000  0.48810000  1.0 -0.5880647187
O  O87  1  0.58740000  0.48850000  0.62830000  1.0 -0.5482224411
O  O88  1  0.55030000  0.38260000  0.64340000  1.0 -0.3738129709
O  O89  1  0.20220000  0.15230000  0.23320000  1.0 -0.5482224411
O  O90  1  0.25720000  0.20280000  0.70760000  1.0 -0.5430811373
O  O91  1  0.43430000  0.81300000  0.25090000  1.0 -0.4750589732
O  O92  1  0.47180000  0.76200000  0.31290000  1.0 -0.4750589732
O  O93  1  0.51610000  0.85390000  0.94400000  1.0 -0.6470922137
O  O94  1  0.56530000  0.84930000  0.02440000  1.0 -0.7102723722
O  O95  1  0.66020000  0.62830000  0.82870000  1.0 -0.5880647187
O  O96  1  0.69270000  0.53450000  0.84830000  1.0 -0.4896951521
O  O97  1  0.73980000  0.60680000  0.12480000  1.0 -0.3769241447
O  O98  1  0.72200000  0.66030000  0.18830000  1.0 -0.4896951521
O  O99  1  0.56200000  0.96750000  0.97160000  1.0 -1.1565446262
O  O100  1  0.38780000  0.92940000  0.94480000  1.0 -0.5760646169
O  O101  1  0.35930000  0.98160000  0.01190000  1.0 -0.5880647187
O  O102  1  0.41260000  0.98850000  0.87170000  1.0 -0.5482224411
O  O103  1  0.44970000  0.88260000  0.85660000  1.0 -0.3769241447
O  O104  1  0.79780000  0.65230000  0.26680000  1.0 -0.5482224411
O  O105  1  0.74280000  0.70280000  0.79240000  1.0 -0.5430811373
O  O106  1  0.93430000  0.68700000  0.74910000  1.0 -0.4750589732
O  O107  1  0.97180000  0.73800000  0.68710000  1.0 -0.4750589732
O  O108  1  0.01610000  0.64610000  0.05600000  1.0 -0.6470922137
O  O109  1  0.06530000  0.65070000  0.97560000  1.0 -0.7102723722
O  O110  1  0.16020000  0.87170000  0.17130000  1.0 -0.5961148743
O  O111  1  0.19270000  0.96550000  0.15170000  1.0 -0.4896951521
O  O112  1  0.23980000  0.89320000  0.87520000  1.0 -0.3769241447
O  O113  1  0.22200000  0.83970000  0.81170000  1.0 -0.4896951521
O  O114  1  0.06200000  0.53250000  0.02840000  1.0 -1.1565446262
O  O115  1  0.88780000  0.57060000  0.05520000  1.0 -0.5760646169
O  O116  1  0.85930000  0.51840000  0.98810000  1.0 -0.5880647187
O  O117  1  0.91260000  0.51150000  0.12830000  1.0 -0.5430811373
O  O118  1  0.94970000  0.61740000  0.14340000  1.0 -0.3738129709
O  O119  1  0.29780000  0.84770000  0.73320000  1.0 -0.5482224411
O  O120  1  0.24280000  0.79720000  0.20760000  1.0 -0.5430811373
O  O121  1  0.75090000  0.06570000  0.18700000  1.0 -0.4750589732
O  O122  1  0.81290000  0.02820000  0.23800000  1.0 -0.4745359425
O  O123  1  0.44400000  0.98390000  0.14610000  1.0 -0.6470922137
O  O124  1  0.52440000  0.93470000  0.15070000  1.0 -0.7102723722
O  O125  1  0.32870000  0.83980000  0.37170000  1.0 -0.5961148743
O  O126  1  0.34830000  0.80730000  0.46550000  1.0 -0.4896951521
O  O127  1  0.62480000  0.76020000  0.39320000  1.0 -0.3769241447
O  O128  1  0.68830000  0.77800000  0.33970000  1.0 -0.4896951521
O  O129  1  0.47160000  0.93800000  0.03250000  1.0 -1.1565446262
O  O130  1  0.44480000  0.11220000  0.07060000  1.0 -0.5760646169
O  O131  1  0.51190000  0.14070000  0.01840000  1.0 -0.5880647187
O  O132  1  0.37170000  0.08740000  0.01150000  1.0 -0.5482224411
O  O133  1  0.35660000  0.05030000  0.11740000  1.0 -0.3738129709
O  O134  1  0.76680000  0.70220000  0.34770000  1.0 -0.5482224411
O  O135  1  0.29240000  0.75720000  0.29720000  1.0 -0.5430811373
O  O136  1  0.24910000  0.56570000  0.31300000  1.0 -0.4750589732
O  O137  1  0.18710000  0.52820000  0.26200000  1.0 -0.4750589732
O  O138  1  0.55600000  0.48390000  0.35390000  1.0 -0.6470922137
O  O139  1  0.47560000  0.43470000  0.34930000  1.0 -0.7102723722
O  O140  1  0.67130000  0.33980000  0.12830000  1.0 -0.5961148743
O  O141  1  0.65170000  0.30730000  0.03450000  1.0 -0.4896951521
O  O142  1  0.37520000  0.26020000  0.10680000  1.0 -0.3769241447
O  O143  1  0.31170000  0.27800000  0.16030000  1.0 -0.4896951521
O  O144  1  0.52840000  0.43800000  0.46750000  1.0 -1.1565446262
O  O145  1  0.55520000  0.61220000  0.42940000  1.0 -0.5760646169
O  O146  1  0.48810000  0.64070000  0.48160000  1.0 -0.5880647187
O  O147  1  0.62830000  0.58740000  0.48850000  1.0 -0.5482224411
O  O148  1  0.64340000  0.55030000  0.38260000  1.0 -0.3738129709
O  O149  1  0.23320000  0.20220000  0.15230000  1.0 -0.5482224411
O  O150  1  0.70760000  0.25720000  0.20280000  1.0 -0.5430811373
O  O151  1  0.25090000  0.43430000  0.81300000  1.0 -0.4750589732
O  O152  1  0.31290000  0.47180000  0.76200000  1.0 -0.4750589732
O  O153  1  0.94400000  0.51610000  0.85390000  1.0 -0.6470922137
O  O154  1  0.02440000  0.56530000  0.84930000  1.0 -0.7102723722
O  O155  1  0.82870000  0.66020000  0.62830000  1.0 -0.5880647187
O  O156  1  0.84830000  0.69270000  0.53450000  1.0 -0.4896951521
O  O157  1  0.12480000  0.73980000  0.60680000  1.0 -0.3769241447
O  O158  1  0.18830000  0.72200000  0.66030000  1.0 -0.4896951521
O  O159  1  0.97160000  0.56200000  0.96750000  1.0 -1.1565446262
O  O160  1  0.94480000  0.38780000  0.92940000  1.0 -0.5760646169
O  O161  1  0.01190000  0.35930000  0.98160000  1.0 -0.5880647187
O  O162  1  0.87170000  0.41260000  0.98850000  1.0 -0.5482224411
O  O163  1  0.85660000  0.44970000  0.88260000  1.0 -0.3738129709
O  O164  1  0.26680000  0.79780000  0.65230000  1.0 -0.5482224411
O  O165  1  0.79240000  0.74280000  0.70280000  1.0 -0.5430811373
O  O166  1  0.74910000  0.93430000  0.68700000  1.0 -0.4750589732
O  O167  1  0.68710000  0.97180000  0.73800000  1.0 -0.4750589732
O  O168  1  0.05600000  0.01610000  0.64610000  1.0 -0.6470922137
O  O169  1  0.97560000  0.06530000  0.65070000  1.0 -0.7102723722
O  O170  1  0.17130000  0.16020000  0.87170000  1.0 -0.5961148743
O  O171  1  0.15170000  0.19270000  0.96550000  1.0 -0.4896951521
O  O172  1  0.87520000  0.23980000  0.89320000  1.0 -0.3769241447
O  O173  1  0.81170000  0.22200000  0.83970000  1.0 -0.4896951521
O  O174  1  0.02840000  0.06200000  0.53250000  1.0 -1.1565446262
O  O175  1  0.05520000  0.88780000  0.57060000  1.0 -0.5760646169
O  O176  1  0.98810000  0.85930000  0.51840000  1.0 -0.5880647187
O  O177  1  0.12830000  0.91260000  0.51150000  1.0 -0.5482224411
O  O178  1  0.14340000  0.94970000  0.61740000  1.0 -0.3769241447
O  O179  1  0.73320000  0.29780000  0.84770000  1.0 -0.5482224411
O  O180  1  0.20760000  0.24280000  0.79720000  1.0 -0.5430811373
O  O181  1  0.44154000  0.55846000  0.05846000  1.0 -0.8007756178
O  O182  1  0.05846000  0.44154000  0.55846000  1.0 -0.8007756178
O  O183  1  0.55846000  0.05846000  0.44154000  1.0 -0.8007756178
O  O184  1  0.94154000  0.94154000  0.94154000  1.0 -0.8007756178
O  O185  1  0.96830000  0.46830000  0.03170000  1.0 -1.1204857234
O  O186  1  0.26010000  0.76010000  0.73990000  1.0 -0.4220694923
O  O187  1  0.53170000  0.53170000  0.53170000  1.0 -1.1204857234
O  O188  1  0.23990000  0.23990000  0.23990000  1.0 -0.4220694923
O  O189  1  0.03170000  0.96830000  0.46830000  1.0 -1.1204857234
O  O190  1  0.73990000  0.26010000  0.76010000  1.0 -0.4220694923
O  O191  1  0.46830000  0.03170000  0.96830000  1.0 -1.1204857234
O  O192  1  0.76010000  0.73990000  0.26010000  1.0 -0.4252074365
