# DDEC6 charges by PACMAN v1.1 (https://github.com/mtap-research/PACMAN-charge/)
data_DACPEG_ASR_pacman
_symmetry_space_group_name_H-M   'P 1'
_cell_length_a   23.72400000
_cell_length_b   23.72400000
_cell_length_c   23.72400000
_cell_angle_alpha   90.00000000
_cell_angle_beta   90.00000000
_cell_angle_gamma   90.00000000
_symmetry_Int_Tables_number   1
_chemical_formula_structural   Tb10Zn4H73Rh4C42S12(N4O13)3
_chemical_formula_sum   'Tb40 Zn16 H292 Rh16 C168 S48 N48 O156'
_cell_volume   13352.53564742
_cell_formula_units_Z   4
loop_
 _symmetry_equiv_pos_site_id
 _symmetry_equiv_pos_as_xyz
  1  'x, y, z'
loop_
 _atom_site_type_symbol
 _atom_site_label
 _atom_site_symmetry_multiplicity
 _atom_site_fract_x
 _atom_site_fract_y
 _atom_site_fract_z
 _atom_site_occupancy
 _atom_site_charge
Tb  Tb1  1  0.69159000  0.72396000  0.31985000  1.0 2.1141183662
Tb  Tb2  1  0.42460000  0.94930000  0.50540000  1.0 0.4829949873
Tb  Tb3  1  0.46510000  0.05050000  0.02320000  1.0 0.1400370626
Tb  Tb4  1  0.80841000  0.27604000  0.81985000  1.0 2.1141183662
Tb  Tb5  1  0.07540000  0.05070000  0.00540000  1.0 0.4829949873
Tb  Tb6  1  0.03490000  0.94950000  0.52320000  1.0 0.1400370626
Tb  Tb7  1  0.30841000  0.22396000  0.18015000  1.0 2.1141183662
Tb  Tb8  1  0.57540000  0.44930000  0.99460000  1.0 0.4829949873
Tb  Tb9  1  0.53490000  0.55050000  0.47680000  1.0 0.1400370626
Tb  Tb10  1  0.19159000  0.77604000  0.68015000  1.0 2.1141183662
Tb  Tb11  1  0.92460000  0.55070000  0.49460000  1.0 0.4829949873
Tb  Tb12  1  0.96510000  0.44950000  0.97680000  1.0 0.1300712039
Tb  Tb13  1  0.31985000  0.69159000  0.72396000  1.0 2.1141183662
Tb  Tb14  1  0.50540000  0.42460000  0.94930000  1.0 0.4829949873
Tb  Tb15  1  0.02320000  0.46510000  0.05050000  1.0 0.1400370626
Tb  Tb16  1  0.81985000  0.80841000  0.27604000  1.0 2.1141183662
Tb  Tb17  1  0.00540000  0.07540000  0.05070000  1.0 0.4829949873
Tb  Tb18  1  0.52320000  0.03490000  0.94950000  1.0 0.1300712039
Tb  Tb19  1  0.18015000  0.30841000  0.22396000  1.0 2.1141183662
Tb  Tb20  1  0.99460000  0.57540000  0.44930000  1.0 0.4829949873
Tb  Tb21  1  0.47680000  0.53490000  0.55050000  1.0 0.1400370626
Tb  Tb22  1  0.68015000  0.19159000  0.77604000  1.0 2.1141183662
Tb  Tb23  1  0.49460000  0.92460000  0.55070000  1.0 0.4829949873
Tb  Tb24  1  0.97680000  0.96510000  0.44950000  1.0 0.1300712039
Tb  Tb25  1  0.72396000  0.31985000  0.69159000  1.0 2.1141183662
Tb  Tb26  1  0.94930000  0.50540000  0.42460000  1.0 0.4829949873
Tb  Tb27  1  0.05050000  0.02320000  0.46510000  1.0 0.1400370626
Tb  Tb28  1  0.27604000  0.81985000  0.80841000  1.0 2.1141183662
Tb  Tb29  1  0.05070000  0.00540000  0.07540000  1.0 0.4829949873
Tb  Tb30  1  0.94950000  0.52320000  0.03490000  1.0 0.1400370626
Tb  Tb31  1  0.22396000  0.18015000  0.30841000  1.0 2.1141183662
Tb  Tb32  1  0.44930000  0.99460000  0.57540000  1.0 0.4829949873
Tb  Tb33  1  0.55050000  0.47680000  0.53490000  1.0 0.1400370626
Tb  Tb34  1  0.77604000  0.68015000  0.19159000  1.0 2.1141183662
Tb  Tb35  1  0.55070000  0.49460000  0.92460000  1.0 0.4829949873
Tb  Tb36  1  0.44950000  0.97680000  0.96510000  1.0 0.1400370626
Tb  Tb37  1  0.68687000  0.81313000  0.18687000  1.0 2.1655355382
Tb  Tb38  1  0.81313000  0.18687000  0.68687000  1.0 2.1655355382
Tb  Tb39  1  0.31313000  0.31313000  0.31313000  1.0 2.1655355382
Tb  Tb40  1  0.18687000  0.68687000  0.81313000  1.0 2.1655355382
Zn  Zn1  1  0.33163000  0.73392000  0.12503000  1.0 0.5378907013
Zn  Zn2  1  0.16837000  0.26608000  0.62503000  1.0 0.5378907013
Zn  Zn3  1  0.66837000  0.23392000  0.37497000  1.0 0.5378907013
Zn  Zn4  1  0.83163000  0.76608000  0.87497000  1.0 0.5378907013
Zn  Zn5  1  0.12503000  0.33163000  0.73392000  1.0 0.5378907013
Zn  Zn6  1  0.62503000  0.16837000  0.26608000  1.0 0.5378907013
Zn  Zn7  1  0.37497000  0.66837000  0.23392000  1.0 0.5378907013
Zn  Zn8  1  0.87497000  0.83163000  0.76608000  1.0 0.5378907013
Zn  Zn9  1  0.73392000  0.12503000  0.33163000  1.0 0.5378907013
Zn  Zn10  1  0.26608000  0.62503000  0.16837000  1.0 0.5378907013
Zn  Zn11  1  0.23392000  0.37497000  0.66837000  1.0 0.5378907013
Zn  Zn12  1  0.76608000  0.87497000  0.83163000  1.0 0.5378907013
Zn  Zn13  1  0.26035000  0.73965000  0.23965000  1.0 0.5338090012
Zn  Zn14  1  0.23965000  0.26035000  0.73965000  1.0 0.5338090012
Zn  Zn15  1  0.73965000  0.23965000  0.26035000  1.0 0.5338090012
Zn  Zn16  1  0.76035000  0.76035000  0.76035000  1.0 0.5338090012
H  H1  1  0.50453000  0.63517000  0.07218000  1.0 0.2682506256
H  H2  1  0.49672000  0.58993000  0.03053000  1.0 0.2871544945
H  H3  1  0.50031000  0.83330000  0.20961000  1.0 0.2682506256
H  H4  1  0.49531000  0.87317000  0.25675000  1.0 0.2765648204
H  H5  1  0.39806000  0.84347000  0.34757000  1.0 0.2617966148
H  H6  1  0.41705000  0.89711000  0.32307000  1.0 0.2617966148
H  H7  1  0.35622000  0.92089000  0.20236000  1.0 0.2439436602
H  H8  1  0.41414000  0.93369000  0.21982000  1.0 0.2682506256
H  H9  1  0.41499000  0.73515000  0.00099000  1.0 0.1400370626
H  H10  1  0.44559000  0.72601000  0.06058000  1.0 0.1170509791
H  H11  1  0.44518000  0.64455000  0.97078000  1.0 0.1003693684
H  H12  1  0.50290000  0.71177000  0.30094000  1.0 0.1300712039
H  H13  1  0.49401000  0.72606000  0.23544000  1.0 0.1170509791
H  H14  1  0.50561000  0.80804000  0.32284000  1.0 0.111353575
H  H15  1  0.25238000  0.86708000  0.32160000  1.0 0.1300712039
H  H16  1  0.29387000  0.81725000  0.34090000  1.0 0.1170509791
H  H17  1  0.33037000  0.92806000  0.30684000  1.0 0.1003693684
H  H18  1  0.40336000  0.85643000  0.07272000  1.0 0.1300712039
H  H19  1  0.34552000  0.86087000  0.10753000  1.0 0.1170509791
H  H20  1  0.45189000  0.90553000  0.14246000  1.0 0.0911108839
H  H21  1  0.65381000  0.69899000  0.20428000  1.0 0.4285580057
H  H22  1  0.60178000  0.55110000  0.26754000  1.0 0.1503962154
H  H23  1  0.62938000  0.55530000  0.20613000  1.0 0.1400370626
H  H24  1  0.65699000  0.51523000  0.25285000  1.0 0.1503962154
H  H25  1  0.99547000  0.36483000  0.57218000  1.0 0.2682506256
H  H26  1  0.00328000  0.41007000  0.53053000  1.0 0.2871544945
H  H27  1  0.99969000  0.16670000  0.70961000  1.0 0.2682506256
H  H28  1  0.00469000  0.12683000  0.75675000  1.0 0.2765648204
H  H29  1  0.10194000  0.15653000  0.84757000  1.0 0.2617966148
H  H30  1  0.08295000  0.10289000  0.82307000  1.0 0.2617966148
H  H31  1  0.14378000  0.07911000  0.70236000  1.0 0.2439436602
H  H32  1  0.08586000  0.06631000  0.71982000  1.0 0.2682506256
H  H33  1  0.08501000  0.26485000  0.50099000  1.0 0.1400370626
H  H34  1  0.05441000  0.27399000  0.56058000  1.0 0.1170509791
H  H35  1  0.05482000  0.35545000  0.47078000  1.0 0.1003693684
H  H36  1  0.99710000  0.28823000  0.80094000  1.0 0.1300712039
H  H37  1  0.00599000  0.27394000  0.73544000  1.0 0.1170509791
H  H38  1  0.99439000  0.19196000  0.82284000  1.0 0.111353575
H  H39  1  0.24762000  0.13292000  0.82160000  1.0 0.1300712039
H  H40  1  0.20613000  0.18275000  0.84090000  1.0 0.1170509791
H  H41  1  0.16963000  0.07194000  0.80684000  1.0 0.1003693684
H  H42  1  0.09664000  0.14357000  0.57272000  1.0 0.1300712039
H  H43  1  0.15448000  0.13913000  0.60753000  1.0 0.1170509791
H  H44  1  0.04811000  0.09447000  0.64246000  1.0 0.0911108839
H  H45  1  0.84619000  0.30101000  0.70428000  1.0 0.4285580057
H  H46  1  0.89822000  0.44890000  0.76754000  1.0 0.1503962154
H  H47  1  0.87062000  0.44470000  0.70613000  1.0 0.1400370626
H  H48  1  0.84301000  0.48477000  0.75285000  1.0 0.1503962154
H  H49  1  0.49547000  0.13517000  0.42782000  1.0 0.2682506256
H  H50  1  0.50328000  0.08993000  0.46947000  1.0 0.2871544945
H  H51  1  0.49969000  0.33333333  0.29039000  1.0 0.2682506256
H  H52  1  0.50469000  0.37317000  0.24325000  1.0 0.2765648204
H  H53  1  0.60194000  0.34347000  0.15243000  1.0 0.2617966148
H  H54  1  0.58295000  0.39711000  0.17693000  1.0 0.2617966148
H  H55  1  0.64378000  0.42089000  0.29764000  1.0 0.2439436602
H  H56  1  0.58586000  0.43369000  0.28018000  1.0 0.2682506256
H  H57  1  0.58501000  0.23515000  0.49901000  1.0 0.1400370626
H  H58  1  0.55441000  0.22601000  0.43942000  1.0 0.1170509791
H  H59  1  0.55482000  0.14455000  0.52922000  1.0 0.1003693684
H  H60  1  0.49710000  0.21177000  0.19906000  1.0 0.1300712039
H  H61  1  0.50599000  0.22606000  0.26456000  1.0 0.1170509791
H  H62  1  0.49439000  0.30804000  0.17716000  1.0 0.111353575
H  H63  1  0.74762000  0.36708000  0.17840000  1.0 0.1300712039
H  H64  1  0.70613000  0.31725000  0.15910000  1.0 0.1170509791
H  H65  1  0.66963000  0.42806000  0.19316000  1.0 0.1003693684
H  H66  1  0.59664000  0.35643000  0.42728000  1.0 0.1300712039
H  H67  1  0.65448000  0.36087000  0.39247000  1.0 0.1170509791
H  H68  1  0.54811000  0.40553000  0.35754000  1.0 0.0911108839
H  H69  1  0.34619000  0.19899000  0.29572000  1.0 0.4285580057
H  H70  1  0.39822000  0.05110000  0.23246000  1.0 0.1503962154
H  H71  1  0.37062000  0.05530000  0.29387000  1.0 0.1400370626
H  H72  1  0.34301000  0.01523000  0.24715000  1.0 0.1503962154
H  H73  1  0.00453000  0.86483000  0.92782000  1.0 0.2682506256
H  H74  1  0.99672000  0.91007000  0.96947000  1.0 0.2871544945
H  H75  1  0.00031000  0.66666667  0.79039000  1.0 0.2682506256
H  H76  1  0.99531000  0.62683000  0.74325000  1.0 0.2765648204
H  H77  1  0.89806000  0.65653000  0.65243000  1.0 0.2617966148
H  H78  1  0.91705000  0.60289000  0.67693000  1.0 0.2617966148
H  H79  1  0.85622000  0.57911000  0.79764000  1.0 0.2439436602
H  H80  1  0.91414000  0.56631000  0.78018000  1.0 0.2682506256
H  H81  1  0.91499000  0.76485000  0.99901000  1.0 0.1400370626
H  H82  1  0.94559000  0.77399000  0.93942000  1.0 0.1170509791
H  H83  1  0.94518000  0.85545000  0.02922000  1.0 0.1003693684
H  H84  1  0.00290000  0.78823000  0.69906000  1.0 0.1300712039
H  H85  1  0.99401000  0.77394000  0.76456000  1.0 0.1170509791
H  H86  1  0.00561000  0.69196000  0.67716000  1.0 0.111353575
H  H87  1  0.75238000  0.63292000  0.67840000  1.0 0.1300712039
H  H88  1  0.79387000  0.68275000  0.65910000  1.0 0.1170509791
H  H89  1  0.83037000  0.57194000  0.69316000  1.0 0.1003693684
H  H90  1  0.90336000  0.64357000  0.92728000  1.0 0.1300712039
H  H91  1  0.84552000  0.63913000  0.89247000  1.0 0.1170509791
H  H92  1  0.95189000  0.59447000  0.85754000  1.0 0.0911108839
H  H93  1  0.15381000  0.80101000  0.79572000  1.0 0.4285580057
H  H94  1  0.10178000  0.94890000  0.73246000  1.0 0.1503962154
H  H95  1  0.12938000  0.94470000  0.79387000  1.0 0.1400370626
H  H96  1  0.15699000  0.98477000  0.74715000  1.0 0.1503962154
H  H97  1  0.07218000  0.50453000  0.63517000  1.0 0.2682506256
H  H98  1  0.03053000  0.49672000  0.58993000  1.0 0.2871544945
H  H99  1  0.20961000  0.50031000  0.83330000  1.0 0.2682506256
H  H100  1  0.25675000  0.49531000  0.87317000  1.0 0.2765648204
H  H101  1  0.34757000  0.39806000  0.84347000  1.0 0.2617966148
H  H102  1  0.32307000  0.41705000  0.89711000  1.0 0.2617966148
H  H103  1  0.20236000  0.35622000  0.92089000  1.0 0.2439436602
H  H104  1  0.21982000  0.41414000  0.93369000  1.0 0.2682506256
H  H105  1  0.00099000  0.41499000  0.73515000  1.0 0.1400370626
H  H106  1  0.06058000  0.44559000  0.72601000  1.0 0.1170509791
H  H107  1  0.97078000  0.44518000  0.64455000  1.0 0.1003693684
H  H108  1  0.30094000  0.50290000  0.71177000  1.0 0.1300712039
H  H109  1  0.23544000  0.49401000  0.72606000  1.0 0.1170509791
H  H110  1  0.32284000  0.50561000  0.80804000  1.0 0.111353575
H  H111  1  0.32160000  0.25238000  0.86708000  1.0 0.1300712039
H  H112  1  0.34090000  0.29387000  0.81725000  1.0 0.1170509791
H  H113  1  0.30684000  0.33037000  0.92806000  1.0 0.1003693684
H  H114  1  0.07272000  0.40336000  0.85643000  1.0 0.1300712039
H  H115  1  0.10753000  0.34552000  0.86087000  1.0 0.1170509791
H  H116  1  0.14246000  0.45189000  0.90553000  1.0 0.0911108839
H  H117  1  0.20428000  0.65381000  0.69899000  1.0 0.4285580057
H  H118  1  0.26754000  0.60178000  0.55110000  1.0 0.1503962154
H  H119  1  0.20613000  0.62938000  0.55530000  1.0 0.1400370626
H  H120  1  0.25285000  0.65699000  0.51523000  1.0 0.1503962154
H  H121  1  0.57218000  0.99547000  0.36483000  1.0 0.2682506256
H  H122  1  0.53053000  0.00328000  0.41007000  1.0 0.2871544945
H  H123  1  0.70961000  0.99969000  0.16670000  1.0 0.2682506256
H  H124  1  0.75675000  0.00469000  0.12683000  1.0 0.2765648204
H  H125  1  0.84757000  0.10194000  0.15653000  1.0 0.2617966148
H  H126  1  0.82307000  0.08295000  0.10289000  1.0 0.2617966148
H  H127  1  0.70236000  0.14378000  0.07911000  1.0 0.2439436602
H  H128  1  0.71982000  0.08586000  0.06631000  1.0 0.2682506256
H  H129  1  0.50099000  0.08501000  0.26485000  1.0 0.1400370626
H  H130  1  0.56058000  0.05441000  0.27399000  1.0 0.1170509791
H  H131  1  0.47078000  0.05482000  0.35545000  1.0 0.1003693684
H  H132  1  0.80094000  0.99710000  0.28823000  1.0 0.1300712039
H  H133  1  0.73544000  0.00599000  0.27394000  1.0 0.1170509791
H  H134  1  0.82284000  0.99439000  0.19196000  1.0 0.111353575
H  H135  1  0.82160000  0.24762000  0.13292000  1.0 0.1300712039
H  H136  1  0.84090000  0.20613000  0.18275000  1.0 0.1170509791
H  H137  1  0.80684000  0.16963000  0.07194000  1.0 0.1003693684
H  H138  1  0.57272000  0.09664000  0.14357000  1.0 0.1300712039
H  H139  1  0.60753000  0.15448000  0.13913000  1.0 0.1170509791
H  H140  1  0.64246000  0.04811000  0.09447000  1.0 0.0911108839
H  H141  1  0.70428000  0.84619000  0.30101000  1.0 0.4285580057
H  H142  1  0.76754000  0.89822000  0.44890000  1.0 0.1503962154
H  H143  1  0.70613000  0.87062000  0.44470000  1.0 0.1400370626
H  H144  1  0.75285000  0.84301000  0.48477000  1.0 0.1503962154
H  H145  1  0.42782000  0.49547000  0.13517000  1.0 0.2682506256
H  H146  1  0.46947000  0.50328000  0.08993000  1.0 0.2871544945
H  H147  1  0.29039000  0.49969000  0.33333333  1.0 0.2682506256
H  H148  1  0.24325000  0.50469000  0.37317000  1.0 0.2765648204
H  H149  1  0.15243000  0.60194000  0.34347000  1.0 0.2617966148
H  H150  1  0.17693000  0.58295000  0.39711000  1.0 0.2617966148
H  H151  1  0.29764000  0.64378000  0.42089000  1.0 0.2439436602
H  H152  1  0.28018000  0.58586000  0.43369000  1.0 0.2682506256
H  H153  1  0.49901000  0.58501000  0.23515000  1.0 0.1400370626
H  H154  1  0.43942000  0.55441000  0.22601000  1.0 0.1170509791
H  H155  1  0.52922000  0.55482000  0.14455000  1.0 0.1003693684
H  H156  1  0.19906000  0.49710000  0.21177000  1.0 0.1300712039
H  H157  1  0.26456000  0.50599000  0.22606000  1.0 0.1170509791
H  H158  1  0.17716000  0.49439000  0.30804000  1.0 0.111353575
H  H159  1  0.17840000  0.74762000  0.36708000  1.0 0.1300712039
H  H160  1  0.15910000  0.70613000  0.31725000  1.0 0.1170509791
H  H161  1  0.19316000  0.66963000  0.42806000  1.0 0.1003693684
H  H162  1  0.42728000  0.59664000  0.35643000  1.0 0.1300712039
H  H163  1  0.39247000  0.65448000  0.36087000  1.0 0.1170509791
H  H164  1  0.35754000  0.54811000  0.40553000  1.0 0.0911108839
H  H165  1  0.29572000  0.34619000  0.19899000  1.0 0.4285580057
H  H166  1  0.23246000  0.39822000  0.05110000  1.0 0.1503962154
H  H167  1  0.29387000  0.37062000  0.05530000  1.0 0.1400370626
H  H168  1  0.24715000  0.34301000  0.01523000  1.0 0.1503962154
H  H169  1  0.92782000  0.00453000  0.86483000  1.0 0.2682506256
H  H170  1  0.96947000  0.99672000  0.91007000  1.0 0.2871544945
H  H171  1  0.79039000  0.00031000  0.66666667  1.0 0.2682506256
H  H172  1  0.74325000  0.99531000  0.62683000  1.0 0.2765648204
H  H173  1  0.65243000  0.89806000  0.65653000  1.0 0.2617966148
H  H174  1  0.67693000  0.91705000  0.60289000  1.0 0.2617966148
H  H175  1  0.79764000  0.85622000  0.57911000  1.0 0.2439436602
H  H176  1  0.78018000  0.91414000  0.56631000  1.0 0.2682506256
H  H177  1  0.99901000  0.91499000  0.76485000  1.0 0.1400370626
H  H178  1  0.93942000  0.94559000  0.77399000  1.0 0.1170509791
H  H179  1  0.02922000  0.94518000  0.85545000  1.0 0.1003693684
H  H180  1  0.69906000  0.00290000  0.78823000  1.0 0.1300712039
H  H181  1  0.76456000  0.99401000  0.77394000  1.0 0.1170509791
H  H182  1  0.67716000  0.00561000  0.69196000  1.0 0.111353575
H  H183  1  0.67840000  0.75238000  0.63292000  1.0 0.1300712039
H  H184  1  0.65910000  0.79387000  0.68275000  1.0 0.1170509791
H  H185  1  0.69316000  0.83037000  0.57194000  1.0 0.1003693684
H  H186  1  0.92728000  0.90336000  0.64357000  1.0 0.1300712039
H  H187  1  0.89247000  0.84552000  0.63913000  1.0 0.1170509791
H  H188  1  0.85754000  0.95189000  0.59447000  1.0 0.0911108839
H  H189  1  0.79572000  0.15381000  0.80101000  1.0 0.4285580057
H  H190  1  0.73246000  0.10178000  0.94890000  1.0 0.1503962154
H  H191  1  0.79387000  0.12938000  0.94470000  1.0 0.1400370626
H  H192  1  0.74715000  0.15699000  0.98477000  1.0 0.1503962154
H  H193  1  0.63517000  0.07218000  0.50453000  1.0 0.2682506256
H  H194  1  0.58993000  0.03053000  0.49672000  1.0 0.2871544945
H  H195  1  0.83330000  0.20961000  0.50031000  1.0 0.2682506256
H  H196  1  0.87317000  0.25675000  0.49531000  1.0 0.2765648204
H  H197  1  0.84347000  0.34757000  0.39806000  1.0 0.2617966148
H  H198  1  0.89711000  0.32307000  0.41705000  1.0 0.2617966148
H  H199  1  0.92089000  0.20236000  0.35622000  1.0 0.2439436602
H  H200  1  0.93369000  0.21982000  0.41414000  1.0 0.2682506256
H  H201  1  0.73515000  0.00099000  0.41499000  1.0 0.1400370626
H  H202  1  0.72601000  0.06058000  0.44559000  1.0 0.1170509791
H  H203  1  0.64455000  0.97078000  0.44518000  1.0 0.1003693684
H  H204  1  0.71177000  0.30094000  0.50290000  1.0 0.1300712039
H  H205  1  0.72606000  0.23544000  0.49401000  1.0 0.1170509791
H  H206  1  0.80804000  0.32284000  0.50561000  1.0 0.111353575
H  H207  1  0.86708000  0.32160000  0.25238000  1.0 0.1300712039
H  H208  1  0.81725000  0.34090000  0.29387000  1.0 0.1170509791
H  H209  1  0.92806000  0.30684000  0.33037000  1.0 0.1003693684
H  H210  1  0.85643000  0.07272000  0.40336000  1.0 0.1300712039
H  H211  1  0.86087000  0.10753000  0.34552000  1.0 0.1170509791
H  H212  1  0.90553000  0.14246000  0.45189000  1.0 0.0911108839
H  H213  1  0.69899000  0.20428000  0.65381000  1.0 0.4285580057
H  H214  1  0.55110000  0.26754000  0.60178000  1.0 0.1503962154
H  H215  1  0.55530000  0.20613000  0.62938000  1.0 0.1400370626
H  H216  1  0.51523000  0.25285000  0.65699000  1.0 0.1503962154
H  H217  1  0.36483000  0.57218000  0.99547000  1.0 0.2682506256
H  H218  1  0.41007000  0.53053000  0.00328000  1.0 0.2871544945
H  H219  1  0.16670000  0.70961000  0.99969000  1.0 0.2682506256
H  H220  1  0.12683000  0.75675000  0.00469000  1.0 0.2765648204
H  H221  1  0.15653000  0.84757000  0.10194000  1.0 0.2617966148
H  H222  1  0.10289000  0.82307000  0.08295000  1.0 0.2617966148
H  H223  1  0.07911000  0.70236000  0.14378000  1.0 0.2439436602
H  H224  1  0.06631000  0.71982000  0.08586000  1.0 0.2682506256
H  H225  1  0.26485000  0.50099000  0.08501000  1.0 0.1400370626
H  H226  1  0.27399000  0.56058000  0.05441000  1.0 0.1170509791
H  H227  1  0.35545000  0.47078000  0.05482000  1.0 0.1003693684
H  H228  1  0.28823000  0.80094000  0.99710000  1.0 0.1300712039
H  H229  1  0.27394000  0.73544000  0.00599000  1.0 0.1170509791
H  H230  1  0.19196000  0.82284000  0.99439000  1.0 0.111353575
H  H231  1  0.13292000  0.82160000  0.24762000  1.0 0.1300712039
H  H232  1  0.18275000  0.84090000  0.20613000  1.0 0.1170509791
H  H233  1  0.07194000  0.80684000  0.16963000  1.0 0.1003693684
H  H234  1  0.14357000  0.57272000  0.09664000  1.0 0.1300712039
H  H235  1  0.13913000  0.60753000  0.15448000  1.0 0.1170509791
H  H236  1  0.09447000  0.64246000  0.04811000  1.0 0.0911108839
H  H237  1  0.30101000  0.70428000  0.84619000  1.0 0.4285580057
H  H238  1  0.44890000  0.76754000  0.89822000  1.0 0.1503962154
H  H239  1  0.44470000  0.70613000  0.87062000  1.0 0.1400370626
H  H240  1  0.48477000  0.75285000  0.84301000  1.0 0.1503962154
H  H241  1  0.13517000  0.42782000  0.49547000  1.0 0.2682506256
H  H242  1  0.08993000  0.46947000  0.50328000  1.0 0.2871544945
H  H243  1  0.33333333  0.29039000  0.49969000  1.0 0.2682506256
H  H244  1  0.37317000  0.24325000  0.50469000  1.0 0.2765648204
H  H245  1  0.34347000  0.15243000  0.60194000  1.0 0.2617966148
H  H246  1  0.39711000  0.17693000  0.58295000  1.0 0.2617966148
H  H247  1  0.42089000  0.29764000  0.64378000  1.0 0.2439436602
H  H248  1  0.43369000  0.28018000  0.58586000  1.0 0.2682506256
H  H249  1  0.23515000  0.49901000  0.58501000  1.0 0.1400370626
H  H250  1  0.22601000  0.43942000  0.55441000  1.0 0.1170509791
H  H251  1  0.14455000  0.52922000  0.55482000  1.0 0.1003693684
H  H252  1  0.21177000  0.19906000  0.49710000  1.0 0.1300712039
H  H253  1  0.22606000  0.26456000  0.50599000  1.0 0.1170509791
H  H254  1  0.30804000  0.17716000  0.49439000  1.0 0.111353575
H  H255  1  0.36708000  0.17840000  0.74762000  1.0 0.1300712039
H  H256  1  0.31725000  0.15910000  0.70613000  1.0 0.1170509791
H  H257  1  0.42806000  0.19316000  0.66963000  1.0 0.1003693684
H  H258  1  0.35643000  0.42728000  0.59664000  1.0 0.1300712039
H  H259  1  0.36087000  0.39247000  0.65448000  1.0 0.1170509791
H  H260  1  0.40553000  0.35754000  0.54811000  1.0 0.0911108839
H  H261  1  0.19899000  0.29572000  0.34619000  1.0 0.4285580057
H  H262  1  0.05110000  0.23246000  0.39822000  1.0 0.1503962154
H  H263  1  0.05530000  0.29387000  0.37062000  1.0 0.1400370626
H  H264  1  0.01523000  0.24715000  0.34301000  1.0 0.1503962154
H  H265  1  0.86483000  0.92782000  0.00453000  1.0 0.2682506256
H  H266  1  0.91007000  0.96947000  0.99672000  1.0 0.2871544945
H  H267  1  0.66666667  0.79039000  0.00031000  1.0 0.2682506256
H  H268  1  0.62683000  0.74325000  0.99531000  1.0 0.2765648204
H  H269  1  0.65653000  0.65243000  0.89806000  1.0 0.2617966148
H  H270  1  0.60289000  0.67693000  0.91705000  1.0 0.2617966148
H  H271  1  0.57911000  0.79764000  0.85622000  1.0 0.2439436602
H  H272  1  0.56631000  0.78018000  0.91414000  1.0 0.2682506256
H  H273  1  0.76485000  0.99901000  0.91499000  1.0 0.1400370626
H  H274  1  0.77399000  0.93942000  0.94559000  1.0 0.1170509791
H  H275  1  0.85545000  0.02922000  0.94518000  1.0 0.1003693684
H  H276  1  0.78823000  0.69906000  0.00290000  1.0 0.1300712039
H  H277  1  0.77394000  0.76456000  0.99401000  1.0 0.1170509791
H  H278  1  0.69196000  0.67716000  0.00561000  1.0 0.111353575
H  H279  1  0.63292000  0.67840000  0.75238000  1.0 0.1300712039
H  H280  1  0.68275000  0.65910000  0.79387000  1.0 0.1170509791
H  H281  1  0.57194000  0.69316000  0.83037000  1.0 0.1003693684
H  H282  1  0.64357000  0.92728000  0.90336000  1.0 0.1300712039
H  H283  1  0.63913000  0.89247000  0.84552000  1.0 0.1170509791
H  H284  1  0.59447000  0.85754000  0.95189000  1.0 0.0911108839
H  H285  1  0.80101000  0.79572000  0.15381000  1.0 0.4285580057
H  H286  1  0.94890000  0.73246000  0.10178000  1.0 0.1503962154
H  H287  1  0.94470000  0.79387000  0.12938000  1.0 0.1400370626
H  H288  1  0.98477000  0.74715000  0.15699000  1.0 0.1503962154
H  H289  1  0.80792000  0.69208000  0.30792000  1.0 0.4595693188
H  H290  1  0.69208000  0.30792000  0.80792000  1.0 0.4595693188
H  H291  1  0.19208000  0.19208000  0.19208000  1.0 0.4595693188
H  H292  1  0.30792000  0.80792000  0.69208000  1.0 0.4595693188
Rh  Rh1  1  0.39735000  0.83097000  0.24133000  1.0 0.4669910508
Rh  Rh2  1  0.10265000  0.16903000  0.74133000  1.0 0.4669910508
Rh  Rh3  1  0.60265000  0.33097000  0.25867000  1.0 0.4669910508
Rh  Rh4  1  0.89735000  0.66903000  0.75867000  1.0 0.4669910508
Rh  Rh5  1  0.24133000  0.39735000  0.83097000  1.0 0.4669910508
Rh  Rh6  1  0.74133000  0.10265000  0.16903000  1.0 0.4669910508
Rh  Rh7  1  0.25867000  0.60265000  0.33097000  1.0 0.4669910508
Rh  Rh8  1  0.75867000  0.89735000  0.66903000  1.0 0.4669910508
Rh  Rh9  1  0.83097000  0.24133000  0.39735000  1.0 0.4669910508
Rh  Rh10  1  0.16903000  0.74133000  0.10265000  1.0 0.4669910508
Rh  Rh11  1  0.33097000  0.25867000  0.60265000  1.0 0.4669910508
Rh  Rh12  1  0.66903000  0.75867000  0.89735000  1.0 0.4669910508
Rh  Rh13  1  0.40850000  0.59150000  0.09150000  1.0 0.4480926159
Rh  Rh14  1  0.09150000  0.40850000  0.59150000  1.0 0.4480926159
Rh  Rh15  1  0.59150000  0.09150000  0.40850000  1.0 0.4480926159
Rh  Rh16  1  0.90850000  0.90850000  0.90850000  1.0 0.4480926159
C  C1  1  0.42600000  0.70650000  0.02930000  1.0 -0.213407057
C  C2  1  0.46530000  0.66360000  0.00250000  1.0 0.012779514
C  C3  1  0.51910000  0.69130000  0.97950000  1.0 0.4968031385
C  C4  1  0.48650000  0.73930000  0.27430000  1.0 -0.20084189
C  C5  1  0.51300000  0.79610000  0.28310000  1.0 0.0212028238
C  C6  1  0.57720000  0.79190000  0.27480000  1.0 0.6154503512
C  C7  1  0.29030000  0.85060000  0.31610000  1.0 -0.1924598825
C  C8  1  0.33540000  0.89390000  0.33100000  1.0 0.0296430898
C  C9  1  0.32950000  0.91060000  0.39320000  1.0 0.5224699962
C  C10  1  0.38700000  0.85800000  0.11110000  1.0 -0.1924598825
C  C11  1  0.40990000  0.90900000  0.14260000  1.0 0.0033636739
C  C12  1  0.39580000  0.96160000  0.11060000  1.0 0.5338090012
C  C13  1  0.67450000  0.60010000  0.26650000  1.0 0.7611083674
C  C14  1  0.63730000  0.55100000  0.24640000  1.0 -0.6015003534
C  C15  1  0.07400000  0.29350000  0.52930000  1.0 -0.213407057
C  C16  1  0.03470000  0.33640000  0.50250000  1.0 0.012779514
C  C17  1  0.98090000  0.30870000  0.47950000  1.0 0.4968031385
C  C18  1  0.01350000  0.26070000  0.77430000  1.0 -0.20084189
C  C19  1  0.98700000  0.20390000  0.78310000  1.0 0.0212028238
C  C20  1  0.92280000  0.20810000  0.77480000  1.0 0.6154503512
C  C21  1  0.20970000  0.14940000  0.81610000  1.0 -0.1924598825
C  C22  1  0.16460000  0.10610000  0.83100000  1.0 0.0296430898
C  C23  1  0.17050000  0.08940000  0.89320000  1.0 0.5224699962
C  C24  1  0.11300000  0.14200000  0.61110000  1.0 -0.1924598825
C  C25  1  0.09010000  0.09100000  0.64260000  1.0 0.0033636739
C  C26  1  0.10420000  0.03840000  0.61060000  1.0 0.5338090012
C  C27  1  0.82550000  0.39990000  0.76650000  1.0 0.7611083674
C  C28  1  0.86270000  0.44900000  0.74640000  1.0 -0.6015003534
C  C29  1  0.57400000  0.20650000  0.47070000  1.0 -0.213407057
C  C30  1  0.53470000  0.16360000  0.49750000  1.0 0.012779514
C  C31  1  0.48090000  0.19130000  0.52050000  1.0 0.4968031385
C  C32  1  0.51350000  0.23930000  0.22570000  1.0 -0.20084189
C  C33  1  0.48700000  0.29610000  0.21690000  1.0 0.0212028238
C  C34  1  0.42280000  0.29190000  0.22520000  1.0 0.6154503512
C  C35  1  0.70970000  0.35060000  0.18390000  1.0 -0.1924598825
C  C36  1  0.66460000  0.39390000  0.16900000  1.0 0.0296430898
C  C37  1  0.67050000  0.41060000  0.10680000  1.0 0.5224699962
C  C38  1  0.61300000  0.35800000  0.38890000  1.0 -0.1924598825
C  C39  1  0.59010000  0.40900000  0.35740000  1.0 0.0033636739
C  C40  1  0.60420000  0.46160000  0.38940000  1.0 0.5338090012
C  C41  1  0.32550000  0.10010000  0.23350000  1.0 0.7611083674
C  C42  1  0.36270000  0.05100000  0.25360000  1.0 -0.6015003534
C  C43  1  0.92600000  0.79350000  0.97070000  1.0 -0.213407057
C  C44  1  0.96530000  0.83640000  0.99750000  1.0 0.012779514
C  C45  1  0.01910000  0.80870000  0.02050000  1.0 0.4968031385
C  C46  1  0.98650000  0.76070000  0.72570000  1.0 -0.20084189
C  C47  1  0.01300000  0.70390000  0.71690000  1.0 0.0212028238
C  C48  1  0.07720000  0.70810000  0.72520000  1.0 0.6154503512
C  C49  1  0.79030000  0.64940000  0.68390000  1.0 -0.1924598825
C  C50  1  0.83540000  0.60610000  0.66900000  1.0 0.0296430898
C  C51  1  0.82950000  0.58940000  0.60680000  1.0 0.5224699962
C  C52  1  0.88700000  0.64200000  0.88890000  1.0 -0.1924598825
C  C53  1  0.90990000  0.59100000  0.85740000  1.0 0.0033636739
C  C54  1  0.89580000  0.53840000  0.88940000  1.0 0.5338090012
C  C55  1  0.17450000  0.89990000  0.73350000  1.0 0.7611083674
C  C56  1  0.13730000  0.94900000  0.75360000  1.0 -0.6015003534
C  C57  1  0.02930000  0.42600000  0.70650000  1.0 -0.213407057
C  C58  1  0.00250000  0.46530000  0.66360000  1.0 0.012779514
C  C59  1  0.97950000  0.51910000  0.69130000  1.0 0.4968031385
C  C60  1  0.27430000  0.48650000  0.73930000  1.0 -0.20084189
C  C61  1  0.28310000  0.51300000  0.79610000  1.0 0.0212028238
C  C62  1  0.27480000  0.57720000  0.79190000  1.0 0.6154503512
C  C63  1  0.31610000  0.29030000  0.85060000  1.0 -0.1924598825
C  C64  1  0.33100000  0.33540000  0.89390000  1.0 0.0296430898
C  C65  1  0.39320000  0.32950000  0.91060000  1.0 0.5224699962
C  C66  1  0.11110000  0.38700000  0.85800000  1.0 -0.1924598825
C  C67  1  0.14260000  0.40990000  0.90900000  1.0 0.0033636739
C  C68  1  0.11060000  0.39580000  0.96160000  1.0 0.5338090012
C  C69  1  0.26650000  0.67450000  0.60010000  1.0 0.7611083674
C  C70  1  0.24640000  0.63730000  0.55100000  1.0 -0.6015003534
C  C71  1  0.52930000  0.07400000  0.29350000  1.0 -0.213407057
C  C72  1  0.50250000  0.03470000  0.33640000  1.0 0.012779514
C  C73  1  0.47950000  0.98090000  0.30870000  1.0 0.4968031385
C  C74  1  0.77430000  0.01350000  0.26070000  1.0 -0.20084189
C  C75  1  0.78310000  0.98700000  0.20390000  1.0 0.0212028238
C  C76  1  0.77480000  0.92280000  0.20810000  1.0 0.6154503512
C  C77  1  0.81610000  0.20970000  0.14940000  1.0 -0.1924598825
C  C78  1  0.83100000  0.16460000  0.10610000  1.0 0.0296430898
C  C79  1  0.89320000  0.17050000  0.08940000  1.0 0.5224699962
C  C80  1  0.61110000  0.11300000  0.14200000  1.0 -0.1924598825
C  C81  1  0.64260000  0.09010000  0.09100000  1.0 0.0033636739
C  C82  1  0.61060000  0.10420000  0.03840000  1.0 0.5338090012
C  C83  1  0.76650000  0.82550000  0.39990000  1.0 0.7611083674
C  C84  1  0.74640000  0.86270000  0.44900000  1.0 -0.6015003534
C  C85  1  0.47070000  0.57400000  0.20650000  1.0 -0.213407057
C  C86  1  0.49750000  0.53470000  0.16360000  1.0 0.012779514
C  C87  1  0.52050000  0.48090000  0.19130000  1.0 0.4968031385
C  C88  1  0.22570000  0.51350000  0.23930000  1.0 -0.20084189
C  C89  1  0.21690000  0.48700000  0.29610000  1.0 0.0212028238
C  C90  1  0.22520000  0.42280000  0.29190000  1.0 0.6154503512
C  C91  1  0.18390000  0.70970000  0.35060000  1.0 -0.1924598825
C  C92  1  0.16900000  0.66460000  0.39390000  1.0 0.0296430898
C  C93  1  0.10680000  0.67050000  0.41060000  1.0 0.5224699962
C  C94  1  0.38890000  0.61300000  0.35800000  1.0 -0.1924598825
C  C95  1  0.35740000  0.59010000  0.40900000  1.0 0.0033636739
C  C96  1  0.38940000  0.60420000  0.46160000  1.0 0.5338090012
C  C97  1  0.23350000  0.32550000  0.10010000  1.0 0.7611083674
C  C98  1  0.25360000  0.36270000  0.05100000  1.0 -0.6015003534
C  C99  1  0.97070000  0.92600000  0.79350000  1.0 -0.213407057
C  C100  1  0.99750000  0.96530000  0.83640000  1.0 0.012779514
C  C101  1  0.02050000  0.01910000  0.80870000  1.0 0.4968031385
C  C102  1  0.72570000  0.98650000  0.76070000  1.0 -0.20084189
C  C103  1  0.71690000  0.01300000  0.70390000  1.0 0.0212028238
C  C104  1  0.72520000  0.07720000  0.70810000  1.0 0.6154503512
C  C105  1  0.68390000  0.79030000  0.64940000  1.0 -0.1924598825
C  C106  1  0.66900000  0.83540000  0.60610000  1.0 0.0296430898
C  C107  1  0.60680000  0.82950000  0.58940000  1.0 0.5224699962
C  C108  1  0.88890000  0.88700000  0.64200000  1.0 -0.1924598825
C  C109  1  0.85740000  0.90990000  0.59100000  1.0 0.0033636739
C  C110  1  0.88940000  0.89580000  0.53840000  1.0 0.5338090012
C  C111  1  0.73350000  0.17450000  0.89990000  1.0 0.7611083674
C  C112  1  0.75360000  0.13730000  0.94900000  1.0 -0.6015003534
C  C113  1  0.70650000  0.02930000  0.42600000  1.0 -0.213407057
C  C114  1  0.66360000  0.00250000  0.46530000  1.0 0.012779514
C  C115  1  0.69130000  0.97950000  0.51910000  1.0 0.4968031385
C  C116  1  0.73930000  0.27430000  0.48650000  1.0 -0.20084189
C  C117  1  0.79610000  0.28310000  0.51300000  1.0 0.0212028238
C  C118  1  0.79190000  0.27480000  0.57720000  1.0 0.6154503512
C  C119  1  0.85060000  0.31610000  0.29030000  1.0 -0.1924598825
C  C120  1  0.89390000  0.33100000  0.33540000  1.0 0.0296430898
C  C121  1  0.91060000  0.39320000  0.32950000  1.0 0.5224699962
C  C122  1  0.85800000  0.11110000  0.38700000  1.0 -0.1924598825
C  C123  1  0.90900000  0.14260000  0.40990000  1.0 0.0033636739
C  C124  1  0.96160000  0.11060000  0.39580000  1.0 0.5338090012
C  C125  1  0.60010000  0.26650000  0.67450000  1.0 0.7611083674
C  C126  1  0.55100000  0.24640000  0.63730000  1.0 -0.6015003534
C  C127  1  0.29350000  0.52930000  0.07400000  1.0 -0.213407057
C  C128  1  0.33640000  0.50250000  0.03470000  1.0 0.012779514
C  C129  1  0.30870000  0.47950000  0.98090000  1.0 0.4968031385
C  C130  1  0.26070000  0.77430000  0.01350000  1.0 -0.20084189
C  C131  1  0.20390000  0.78310000  0.98700000  1.0 0.0212028238
C  C132  1  0.20810000  0.77480000  0.92280000  1.0 0.6154503512
C  C133  1  0.14940000  0.81610000  0.20970000  1.0 -0.1924598825
C  C134  1  0.10610000  0.83100000  0.16460000  1.0 0.0296430898
C  C135  1  0.08940000  0.89320000  0.17050000  1.0 0.5224699962
C  C136  1  0.14200000  0.61110000  0.11300000  1.0 -0.1924598825
C  C137  1  0.09100000  0.64260000  0.09010000  1.0 0.0033636739
C  C138  1  0.03840000  0.61060000  0.10420000  1.0 0.5338090012
C  C139  1  0.39990000  0.76650000  0.82550000  1.0 0.7611083674
C  C140  1  0.44900000  0.74640000  0.86270000  1.0 -0.6015003534
C  C141  1  0.20650000  0.47070000  0.57400000  1.0 -0.213407057
C  C142  1  0.16360000  0.49750000  0.53470000  1.0 0.012779514
C  C143  1  0.19130000  0.52050000  0.48090000  1.0 0.4968031385
C  C144  1  0.23930000  0.22570000  0.51350000  1.0 -0.20084189
C  C145  1  0.29610000  0.21690000  0.48700000  1.0 0.0212028238
C  C146  1  0.29190000  0.22520000  0.42280000  1.0 0.6154503512
C  C147  1  0.35060000  0.18390000  0.70970000  1.0 -0.1924598825
C  C148  1  0.39390000  0.16900000  0.66460000  1.0 0.0296430898
C  C149  1  0.41060000  0.10680000  0.67050000  1.0 0.5224699962
C  C150  1  0.35800000  0.38890000  0.61300000  1.0 -0.1924598825
C  C151  1  0.40900000  0.35740000  0.59010000  1.0 0.0033636739
C  C152  1  0.46160000  0.38940000  0.60420000  1.0 0.5338090012
C  C153  1  0.10010000  0.23350000  0.32550000  1.0 0.7611083674
C  C154  1  0.05100000  0.25360000  0.36270000  1.0 -0.6015003534
C  C155  1  0.79350000  0.97070000  0.92600000  1.0 -0.213407057
C  C156  1  0.83640000  0.99750000  0.96530000  1.0 0.012779514
C  C157  1  0.80870000  0.02050000  0.01910000  1.0 0.4968031385
C  C158  1  0.76070000  0.72570000  0.98650000  1.0 -0.20084189
C  C159  1  0.70390000  0.71690000  0.01300000  1.0 0.0212028238
C  C160  1  0.70810000  0.72520000  0.07720000  1.0 0.6154503512
C  C161  1  0.64940000  0.68390000  0.79030000  1.0 -0.1924598825
C  C162  1  0.60610000  0.66900000  0.83540000  1.0 0.0296430898
C  C163  1  0.58940000  0.60680000  0.82950000  1.0 0.5224699962
C  C164  1  0.64200000  0.88890000  0.88700000  1.0 -0.1924598825
C  C165  1  0.59100000  0.85740000  0.90990000  1.0 0.0033636739
C  C166  1  0.53840000  0.88940000  0.89580000  1.0 0.5338090012
C  C167  1  0.89990000  0.73350000  0.17450000  1.0 0.7611083674
C  C168  1  0.94900000  0.75360000  0.13730000  1.0 -0.6015003534
S  S1  1  0.36351000  0.67105000  0.05595000  1.0 -0.2895558638
S  S2  1  0.40983000  0.74474000  0.28586000  1.0 -0.2961012659
S  S3  1  0.29915000  0.82970000  0.24314000  1.0 -0.2744484854
S  S4  1  0.40553000  0.79436000  0.14997000  1.0 -0.2895558638
S  S5  1  0.13649000  0.32895000  0.55595000  1.0 -0.2895558638
S  S6  1  0.09017000  0.25526000  0.78586000  1.0 -0.2961012659
S  S7  1  0.20085000  0.17030000  0.74314000  1.0 -0.2744484854
S  S8  1  0.09447000  0.20564000  0.64997000  1.0 -0.2895558638
S  S9  1  0.63649000  0.17105000  0.44405000  1.0 -0.2895558638
S  S10  1  0.59017000  0.24474000  0.21414000  1.0 -0.2961012659
S  S11  1  0.70085000  0.32970000  0.25686000  1.0 -0.2744484854
S  S12  1  0.59447000  0.29436000  0.35003000  1.0 -0.2895558638
S  S13  1  0.86351000  0.82895000  0.94405000  1.0 -0.2895558638
S  S14  1  0.90983000  0.75526000  0.71414000  1.0 -0.2961012659
S  S15  1  0.79915000  0.67030000  0.75686000  1.0 -0.2744484854
S  S16  1  0.90553000  0.70564000  0.85003000  1.0 -0.2895558638
S  S17  1  0.05595000  0.36351000  0.67105000  1.0 -0.2895558638
S  S18  1  0.28586000  0.40983000  0.74474000  1.0 -0.2961012659
S  S19  1  0.24314000  0.29915000  0.82970000  1.0 -0.2744484854
S  S20  1  0.14997000  0.40553000  0.79436000  1.0 -0.2895558638
S  S21  1  0.55595000  0.13649000  0.32895000  1.0 -0.2895558638
S  S22  1  0.78586000  0.09017000  0.25526000  1.0 -0.2961012659
S  S23  1  0.74314000  0.20085000  0.17030000  1.0 -0.2744484854
S  S24  1  0.64997000  0.09447000  0.20564000  1.0 -0.2895558638
S  S25  1  0.44405000  0.63649000  0.17105000  1.0 -0.2895558638
S  S26  1  0.21414000  0.59017000  0.24474000  1.0 -0.2961012659
S  S27  1  0.25686000  0.70085000  0.32970000  1.0 -0.2744484854
S  S28  1  0.35003000  0.59447000  0.29436000  1.0 -0.2895558638
S  S29  1  0.94405000  0.86351000  0.82895000  1.0 -0.2895558638
S  S30  1  0.71414000  0.90983000  0.75526000  1.0 -0.2961012659
S  S31  1  0.75686000  0.79915000  0.67030000  1.0 -0.2744484854
S  S32  1  0.85003000  0.90553000  0.70564000  1.0 -0.2895558638
S  S33  1  0.67105000  0.05595000  0.36351000  1.0 -0.2895558638
S  S34  1  0.74474000  0.28586000  0.40983000  1.0 -0.2961012659
S  S35  1  0.82970000  0.24314000  0.29915000  1.0 -0.2744484854
S  S36  1  0.79436000  0.14997000  0.40553000  1.0 -0.2895558638
S  S37  1  0.32895000  0.55595000  0.13649000  1.0 -0.2895558638
S  S38  1  0.25526000  0.78586000  0.09017000  1.0 -0.2961012659
S  S39  1  0.17030000  0.74314000  0.20085000  1.0 -0.2744484854
S  S40  1  0.20564000  0.64997000  0.09447000  1.0 -0.2895558638
S  S41  1  0.17105000  0.44405000  0.63649000  1.0 -0.2895558638
S  S42  1  0.24474000  0.21414000  0.59017000  1.0 -0.2961012659
S  S43  1  0.32970000  0.25686000  0.70085000  1.0 -0.2744484854
S  S44  1  0.29436000  0.35003000  0.59447000  1.0 -0.2895558638
S  S45  1  0.82895000  0.94405000  0.86351000  1.0 -0.2895558638
S  S46  1  0.75526000  0.71414000  0.90983000  1.0 -0.2961012659
S  S47  1  0.67030000  0.75686000  0.79915000  1.0 -0.2744484854
S  S48  1  0.70564000  0.85003000  0.90553000  1.0 -0.2895558638
N  N1  1  0.47960000  0.61990000  0.04730000  1.0 -0.4517555559
N  N2  1  0.48610000  0.83790000  0.24490000  1.0 -0.4517555559
N  N3  1  0.39060000  0.86950000  0.32040000  1.0 -0.4517555559
N  N4  1  0.39250000  0.90860000  0.20060000  1.0 -0.4643576853
N  N5  1  0.02040000  0.38010000  0.54730000  1.0 -0.4517555559
N  N6  1  0.01390000  0.16210000  0.74490000  1.0 -0.4517555559
N  N7  1  0.10940000  0.13050000  0.82040000  1.0 -0.4517555559
N  N8  1  0.10750000  0.09140000  0.70060000  1.0 -0.4643576853
N  N9  1  0.52040000  0.11990000  0.45270000  1.0 -0.4517555559
N  N10  1  0.51390000  0.33790000  0.25510000  1.0 -0.4517555559
N  N11  1  0.60940000  0.36950000  0.17960000  1.0 -0.4517555559
N  N12  1  0.60750000  0.40860000  0.29940000  1.0 -0.4643576853
N  N13  1  0.97960000  0.88010000  0.95270000  1.0 -0.4517555559
N  N14  1  0.98610000  0.66210000  0.75510000  1.0 -0.4517555559
N  N15  1  0.89060000  0.63050000  0.67960000  1.0 -0.4517555559
N  N16  1  0.89250000  0.59140000  0.79940000  1.0 -0.4643576853
N  N17  1  0.04730000  0.47960000  0.61990000  1.0 -0.4517555559
N  N18  1  0.24490000  0.48610000  0.83790000  1.0 -0.4517555559
N  N19  1  0.32040000  0.39060000  0.86950000  1.0 -0.4517555559
N  N20  1  0.20060000  0.39250000  0.90860000  1.0 -0.4643576853
N  N21  1  0.54730000  0.02040000  0.38010000  1.0 -0.4517555559
N  N22  1  0.74490000  0.01390000  0.16210000  1.0 -0.4517555559
N  N23  1  0.82040000  0.10940000  0.13050000  1.0 -0.4517555559
N  N24  1  0.70060000  0.10750000  0.09140000  1.0 -0.4643576853
N  N25  1  0.45270000  0.52040000  0.11990000  1.0 -0.4517555559
N  N26  1  0.25510000  0.51390000  0.33790000  1.0 -0.4517555559
N  N27  1  0.17960000  0.60940000  0.36950000  1.0 -0.4517555559
N  N28  1  0.29940000  0.60750000  0.40860000  1.0 -0.4643576853
N  N29  1  0.95270000  0.97960000  0.88010000  1.0 -0.4517555559
N  N30  1  0.75510000  0.98610000  0.66210000  1.0 -0.4517555559
N  N31  1  0.67960000  0.89060000  0.63050000  1.0 -0.4517555559
N  N32  1  0.79940000  0.89250000  0.59140000  1.0 -0.4643576853
N  N33  1  0.61990000  0.04730000  0.47960000  1.0 -0.4517555559
N  N34  1  0.83790000  0.24490000  0.48610000  1.0 -0.4517555559
N  N35  1  0.86950000  0.32040000  0.39060000  1.0 -0.4517555559
N  N36  1  0.90860000  0.20060000  0.39250000  1.0 -0.4643576853
N  N37  1  0.38010000  0.54730000  0.02040000  1.0 -0.4517555559
N  N38  1  0.16210000  0.74490000  0.01390000  1.0 -0.4517555559
N  N39  1  0.13050000  0.82040000  0.10940000  1.0 -0.4517555559
N  N40  1  0.09140000  0.70060000  0.10750000  1.0 -0.4643576853
N  N41  1  0.11990000  0.45270000  0.52040000  1.0 -0.4517555559
N  N42  1  0.33790000  0.25510000  0.51390000  1.0 -0.4517555559
N  N43  1  0.36950000  0.17960000  0.60940000  1.0 -0.4517555559
N  N44  1  0.40860000  0.29940000  0.60750000  1.0 -0.4643576853
N  N45  1  0.88010000  0.95270000  0.97960000  1.0 -0.4517555559
N  N46  1  0.66210000  0.75510000  0.98610000  1.0 -0.4517555559
N  N47  1  0.63050000  0.67960000  0.89060000  1.0 -0.4517555559
N  N48  1  0.59140000  0.79940000  0.89250000  1.0 -0.4643576853
O  O1  1  0.56420000  0.67950000  0.99830000  1.0 -0.4830732817
O  O2  1  0.51290000  0.72010000  0.93870000  1.0 -0.4749298828
O  O3  1  0.59740000  0.82020000  0.22970000  1.0 -0.7581656289
O  O4  1  0.60260000  0.76490000  0.30930000  1.0 -0.6277892006
O  O5  1  0.36660000  0.90740000  0.42470000  1.0 -0.4517555559
O  O6  1  0.28570000  0.93630000  0.40720000  1.0 -0.4307607127
O  O7  1  0.34530000  0.98710000  0.12970000  1.0 -0.4830732817
O  O8  1  0.40820000  0.97530000  0.06800000  1.0 -0.3912413207
O  O9  1  0.68680000  0.72110000  0.21840000  1.0 -1.1770112825
O  O10  1  0.65060000  0.63570000  0.30000000  1.0 -0.7171574843
O  O11  1  0.72210000  0.60360000  0.24150000  1.0 -0.7171574843
O  O12  1  0.45200000  0.96800000  0.45900000  1.0 -0.4942271473
O  O13  1  0.93580000  0.32050000  0.49830000  1.0 -0.4830732817
O  O14  1  0.98710000  0.27990000  0.43870000  1.0 -0.4749298828
O  O15  1  0.90260000  0.17980000  0.72970000  1.0 -0.7581656289
O  O16  1  0.89740000  0.23510000  0.80930000  1.0 -0.6277892006
O  O17  1  0.13340000  0.09260000  0.92470000  1.0 -0.4517555559
O  O18  1  0.21430000  0.06370000  0.90720000  1.0 -0.4307607127
O  O19  1  0.15470000  0.01290000  0.62970000  1.0 -0.4830732817
O  O20  1  0.09180000  0.02470000  0.56800000  1.0 -0.3912413207
O  O21  1  0.81320000  0.27890000  0.71840000  1.0 -1.1770112825
O  O22  1  0.84940000  0.36430000  0.80000000  1.0 -0.7171574843
O  O23  1  0.77790000  0.39640000  0.74150000  1.0 -0.7171574843
O  O24  1  0.04800000  0.03200000  0.95900000  1.0 -0.4942271473
O  O25  1  0.43580000  0.17950000  0.50170000  1.0 -0.4830732817
O  O26  1  0.48710000  0.22010000  0.56130000  1.0 -0.4749298828
O  O27  1  0.40260000  0.32020000  0.27030000  1.0 -0.7581656289
O  O28  1  0.39740000  0.26490000  0.19070000  1.0 -0.6277892006
O  O29  1  0.63340000  0.40740000  0.07530000  1.0 -0.4517555559
O  O30  1  0.71430000  0.43630000  0.09280000  1.0 -0.4307607127
O  O31  1  0.65470000  0.48710000  0.37030000  1.0 -0.4830732817
O  O32  1  0.59180000  0.47530000  0.43200000  1.0 -0.3912413207
O  O33  1  0.31320000  0.22110000  0.28160000  1.0 -1.1770112825
O  O34  1  0.34940000  0.13570000  0.20000000  1.0 -0.7171574843
O  O35  1  0.27790000  0.10360000  0.25850000  1.0 -0.7171574843
O  O36  1  0.54800000  0.46800000  0.04100000  1.0 -0.4942271473
O  O37  1  0.06420000  0.82050000  0.00170000  1.0 -0.4830732817
O  O38  1  0.01290000  0.77990000  0.06130000  1.0 -0.4749298828
O  O39  1  0.09740000  0.67980000  0.77030000  1.0 -0.7581656289
O  O40  1  0.10260000  0.73510000  0.69070000  1.0 -0.6277892006
O  O41  1  0.86660000  0.59260000  0.57530000  1.0 -0.4517555559
O  O42  1  0.78570000  0.56370000  0.59280000  1.0 -0.4307607127
O  O43  1  0.84530000  0.51290000  0.87030000  1.0 -0.4830732817
O  O44  1  0.90820000  0.52470000  0.93200000  1.0 -0.3912413207
O  O45  1  0.18680000  0.77890000  0.78160000  1.0 -1.1770112825
O  O46  1  0.15060000  0.86430000  0.70000000  1.0 -0.7171574843
O  O47  1  0.22210000  0.89640000  0.75850000  1.0 -0.7171574843
O  O48  1  0.95200000  0.53200000  0.54100000  1.0 -0.4942271473
O  O49  1  0.99830000  0.56420000  0.67950000  1.0 -0.4830732817
O  O50  1  0.93870000  0.51290000  0.72010000  1.0 -0.4749298828
O  O51  1  0.22970000  0.59740000  0.82020000  1.0 -0.7581656289
O  O52  1  0.30930000  0.60260000  0.76490000  1.0 -0.6277892006
O  O53  1  0.42470000  0.36660000  0.90740000  1.0 -0.4517555559
O  O54  1  0.40720000  0.28570000  0.93630000  1.0 -0.4307607127
O  O55  1  0.12970000  0.34530000  0.98710000  1.0 -0.4830732817
O  O56  1  0.06800000  0.40820000  0.97530000  1.0 -0.3912413207
O  O57  1  0.21840000  0.68680000  0.72110000  1.0 -1.1770112825
O  O58  1  0.30000000  0.65060000  0.63570000  1.0 -0.7171574843
O  O59  1  0.24150000  0.72210000  0.60360000  1.0 -0.7171574843
O  O60  1  0.45900000  0.45200000  0.96800000  1.0 -0.4942271473
O  O61  1  0.49830000  0.93580000  0.32050000  1.0 -0.4830732817
O  O62  1  0.43870000  0.98710000  0.27990000  1.0 -0.4749298828
O  O63  1  0.72970000  0.90260000  0.17980000  1.0 -0.7581656289
O  O64  1  0.80930000  0.89740000  0.23510000  1.0 -0.6277892006
O  O65  1  0.92470000  0.13340000  0.09260000  1.0 -0.4517555559
O  O66  1  0.90720000  0.21430000  0.06370000  1.0 -0.4307607127
O  O67  1  0.62970000  0.15470000  0.01290000  1.0 -0.4830732817
O  O68  1  0.56800000  0.09180000  0.02470000  1.0 -0.3912413207
O  O69  1  0.71840000  0.81320000  0.27890000  1.0 -1.1770112825
O  O70  1  0.80000000  0.84940000  0.36430000  1.0 -0.7171574843
O  O71  1  0.74150000  0.77790000  0.39640000  1.0 -0.7171574843
O  O72  1  0.95900000  0.04800000  0.03200000  1.0 -0.4942271473
O  O73  1  0.50170000  0.43580000  0.17950000  1.0 -0.4830732817
O  O74  1  0.56130000  0.48710000  0.22010000  1.0 -0.4749298828
O  O75  1  0.27030000  0.40260000  0.32020000  1.0 -0.7581656289
O  O76  1  0.19070000  0.39740000  0.26490000  1.0 -0.6277892006
O  O77  1  0.07530000  0.63340000  0.40740000  1.0 -0.4517555559
O  O78  1  0.09280000  0.71430000  0.43630000  1.0 -0.4307607127
O  O79  1  0.37030000  0.65470000  0.48710000  1.0 -0.4830732817
O  O80  1  0.43200000  0.59180000  0.47530000  1.0 -0.3912413207
O  O81  1  0.28160000  0.31320000  0.22110000  1.0 -1.1770112825
O  O82  1  0.20000000  0.34940000  0.13570000  1.0 -0.7171574843
O  O83  1  0.25850000  0.27790000  0.10360000  1.0 -0.7171574843
O  O84  1  0.04100000  0.54800000  0.46800000  1.0 -0.4942271473
O  O85  1  0.00170000  0.06420000  0.82050000  1.0 -0.4830732817
O  O86  1  0.06130000  0.01290000  0.77990000  1.0 -0.4749298828
O  O87  1  0.77030000  0.09740000  0.67980000  1.0 -0.7581656289
O  O88  1  0.69070000  0.10260000  0.73510000  1.0 -0.6277892006
O  O89  1  0.57530000  0.86660000  0.59260000  1.0 -0.4517555559
O  O90  1  0.59280000  0.78570000  0.56370000  1.0 -0.4307607127
O  O91  1  0.87030000  0.84530000  0.51290000  1.0 -0.4830732817
O  O92  1  0.93200000  0.90820000  0.52470000  1.0 -0.3912413207
O  O93  1  0.78160000  0.18680000  0.77890000  1.0 -1.1770112825
O  O94  1  0.70000000  0.15060000  0.86430000  1.0 -0.7171574843
O  O95  1  0.75850000  0.22210000  0.89640000  1.0 -0.7171574843
O  O96  1  0.54100000  0.95200000  0.53200000  1.0 -0.4942271473
O  O97  1  0.67950000  0.99830000  0.56420000  1.0 -0.4830732817
O  O98  1  0.72010000  0.93870000  0.51290000  1.0 -0.4749298828
O  O99  1  0.82020000  0.22970000  0.59740000  1.0 -0.7581656289
O  O100  1  0.76490000  0.30930000  0.60260000  1.0 -0.6277892006
O  O101  1  0.90740000  0.42470000  0.36660000  1.0 -0.4517555559
O  O102  1  0.93630000  0.40720000  0.28570000  1.0 -0.4307607127
O  O103  1  0.98710000  0.12970000  0.34530000  1.0 -0.4830732817
O  O104  1  0.97530000  0.06800000  0.40820000  1.0 -0.3912413207
O  O105  1  0.72110000  0.21840000  0.68680000  1.0 -1.1770112825
O  O106  1  0.63570000  0.30000000  0.65060000  1.0 -0.7171574843
O  O107  1  0.60360000  0.24150000  0.72210000  1.0 -0.7171574843
O  O108  1  0.96800000  0.45900000  0.45200000  1.0 -0.4942271473
O  O109  1  0.32050000  0.49830000  0.93580000  1.0 -0.4830732817
O  O110  1  0.27990000  0.43870000  0.98710000  1.0 -0.4749298828
O  O111  1  0.17980000  0.72970000  0.90260000  1.0 -0.7581656289
O  O112  1  0.23510000  0.80930000  0.89740000  1.0 -0.6277892006
O  O113  1  0.09260000  0.92470000  0.13340000  1.0 -0.4517555559
O  O114  1  0.06370000  0.90720000  0.21430000  1.0 -0.4307607127
O  O115  1  0.01290000  0.62970000  0.15470000  1.0 -0.4830732817
O  O116  1  0.02470000  0.56800000  0.09180000  1.0 -0.3912413207
O  O117  1  0.27890000  0.71840000  0.81320000  1.0 -1.1770112825
O  O118  1  0.36430000  0.80000000  0.84940000  1.0 -0.7171574843
O  O119  1  0.39640000  0.74150000  0.77790000  1.0 -0.7171574843
O  O120  1  0.03200000  0.95900000  0.04800000  1.0 -0.4942271473
O  O121  1  0.17950000  0.50170000  0.43580000  1.0 -0.4830732817
O  O122  1  0.22010000  0.56130000  0.48710000  1.0 -0.4749298828
O  O123  1  0.32020000  0.27030000  0.40260000  1.0 -0.7581656289
O  O124  1  0.26490000  0.19070000  0.39740000  1.0 -0.6277892006
O  O125  1  0.40740000  0.07530000  0.63340000  1.0 -0.4517555559
O  O126  1  0.43630000  0.09280000  0.71430000  1.0 -0.4307607127
O  O127  1  0.48710000  0.37030000  0.65470000  1.0 -0.4830732817
O  O128  1  0.47530000  0.43200000  0.59180000  1.0 -0.3912413207
O  O129  1  0.22110000  0.28160000  0.31320000  1.0 -1.1770112825
O  O130  1  0.13570000  0.20000000  0.34940000  1.0 -0.7171574843
O  O131  1  0.10360000  0.25850000  0.27790000  1.0 -0.7171574843
O  O132  1  0.46800000  0.04100000  0.54800000  1.0 -0.4942271473
O  O133  1  0.82050000  0.00170000  0.06420000  1.0 -0.4830732817
O  O134  1  0.77990000  0.06130000  0.01290000  1.0 -0.4749298828
O  O135  1  0.67980000  0.77030000  0.09740000  1.0 -0.7581656289
O  O136  1  0.73510000  0.69070000  0.10260000  1.0 -0.6277892006
O  O137  1  0.59260000  0.57530000  0.86660000  1.0 -0.4517555559
O  O138  1  0.56370000  0.59280000  0.78570000  1.0 -0.4307607127
O  O139  1  0.51290000  0.87030000  0.84530000  1.0 -0.4830732817
O  O140  1  0.52470000  0.93200000  0.90820000  1.0 -0.3912413207
O  O141  1  0.77890000  0.78160000  0.18680000  1.0 -1.1770112825
O  O142  1  0.86430000  0.70000000  0.15060000  1.0 -0.7171574843
O  O143  1  0.89640000  0.75850000  0.22210000  1.0 -0.7171574843
O  O144  1  0.53200000  0.54100000  0.95200000  1.0 -0.4942271473
O  O145  1  0.30740000  0.69260000  0.19260000  1.0 -0.8149817896
O  O146  1  0.19260000  0.30740000  0.69260000  1.0 -0.8149817896
O  O147  1  0.69260000  0.19260000  0.30740000  1.0 -0.8155048204
O  O148  1  0.80740000  0.80740000  0.80740000  1.0 -0.8155048204
O  O149  1  0.78360000  0.71640000  0.28360000  1.0 -1.2540006053
O  O150  1  0.49330000  0.00670000  0.99330000  1.0 -0.2385431615
O  O151  1  0.71640000  0.28360000  0.78360000  1.0 -1.2540006053
O  O152  1  0.00670000  0.99330000  0.49330000  1.0 -0.2385431615
O  O153  1  0.21640000  0.21640000  0.21640000  1.0 -1.2540006053
O  O154  1  0.50670000  0.50670000  0.50670000  1.0 -0.2385431615
O  O155  1  0.28360000  0.78360000  0.71640000  1.0 -1.2540006053
O  O156  1  0.99330000  0.49330000  0.00670000  1.0 -0.2385431615
