# DDEC6 charges by PACMAN v1.1 (https://github.com/mtap-research/PACMAN-charge/)
data_DACPOQ_ASR_pacman
_symmetry_space_group_name_H-M   'P 1'
_cell_length_a   23.79100000
_cell_length_b   23.79100000
_cell_length_c   23.79100000
_cell_angle_alpha   90.00000000
_cell_angle_beta   90.00000000
_cell_angle_gamma   90.00000000
_symmetry_Int_Tables_number   1
_chemical_formula_structural   Er10Zn4H73Rh4C42S12(N2O7)6
_chemical_formula_sum   'Er40 Zn16 H292 Rh16 C168 S48 N48 O168'
_cell_volume   13465.98390267
_cell_formula_units_Z   4
loop_
 _symmetry_equiv_pos_site_id
 _symmetry_equiv_pos_as_xyz
  1  'x, y, z'
loop_
 _atom_site_type_symbol
 _atom_site_label
 _atom_site_symmetry_multiplicity
 _atom_site_fract_x
 _atom_site_fract_y
 _atom_site_fract_z
 _atom_site_occupancy
 _atom_site_charge
Er  Er1  1  0.44041000  0.43350000  0.97912000  1.0 2.1219457539
Er  Er2  1  0.17622000  0.24324000  0.20260000  1.0 0.5475092979
Er  Er3  1  0.19920000  0.78060000  0.22610000  1.0 1.0431196443
Er  Er4  1  0.05959000  0.56650000  0.47912000  1.0 2.1219457539
Er  Er5  1  0.32378000  0.75676000  0.70260000  1.0 0.5475092979
Er  Er6  1  0.30080000  0.21940000  0.72610000  1.0 1.0473330702
Er  Er7  1  0.55959000  0.93350000  0.52088000  1.0 2.1219457539
Er  Er8  1  0.82378000  0.74324000  0.29740000  1.0 0.5475092979
Er  Er9  1  0.80080000  0.28060000  0.27390000  1.0 1.0473330702
Er  Er10  1  0.94041000  0.06650000  0.02088000  1.0 2.1219457539
Er  Er11  1  0.67622000  0.25676000  0.79740000  1.0 0.5475092979
Er  Er12  1  0.69920000  0.71940000  0.77390000  1.0 1.0473330702
Er  Er13  1  0.97912000  0.44041000  0.43350000  1.0 2.1219457539
Er  Er14  1  0.20260000  0.17622000  0.24324000  1.0 0.5475092979
Er  Er15  1  0.22610000  0.19920000  0.78060000  1.0 1.0473330702
Er  Er16  1  0.47912000  0.05959000  0.56650000  1.0 2.1219457539
Er  Er17  1  0.70260000  0.32378000  0.75676000  1.0 0.5475092979
Er  Er18  1  0.72610000  0.30080000  0.21940000  1.0 1.0473330702
Er  Er19  1  0.52088000  0.55959000  0.93350000  1.0 2.1219457539
Er  Er20  1  0.29740000  0.82378000  0.74324000  1.0 0.5475092979
Er  Er21  1  0.27390000  0.80080000  0.28060000  1.0 1.0431196443
Er  Er22  1  0.02088000  0.94041000  0.06650000  1.0 2.1219457539
Er  Er23  1  0.79740000  0.67622000  0.25676000  1.0 0.5475092979
Er  Er24  1  0.77390000  0.69920000  0.71940000  1.0 1.0473330702
Er  Er25  1  0.43350000  0.97912000  0.44041000  1.0 2.1219457539
Er  Er26  1  0.24324000  0.20260000  0.17622000  1.0 0.5475092979
Er  Er27  1  0.78060000  0.22610000  0.19920000  1.0 1.0473330702
Er  Er28  1  0.56650000  0.47912000  0.05959000  1.0 2.1219457539
Er  Er29  1  0.75676000  0.70260000  0.32378000  1.0 0.5475092979
Er  Er30  1  0.21940000  0.72610000  0.30080000  1.0 1.0431196443
Er  Er31  1  0.93350000  0.52088000  0.55959000  1.0 2.1219457539
Er  Er32  1  0.74324000  0.29740000  0.82378000  1.0 0.5475092979
Er  Er33  1  0.28060000  0.27390000  0.80080000  1.0 1.0473330702
Er  Er34  1  0.06650000  0.02088000  0.94041000  1.0 2.1219457539
Er  Er35  1  0.25676000  0.79740000  0.67622000  1.0 0.5475092979
Er  Er36  1  0.71940000  0.77390000  0.69920000  1.0 1.0473330702
Er  Er37  1  0.43484000  0.56516000  0.06516000  1.0 2.1503184589
Er  Er38  1  0.06516000  0.43484000  0.56516000  1.0 2.1503184589
Er  Er39  1  0.56516000  0.06516000  0.43484000  1.0 2.1503184589
Er  Er40  1  0.93484000  0.93484000  0.93484000  1.0 2.1503184589
Zn  Zn1  1  0.08103000  0.62599000  0.98273000  1.0 0.5368468317
Zn  Zn2  1  0.41897000  0.37401000  0.48273000  1.0 0.5368468317
Zn  Zn3  1  0.91897000  0.12599000  0.51727000  1.0 0.5368468317
Zn  Zn4  1  0.58103000  0.87401000  0.01727000  1.0 0.5368468317
Zn  Zn5  1  0.98273000  0.08103000  0.62599000  1.0 0.5368468317
Zn  Zn6  1  0.48273000  0.41897000  0.37401000  1.0 0.5368468317
Zn  Zn7  1  0.51727000  0.91897000  0.12599000  1.0 0.5368468317
Zn  Zn8  1  0.01727000  0.58103000  0.87401000  1.0 0.5368468317
Zn  Zn9  1  0.62599000  0.98273000  0.08103000  1.0 0.5368468317
Zn  Zn10  1  0.37401000  0.48273000  0.41897000  1.0 0.5368468317
Zn  Zn11  1  0.12599000  0.51727000  0.91897000  1.0 0.5368468317
Zn  Zn12  1  0.87401000  0.01727000  0.58103000  1.0 0.5368468317
Zn  Zn13  1  0.01111000  0.51111000  0.98889000  1.0 0.5304727109
Zn  Zn14  1  0.48889000  0.48889000  0.48889000  1.0 0.5304727109
Zn  Zn15  1  0.98889000  0.01111000  0.51111000  1.0 0.5304727109
Zn  Zn16  1  0.51111000  0.98889000  0.01111000  1.0 0.5304727109
H  H1  1  0.25570000  0.67821000  0.88369000  1.0 0.2629083348
H  H2  1  0.24631000  0.72167000  0.84083000  1.0 0.2774734015
H  H3  1  0.24938000  0.54547000  0.08424000  1.0 0.2691952166
H  H4  1  0.24504000  0.49914000  0.12497000  1.0 0.2691952166
H  H5  1  0.14832000  0.40554000  0.09301000  1.0 0.2691952166
H  H6  1  0.16779000  0.42943000  0.14663000  1.0 0.2691952166
H  H7  1  0.10455000  0.55038000  0.17138000  1.0 0.2540894153
H  H8  1  0.16225000  0.53318000  0.18494000  1.0 0.2774734015
H  H9  1  0.16686000  0.74720000  0.98604000  1.0 0.130178399
H  H10  1  0.19571000  0.68693000  0.97671000  1.0 0.1120563144
H  H11  1  0.19836000  0.77766000  0.89725000  1.0 0.1038107129
H  H12  1  0.25430000  0.45395000  0.96321000  1.0 0.130178399
H  H13  1  0.24418000  0.51915000  0.97763000  1.0 0.1120563144
H  H14  1  0.25483000  0.43179000  0.06025000  1.0 0.1120563144
H  H15  1  0.00247000  0.42865000  0.11511000  1.0 0.130178399
H  H16  1  0.04594000  0.41013000  0.06683000  1.0 0.1120563144
H  H17  1  0.07919000  0.44810000  0.17703000  1.0 0.0865260663
H  H18  1  0.14564000  0.68023000  0.10501000  1.0 0.130178399
H  H19  1  0.09112000  0.64094000  0.11108000  1.0 0.1120563144
H  H20  1  0.20077000  0.61441000  0.15659000  1.0 0.0835834818
H  H21  1  0.40203000  0.54646000  0.95161000  1.0 0.4209265264
H  H22  1  0.52727000  0.30427000  0.13893000  1.0 0.1626825335
H  H23  1  0.46240000  0.30386000  0.12113000  1.0 0.1513031891
H  H24  1  0.50732000  0.26881000  0.08537000  1.0 0.1513031891
H  H25  1  0.24430000  0.32179000  0.38369000  1.0 0.2629083348
H  H26  1  0.25369000  0.27833000  0.34083000  1.0 0.2774734015
H  H27  1  0.25062000  0.45453000  0.58424000  1.0 0.2691952166
H  H28  1  0.25496000  0.50086000  0.62497000  1.0 0.2691952166
H  H29  1  0.35168000  0.59446000  0.59301000  1.0 0.2691952166
H  H30  1  0.33221000  0.57057000  0.64663000  1.0 0.2691952166
H  H31  1  0.39545000  0.44962000  0.67138000  1.0 0.2540894153
H  H32  1  0.33775000  0.46682000  0.68494000  1.0 0.2774734015
H  H33  1  0.33314000  0.25280000  0.48604000  1.0 0.130178399
H  H34  1  0.30429000  0.31307000  0.47671000  1.0 0.1120563144
H  H35  1  0.30164000  0.22234000  0.39725000  1.0 0.1038107129
H  H36  1  0.24570000  0.54605000  0.46321000  1.0 0.130178399
H  H37  1  0.25582000  0.48085000  0.47763000  1.0 0.1120563144
H  H38  1  0.24517000  0.56821000  0.56025000  1.0 0.1120563144
H  H39  1  0.49753000  0.57135000  0.61511000  1.0 0.130178399
H  H40  1  0.45406000  0.58987000  0.56683000  1.0 0.1120563144
H  H41  1  0.42081000  0.55190000  0.67703000  1.0 0.0865260663
H  H42  1  0.35436000  0.31977000  0.60501000  1.0 0.130178399
H  H43  1  0.40888000  0.35906000  0.61108000  1.0 0.1120563144
H  H44  1  0.29923000  0.38559000  0.65659000  1.0 0.0835834818
H  H45  1  0.09797000  0.45354000  0.45161000  1.0 0.4209265264
H  H46  1  0.97273000  0.69573000  0.63893000  1.0 0.1626825335
H  H47  1  0.03760000  0.69614000  0.62113000  1.0 0.1513031891
H  H48  1  0.99268000  0.73119000  0.58537000  1.0 0.1513031891
H  H49  1  0.74430000  0.17821000  0.61631000  1.0 0.2629083348
H  H50  1  0.75369000  0.22167000  0.65917000  1.0 0.2774734015
H  H51  1  0.75062000  0.04547000  0.41576000  1.0 0.2691952166
H  H52  1  0.75496000  0.99914000  0.37503000  1.0 0.2691952166
H  H53  1  0.85168000  0.90554000  0.40699000  1.0 0.2691952166
H  H54  1  0.83221000  0.92943000  0.35337000  1.0 0.2691952166
H  H55  1  0.89545000  0.05038000  0.32862000  1.0 0.2540894153
H  H56  1  0.83775000  0.03318000  0.31506000  1.0 0.2774734015
H  H57  1  0.83314000  0.24720000  0.51396000  1.0 0.130178399
H  H58  1  0.80429000  0.18693000  0.52329000  1.0 0.1120563144
H  H59  1  0.80164000  0.27766000  0.60275000  1.0 0.1038107129
H  H60  1  0.74570000  0.95395000  0.53679000  1.0 0.130178399
H  H61  1  0.75582000  0.01915000  0.52237000  1.0 0.1120563144
H  H62  1  0.74517000  0.93179000  0.43975000  1.0 0.1120563144
H  H63  1  0.99753000  0.92865000  0.38489000  1.0 0.130178399
H  H64  1  0.95406000  0.91013000  0.43317000  1.0 0.1120563144
H  H65  1  0.92081000  0.94810000  0.32297000  1.0 0.0865260663
H  H66  1  0.85436000  0.18023000  0.39499000  1.0 0.130178399
H  H67  1  0.90888000  0.14094000  0.38892000  1.0 0.1120563144
H  H68  1  0.79923000  0.11441000  0.34341000  1.0 0.0835834818
H  H69  1  0.59797000  0.04646000  0.54839000  1.0 0.4209265264
H  H70  1  0.47273000  0.80427000  0.36107000  1.0 0.1626825335
H  H71  1  0.53760000  0.80386000  0.37887000  1.0 0.1513031891
H  H72  1  0.49268000  0.76881000  0.41463000  1.0 0.1513031891
H  H73  1  0.75570000  0.82179000  0.11631000  1.0 0.2629083348
H  H74  1  0.74631000  0.77833000  0.15917000  1.0 0.2774734015
H  H75  1  0.74938000  0.95453000  0.91576000  1.0 0.2691952166
H  H76  1  0.74504000  0.00086000  0.87503000  1.0 0.2691952166
H  H77  1  0.64832000  0.09446000  0.90699000  1.0 0.2691952166
H  H78  1  0.66779000  0.07057000  0.85337000  1.0 0.2691952166
H  H79  1  0.60455000  0.94962000  0.82862000  1.0 0.2540894153
H  H80  1  0.66225000  0.96682000  0.81506000  1.0 0.2774734015
H  H81  1  0.66686000  0.75280000  0.01396000  1.0 0.130178399
H  H82  1  0.69571000  0.81307000  0.02329000  1.0 0.1120563144
H  H83  1  0.69836000  0.72234000  0.10275000  1.0 0.1038107129
H  H84  1  0.75430000  0.04605000  0.03679000  1.0 0.130178399
H  H85  1  0.74418000  0.98085000  0.02237000  1.0 0.1120563144
H  H86  1  0.75483000  0.06821000  0.93975000  1.0 0.1120563144
H  H87  1  0.50247000  0.07135000  0.88489000  1.0 0.130178399
H  H88  1  0.54594000  0.08987000  0.93317000  1.0 0.1120563144
H  H89  1  0.57919000  0.05190000  0.82297000  1.0 0.0865260663
H  H90  1  0.64564000  0.81977000  0.89499000  1.0 0.130178399
H  H91  1  0.59112000  0.85906000  0.88892000  1.0 0.1120563144
H  H92  1  0.70077000  0.88559000  0.84341000  1.0 0.0835834818
H  H93  1  0.90203000  0.95354000  0.04839000  1.0 0.4209265264
H  H94  1  0.02727000  0.19573000  0.86107000  1.0 0.1626825335
H  H95  1  0.96240000  0.19614000  0.87887000  1.0 0.1513031891
H  H96  1  0.00732000  0.23119000  0.91463000  1.0 0.1513031891
H  H97  1  0.88369000  0.25570000  0.67821000  1.0 0.2629083348
H  H98  1  0.84083000  0.24631000  0.72167000  1.0 0.2774734015
H  H99  1  0.08424000  0.24938000  0.54547000  1.0 0.2691952166
H  H100  1  0.12497000  0.24504000  0.49914000  1.0 0.2691952166
H  H101  1  0.09301000  0.14832000  0.40554000  1.0 0.2691952166
H  H102  1  0.14663000  0.16779000  0.42943000  1.0 0.2691952166
H  H103  1  0.17138000  0.10455000  0.55038000  1.0 0.2540894153
H  H104  1  0.18494000  0.16225000  0.53318000  1.0 0.2774734015
H  H105  1  0.98604000  0.16686000  0.74720000  1.0 0.130178399
H  H106  1  0.97671000  0.19571000  0.68693000  1.0 0.1120563144
H  H107  1  0.89725000  0.19836000  0.77766000  1.0 0.1038107129
H  H108  1  0.96321000  0.25430000  0.45395000  1.0 0.130178399
H  H109  1  0.97763000  0.24418000  0.51915000  1.0 0.1120563144
H  H110  1  0.06025000  0.25483000  0.43179000  1.0 0.1120563144
H  H111  1  0.11511000  0.00247000  0.42865000  1.0 0.130178399
H  H112  1  0.06683000  0.04594000  0.41013000  1.0 0.1120563144
H  H113  1  0.17703000  0.07919000  0.44810000  1.0 0.0865260663
H  H114  1  0.10501000  0.14564000  0.68023000  1.0 0.130178399
H  H115  1  0.11108000  0.09112000  0.64094000  1.0 0.1120563144
H  H116  1  0.15659000  0.20077000  0.61441000  1.0 0.0835834818
H  H117  1  0.95161000  0.40203000  0.54646000  1.0 0.4209265264
H  H118  1  0.13893000  0.52727000  0.30427000  1.0 0.1626825335
H  H119  1  0.12113000  0.46240000  0.30386000  1.0 0.1513031891
H  H120  1  0.08537000  0.50732000  0.26881000  1.0 0.1513031891
H  H121  1  0.38369000  0.24430000  0.32179000  1.0 0.2629083348
H  H122  1  0.34083000  0.25369000  0.27833000  1.0 0.2774734015
H  H123  1  0.58424000  0.25062000  0.45453000  1.0 0.2691952166
H  H124  1  0.62497000  0.25496000  0.50086000  1.0 0.2691952166
H  H125  1  0.59301000  0.35168000  0.59446000  1.0 0.2691952166
H  H126  1  0.64663000  0.33221000  0.57057000  1.0 0.2691952166
H  H127  1  0.67138000  0.39545000  0.44962000  1.0 0.2540894153
H  H128  1  0.68494000  0.33775000  0.46682000  1.0 0.2774734015
H  H129  1  0.48604000  0.33314000  0.25280000  1.0 0.130178399
H  H130  1  0.47671000  0.30429000  0.31307000  1.0 0.1120563144
H  H131  1  0.39725000  0.30164000  0.22234000  1.0 0.1038107129
H  H132  1  0.46321000  0.24570000  0.54605000  1.0 0.130178399
H  H133  1  0.47763000  0.25582000  0.48085000  1.0 0.1120563144
H  H134  1  0.56025000  0.24517000  0.56821000  1.0 0.1120563144
H  H135  1  0.61511000  0.49753000  0.57135000  1.0 0.130178399
H  H136  1  0.56683000  0.45406000  0.58987000  1.0 0.1120563144
H  H137  1  0.67703000  0.42081000  0.55190000  1.0 0.0865260663
H  H138  1  0.60501000  0.35436000  0.31977000  1.0 0.130178399
H  H139  1  0.61108000  0.40888000  0.35906000  1.0 0.1120563144
H  H140  1  0.65659000  0.29923000  0.38559000  1.0 0.0835834818
H  H141  1  0.45161000  0.09797000  0.45354000  1.0 0.4209265264
H  H142  1  0.63893000  0.97273000  0.69573000  1.0 0.1626825335
H  H143  1  0.62113000  0.03760000  0.69614000  1.0 0.1513031891
H  H144  1  0.58537000  0.99268000  0.73119000  1.0 0.1513031891
H  H145  1  0.61631000  0.74430000  0.17821000  1.0 0.2629083348
H  H146  1  0.65917000  0.75369000  0.22167000  1.0 0.2774734015
H  H147  1  0.41576000  0.75062000  0.04547000  1.0 0.2691952166
H  H148  1  0.37503000  0.75496000  0.99914000  1.0 0.2691952166
H  H149  1  0.40699000  0.85168000  0.90554000  1.0 0.2691952166
H  H150  1  0.35337000  0.83221000  0.92943000  1.0 0.2691952166
H  H151  1  0.32862000  0.89545000  0.05038000  1.0 0.2540894153
H  H152  1  0.31506000  0.83775000  0.03318000  1.0 0.2774734015
H  H153  1  0.51396000  0.83314000  0.24720000  1.0 0.130178399
H  H154  1  0.52329000  0.80429000  0.18693000  1.0 0.1120563144
H  H155  1  0.60275000  0.80164000  0.27766000  1.0 0.1038107129
H  H156  1  0.53679000  0.74570000  0.95395000  1.0 0.130178399
H  H157  1  0.52237000  0.75582000  0.01915000  1.0 0.1120563144
H  H158  1  0.43975000  0.74517000  0.93179000  1.0 0.1120563144
H  H159  1  0.38489000  0.99753000  0.92865000  1.0 0.130178399
H  H160  1  0.43317000  0.95406000  0.91013000  1.0 0.1120563144
H  H161  1  0.32297000  0.92081000  0.94810000  1.0 0.0865260663
H  H162  1  0.39499000  0.85436000  0.18023000  1.0 0.130178399
H  H163  1  0.38892000  0.90888000  0.14094000  1.0 0.1120563144
H  H164  1  0.34341000  0.79923000  0.11441000  1.0 0.0835834818
H  H165  1  0.54839000  0.59797000  0.04646000  1.0 0.4209265264
H  H166  1  0.36107000  0.47273000  0.80427000  1.0 0.1626825335
H  H167  1  0.37887000  0.53760000  0.80386000  1.0 0.1513031891
H  H168  1  0.41463000  0.49268000  0.76881000  1.0 0.1513031891
H  H169  1  0.11631000  0.75570000  0.82179000  1.0 0.2629083348
H  H170  1  0.15917000  0.74631000  0.77833000  1.0 0.2774734015
H  H171  1  0.91576000  0.74938000  0.95453000  1.0 0.2691952166
H  H172  1  0.87503000  0.74504000  0.00086000  1.0 0.2691952166
H  H173  1  0.90699000  0.64832000  0.09446000  1.0 0.2691952166
H  H174  1  0.85337000  0.66779000  0.07057000  1.0 0.2691952166
H  H175  1  0.82862000  0.60455000  0.94962000  1.0 0.2540894153
H  H176  1  0.81506000  0.66225000  0.96682000  1.0 0.2774734015
H  H177  1  0.01396000  0.66686000  0.75280000  1.0 0.130178399
H  H178  1  0.02329000  0.69571000  0.81307000  1.0 0.1120563144
H  H179  1  0.10275000  0.69836000  0.72234000  1.0 0.1038107129
H  H180  1  0.03679000  0.75430000  0.04605000  1.0 0.130178399
H  H181  1  0.02237000  0.74418000  0.98085000  1.0 0.1120563144
H  H182  1  0.93975000  0.75483000  0.06821000  1.0 0.1120563144
H  H183  1  0.88489000  0.50247000  0.07135000  1.0 0.130178399
H  H184  1  0.93317000  0.54594000  0.08987000  1.0 0.1120563144
H  H185  1  0.82297000  0.57919000  0.05190000  1.0 0.0865260663
H  H186  1  0.89499000  0.64564000  0.81977000  1.0 0.130178399
H  H187  1  0.88892000  0.59112000  0.85906000  1.0 0.1120563144
H  H188  1  0.84341000  0.70077000  0.88559000  1.0 0.0835834818
H  H189  1  0.04839000  0.90203000  0.95354000  1.0 0.4209265264
H  H190  1  0.86107000  0.02727000  0.19573000  1.0 0.1626825335
H  H191  1  0.87887000  0.96240000  0.19614000  1.0 0.1513031891
H  H192  1  0.91463000  0.00732000  0.23119000  1.0 0.1513031891
H  H193  1  0.67821000  0.88369000  0.25570000  1.0 0.2629083348
H  H194  1  0.72167000  0.84083000  0.24631000  1.0 0.2774734015
H  H195  1  0.54547000  0.08424000  0.24938000  1.0 0.2691952166
H  H196  1  0.49914000  0.12497000  0.24504000  1.0 0.2691952166
H  H197  1  0.40554000  0.09301000  0.14832000  1.0 0.2691952166
H  H198  1  0.42943000  0.14663000  0.16779000  1.0 0.2691952166
H  H199  1  0.55038000  0.17138000  0.10455000  1.0 0.2540894153
H  H200  1  0.53318000  0.18494000  0.16225000  1.0 0.2774734015
H  H201  1  0.74720000  0.98604000  0.16686000  1.0 0.130178399
H  H202  1  0.68693000  0.97671000  0.19571000  1.0 0.1120563144
H  H203  1  0.77766000  0.89725000  0.19836000  1.0 0.1038107129
H  H204  1  0.45395000  0.96321000  0.25430000  1.0 0.130178399
H  H205  1  0.51915000  0.97763000  0.24418000  1.0 0.1120563144
H  H206  1  0.43179000  0.06025000  0.25483000  1.0 0.1120563144
H  H207  1  0.42865000  0.11511000  0.00247000  1.0 0.130178399
H  H208  1  0.41013000  0.06683000  0.04594000  1.0 0.1120563144
H  H209  1  0.44810000  0.17703000  0.07919000  1.0 0.0865260663
H  H210  1  0.68023000  0.10501000  0.14564000  1.0 0.130178399
H  H211  1  0.64094000  0.11108000  0.09112000  1.0 0.1120563144
H  H212  1  0.61441000  0.15659000  0.20077000  1.0 0.0835834818
H  H213  1  0.54646000  0.95161000  0.40203000  1.0 0.4209265264
H  H214  1  0.30427000  0.13893000  0.52727000  1.0 0.1626825335
H  H215  1  0.30386000  0.12113000  0.46240000  1.0 0.1513031891
H  H216  1  0.26881000  0.08537000  0.50732000  1.0 0.1513031891
H  H217  1  0.32179000  0.38369000  0.24430000  1.0 0.2629083348
H  H218  1  0.27833000  0.34083000  0.25369000  1.0 0.2774734015
H  H219  1  0.45453000  0.58424000  0.25062000  1.0 0.2691952166
H  H220  1  0.50086000  0.62497000  0.25496000  1.0 0.2691952166
H  H221  1  0.59446000  0.59301000  0.35168000  1.0 0.2691952166
H  H222  1  0.57057000  0.64663000  0.33221000  1.0 0.2691952166
H  H223  1  0.44962000  0.67138000  0.39545000  1.0 0.2540894153
H  H224  1  0.46682000  0.68494000  0.33775000  1.0 0.2774734015
H  H225  1  0.25280000  0.48604000  0.33314000  1.0 0.130178399
H  H226  1  0.31307000  0.47671000  0.30429000  1.0 0.1120563144
H  H227  1  0.22234000  0.39725000  0.30164000  1.0 0.1038107129
H  H228  1  0.54605000  0.46321000  0.24570000  1.0 0.130178399
H  H229  1  0.48085000  0.47763000  0.25582000  1.0 0.1120563144
H  H230  1  0.56821000  0.56025000  0.24517000  1.0 0.1120563144
H  H231  1  0.57135000  0.61511000  0.49753000  1.0 0.130178399
H  H232  1  0.58987000  0.56683000  0.45406000  1.0 0.1120563144
H  H233  1  0.55190000  0.67703000  0.42081000  1.0 0.0865260663
H  H234  1  0.31977000  0.60501000  0.35436000  1.0 0.130178399
H  H235  1  0.35906000  0.61108000  0.40888000  1.0 0.1120563144
H  H236  1  0.38559000  0.65659000  0.29923000  1.0 0.0835834818
H  H237  1  0.45354000  0.45161000  0.09797000  1.0 0.4209265264
H  H238  1  0.69573000  0.63893000  0.97273000  1.0 0.1626825335
H  H239  1  0.69614000  0.62113000  0.03760000  1.0 0.1513031891
H  H240  1  0.73119000  0.58537000  0.99268000  1.0 0.1513031891
H  H241  1  0.17821000  0.61631000  0.74430000  1.0 0.2629083348
H  H242  1  0.22167000  0.65917000  0.75369000  1.0 0.2774734015
H  H243  1  0.04547000  0.41576000  0.75062000  1.0 0.2691952166
H  H244  1  0.99914000  0.37503000  0.75496000  1.0 0.2691952166
H  H245  1  0.90554000  0.40699000  0.85168000  1.0 0.2691952166
H  H246  1  0.92943000  0.35337000  0.83221000  1.0 0.2691952166
H  H247  1  0.05038000  0.32862000  0.89545000  1.0 0.2540894153
H  H248  1  0.03318000  0.31506000  0.83775000  1.0 0.2774734015
H  H249  1  0.24720000  0.51396000  0.83314000  1.0 0.130178399
H  H250  1  0.18693000  0.52329000  0.80429000  1.0 0.1120563144
H  H251  1  0.27766000  0.60275000  0.80164000  1.0 0.1038107129
H  H252  1  0.95395000  0.53679000  0.74570000  1.0 0.130178399
H  H253  1  0.01915000  0.52237000  0.75582000  1.0 0.1120563144
H  H254  1  0.93179000  0.43975000  0.74517000  1.0 0.1120563144
H  H255  1  0.92865000  0.38489000  0.99753000  1.0 0.130178399
H  H256  1  0.91013000  0.43317000  0.95406000  1.0 0.1120563144
H  H257  1  0.94810000  0.32297000  0.92081000  1.0 0.0865260663
H  H258  1  0.18023000  0.39499000  0.85436000  1.0 0.130178399
H  H259  1  0.14094000  0.38892000  0.90888000  1.0 0.1120563144
H  H260  1  0.11441000  0.34341000  0.79923000  1.0 0.0835834818
H  H261  1  0.04646000  0.54839000  0.59797000  1.0 0.4209265264
H  H262  1  0.80427000  0.36107000  0.47273000  1.0 0.1626825335
H  H263  1  0.80386000  0.37887000  0.53760000  1.0 0.1513031891
H  H264  1  0.76881000  0.41463000  0.49268000  1.0 0.1513031891
H  H265  1  0.82179000  0.11631000  0.75570000  1.0 0.2629083348
H  H266  1  0.77833000  0.15917000  0.74631000  1.0 0.2774734015
H  H267  1  0.95453000  0.91576000  0.74938000  1.0 0.2691952166
H  H268  1  0.00086000  0.87503000  0.74504000  1.0 0.2691952166
H  H269  1  0.09446000  0.90699000  0.64832000  1.0 0.2691952166
H  H270  1  0.07057000  0.85337000  0.66779000  1.0 0.2691952166
H  H271  1  0.94962000  0.82862000  0.60455000  1.0 0.2540894153
H  H272  1  0.96682000  0.81506000  0.66225000  1.0 0.2774734015
H  H273  1  0.75280000  0.01396000  0.66686000  1.0 0.130178399
H  H274  1  0.81307000  0.02329000  0.69571000  1.0 0.1120563144
H  H275  1  0.72234000  0.10275000  0.69836000  1.0 0.1038107129
H  H276  1  0.04605000  0.03679000  0.75430000  1.0 0.130178399
H  H277  1  0.98085000  0.02237000  0.74418000  1.0 0.1120563144
H  H278  1  0.06821000  0.93975000  0.75483000  1.0 0.1120563144
H  H279  1  0.07135000  0.88489000  0.50247000  1.0 0.130178399
H  H280  1  0.08987000  0.93317000  0.54594000  1.0 0.1120563144
H  H281  1  0.05190000  0.82297000  0.57919000  1.0 0.0865260663
H  H282  1  0.81977000  0.89499000  0.64564000  1.0 0.130178399
H  H283  1  0.85906000  0.88892000  0.59112000  1.0 0.1120563144
H  H284  1  0.88559000  0.84341000  0.70077000  1.0 0.0835834818
H  H285  1  0.95354000  0.04839000  0.90203000  1.0 0.4209265264
H  H286  1  0.19573000  0.86107000  0.02727000  1.0 0.1626825335
H  H287  1  0.19614000  0.87887000  0.96240000  1.0 0.1513031891
H  H288  1  0.23119000  0.91463000  0.00732000  1.0 0.1513031891
H  H289  1  0.55430000  0.44570000  0.94570000  1.0 0.4320343586
H  H290  1  0.94570000  0.55430000  0.44570000  1.0 0.4320343586
H  H291  1  0.44570000  0.94570000  0.55430000  1.0 0.4320343586
H  H292  1  0.05430000  0.05430000  0.05430000  1.0 0.4320343586
Rh  Rh1  1  0.14705000  0.51168000  0.08185000  1.0 0.4656083437
Rh  Rh2  1  0.35295000  0.48832000  0.58185000  1.0 0.4625556535
Rh  Rh3  1  0.85295000  0.01168000  0.41815000  1.0 0.4656083437
Rh  Rh4  1  0.64705000  0.98832000  0.91815000  1.0 0.4625556535
Rh  Rh5  1  0.08185000  0.14705000  0.51168000  1.0 0.4656083437
Rh  Rh6  1  0.58185000  0.35295000  0.48832000  1.0 0.4656083437
Rh  Rh7  1  0.41815000  0.85295000  0.01168000  1.0 0.4656083437
Rh  Rh8  1  0.91815000  0.64705000  0.98832000  1.0 0.4625556535
Rh  Rh9  1  0.51168000  0.08185000  0.14705000  1.0 0.4656083437
Rh  Rh10  1  0.48832000  0.58185000  0.35295000  1.0 0.4656083437
Rh  Rh11  1  0.01168000  0.41815000  0.85295000  1.0 0.4625556535
Rh  Rh12  1  0.98832000  0.91815000  0.64705000  1.0 0.4625556535
Rh  Rh13  1  0.15905000  0.65905000  0.84095000  1.0 0.4625556535
Rh  Rh14  1  0.34095000  0.34095000  0.34095000  1.0 0.4625556535
Rh  Rh15  1  0.84095000  0.15905000  0.65905000  1.0 0.4625556535
Rh  Rh16  1  0.65905000  0.84095000  0.15905000  1.0 0.4625556535
C  C1  1  0.17730000  0.71890000  0.95740000  1.0 -0.2091372439
C  C2  1  0.21740000  0.74460000  0.91490000  1.0 0.0204664081
C  C3  1  0.27070000  0.76540000  0.94430000  1.0 0.4625556535
C  C4  1  0.23710000  0.48020000  0.99050000  1.0 -0.2091372439
C  C5  1  0.26240000  0.47140000  0.04830000  1.0 0.0204664081
C  C6  1  0.32670000  0.47990000  0.04420000  1.0 0.6159997932
C  C7  1  0.04060000  0.43500000  0.09980000  1.0 -0.1933066992
C  C8  1  0.08470000  0.42230000  0.14430000  1.0 0.0204664081
C  C9  1  0.07820000  0.36040000  0.16430000  1.0 0.5141903711
C  C10  1  0.13260000  0.64080000  0.10760000  1.0 -0.2040985336
C  C11  1  0.15890000  0.61230000  0.15920000  1.0 0.0204664081
C  C12  1  0.13880000  0.64450000  0.21210000  1.0 0.5841020794
C  C13  1  0.51100000  0.35390000  0.06990000  1.0 0.7579210999
C  C14  1  0.50110000  0.30320000  0.10710000  1.0 -0.5980139422
C  C15  1  0.32270000  0.28110000  0.45740000  1.0 -0.2091372439
C  C16  1  0.28260000  0.25540000  0.41490000  1.0 0.0204664081
C  C17  1  0.22930000  0.23460000  0.44430000  1.0 0.4625556535
C  C18  1  0.26290000  0.51980000  0.49050000  1.0 -0.2091372439
C  C19  1  0.23760000  0.52860000  0.54830000  1.0 0.0204664081
C  C20  1  0.17330000  0.52010000  0.54420000  1.0 0.6159997932
C  C21  1  0.45940000  0.56500000  0.59980000  1.0 -0.1933066992
C  C22  1  0.41530000  0.57770000  0.64430000  1.0 0.0204664081
C  C23  1  0.42180000  0.63960000  0.66430000  1.0 0.5141903711
C  C24  1  0.36740000  0.35920000  0.60760000  1.0 -0.2040985336
C  C25  1  0.34110000  0.38770000  0.65920000  1.0 0.0204664081
C  C26  1  0.36120000  0.35550000  0.71210000  1.0 0.5841020794
C  C27  1  0.98900000  0.64610000  0.56990000  1.0 0.7579210999
C  C28  1  0.99890000  0.69680000  0.60710000  1.0 -0.5980139422
C  C29  1  0.82270000  0.21890000  0.54260000  1.0 -0.2091372439
C  C30  1  0.78260000  0.24460000  0.58510000  1.0 0.0204664081
C  C31  1  0.72930000  0.26540000  0.55570000  1.0 0.4625556535
C  C32  1  0.76290000  0.98020000  0.50950000  1.0 -0.2091372439
C  C33  1  0.73760000  0.97140000  0.45170000  1.0 0.0204664081
C  C34  1  0.67330000  0.97990000  0.45580000  1.0 0.6159997932
C  C35  1  0.95940000  0.93500000  0.40020000  1.0 -0.1933066992
C  C36  1  0.91530000  0.92230000  0.35570000  1.0 0.0204664081
C  C37  1  0.92180000  0.86040000  0.33570000  1.0 0.5141903711
C  C38  1  0.86740000  0.14080000  0.39240000  1.0 -0.2040985336
C  C39  1  0.84110000  0.11230000  0.34080000  1.0 0.0204664081
C  C40  1  0.86120000  0.14450000  0.28790000  1.0 0.5841020794
C  C41  1  0.48900000  0.85390000  0.43010000  1.0 0.7579210999
C  C42  1  0.49890000  0.80320000  0.39290000  1.0 -0.5980139422
C  C43  1  0.67730000  0.78110000  0.04260000  1.0 -0.2091372439
C  C44  1  0.71740000  0.75540000  0.08510000  1.0 0.0204664081
C  C45  1  0.77070000  0.73460000  0.05570000  1.0 0.4625556535
C  C46  1  0.73710000  0.01980000  0.00950000  1.0 -0.2091372439
C  C47  1  0.76240000  0.02860000  0.95170000  1.0 0.0204664081
C  C48  1  0.82670000  0.02010000  0.95580000  1.0 0.6159997932
C  C49  1  0.54060000  0.06500000  0.90020000  1.0 -0.1933066992
C  C50  1  0.58470000  0.07770000  0.85570000  1.0 0.0204664081
C  C51  1  0.57820000  0.13960000  0.83570000  1.0 0.5141903711
C  C52  1  0.63260000  0.85920000  0.89240000  1.0 -0.2040985336
C  C53  1  0.65890000  0.88770000  0.84080000  1.0 0.0204664081
C  C54  1  0.63880000  0.85550000  0.78790000  1.0 0.5841020794
C  C55  1  0.01100000  0.14610000  0.93010000  1.0 0.7579210999
C  C56  1  0.00110000  0.19680000  0.89290000  1.0 -0.5980139422
C  C57  1  0.95740000  0.17730000  0.71890000  1.0 -0.2091372439
C  C58  1  0.91490000  0.21740000  0.74460000  1.0 0.0204664081
C  C59  1  0.94430000  0.27070000  0.76540000  1.0 0.4625556535
C  C60  1  0.99050000  0.23710000  0.48020000  1.0 -0.2091372439
C  C61  1  0.04830000  0.26240000  0.47140000  1.0 0.0204664081
C  C62  1  0.04420000  0.32670000  0.47990000  1.0 0.6159997932
C  C63  1  0.09980000  0.04060000  0.43500000  1.0 -0.1933066992
C  C64  1  0.14430000  0.08470000  0.42230000  1.0 0.0204664081
C  C65  1  0.16430000  0.07820000  0.36040000  1.0 0.5141903711
C  C66  1  0.10760000  0.13260000  0.64080000  1.0 -0.2040985336
C  C67  1  0.15920000  0.15890000  0.61230000  1.0 0.0204664081
C  C68  1  0.21210000  0.13880000  0.64450000  1.0 0.5841020794
C  C69  1  0.06990000  0.51100000  0.35390000  1.0 0.7579210999
C  C70  1  0.10710000  0.50110000  0.30320000  1.0 -0.5980139422
C  C71  1  0.45740000  0.32270000  0.28110000  1.0 -0.2091372439
C  C72  1  0.41490000  0.28260000  0.25540000  1.0 0.0204664081
C  C73  1  0.44430000  0.22930000  0.23460000  1.0 0.4625556535
C  C74  1  0.49050000  0.26290000  0.51980000  1.0 -0.2091372439
C  C75  1  0.54830000  0.23760000  0.52860000  1.0 0.0204664081
C  C76  1  0.54420000  0.17330000  0.52010000  1.0 0.6159997932
C  C77  1  0.59980000  0.45940000  0.56500000  1.0 -0.1933066992
C  C78  1  0.64430000  0.41530000  0.57770000  1.0 0.0204664081
C  C79  1  0.66430000  0.42180000  0.63960000  1.0 0.5141903711
C  C80  1  0.60760000  0.36740000  0.35920000  1.0 -0.2040985336
C  C81  1  0.65920000  0.34110000  0.38770000  1.0 0.0204664081
C  C82  1  0.71210000  0.36120000  0.35550000  1.0 0.5841020794
C  C83  1  0.56990000  0.98900000  0.64610000  1.0 0.7579210999
C  C84  1  0.60710000  0.99890000  0.69680000  1.0 -0.5980139422
C  C85  1  0.54260000  0.82270000  0.21890000  1.0 -0.2091372439
C  C86  1  0.58510000  0.78260000  0.24460000  1.0 0.0204664081
C  C87  1  0.55570000  0.72930000  0.26540000  1.0 0.4625556535
C  C88  1  0.50950000  0.76290000  0.98020000  1.0 -0.2091372439
C  C89  1  0.45170000  0.73760000  0.97140000  1.0 0.0204664081
C  C90  1  0.45580000  0.67330000  0.97990000  1.0 0.6159997932
C  C91  1  0.40020000  0.95940000  0.93500000  1.0 -0.1933066992
C  C92  1  0.35570000  0.91530000  0.92230000  1.0 0.0204664081
C  C93  1  0.33570000  0.92180000  0.86040000  1.0 0.5141903711
C  C94  1  0.39240000  0.86740000  0.14080000  1.0 -0.2040985336
C  C95  1  0.34080000  0.84110000  0.11230000  1.0 0.0204664081
C  C96  1  0.28790000  0.86120000  0.14450000  1.0 0.5841020794
C  C97  1  0.43010000  0.48900000  0.85390000  1.0 0.7579210999
C  C98  1  0.39290000  0.49890000  0.80320000  1.0 -0.5980139422
C  C99  1  0.04260000  0.67730000  0.78110000  1.0 -0.2091372439
C  C100  1  0.08510000  0.71740000  0.75540000  1.0 0.0204664081
C  C101  1  0.05570000  0.77070000  0.73460000  1.0 0.4625556535
C  C102  1  0.00950000  0.73710000  0.01980000  1.0 -0.2091372439
C  C103  1  0.95170000  0.76240000  0.02860000  1.0 0.0204664081
C  C104  1  0.95580000  0.82670000  0.02010000  1.0 0.6159997932
C  C105  1  0.90020000  0.54060000  0.06500000  1.0 -0.1933066992
C  C106  1  0.85570000  0.58470000  0.07770000  1.0 0.0204664081
C  C107  1  0.83570000  0.57820000  0.13960000  1.0 0.5141903711
C  C108  1  0.89240000  0.63260000  0.85920000  1.0 -0.2040985336
C  C109  1  0.84080000  0.65890000  0.88770000  1.0 0.0204664081
C  C110  1  0.78790000  0.63880000  0.85550000  1.0 0.5841020794
C  C111  1  0.93010000  0.01100000  0.14610000  1.0 0.7579210999
C  C112  1  0.89290000  0.00110000  0.19680000  1.0 -0.5980139422
C  C113  1  0.71890000  0.95740000  0.17730000  1.0 -0.2091372439
C  C114  1  0.74460000  0.91490000  0.21740000  1.0 0.0204664081
C  C115  1  0.76540000  0.94430000  0.27070000  1.0 0.4625556535
C  C116  1  0.48020000  0.99050000  0.23710000  1.0 -0.2091372439
C  C117  1  0.47140000  0.04830000  0.26240000  1.0 0.0204664081
C  C118  1  0.47990000  0.04420000  0.32670000  1.0 0.6159997932
C  C119  1  0.43500000  0.09980000  0.04060000  1.0 -0.1933066992
C  C120  1  0.42230000  0.14430000  0.08470000  1.0 0.0204664081
C  C121  1  0.36040000  0.16430000  0.07820000  1.0 0.5141903711
C  C122  1  0.64080000  0.10760000  0.13260000  1.0 -0.2040985336
C  C123  1  0.61230000  0.15920000  0.15890000  1.0 0.0204664081
C  C124  1  0.64450000  0.21210000  0.13880000  1.0 0.5841020794
C  C125  1  0.35390000  0.06990000  0.51100000  1.0 0.7579210999
C  C126  1  0.30320000  0.10710000  0.50110000  1.0 -0.5980139422
C  C127  1  0.28110000  0.45740000  0.32270000  1.0 -0.2091372439
C  C128  1  0.25540000  0.41490000  0.28260000  1.0 0.0204664081
C  C129  1  0.23460000  0.44430000  0.22930000  1.0 0.4625556535
C  C130  1  0.51980000  0.49050000  0.26290000  1.0 -0.2091372439
C  C131  1  0.52860000  0.54830000  0.23760000  1.0 0.0204664081
C  C132  1  0.52010000  0.54420000  0.17330000  1.0 0.6159997932
C  C133  1  0.56500000  0.59980000  0.45940000  1.0 -0.1933066992
C  C134  1  0.57770000  0.64430000  0.41530000  1.0 0.0204664081
C  C135  1  0.63960000  0.66430000  0.42180000  1.0 0.5141903711
C  C136  1  0.35920000  0.60760000  0.36740000  1.0 -0.2040985336
C  C137  1  0.38770000  0.65920000  0.34110000  1.0 0.0204664081
C  C138  1  0.35550000  0.71210000  0.36120000  1.0 0.5841020794
C  C139  1  0.64610000  0.56990000  0.98900000  1.0 0.7579210999
C  C140  1  0.69680000  0.60710000  0.99890000  1.0 -0.5980139422
C  C141  1  0.21890000  0.54260000  0.82270000  1.0 -0.2091372439
C  C142  1  0.24460000  0.58510000  0.78260000  1.0 0.0204664081
C  C143  1  0.26540000  0.55570000  0.72930000  1.0 0.4625556535
C  C144  1  0.98020000  0.50950000  0.76290000  1.0 -0.2091372439
C  C145  1  0.97140000  0.45170000  0.73760000  1.0 0.0204664081
C  C146  1  0.97990000  0.45580000  0.67330000  1.0 0.6159997932
C  C147  1  0.93500000  0.40020000  0.95940000  1.0 -0.1933066992
C  C148  1  0.92230000  0.35570000  0.91530000  1.0 0.0204664081
C  C149  1  0.86040000  0.33570000  0.92180000  1.0 0.5141903711
C  C150  1  0.14080000  0.39240000  0.86740000  1.0 -0.2040985336
C  C151  1  0.11230000  0.34080000  0.84110000  1.0 0.0204664081
C  C152  1  0.14450000  0.28790000  0.86120000  1.0 0.5841020794
C  C153  1  0.85390000  0.43010000  0.48900000  1.0 0.7579210999
C  C154  1  0.80320000  0.39290000  0.49890000  1.0 -0.5980139422
C  C155  1  0.78110000  0.04260000  0.67730000  1.0 -0.2091372439
C  C156  1  0.75540000  0.08510000  0.71740000  1.0 0.0204664081
C  C157  1  0.73460000  0.05570000  0.77070000  1.0 0.4625556535
C  C158  1  0.01980000  0.00950000  0.73710000  1.0 -0.2091372439
C  C159  1  0.02860000  0.95170000  0.76240000  1.0 0.0204664081
C  C160  1  0.02010000  0.95580000  0.82670000  1.0 0.6159997932
C  C161  1  0.06500000  0.90020000  0.54060000  1.0 -0.1933066992
C  C162  1  0.07770000  0.85570000  0.58470000  1.0 0.0204664081
C  C163  1  0.13960000  0.83570000  0.57820000  1.0 0.5141903711
C  C164  1  0.85920000  0.89240000  0.63260000  1.0 -0.2040985336
C  C165  1  0.88770000  0.84080000  0.65890000  1.0 0.0204664081
C  C166  1  0.85550000  0.78790000  0.63880000  1.0 0.5841020794
C  C167  1  0.14610000  0.93010000  0.01100000  1.0 0.7579210999
C  C168  1  0.19680000  0.89290000  0.00110000  1.0 -0.5980139422
S  S1  1  0.11447000  0.69450000  0.92045000  1.0 -0.2778093617
S  S2  1  0.16123000  0.46724000  0.99595000  1.0 -0.2969493243
S  S3  1  0.15360000  0.60194000  0.04474000  1.0 -0.2896735349
S  S4  1  0.04930000  0.50861000  0.07935000  1.0 -0.2896735349
S  S5  1  0.38553000  0.30550000  0.42045000  1.0 -0.2778093617
S  S6  1  0.33877000  0.53276000  0.49595000  1.0 -0.2969493243
S  S7  1  0.34640000  0.39806000  0.54474000  1.0 -0.2896735349
S  S8  1  0.45070000  0.49139000  0.57935000  1.0 -0.2896735349
S  S9  1  0.88553000  0.19450000  0.57955000  1.0 -0.2778093617
S  S10  1  0.83877000  0.96724000  0.50405000  1.0 -0.2969493243
S  S11  1  0.84640000  0.10194000  0.45526000  1.0 -0.2896735349
S  S12  1  0.95070000  0.00861000  0.42065000  1.0 -0.2778093617
S  S13  1  0.61447000  0.80550000  0.07955000  1.0 -0.2778093617
S  S14  1  0.66123000  0.03276000  0.00405000  1.0 -0.2969493243
S  S15  1  0.65360000  0.89806000  0.95526000  1.0 -0.2896735349
S  S16  1  0.54930000  0.99139000  0.92065000  1.0 -0.2896735349
S  S17  1  0.92045000  0.11447000  0.69450000  1.0 -0.2778093617
S  S18  1  0.99595000  0.16123000  0.46724000  1.0 -0.2969493243
S  S19  1  0.04474000  0.15360000  0.60194000  1.0 -0.2896735349
S  S20  1  0.07935000  0.04930000  0.50861000  1.0 -0.2896735349
S  S21  1  0.42045000  0.38553000  0.30550000  1.0 -0.2778093617
S  S22  1  0.49595000  0.33877000  0.53276000  1.0 -0.2969493243
S  S23  1  0.54474000  0.34640000  0.39806000  1.0 -0.2896735349
S  S24  1  0.57935000  0.45070000  0.49139000  1.0 -0.2896735349
S  S25  1  0.57955000  0.88553000  0.19450000  1.0 -0.2778093617
S  S26  1  0.50405000  0.83877000  0.96724000  1.0 -0.2969493243
S  S27  1  0.45526000  0.84640000  0.10194000  1.0 -0.2896735349
S  S28  1  0.42065000  0.95070000  0.00861000  1.0 -0.2896735349
S  S29  1  0.07955000  0.61447000  0.80550000  1.0 -0.2778093617
S  S30  1  0.00405000  0.66123000  0.03276000  1.0 -0.2969493243
S  S31  1  0.95526000  0.65360000  0.89806000  1.0 -0.2896735349
S  S32  1  0.92065000  0.54930000  0.99139000  1.0 -0.2896735349
S  S33  1  0.69450000  0.92045000  0.11447000  1.0 -0.2778093617
S  S34  1  0.46724000  0.99595000  0.16123000  1.0 -0.2969493243
S  S35  1  0.60194000  0.04474000  0.15360000  1.0 -0.2896735349
S  S36  1  0.50861000  0.07935000  0.04930000  1.0 -0.2896735349
S  S37  1  0.30550000  0.42045000  0.38553000  1.0 -0.2778093617
S  S38  1  0.53276000  0.49595000  0.33877000  1.0 -0.2969493243
S  S39  1  0.39806000  0.54474000  0.34640000  1.0 -0.2896735349
S  S40  1  0.49139000  0.57935000  0.45070000  1.0 -0.2896735349
S  S41  1  0.19450000  0.57955000  0.88553000  1.0 -0.2778093617
S  S42  1  0.96724000  0.50405000  0.83877000  1.0 -0.2969493243
S  S43  1  0.10194000  0.45526000  0.84640000  1.0 -0.2896735349
S  S44  1  0.00861000  0.42065000  0.95070000  1.0 -0.2896735349
S  S45  1  0.80550000  0.07955000  0.61447000  1.0 -0.2778093617
S  S46  1  0.03276000  0.00405000  0.66123000  1.0 -0.2969493243
S  S47  1  0.89806000  0.95526000  0.65360000  1.0 -0.2896735349
S  S48  1  0.99139000  0.92065000  0.54930000  1.0 -0.2896735349
N  N1  1  0.23020000  0.70340000  0.87030000  1.0 -0.4377288704
N  N2  1  0.23570000  0.51010000  0.08950000  1.0 -0.4610930381
N  N3  1  0.14120000  0.43240000  0.11930000  1.0 -0.4659567473
N  N4  1  0.14090000  0.55220000  0.15950000  1.0 -0.476788923
N  N5  1  0.26980000  0.29660000  0.37030000  1.0 -0.4377288704
N  N6  1  0.26430000  0.48990000  0.58950000  1.0 -0.4610930381
N  N7  1  0.35880000  0.56760000  0.61930000  1.0 -0.4659567473
N  N8  1  0.35910000  0.44780000  0.65950000  1.0 -0.476788923
N  N9  1  0.76980000  0.20340000  0.62970000  1.0 -0.4377288704
N  N10  1  0.76430000  0.01010000  0.41050000  1.0 -0.4610930381
N  N11  1  0.85880000  0.93240000  0.38070000  1.0 -0.4659567473
N  N12  1  0.85910000  0.05220000  0.34050000  1.0 -0.476788923
N  N13  1  0.73020000  0.79660000  0.12970000  1.0 -0.4377288704
N  N14  1  0.73570000  0.98990000  0.91050000  1.0 -0.4610930381
N  N15  1  0.64120000  0.06760000  0.88070000  1.0 -0.4659567473
N  N16  1  0.64090000  0.94780000  0.84050000  1.0 -0.476788923
N  N17  1  0.87030000  0.23020000  0.70340000  1.0 -0.4377288704
N  N18  1  0.08950000  0.23570000  0.51010000  1.0 -0.4610930381
N  N19  1  0.11930000  0.14120000  0.43240000  1.0 -0.4659567473
N  N20  1  0.15950000  0.14090000  0.55220000  1.0 -0.476788923
N  N21  1  0.37030000  0.26980000  0.29660000  1.0 -0.4377288704
N  N22  1  0.58950000  0.26430000  0.48990000  1.0 -0.4610930381
N  N23  1  0.61930000  0.35880000  0.56760000  1.0 -0.4659567473
N  N24  1  0.65950000  0.35910000  0.44780000  1.0 -0.476788923
N  N25  1  0.62970000  0.76980000  0.20340000  1.0 -0.4377288704
N  N26  1  0.41050000  0.76430000  0.01010000  1.0 -0.4610930381
N  N27  1  0.38070000  0.85880000  0.93240000  1.0 -0.4659567473
N  N28  1  0.34050000  0.85910000  0.05220000  1.0 -0.476788923
N  N29  1  0.12970000  0.73020000  0.79660000  1.0 -0.4377288704
N  N30  1  0.91050000  0.73570000  0.98990000  1.0 -0.4610930381
N  N31  1  0.88070000  0.64120000  0.06760000  1.0 -0.4659567473
N  N32  1  0.84050000  0.64090000  0.94780000  1.0 -0.476788923
N  N33  1  0.70340000  0.87030000  0.23020000  1.0 -0.4377288704
N  N34  1  0.51010000  0.08950000  0.23570000  1.0 -0.4610930381
N  N35  1  0.43240000  0.11930000  0.14120000  1.0 -0.4659567473
N  N36  1  0.55220000  0.15950000  0.14090000  1.0 -0.476788923
N  N37  1  0.29660000  0.37030000  0.26980000  1.0 -0.4377288704
N  N38  1  0.48990000  0.58950000  0.26430000  1.0 -0.4610930381
N  N39  1  0.56760000  0.61930000  0.35880000  1.0 -0.4659567473
N  N40  1  0.44780000  0.65950000  0.35910000  1.0 -0.476788923
N  N41  1  0.20340000  0.62970000  0.76980000  1.0 -0.4377288704
N  N42  1  0.01010000  0.41050000  0.76430000  1.0 -0.4610930381
N  N43  1  0.93240000  0.38070000  0.85880000  1.0 -0.4659567473
N  N44  1  0.05220000  0.34050000  0.85910000  1.0 -0.476788923
N  N45  1  0.79660000  0.12970000  0.73020000  1.0 -0.4377288704
N  N46  1  0.98990000  0.91050000  0.73570000  1.0 -0.4610930381
N  N47  1  0.06760000  0.88070000  0.64120000  1.0 -0.4659567473
N  N48  1  0.94780000  0.84050000  0.64090000  1.0 -0.476788923
O  O1  1  0.31520000  0.75060000  0.93130000  1.0 -0.4038357584
O  O2  1  0.26740000  0.80470000  0.97380000  1.0 -0.4377288704
O  O3  1  0.34780000  0.52450000  0.06870000  1.0 -0.7375689942
O  O4  1  0.35230000  0.44650000  0.01740000  1.0 -0.6152214853
O  O5  1  0.09990000  0.62630000  0.23840000  1.0 -0.4610930381
O  O6  1  0.16470000  0.69050000  0.22030000  1.0 -0.6268853593
O  O7  1  0.12090000  0.33000000  0.16150000  1.0 -0.5124448387
O  O8  1  0.03610000  0.34880000  0.18910000  1.0 -0.4342540377
O  O9  1  0.43520000  0.53310000  0.97370000  1.0 -1.1847586084
O  O10  1  0.48270000  0.36150000  0.02690000  1.0 -0.6658759264
O  O11  1  0.54730000  0.39380000  0.09970000  1.0 -0.819283448
O  O12  1  0.19450000  0.29490000  0.25260000  1.0 -0.5124448387
O  O13  1  0.20780000  0.84880000  0.26040000  1.0 -0.6890695639
O  O14  1  0.18480000  0.24940000  0.43130000  1.0 -0.4038357584
O  O15  1  0.23260000  0.19530000  0.47380000  1.0 -0.4377288704
O  O16  1  0.15220000  0.47550000  0.56870000  1.0 -0.7375689942
O  O17  1  0.14770000  0.55350000  0.51740000  1.0 -0.6152214853
O  O18  1  0.40010000  0.37370000  0.73840000  1.0 -0.4610930381
O  O19  1  0.33530000  0.30950000  0.72030000  1.0 -0.6268853593
O  O20  1  0.37910000  0.67000000  0.66150000  1.0 -0.5124448387
O  O21  1  0.46390000  0.65120000  0.68910000  1.0 -0.4342540377
O  O22  1  0.06480000  0.46690000  0.47370000  1.0 -1.1847586084
O  O23  1  0.01730000  0.63850000  0.52690000  1.0 -0.6658759264
O  O24  1  0.95270000  0.60620000  0.59970000  1.0 -0.819283448
O  O25  1  0.30550000  0.70510000  0.75260000  1.0 -0.5154338924
O  O26  1  0.29220000  0.15120000  0.76040000  1.0 -0.6890695639
O  O27  1  0.68480000  0.25060000  0.56870000  1.0 -0.4038357584
O  O28  1  0.73260000  0.30470000  0.52620000  1.0 -0.4377288704
O  O29  1  0.65220000  0.02450000  0.43130000  1.0 -0.7375689942
O  O30  1  0.64770000  0.94650000  0.48260000  1.0 -0.6152214853
O  O31  1  0.90010000  0.12630000  0.26160000  1.0 -0.4610930381
O  O32  1  0.83530000  0.19050000  0.27970000  1.0 -0.6268853593
O  O33  1  0.87910000  0.83000000  0.33850000  1.0 -0.5124448387
O  O34  1  0.96390000  0.84880000  0.31090000  1.0 -0.4342540377
O  O35  1  0.56480000  0.03310000  0.52630000  1.0 -1.1847586084
O  O36  1  0.51730000  0.86150000  0.47310000  1.0 -0.6658759264
O  O37  1  0.45270000  0.89380000  0.40030000  1.0 -0.819283448
O  O38  1  0.80550000  0.79490000  0.24740000  1.0 -0.5124448387
O  O39  1  0.79220000  0.34880000  0.23960000  1.0 -0.6890695639
O  O40  1  0.81520000  0.74940000  0.06870000  1.0 -0.4038357584
O  O41  1  0.76740000  0.69530000  0.02620000  1.0 -0.4377288704
O  O42  1  0.84780000  0.97550000  0.93130000  1.0 -0.7375689942
O  O43  1  0.85230000  0.05350000  0.98260000  1.0 -0.6146606056
O  O44  1  0.59990000  0.87370000  0.76160000  1.0 -0.4610930381
O  O45  1  0.66470000  0.80950000  0.77970000  1.0 -0.6268853593
O  O46  1  0.62090000  0.17000000  0.83850000  1.0 -0.5124448387
O  O47  1  0.53610000  0.15120000  0.81090000  1.0 -0.4342540377
O  O48  1  0.93520000  0.96690000  0.02630000  1.0 -1.1847586084
O  O49  1  0.98270000  0.13850000  0.97310000  1.0 -0.6658759264
O  O50  1  0.04730000  0.10620000  0.90030000  1.0 -0.819283448
O  O51  1  0.69450000  0.20510000  0.74740000  1.0 -0.5124448387
O  O52  1  0.70780000  0.65120000  0.73960000  1.0 -0.6890695639
O  O53  1  0.93130000  0.31520000  0.75060000  1.0 -0.4038357584
O  O54  1  0.97380000  0.26740000  0.80470000  1.0 -0.4377288704
O  O55  1  0.06870000  0.34780000  0.52450000  1.0 -0.7375689942
O  O56  1  0.01740000  0.35230000  0.44650000  1.0 -0.6152214853
O  O57  1  0.23840000  0.09990000  0.62630000  1.0 -0.4610930381
O  O58  1  0.22030000  0.16470000  0.69050000  1.0 -0.6268853593
O  O59  1  0.16150000  0.12090000  0.33000000  1.0 -0.5124448387
O  O60  1  0.18910000  0.03610000  0.34880000  1.0 -0.4342540377
O  O61  1  0.97370000  0.43520000  0.53310000  1.0 -1.1847586084
O  O62  1  0.02690000  0.48270000  0.36150000  1.0 -0.6658759264
O  O63  1  0.09970000  0.54730000  0.39380000  1.0 -0.819283448
O  O64  1  0.25260000  0.19450000  0.29490000  1.0 -0.5124448387
O  O65  1  0.26040000  0.20780000  0.84880000  1.0 -0.6890695639
O  O66  1  0.43130000  0.18480000  0.24940000  1.0 -0.4038357584
O  O67  1  0.47380000  0.23260000  0.19530000  1.0 -0.4377288704
O  O68  1  0.56870000  0.15220000  0.47550000  1.0 -0.7375689942
O  O69  1  0.51740000  0.14770000  0.55350000  1.0 -0.6146606056
O  O70  1  0.73840000  0.40010000  0.37370000  1.0 -0.4610930381
O  O71  1  0.72030000  0.33530000  0.30950000  1.0 -0.6268853593
O  O72  1  0.66150000  0.37910000  0.67000000  1.0 -0.5124448387
O  O73  1  0.68910000  0.46390000  0.65120000  1.0 -0.4342540377
O  O74  1  0.47370000  0.06480000  0.46690000  1.0 -1.1847586084
O  O75  1  0.52690000  0.01730000  0.63850000  1.0 -0.6658759264
O  O76  1  0.59970000  0.95270000  0.60620000  1.0 -0.819283448
O  O77  1  0.75260000  0.30550000  0.70510000  1.0 -0.5124448387
O  O78  1  0.76040000  0.29220000  0.15120000  1.0 -0.6890695639
O  O79  1  0.56870000  0.68480000  0.25060000  1.0 -0.4038357584
O  O80  1  0.52620000  0.73260000  0.30470000  1.0 -0.4377288704
O  O81  1  0.43130000  0.65220000  0.02450000  1.0 -0.7375689942
O  O82  1  0.48260000  0.64770000  0.94650000  1.0 -0.6152214853
O  O83  1  0.26160000  0.90010000  0.12630000  1.0 -0.4610930381
O  O84  1  0.27970000  0.83530000  0.19050000  1.0 -0.6268853593
O  O85  1  0.33850000  0.87910000  0.83000000  1.0 -0.5124448387
O  O86  1  0.31090000  0.96390000  0.84880000  1.0 -0.4342540377
O  O87  1  0.52630000  0.56480000  0.03310000  1.0 -1.1847586084
O  O88  1  0.47310000  0.51730000  0.86150000  1.0 -0.6658759264
O  O89  1  0.40030000  0.45270000  0.89380000  1.0 -0.819283448
O  O90  1  0.24740000  0.80550000  0.79490000  1.0 -0.5154338924
O  O91  1  0.23960000  0.79220000  0.34880000  1.0 -0.6890695639
O  O92  1  0.06870000  0.81520000  0.74940000  1.0 -0.4038357584
O  O93  1  0.02620000  0.76740000  0.69530000  1.0 -0.4377288704
O  O94  1  0.93130000  0.84780000  0.97550000  1.0 -0.7375689942
O  O95  1  0.98260000  0.85230000  0.05350000  1.0 -0.6152214853
O  O96  1  0.76160000  0.59990000  0.87370000  1.0 -0.4610930381
O  O97  1  0.77970000  0.66470000  0.80950000  1.0 -0.6268853593
O  O98  1  0.83850000  0.62090000  0.17000000  1.0 -0.5124448387
O  O99  1  0.81090000  0.53610000  0.15120000  1.0 -0.4342540377
O  O100  1  0.02630000  0.93520000  0.96690000  1.0 -1.1847586084
O  O101  1  0.97310000  0.98270000  0.13850000  1.0 -0.6658759264
O  O102  1  0.90030000  0.04730000  0.10620000  1.0 -0.819283448
O  O103  1  0.74740000  0.69450000  0.20510000  1.0 -0.5124448387
O  O104  1  0.73960000  0.70780000  0.65120000  1.0 -0.6890695639
O  O105  1  0.75060000  0.93130000  0.31520000  1.0 -0.4038357584
O  O106  1  0.80470000  0.97380000  0.26740000  1.0 -0.4377288704
O  O107  1  0.52450000  0.06870000  0.34780000  1.0 -0.7375689942
O  O108  1  0.44650000  0.01740000  0.35230000  1.0 -0.6146606056
O  O109  1  0.62630000  0.23840000  0.09990000  1.0 -0.4610930381
O  O110  1  0.69050000  0.22030000  0.16470000  1.0 -0.6268853593
O  O111  1  0.33000000  0.16150000  0.12090000  1.0 -0.5124448387
O  O112  1  0.34880000  0.18910000  0.03610000  1.0 -0.4342540377
O  O113  1  0.53310000  0.97370000  0.43520000  1.0 -1.1847586084
O  O114  1  0.36150000  0.02690000  0.48270000  1.0 -0.6658759264
O  O115  1  0.39380000  0.09970000  0.54730000  1.0 -0.819283448
O  O116  1  0.29490000  0.25260000  0.19450000  1.0 -0.5124448387
O  O117  1  0.84880000  0.26040000  0.20780000  1.0 -0.6890695639
O  O118  1  0.24940000  0.43130000  0.18480000  1.0 -0.4038357584
O  O119  1  0.19530000  0.47380000  0.23260000  1.0 -0.4377288704
O  O120  1  0.47550000  0.56870000  0.15220000  1.0 -0.7375689942
O  O121  1  0.55350000  0.51740000  0.14770000  1.0 -0.6152214853
O  O122  1  0.37370000  0.73840000  0.40010000  1.0 -0.4610930381
O  O123  1  0.30950000  0.72030000  0.33530000  1.0 -0.6268853593
O  O124  1  0.67000000  0.66150000  0.37910000  1.0 -0.5124448387
O  O125  1  0.65120000  0.68910000  0.46390000  1.0 -0.4342540377
O  O126  1  0.46690000  0.47370000  0.06480000  1.0 -1.1847586084
O  O127  1  0.63850000  0.52690000  0.01730000  1.0 -0.6658759264
O  O128  1  0.60620000  0.59970000  0.95270000  1.0 -0.819283448
O  O129  1  0.70510000  0.75260000  0.30550000  1.0 -0.5124448387
O  O130  1  0.15120000  0.76040000  0.29220000  1.0 -0.6890695639
O  O131  1  0.25060000  0.56870000  0.68480000  1.0 -0.4038357584
O  O132  1  0.30470000  0.52620000  0.73260000  1.0 -0.4377288704
O  O133  1  0.02450000  0.43130000  0.65220000  1.0 -0.7375689942
O  O134  1  0.94650000  0.48260000  0.64770000  1.0 -0.6146606056
O  O135  1  0.12630000  0.26160000  0.90010000  1.0 -0.4610930381
O  O136  1  0.19050000  0.27970000  0.83530000  1.0 -0.6268853593
O  O137  1  0.83000000  0.33850000  0.87910000  1.0 -0.5124448387
O  O138  1  0.84880000  0.31090000  0.96390000  1.0 -0.4342540377
O  O139  1  0.03310000  0.52630000  0.56480000  1.0 -1.1847586084
O  O140  1  0.86150000  0.47310000  0.51730000  1.0 -0.6658759264
O  O141  1  0.89380000  0.40030000  0.45270000  1.0 -0.819283448
O  O142  1  0.79490000  0.24740000  0.80550000  1.0 -0.5124448387
O  O143  1  0.34880000  0.23960000  0.79220000  1.0 -0.6890695639
O  O144  1  0.74940000  0.06870000  0.81520000  1.0 -0.4038357584
O  O145  1  0.69530000  0.02620000  0.76740000  1.0 -0.4377288704
O  O146  1  0.97550000  0.93130000  0.84780000  1.0 -0.7375689942
O  O147  1  0.05350000  0.98260000  0.85230000  1.0 -0.6152214853
O  O148  1  0.87370000  0.76160000  0.59990000  1.0 -0.4610930381
O  O149  1  0.80950000  0.77970000  0.66470000  1.0 -0.6268853593
O  O150  1  0.17000000  0.83850000  0.62090000  1.0 -0.5124448387
O  O151  1  0.15120000  0.81090000  0.53610000  1.0 -0.4342540377
O  O152  1  0.96690000  0.02630000  0.93520000  1.0 -1.1847586084
O  O153  1  0.13850000  0.97310000  0.98270000  1.0 -0.6658759264
O  O154  1  0.10620000  0.90030000  0.04730000  1.0 -0.819283448
O  O155  1  0.20510000  0.74740000  0.69450000  1.0 -0.5154338924
O  O156  1  0.65120000  0.73960000  0.70780000  1.0 -0.6890695639
O  O157  1  0.05891000  0.55891000  0.94109000  1.0 -0.819283448
O  O158  1  0.44109000  0.44109000  0.44109000  1.0 -0.819283448
O  O159  1  0.94109000  0.05891000  0.55891000  1.0 -0.819283448
O  O160  1  0.55891000  0.94109000  0.05891000  1.0 -0.819283448
O  O161  1  0.53003000  0.46997000  0.96997000  1.0 -1.2605148403
O  O162  1  0.96997000  0.53003000  0.46997000  1.0 -1.2605148403
O  O163  1  0.46997000  0.96997000  0.53003000  1.0 -1.2605148403
O  O164  1  0.03003000  0.03003000  0.03003000  1.0 -1.2605148403
O  O165  1  0.20785000  0.20785000  0.20785000  1.0 -0.3375994412
O  O166  1  0.29215000  0.79215000  0.70785000  1.0 -0.3375994412
O  O167  1  0.79215000  0.70785000  0.29215000  1.0 -0.3375994412
O  O168  1  0.70785000  0.29215000  0.79215000  1.0 -0.3375994412
