# DDEC6 charges by PACMAN v1.1 (https://github.com/mtap-research/PACMAN-charge/)
data_DACPAC_ASR_pacman
_symmetry_space_group_name_H-M   'P 1'
_cell_length_a   23.84800000
_cell_length_b   23.84800000
_cell_length_c   23.84800000
_cell_angle_alpha   90.00000000
_cell_angle_beta   90.00000000
_cell_angle_gamma   90.00000000
_symmetry_Int_Tables_number   1
_chemical_formula_structural   Gd10Zn4H73Rh4C42S12(N6O19)2
_chemical_formula_sum   'Gd40 Zn16 H292 Rh16 C168 S48 N48 O152'
_cell_volume   13563.00397619
_cell_formula_units_Z   4
loop_
 _symmetry_equiv_pos_site_id
 _symmetry_equiv_pos_as_xyz
  1  'x, y, z'
loop_
 _atom_site_type_symbol
 _atom_site_label
 _atom_site_symmetry_multiplicity
 _atom_site_fract_x
 _atom_site_fract_y
 _atom_site_fract_z
 _atom_site_occupancy
 _atom_site_charge
Gd  Gd1  1  0.47504000  0.05891000  0.56915000  1.0 2.0162097198
Gd  Gd2  1  0.79820000  0.28070000  0.27060000  1.0 0.090498493
Gd  Gd3  1  0.69930000  0.32500000  0.75600000  1.0 0.4328399879
Gd  Gd4  1  0.02496000  0.94109000  0.06915000  1.0 2.0162097198
Gd  Gd5  1  0.70180000  0.71930000  0.77060000  1.0 0.090498493
Gd  Gd6  1  0.80070000  0.67500000  0.25600000  1.0 0.4328399879
Gd  Gd7  1  0.52496000  0.55891000  0.93085000  1.0 2.0162097198
Gd  Gd8  1  0.20180000  0.78070000  0.22940000  1.0 0.090498493
Gd  Gd9  1  0.30070000  0.82500000  0.74400000  1.0 0.4328399879
Gd  Gd10  1  0.97504000  0.44109000  0.43085000  1.0 2.0162097198
Gd  Gd11  1  0.29820000  0.21930000  0.72940000  1.0 0.090498493
Gd  Gd12  1  0.19930000  0.17500000  0.24400000  1.0 0.4328399879
Gd  Gd13  1  0.56915000  0.47504000  0.05891000  1.0 2.0162097198
Gd  Gd14  1  0.27060000  0.79820000  0.28070000  1.0 0.090498493
Gd  Gd15  1  0.75600000  0.69930000  0.32500000  1.0 0.4328399879
Gd  Gd16  1  0.06915000  0.02496000  0.94109000  1.0 2.0162097198
Gd  Gd17  1  0.77060000  0.70180000  0.71930000  1.0 0.090498493
Gd  Gd18  1  0.25600000  0.80070000  0.67500000  1.0 0.4328399879
Gd  Gd19  1  0.93085000  0.52496000  0.55891000  1.0 2.0162097198
Gd  Gd20  1  0.22940000  0.20180000  0.78070000  1.0 0.090498493
Gd  Gd21  1  0.74400000  0.30070000  0.82500000  1.0 0.4328399879
Gd  Gd22  1  0.43085000  0.97504000  0.44109000  1.0 2.0162097198
Gd  Gd23  1  0.72940000  0.29820000  0.21930000  1.0 0.090498493
Gd  Gd24  1  0.24400000  0.19930000  0.17500000  1.0 0.4328399879
Gd  Gd25  1  0.05891000  0.56915000  0.47504000  1.0 2.0162097198
Gd  Gd26  1  0.28070000  0.27060000  0.79820000  1.0 0.090498493
Gd  Gd27  1  0.32500000  0.75600000  0.69930000  1.0 0.4328399879
Gd  Gd28  1  0.94109000  0.06915000  0.02496000  1.0 2.0162097198
Gd  Gd29  1  0.71930000  0.77060000  0.70180000  1.0 0.090498493
Gd  Gd30  1  0.67500000  0.25600000  0.80070000  1.0 0.4328399879
Gd  Gd31  1  0.55891000  0.93085000  0.52496000  1.0 2.0162097198
Gd  Gd32  1  0.78070000  0.22940000  0.20180000  1.0 0.090498493
Gd  Gd33  1  0.82500000  0.74400000  0.30070000  1.0 0.4328399879
Gd  Gd34  1  0.44109000  0.43085000  0.97504000  1.0 2.0162097198
Gd  Gd35  1  0.21930000  0.72940000  0.29820000  1.0 0.090498493
Gd  Gd36  1  0.17500000  0.24400000  0.19930000  1.0 0.4328399879
Gd  Gd37  1  0.56421000  0.06421000  0.43579000  1.0 2.1534667593
Gd  Gd38  1  0.93579000  0.93579000  0.93579000  1.0 2.1534667593
Gd  Gd39  1  0.43579000  0.56421000  0.06421000  1.0 2.1534667593
Gd  Gd40  1  0.06421000  0.43579000  0.56421000  1.0 2.1534667593
Zn  Zn1  1  0.48323000  0.41814000  0.37493000  1.0 0.540651409
Zn  Zn2  1  0.01677000  0.58186000  0.87493000  1.0 0.540651409
Zn  Zn3  1  0.51677000  0.91814000  0.12507000  1.0 0.540651409
Zn  Zn4  1  0.98323000  0.08186000  0.62507000  1.0 0.540651409
Zn  Zn5  1  0.37493000  0.48323000  0.41814000  1.0 0.540651409
Zn  Zn6  1  0.87493000  0.01677000  0.58186000  1.0 0.540651409
Zn  Zn7  1  0.12507000  0.51677000  0.91814000  1.0 0.540651409
Zn  Zn8  1  0.62507000  0.98323000  0.08186000  1.0 0.540651409
Zn  Zn9  1  0.41814000  0.37493000  0.48323000  1.0 0.540651409
Zn  Zn10  1  0.58186000  0.87493000  0.01677000  1.0 0.540651409
Zn  Zn11  1  0.91814000  0.12507000  0.51677000  1.0 0.540651409
Zn  Zn12  1  0.08186000  0.62507000  0.98323000  1.0 0.540651409
Zn  Zn13  1  0.48903000  0.48903000  0.48903000  1.0 0.540651409
Zn  Zn14  1  0.01097000  0.51097000  0.98903000  1.0 0.540651409
Zn  Zn15  1  0.51097000  0.98903000  0.01097000  1.0 0.540651409
Zn  Zn16  1  0.98903000  0.01097000  0.51097000  1.0 0.540651409
H  H1  1  0.38409000  0.24471000  0.32285000  1.0 0.2702406223
H  H2  1  0.34066000  0.25335000  0.27993000  1.0 0.2889623997
H  H3  1  0.58293000  0.25033000  0.45805000  1.0 0.2702406223
H  H4  1  0.62319000  0.25505000  0.50452000  1.0 0.2782573235
H  H5  1  0.59115000  0.35178000  0.59641000  1.0 0.2702406223
H  H6  1  0.64489000  0.33283000  0.57300000  1.0 0.2702406223
H  H7  1  0.67097000  0.39503000  0.45330000  1.0 0.2587318204
H  H8  1  0.68413000  0.33739000  0.47059000  1.0 0.2782573235
H  H9  1  0.48609000  0.33283000  0.25338000  1.0 0.1350064409
H  H10  1  0.47628000  0.30349000  0.31315000  1.0 0.1176940222
H  H11  1  0.39692000  0.30273000  0.22265000  1.0 0.1091881563
H  H12  1  0.46158000  0.24702000  0.54779000  1.0 0.1306671408
H  H13  1  0.47667000  0.25655000  0.48286000  1.0 0.1176940222
H  H14  1  0.55865000  0.24550000  0.57095000  1.0 0.1091881563
H  H15  1  0.61385000  0.49662000  0.57271000  1.0 0.1306671408
H  H16  1  0.56483000  0.45409000  0.59053000  1.0 0.1176940222
H  H17  1  0.67538000  0.41978000  0.55655000  1.0 0.0987503599
H  H18  1  0.60552000  0.35169000  0.32336000  1.0 0.1306671408
H  H19  1  0.61065000  0.40685000  0.36144000  1.0 0.1176940222
H  H20  1  0.65679000  0.29898000  0.38971000  1.0 0.090498493
H  H21  1  0.31014000  0.15263000  0.51049000  1.0 0.1516249137
H  H22  1  0.31023000  0.11926000  0.45226000  1.0 0.1516249137
H  H23  1  0.26973000  0.09972000  0.50207000  1.0 0.1576158089
H  H24  1  0.45722000  0.09739000  0.44652000  1.0 0.4175490123
H  H25  1  0.11591000  0.75529000  0.82285000  1.0 0.2702406223
H  H26  1  0.15934000  0.74665000  0.77993000  1.0 0.2889623997
H  H27  1  0.91707000  0.74967000  0.95805000  1.0 0.2702406223
H  H28  1  0.87681000  0.74495000  0.00452000  1.0 0.2782573235
H  H29  1  0.90885000  0.64822000  0.09641000  1.0 0.2702406223
H  H30  1  0.85511000  0.66717000  0.07300000  1.0 0.2702406223
H  H31  1  0.82903000  0.60497000  0.95330000  1.0 0.2587318204
H  H32  1  0.81587000  0.66261000  0.97059000  1.0 0.2782573235
H  H33  1  0.01391000  0.66717000  0.75338000  1.0 0.1350064409
H  H34  1  0.02372000  0.69651000  0.81315000  1.0 0.1176940222
H  H35  1  0.10308000  0.69727000  0.72265000  1.0 0.1091881563
H  H36  1  0.03842000  0.75298000  0.04779000  1.0 0.1350064409
H  H37  1  0.02333000  0.74345000  0.98286000  1.0 0.1176940222
H  H38  1  0.94135000  0.75450000  0.07095000  1.0 0.1091881563
H  H39  1  0.88615000  0.50338000  0.07271000  1.0 0.1306671408
H  H40  1  0.93517000  0.54591000  0.09053000  1.0 0.1176940222
H  H41  1  0.82462000  0.58022000  0.05655000  1.0 0.0987503599
H  H42  1  0.89448000  0.64831000  0.82336000  1.0 0.1306671408
H  H43  1  0.88935000  0.59315000  0.86144000  1.0 0.1176940222
H  H44  1  0.84321000  0.70102000  0.88971000  1.0 0.090498493
H  H45  1  0.18986000  0.84737000  0.01049000  1.0 0.1516249137
H  H46  1  0.18977000  0.88074000  0.95226000  1.0 0.1516249137
H  H47  1  0.23027000  0.90028000  0.00207000  1.0 0.1576158089
H  H48  1  0.04278000  0.90261000  0.94652000  1.0 0.4175490123
H  H49  1  0.61591000  0.74471000  0.17715000  1.0 0.2702406223
H  H50  1  0.65934000  0.75335000  0.22007000  1.0 0.2889623997
H  H51  1  0.41707000  0.75033000  0.04195000  1.0 0.2702406223
H  H52  1  0.37681000  0.75505000  0.99548000  1.0 0.2782573235
H  H53  1  0.40885000  0.85178000  0.90359000  1.0 0.2702406223
H  H54  1  0.35511000  0.83283000  0.92700000  1.0 0.2702406223
H  H55  1  0.32903000  0.89503000  0.04670000  1.0 0.2587318204
H  H56  1  0.31587000  0.83739000  0.02941000  1.0 0.2782573235
H  H57  1  0.51391000  0.83283000  0.24662000  1.0 0.1350064409
H  H58  1  0.52372000  0.80349000  0.18685000  1.0 0.1176940222
H  H59  1  0.60308000  0.80273000  0.27735000  1.0 0.1091881563
H  H60  1  0.53842000  0.74702000  0.95221000  1.0 0.1306671408
H  H61  1  0.52333000  0.75655000  0.01714000  1.0 0.1176940222
H  H62  1  0.44135000  0.74550000  0.92905000  1.0 0.1091881563
H  H63  1  0.38615000  0.99662000  0.92729000  1.0 0.1306671408
H  H64  1  0.43517000  0.95409000  0.90947000  1.0 0.1176940222
H  H65  1  0.32462000  0.91978000  0.94345000  1.0 0.0987503599
H  H66  1  0.39448000  0.85169000  0.17664000  1.0 0.1306671408
H  H67  1  0.38935000  0.90685000  0.13856000  1.0 0.1176940222
H  H68  1  0.34321000  0.79898000  0.11029000  1.0 0.090498493
H  H69  1  0.68986000  0.65263000  0.98951000  1.0 0.1516249137
H  H70  1  0.68977000  0.61926000  0.04774000  1.0 0.1516249137
H  H71  1  0.73027000  0.59972000  0.99793000  1.0 0.1576158089
H  H72  1  0.54278000  0.59739000  0.05348000  1.0 0.4175490123
H  H73  1  0.88409000  0.25529000  0.67715000  1.0 0.2702406223
H  H74  1  0.84066000  0.24665000  0.72007000  1.0 0.2889623997
H  H75  1  0.08293000  0.24967000  0.54195000  1.0 0.2702406223
H  H76  1  0.12319000  0.24495000  0.49548000  1.0 0.2782573235
H  H77  1  0.09115000  0.14822000  0.40359000  1.0 0.2702406223
H  H78  1  0.14489000  0.16717000  0.42700000  1.0 0.2702406223
H  H79  1  0.17097000  0.10497000  0.54670000  1.0 0.2587318204
H  H80  1  0.18413000  0.16261000  0.52941000  1.0 0.2782573235
H  H81  1  0.98609000  0.16717000  0.74662000  1.0 0.1306671408
H  H82  1  0.97628000  0.19651000  0.68685000  1.0 0.1176940222
H  H83  1  0.89692000  0.19727000  0.77735000  1.0 0.1091881563
H  H84  1  0.96158000  0.25298000  0.45221000  1.0 0.1306671408
H  H85  1  0.97667000  0.24345000  0.51714000  1.0 0.1176940222
H  H86  1  0.05865000  0.25450000  0.42905000  1.0 0.1091881563
H  H87  1  0.11385000  0.00338000  0.42729000  1.0 0.1306671408
H  H88  1  0.06483000  0.04591000  0.40947000  1.0 0.1176940222
H  H89  1  0.17538000  0.08022000  0.44345000  1.0 0.0987503599
H  H90  1  0.10552000  0.14831000  0.67664000  1.0 0.1306671408
H  H91  1  0.11065000  0.09315000  0.63856000  1.0 0.1176940222
H  H92  1  0.15679000  0.20102000  0.61029000  1.0 0.0987503599
H  H93  1  0.81014000  0.34737000  0.48951000  1.0 0.1516249137
H  H94  1  0.81023000  0.38074000  0.54774000  1.0 0.1516249137
H  H95  1  0.76973000  0.40028000  0.49793000  1.0 0.1576158089
H  H96  1  0.95722000  0.40261000  0.55348000  1.0 0.4175490123
H  H97  1  0.32285000  0.38409000  0.24471000  1.0 0.2702406223
H  H98  1  0.27993000  0.34066000  0.25335000  1.0 0.2889623997
H  H99  1  0.45805000  0.58293000  0.25033000  1.0 0.2702406223
H  H100  1  0.50452000  0.62319000  0.25505000  1.0 0.2782573235
H  H101  1  0.59641000  0.59115000  0.35178000  1.0 0.2702406223
H  H102  1  0.57300000  0.64489000  0.33283000  1.0 0.2702406223
H  H103  1  0.45330000  0.67097000  0.39503000  1.0 0.2587318204
H  H104  1  0.47059000  0.68413000  0.33739000  1.0 0.2782573235
H  H105  1  0.25338000  0.48609000  0.33283000  1.0 0.1350064409
H  H106  1  0.31315000  0.47628000  0.30349000  1.0 0.1176940222
H  H107  1  0.22265000  0.39692000  0.30273000  1.0 0.1091881563
H  H108  1  0.54779000  0.46158000  0.24702000  1.0 0.1306671408
H  H109  1  0.48286000  0.47667000  0.25655000  1.0 0.1176940222
H  H110  1  0.57095000  0.55865000  0.24550000  1.0 0.1091881563
H  H111  1  0.57271000  0.61385000  0.49662000  1.0 0.1306671408
H  H112  1  0.59053000  0.56483000  0.45409000  1.0 0.1176940222
H  H113  1  0.55655000  0.67538000  0.41978000  1.0 0.0987503599
H  H114  1  0.32336000  0.60552000  0.35169000  1.0 0.1306671408
H  H115  1  0.36144000  0.61065000  0.40685000  1.0 0.1176940222
H  H116  1  0.38971000  0.65679000  0.29898000  1.0 0.090498493
H  H117  1  0.51049000  0.31014000  0.15263000  1.0 0.1516249137
H  H118  1  0.45226000  0.31023000  0.11926000  1.0 0.1516249137
H  H119  1  0.50207000  0.26973000  0.09972000  1.0 0.1576158089
H  H120  1  0.44652000  0.45722000  0.09739000  1.0 0.4175490123
H  H121  1  0.82285000  0.11591000  0.75529000  1.0 0.2702406223
H  H122  1  0.77993000  0.15934000  0.74665000  1.0 0.2889623997
H  H123  1  0.95805000  0.91707000  0.74967000  1.0 0.2702406223
H  H124  1  0.00452000  0.87681000  0.74495000  1.0 0.2782573235
H  H125  1  0.09641000  0.90885000  0.64822000  1.0 0.2702406223
H  H126  1  0.07300000  0.85511000  0.66717000  1.0 0.2702406223
H  H127  1  0.95330000  0.82903000  0.60497000  1.0 0.2587318204
H  H128  1  0.97059000  0.81587000  0.66261000  1.0 0.2782573235
H  H129  1  0.75338000  0.01391000  0.66717000  1.0 0.1306671408
H  H130  1  0.81315000  0.02372000  0.69651000  1.0 0.1176940222
H  H131  1  0.72265000  0.10308000  0.69727000  1.0 0.1091881563
H  H132  1  0.04779000  0.03842000  0.75298000  1.0 0.1306671408
H  H133  1  0.98286000  0.02333000  0.74345000  1.0 0.1176940222
H  H134  1  0.07095000  0.94135000  0.75450000  1.0 0.1091881563
H  H135  1  0.07271000  0.88615000  0.50338000  1.0 0.1306671408
H  H136  1  0.09053000  0.93517000  0.54591000  1.0 0.1176940222
H  H137  1  0.05655000  0.82462000  0.58022000  1.0 0.0987503599
H  H138  1  0.82336000  0.89448000  0.64831000  1.0 0.1306671408
H  H139  1  0.86144000  0.88935000  0.59315000  1.0 0.1176940222
H  H140  1  0.88971000  0.84321000  0.70102000  1.0 0.090498493
H  H141  1  0.01049000  0.18986000  0.84737000  1.0 0.1516249137
H  H142  1  0.95226000  0.18977000  0.88074000  1.0 0.1516249137
H  H143  1  0.00207000  0.23027000  0.90028000  1.0 0.1576158089
H  H144  1  0.94652000  0.04278000  0.90261000  1.0 0.4175490123
H  H145  1  0.17715000  0.61591000  0.74471000  1.0 0.2702406223
H  H146  1  0.22007000  0.65934000  0.75335000  1.0 0.2889623997
H  H147  1  0.04195000  0.41707000  0.75033000  1.0 0.2702406223
H  H148  1  0.99548000  0.37681000  0.75505000  1.0 0.2782573235
H  H149  1  0.90359000  0.40885000  0.85178000  1.0 0.2702406223
H  H150  1  0.92700000  0.35511000  0.83283000  1.0 0.2702406223
H  H151  1  0.04670000  0.32903000  0.89503000  1.0 0.2587318204
H  H152  1  0.02941000  0.31587000  0.83739000  1.0 0.2782573235
H  H153  1  0.24662000  0.51391000  0.83283000  1.0 0.1306671408
H  H154  1  0.18685000  0.52372000  0.80349000  1.0 0.1176940222
H  H155  1  0.27735000  0.60308000  0.80273000  1.0 0.1091881563
H  H156  1  0.95221000  0.53842000  0.74702000  1.0 0.1306671408
H  H157  1  0.01714000  0.52333000  0.75655000  1.0 0.1176940222
H  H158  1  0.92905000  0.44135000  0.74550000  1.0 0.1091881563
H  H159  1  0.92729000  0.38615000  0.99662000  1.0 0.1306671408
H  H160  1  0.90947000  0.43517000  0.95409000  1.0 0.1176940222
H  H161  1  0.94345000  0.32462000  0.91978000  1.0 0.0987503599
H  H162  1  0.17664000  0.39448000  0.85169000  1.0 0.1306671408
H  H163  1  0.13856000  0.38935000  0.90685000  1.0 0.1176940222
H  H164  1  0.11029000  0.34321000  0.79898000  1.0 0.0987503599
H  H165  1  0.98951000  0.68986000  0.65263000  1.0 0.1516249137
H  H166  1  0.04774000  0.68977000  0.61926000  1.0 0.1516249137
H  H167  1  0.99793000  0.73027000  0.59972000  1.0 0.1576158089
H  H168  1  0.05348000  0.54278000  0.59739000  1.0 0.4175490123
H  H169  1  0.67715000  0.88409000  0.25529000  1.0 0.2702406223
H  H170  1  0.72007000  0.84066000  0.24665000  1.0 0.2889623997
H  H171  1  0.54195000  0.08293000  0.24967000  1.0 0.2702406223
H  H172  1  0.49548000  0.12319000  0.24495000  1.0 0.2782573235
H  H173  1  0.40359000  0.09115000  0.14822000  1.0 0.2702406223
H  H174  1  0.42700000  0.14489000  0.16717000  1.0 0.2702406223
H  H175  1  0.54670000  0.17097000  0.10497000  1.0 0.2587318204
H  H176  1  0.52941000  0.18413000  0.16261000  1.0 0.2782573235
H  H177  1  0.74662000  0.98609000  0.16717000  1.0 0.1350064409
H  H178  1  0.68685000  0.97628000  0.19651000  1.0 0.1176940222
H  H179  1  0.77735000  0.89692000  0.19727000  1.0 0.1091881563
H  H180  1  0.45221000  0.96158000  0.25298000  1.0 0.1306671408
H  H181  1  0.51714000  0.97667000  0.24345000  1.0 0.1176940222
H  H182  1  0.42905000  0.05865000  0.25450000  1.0 0.1091881563
H  H183  1  0.42729000  0.11385000  0.00338000  1.0 0.1306671408
H  H184  1  0.40947000  0.06483000  0.04591000  1.0 0.1176940222
H  H185  1  0.44345000  0.17538000  0.08022000  1.0 0.0987503599
H  H186  1  0.67664000  0.10552000  0.14831000  1.0 0.1306671408
H  H187  1  0.63856000  0.11065000  0.09315000  1.0 0.1176940222
H  H188  1  0.61029000  0.15679000  0.20102000  1.0 0.090498493
H  H189  1  0.48951000  0.81014000  0.34737000  1.0 0.1516249137
H  H190  1  0.54774000  0.81023000  0.38074000  1.0 0.1516249137
H  H191  1  0.49793000  0.76973000  0.40028000  1.0 0.1576158089
H  H192  1  0.55348000  0.95722000  0.40261000  1.0 0.4175490123
H  H193  1  0.24471000  0.32285000  0.38409000  1.0 0.2702406223
H  H194  1  0.25335000  0.27993000  0.34066000  1.0 0.2889623997
H  H195  1  0.25033000  0.45805000  0.58293000  1.0 0.2702406223
H  H196  1  0.25505000  0.50452000  0.62319000  1.0 0.2782573235
H  H197  1  0.35178000  0.59641000  0.59115000  1.0 0.2702406223
H  H198  1  0.33283000  0.57300000  0.64489000  1.0 0.2702406223
H  H199  1  0.39503000  0.45330000  0.67097000  1.0 0.2587318204
H  H200  1  0.33739000  0.47059000  0.68413000  1.0 0.2782573235
H  H201  1  0.33283000  0.25338000  0.48609000  1.0 0.1306671408
H  H202  1  0.30349000  0.31315000  0.47628000  1.0 0.1176940222
H  H203  1  0.30273000  0.22265000  0.39692000  1.0 0.1091881563
H  H204  1  0.24702000  0.54779000  0.46158000  1.0 0.1306671408
H  H205  1  0.25655000  0.48286000  0.47667000  1.0 0.1176940222
H  H206  1  0.24550000  0.57095000  0.55865000  1.0 0.1091881563
H  H207  1  0.49662000  0.57271000  0.61385000  1.0 0.1306671408
H  H208  1  0.45409000  0.59053000  0.56483000  1.0 0.1176940222
H  H209  1  0.41978000  0.55655000  0.67538000  1.0 0.0987503599
H  H210  1  0.35169000  0.32336000  0.60552000  1.0 0.1306671408
H  H211  1  0.40685000  0.36144000  0.61065000  1.0 0.1176940222
H  H212  1  0.29898000  0.38971000  0.65679000  1.0 0.0987503599
H  H213  1  0.15263000  0.51049000  0.31014000  1.0 0.1516249137
H  H214  1  0.11926000  0.45226000  0.31023000  1.0 0.1516249137
H  H215  1  0.09972000  0.50207000  0.26973000  1.0 0.1576158089
H  H216  1  0.09739000  0.44652000  0.45722000  1.0 0.4175490123
H  H217  1  0.75529000  0.82285000  0.11591000  1.0 0.2702406223
H  H218  1  0.74665000  0.77993000  0.15934000  1.0 0.2889623997
H  H219  1  0.74967000  0.95805000  0.91707000  1.0 0.2702406223
H  H220  1  0.74495000  0.00452000  0.87681000  1.0 0.2782573235
H  H221  1  0.64822000  0.09641000  0.90885000  1.0 0.2702406223
H  H222  1  0.66717000  0.07300000  0.85511000  1.0 0.2702406223
H  H223  1  0.60497000  0.95330000  0.82903000  1.0 0.2587318204
H  H224  1  0.66261000  0.97059000  0.81587000  1.0 0.2782573235
H  H225  1  0.66717000  0.75338000  0.01391000  1.0 0.1350064409
H  H226  1  0.69651000  0.81315000  0.02372000  1.0 0.1176940222
H  H227  1  0.69727000  0.72265000  0.10308000  1.0 0.1091881563
H  H228  1  0.75298000  0.04779000  0.03842000  1.0 0.1306671408
H  H229  1  0.74345000  0.98286000  0.02333000  1.0 0.1176940222
H  H230  1  0.75450000  0.07095000  0.94135000  1.0 0.1091881563
H  H231  1  0.50338000  0.07271000  0.88615000  1.0 0.1306671408
H  H232  1  0.54591000  0.09053000  0.93517000  1.0 0.1176940222
H  H233  1  0.58022000  0.05655000  0.82462000  1.0 0.0987503599
H  H234  1  0.64831000  0.82336000  0.89448000  1.0 0.1306671408
H  H235  1  0.59315000  0.86144000  0.88935000  1.0 0.1176940222
H  H236  1  0.70102000  0.88971000  0.84321000  1.0 0.090498493
H  H237  1  0.84737000  0.01049000  0.18986000  1.0 0.1516249137
H  H238  1  0.88074000  0.95226000  0.18977000  1.0 0.1516249137
H  H239  1  0.90028000  0.00207000  0.23027000  1.0 0.1576158089
H  H240  1  0.90261000  0.94652000  0.04278000  1.0 0.4175490123
H  H241  1  0.74471000  0.17715000  0.61591000  1.0 0.2702406223
H  H242  1  0.75335000  0.22007000  0.65934000  1.0 0.2889623997
H  H243  1  0.75033000  0.04195000  0.41707000  1.0 0.2702406223
H  H244  1  0.75505000  0.99548000  0.37681000  1.0 0.2782573235
H  H245  1  0.85178000  0.90359000  0.40885000  1.0 0.2702406223
H  H246  1  0.83283000  0.92700000  0.35511000  1.0 0.2702406223
H  H247  1  0.89503000  0.04670000  0.32903000  1.0 0.2587318204
H  H248  1  0.83739000  0.02941000  0.31587000  1.0 0.2782573235
H  H249  1  0.83283000  0.24662000  0.51391000  1.0 0.1306671408
H  H250  1  0.80349000  0.18685000  0.52372000  1.0 0.1176940222
H  H251  1  0.80273000  0.27735000  0.60308000  1.0 0.1091881563
H  H252  1  0.74702000  0.95221000  0.53842000  1.0 0.1306671408
H  H253  1  0.75655000  0.01714000  0.52333000  1.0 0.1176940222
H  H254  1  0.74550000  0.92905000  0.44135000  1.0 0.1091881563
H  H255  1  0.99662000  0.92729000  0.38615000  1.0 0.1306671408
H  H256  1  0.95409000  0.90947000  0.43517000  1.0 0.1176940222
H  H257  1  0.91978000  0.94345000  0.32462000  1.0 0.0987503599
H  H258  1  0.85169000  0.17664000  0.39448000  1.0 0.1306671408
H  H259  1  0.90685000  0.13856000  0.38935000  1.0 0.1176940222
H  H260  1  0.79898000  0.11029000  0.34321000  1.0 0.090498493
H  H261  1  0.65263000  0.98951000  0.68986000  1.0 0.1516249137
H  H262  1  0.61926000  0.04774000  0.68977000  1.0 0.1516249137
H  H263  1  0.59972000  0.99793000  0.73027000  1.0 0.1576158089
H  H264  1  0.59739000  0.05348000  0.54278000  1.0 0.4175490123
H  H265  1  0.25529000  0.67715000  0.88409000  1.0 0.2702406223
H  H266  1  0.24665000  0.72007000  0.84066000  1.0 0.2889623997
H  H267  1  0.24967000  0.54195000  0.08293000  1.0 0.2702406223
H  H268  1  0.24495000  0.49548000  0.12319000  1.0 0.2782573235
H  H269  1  0.14822000  0.40359000  0.09115000  1.0 0.2702406223
H  H270  1  0.16717000  0.42700000  0.14489000  1.0 0.2702406223
H  H271  1  0.10497000  0.54670000  0.17097000  1.0 0.2587318204
H  H272  1  0.16261000  0.52941000  0.18413000  1.0 0.2782573235
H  H273  1  0.16717000  0.74662000  0.98609000  1.0 0.1350064409
H  H274  1  0.19651000  0.68685000  0.97628000  1.0 0.1176940222
H  H275  1  0.19727000  0.77735000  0.89692000  1.0 0.1091881563
H  H276  1  0.25298000  0.45221000  0.96158000  1.0 0.1306671408
H  H277  1  0.24345000  0.51714000  0.97667000  1.0 0.1176940222
H  H278  1  0.25450000  0.42905000  0.05865000  1.0 0.1091881563
H  H279  1  0.00338000  0.42729000  0.11385000  1.0 0.1306671408
H  H280  1  0.04591000  0.40947000  0.06483000  1.0 0.1176940222
H  H281  1  0.08022000  0.44345000  0.17538000  1.0 0.0987503599
H  H282  1  0.14831000  0.67664000  0.10552000  1.0 0.1306671408
H  H283  1  0.09315000  0.63856000  0.11065000  1.0 0.1176940222
H  H284  1  0.20102000  0.61029000  0.15679000  1.0 0.0987503599
H  H285  1  0.34737000  0.48951000  0.81014000  1.0 0.1516249137
H  H286  1  0.38074000  0.54774000  0.81023000  1.0 0.1516249137
H  H287  1  0.40028000  0.49793000  0.76973000  1.0 0.1576158089
H  H288  1  0.40261000  0.55348000  0.95722000  1.0 0.4175490123
H  H289  1  0.44287000  0.94287000  0.55713000  1.0 0.4507658762
H  H290  1  0.05713000  0.05713000  0.05713000  1.0 0.4445207697
H  H291  1  0.55713000  0.44287000  0.94287000  1.0 0.4507658762
H  H292  1  0.94287000  0.55713000  0.44287000  1.0 0.4445207697
Rh  Rh1  1  0.58067000  0.35266000  0.49055000  1.0 0.468574614
Rh  Rh2  1  0.91933000  0.64734000  0.99055000  1.0 0.468574614
Rh  Rh3  1  0.41933000  0.85266000  0.00945000  1.0 0.468574614
Rh  Rh4  1  0.08067000  0.14734000  0.50945000  1.0 0.468574614
Rh  Rh5  1  0.49055000  0.58067000  0.35266000  1.0 0.468574614
Rh  Rh6  1  0.99055000  0.91933000  0.64734000  1.0 0.468574614
Rh  Rh7  1  0.00945000  0.41933000  0.85266000  1.0 0.468574614
Rh  Rh8  1  0.50945000  0.08067000  0.14734000  1.0 0.468574614
Rh  Rh9  1  0.35266000  0.49055000  0.58067000  1.0 0.468574614
Rh  Rh10  1  0.64734000  0.99055000  0.91933000  1.0 0.468574614
Rh  Rh11  1  0.85266000  0.00945000  0.41933000  1.0 0.468574614
Rh  Rh12  1  0.14734000  0.50945000  0.08067000  1.0 0.468574614
Rh  Rh13  1  0.34129000  0.34129000  0.34129000  1.0 0.4507658762
Rh  Rh14  1  0.15871000  0.65871000  0.84129000  1.0 0.4507658762
Rh  Rh15  1  0.65871000  0.84129000  0.15871000  1.0 0.4507658762
Rh  Rh16  1  0.84129000  0.15871000  0.65871000  1.0 0.4507658762
C  C1  1  0.45730000  0.32240000  0.28140000  1.0 -0.2177963945
C  C2  1  0.41480000  0.28330000  0.25530000  1.0 0.0200782344
C  C3  1  0.44240000  0.22820000  0.23430000  1.0 0.4904337508
C  C4  1  0.48920000  0.26380000  0.52180000  1.0 -0.2068293622
C  C5  1  0.54700000  0.23800000  0.53140000  1.0 0.0256641651
C  C6  1  0.54160000  0.17370000  0.52300000  1.0 0.6143091055
C  C7  1  0.59830000  0.45860000  0.56640000  1.0 -0.1885174978
C  C8  1  0.64210000  0.41450000  0.58150000  1.0 0.0200782344
C  C9  1  0.66100000  0.42010000  0.64210000  1.0 0.5460113368
C  C10  1  0.60760000  0.36550000  0.36250000  1.0 -0.2068293622
C  C11  1  0.65930000  0.34080000  0.39120000  1.0 -0.0052758339
C  C12  1  0.71130000  0.35900000  0.36100000  1.0 0.5869090142
C  C13  1  0.35330000  0.07630000  0.51560000  1.0 0.7523029926
C  C14  1  0.30650000  0.11560000  0.49300000  1.0 -0.5767085024
C  C15  1  0.04270000  0.67760000  0.78140000  1.0 -0.2177963945
C  C16  1  0.08520000  0.71670000  0.75530000  1.0 0.0200782344
C  C17  1  0.05760000  0.77180000  0.73430000  1.0 0.4904337508
C  C18  1  0.01080000  0.73620000  0.02180000  1.0 -0.2068293622
C  C19  1  0.95300000  0.76200000  0.03140000  1.0 0.0256641651
C  C20  1  0.95840000  0.82630000  0.02300000  1.0 0.6143091055
C  C21  1  0.90170000  0.54140000  0.06640000  1.0 -0.1885174978
C  C22  1  0.85790000  0.58550000  0.08150000  1.0 0.0200782344
C  C23  1  0.83900000  0.57990000  0.14210000  1.0 0.5460113368
C  C24  1  0.89240000  0.63450000  0.86250000  1.0 -0.2068293622
C  C25  1  0.84070000  0.65920000  0.89120000  1.0 -0.0052758339
C  C26  1  0.78870000  0.64100000  0.86100000  1.0 0.5869090142
C  C27  1  0.14670000  0.92370000  0.01560000  1.0 0.7523029926
C  C28  1  0.19350000  0.88440000  0.99300000  1.0 -0.5767085024
C  C29  1  0.54270000  0.82240000  0.21860000  1.0 -0.2177963945
C  C30  1  0.58520000  0.78330000  0.24470000  1.0 0.0200782344
C  C31  1  0.55760000  0.72820000  0.26570000  1.0 0.4904337508
C  C32  1  0.51080000  0.76380000  0.97820000  1.0 -0.2068293622
C  C33  1  0.45300000  0.73800000  0.96860000  1.0 0.0256641651
C  C34  1  0.45840000  0.67370000  0.97700000  1.0 0.6143091055
C  C35  1  0.40170000  0.95860000  0.93360000  1.0 -0.1885174978
C  C36  1  0.35790000  0.91450000  0.91850000  1.0 0.0200782344
C  C37  1  0.33900000  0.92010000  0.85790000  1.0 0.5460113368
C  C38  1  0.39240000  0.86550000  0.13750000  1.0 -0.2068293622
C  C39  1  0.34070000  0.84080000  0.10880000  1.0 -0.0052758339
C  C40  1  0.28870000  0.85900000  0.13900000  1.0 0.5869090142
C  C41  1  0.64670000  0.57630000  0.98440000  1.0 0.7523029926
C  C42  1  0.69350000  0.61560000  0.00700000  1.0 -0.5767085024
C  C43  1  0.95730000  0.17760000  0.71860000  1.0 -0.2177963945
C  C44  1  0.91480000  0.21670000  0.74470000  1.0 0.0200782344
C  C45  1  0.94240000  0.27180000  0.76570000  1.0 0.4904337508
C  C46  1  0.98920000  0.23620000  0.47820000  1.0 -0.2068293622
C  C47  1  0.04700000  0.26200000  0.46860000  1.0 0.0256641651
C  C48  1  0.04160000  0.32630000  0.47700000  1.0 0.6143091055
C  C49  1  0.09830000  0.04140000  0.43360000  1.0 -0.1885174978
C  C50  1  0.14210000  0.08550000  0.41850000  1.0 0.0200782344
C  C51  1  0.16100000  0.07990000  0.35790000  1.0 0.5460113368
C  C52  1  0.10760000  0.13450000  0.63750000  1.0 -0.2049421388
C  C53  1  0.15930000  0.15920000  0.60880000  1.0 -0.0052758339
C  C54  1  0.21130000  0.14100000  0.63900000  1.0 0.5869090142
C  C55  1  0.85330000  0.42370000  0.48440000  1.0 0.7523029926
C  C56  1  0.80650000  0.38440000  0.50700000  1.0 -0.5767085024
C  C57  1  0.28140000  0.45730000  0.32240000  1.0 -0.2177963945
C  C58  1  0.25530000  0.41480000  0.28330000  1.0 0.0200782344
C  C59  1  0.23430000  0.44240000  0.22820000  1.0 0.4904337508
C  C60  1  0.52180000  0.48920000  0.26380000  1.0 -0.2068293622
C  C61  1  0.53140000  0.54700000  0.23800000  1.0 0.0256641651
C  C62  1  0.52300000  0.54160000  0.17370000  1.0 0.6143091055
C  C63  1  0.56640000  0.59830000  0.45860000  1.0 -0.1885174978
C  C64  1  0.58150000  0.64210000  0.41450000  1.0 0.0200782344
C  C65  1  0.64210000  0.66100000  0.42010000  1.0 0.5460113368
C  C66  1  0.36250000  0.60760000  0.36550000  1.0 -0.2068293622
C  C67  1  0.39120000  0.65930000  0.34080000  1.0 -0.0052758339
C  C68  1  0.36100000  0.71130000  0.35900000  1.0 0.5869090142
C  C69  1  0.51560000  0.35330000  0.07630000  1.0 0.7523029926
C  C70  1  0.49300000  0.30650000  0.11560000  1.0 -0.5767085024
C  C71  1  0.78140000  0.04270000  0.67760000  1.0 -0.2177963945
C  C72  1  0.75530000  0.08520000  0.71670000  1.0 0.0200782344
C  C73  1  0.73430000  0.05760000  0.77180000  1.0 0.4904337508
C  C74  1  0.02180000  0.01080000  0.73620000  1.0 -0.2068293622
C  C75  1  0.03140000  0.95300000  0.76200000  1.0 0.0256641651
C  C76  1  0.02300000  0.95840000  0.82630000  1.0 0.6143091055
C  C77  1  0.06640000  0.90170000  0.54140000  1.0 -0.1885174978
C  C78  1  0.08150000  0.85790000  0.58550000  1.0 0.0200782344
C  C79  1  0.14210000  0.83900000  0.57990000  1.0 0.5460113368
C  C80  1  0.86250000  0.89240000  0.63450000  1.0 -0.2068293622
C  C81  1  0.89120000  0.84070000  0.65920000  1.0 -0.0052758339
C  C82  1  0.86100000  0.78870000  0.64100000  1.0 0.5869090142
C  C83  1  0.01560000  0.14670000  0.92370000  1.0 0.7523029926
C  C84  1  0.99300000  0.19350000  0.88440000  1.0 -0.5767085024
C  C85  1  0.21860000  0.54270000  0.82240000  1.0 -0.2177963945
C  C86  1  0.24470000  0.58520000  0.78330000  1.0 0.0200782344
C  C87  1  0.26570000  0.55760000  0.72820000  1.0 0.4904337508
C  C88  1  0.97820000  0.51080000  0.76380000  1.0 -0.2068293622
C  C89  1  0.96860000  0.45300000  0.73800000  1.0 0.0256641651
C  C90  1  0.97700000  0.45840000  0.67370000  1.0 0.6143091055
C  C91  1  0.93360000  0.40170000  0.95860000  1.0 -0.1885174978
C  C92  1  0.91850000  0.35790000  0.91450000  1.0 0.0200782344
C  C93  1  0.85790000  0.33900000  0.92010000  1.0 0.5460113368
C  C94  1  0.13750000  0.39240000  0.86550000  1.0 -0.2049421388
C  C95  1  0.10880000  0.34070000  0.84080000  1.0 -0.0052758339
C  C96  1  0.13900000  0.28870000  0.85900000  1.0 0.5869090142
C  C97  1  0.98440000  0.64670000  0.57630000  1.0 0.7523029926
C  C98  1  0.00700000  0.69350000  0.61560000  1.0 -0.5767085024
C  C99  1  0.71860000  0.95730000  0.17760000  1.0 -0.2177963945
C  C100  1  0.74470000  0.91480000  0.21670000  1.0 0.0200782344
C  C101  1  0.76570000  0.94240000  0.27180000  1.0 0.4904337508
C  C102  1  0.47820000  0.98920000  0.23620000  1.0 -0.2068293622
C  C103  1  0.46860000  0.04700000  0.26200000  1.0 0.0256641651
C  C104  1  0.47700000  0.04160000  0.32630000  1.0 0.6143091055
C  C105  1  0.43360000  0.09830000  0.04140000  1.0 -0.1885174978
C  C106  1  0.41850000  0.14210000  0.08550000  1.0 0.0200782344
C  C107  1  0.35790000  0.16100000  0.07990000  1.0 0.5460113368
C  C108  1  0.63750000  0.10760000  0.13450000  1.0 -0.2049421388
C  C109  1  0.60880000  0.15930000  0.15920000  1.0 -0.0052758339
C  C110  1  0.63900000  0.21130000  0.14100000  1.0 0.5869090142
C  C111  1  0.48440000  0.85330000  0.42370000  1.0 0.7523029926
C  C112  1  0.50700000  0.80650000  0.38440000  1.0 -0.5767085024
C  C113  1  0.32240000  0.28140000  0.45730000  1.0 -0.2177963945
C  C114  1  0.28330000  0.25530000  0.41480000  1.0 0.0200782344
C  C115  1  0.22820000  0.23430000  0.44240000  1.0 0.4904337508
C  C116  1  0.26380000  0.52180000  0.48920000  1.0 -0.2068293622
C  C117  1  0.23800000  0.53140000  0.54700000  1.0 0.0256641651
C  C118  1  0.17370000  0.52300000  0.54160000  1.0 0.6143091055
C  C119  1  0.45860000  0.56640000  0.59830000  1.0 -0.1885174978
C  C120  1  0.41450000  0.58150000  0.64210000  1.0 0.0200782344
C  C121  1  0.42010000  0.64210000  0.66100000  1.0 0.5460113368
C  C122  1  0.36550000  0.36250000  0.60760000  1.0 -0.2049421388
C  C123  1  0.34080000  0.39120000  0.65930000  1.0 -0.0052758339
C  C124  1  0.35900000  0.36100000  0.71130000  1.0 0.5869090142
C  C125  1  0.07630000  0.51560000  0.35330000  1.0 0.7523029926
C  C126  1  0.11560000  0.49300000  0.30650000  1.0 -0.5767085024
C  C127  1  0.67760000  0.78140000  0.04270000  1.0 -0.2177963945
C  C128  1  0.71670000  0.75530000  0.08520000  1.0 0.0200782344
C  C129  1  0.77180000  0.73430000  0.05760000  1.0 0.4904337508
C  C130  1  0.73620000  0.02180000  0.01080000  1.0 -0.2068293622
C  C131  1  0.76200000  0.03140000  0.95300000  1.0 0.0256641651
C  C132  1  0.82630000  0.02300000  0.95840000  1.0 0.6143091055
C  C133  1  0.54140000  0.06640000  0.90170000  1.0 -0.1885174978
C  C134  1  0.58550000  0.08150000  0.85790000  1.0 0.0200782344
C  C135  1  0.57990000  0.14210000  0.83900000  1.0 0.5460113368
C  C136  1  0.63450000  0.86250000  0.89240000  1.0 -0.2068293622
C  C137  1  0.65920000  0.89120000  0.84070000  1.0 -0.0052758339
C  C138  1  0.64100000  0.86100000  0.78870000  1.0 0.5869090142
C  C139  1  0.92370000  0.01560000  0.14670000  1.0 0.7523029926
C  C140  1  0.88440000  0.99300000  0.19350000  1.0 -0.5767085024
C  C141  1  0.82240000  0.21860000  0.54270000  1.0 -0.2177963945
C  C142  1  0.78330000  0.24470000  0.58520000  1.0 0.0200782344
C  C143  1  0.72820000  0.26570000  0.55760000  1.0 0.4904337508
C  C144  1  0.76380000  0.97820000  0.51080000  1.0 -0.2068293622
C  C145  1  0.73800000  0.96860000  0.45300000  1.0 0.0256641651
C  C146  1  0.67370000  0.97700000  0.45840000  1.0 0.6143091055
C  C147  1  0.95860000  0.93360000  0.40170000  1.0 -0.1885174978
C  C148  1  0.91450000  0.91850000  0.35790000  1.0 0.0200782344
C  C149  1  0.92010000  0.85790000  0.33900000  1.0 0.5460113368
C  C150  1  0.86550000  0.13750000  0.39240000  1.0 -0.2049421388
C  C151  1  0.84080000  0.10880000  0.34070000  1.0 -0.0052758339
C  C152  1  0.85900000  0.13900000  0.28870000  1.0 0.5869090142
C  C153  1  0.57630000  0.98440000  0.64670000  1.0 0.7523029926
C  C154  1  0.61560000  0.00700000  0.69350000  1.0 -0.5767085024
C  C155  1  0.17760000  0.71860000  0.95730000  1.0 -0.2177963945
C  C156  1  0.21670000  0.74470000  0.91480000  1.0 0.0200782344
C  C157  1  0.27180000  0.76570000  0.94240000  1.0 0.4904337508
C  C158  1  0.23620000  0.47820000  0.98920000  1.0 -0.2068293622
C  C159  1  0.26200000  0.46860000  0.04700000  1.0 0.0256641651
C  C160  1  0.32630000  0.47700000  0.04160000  1.0 0.6143091055
C  C161  1  0.04140000  0.43360000  0.09830000  1.0 -0.1885174978
C  C162  1  0.08550000  0.41850000  0.14210000  1.0 0.0200782344
C  C163  1  0.07990000  0.35790000  0.16100000  1.0 0.5460113368
C  C164  1  0.13450000  0.63750000  0.10760000  1.0 -0.2068293622
C  C165  1  0.15920000  0.60880000  0.15930000  1.0 -0.0052758339
C  C166  1  0.14100000  0.63900000  0.21130000  1.0 0.5869090142
C  C167  1  0.42370000  0.48440000  0.85330000  1.0 0.7523029926
C  C168  1  0.38440000  0.50700000  0.80650000  1.0 -0.5767085024
S  S1  1  0.42130000  0.38515000  0.30632000  1.0 -0.2986557663
S  S2  1  0.49438000  0.33957000  0.53407000  1.0 -0.2986557663
S  S3  1  0.57896000  0.45028000  0.49320000  1.0 -0.2794707187
S  S4  1  0.54444000  0.34548000  0.39991000  1.0 -0.2903569358
S  S5  1  0.07870000  0.61485000  0.80632000  1.0 -0.2986557663
S  S6  1  0.00562000  0.66043000  0.03407000  1.0 -0.2986557663
S  S7  1  0.92104000  0.54972000  0.99320000  1.0 -0.2794707187
S  S8  1  0.95556000  0.65452000  0.89991000  1.0 -0.2903569358
S  S9  1  0.57870000  0.88515000  0.19368000  1.0 -0.2986557663
S  S10  1  0.50562000  0.83957000  0.96593000  1.0 -0.2986557663
S  S11  1  0.42104000  0.95028000  0.00680000  1.0 -0.2794707187
S  S12  1  0.45556000  0.84548000  0.10009000  1.0 -0.2903569358
S  S13  1  0.92130000  0.11485000  0.69368000  1.0 -0.2986557663
S  S14  1  0.99438000  0.16043000  0.46593000  1.0 -0.2986557663
S  S15  1  0.07896000  0.04972000  0.50680000  1.0 -0.2794707187
S  S16  1  0.04444000  0.15452000  0.60009000  1.0 -0.2903569358
S  S17  1  0.30632000  0.42130000  0.38515000  1.0 -0.2986557663
S  S18  1  0.53407000  0.49438000  0.33957000  1.0 -0.2986557663
S  S19  1  0.49320000  0.57896000  0.45028000  1.0 -0.2794707187
S  S20  1  0.39991000  0.54444000  0.34548000  1.0 -0.2903569358
S  S21  1  0.80632000  0.07870000  0.61485000  1.0 -0.2986557663
S  S22  1  0.03407000  0.00562000  0.66043000  1.0 -0.2986557663
S  S23  1  0.99320000  0.92104000  0.54972000  1.0 -0.2794707187
S  S24  1  0.89991000  0.95556000  0.65452000  1.0 -0.2903569358
S  S25  1  0.19368000  0.57870000  0.88515000  1.0 -0.2986557663
S  S26  1  0.96593000  0.50562000  0.83957000  1.0 -0.2986557663
S  S27  1  0.00680000  0.42104000  0.95028000  1.0 -0.2794707187
S  S28  1  0.10009000  0.45556000  0.84548000  1.0 -0.2903569358
S  S29  1  0.69368000  0.92130000  0.11485000  1.0 -0.2986557663
S  S30  1  0.46593000  0.99438000  0.16043000  1.0 -0.2986557663
S  S31  1  0.50680000  0.07896000  0.04972000  1.0 -0.2794707187
S  S32  1  0.60009000  0.04444000  0.15452000  1.0 -0.2903569358
S  S33  1  0.38515000  0.30632000  0.42130000  1.0 -0.2986557663
S  S34  1  0.33957000  0.53407000  0.49438000  1.0 -0.2986557663
S  S35  1  0.45028000  0.49320000  0.57896000  1.0 -0.2794707187
S  S36  1  0.34548000  0.39991000  0.54444000  1.0 -0.2903569358
S  S37  1  0.61485000  0.80632000  0.07870000  1.0 -0.2986557663
S  S38  1  0.66043000  0.03407000  0.00562000  1.0 -0.2986557663
S  S39  1  0.54972000  0.99320000  0.92104000  1.0 -0.2794707187
S  S40  1  0.65452000  0.89991000  0.95556000  1.0 -0.2903569358
S  S41  1  0.88515000  0.19368000  0.57870000  1.0 -0.2986557663
S  S42  1  0.83957000  0.96593000  0.50562000  1.0 -0.2986557663
S  S43  1  0.95028000  0.00680000  0.42104000  1.0 -0.2794707187
S  S44  1  0.84548000  0.10009000  0.45556000  1.0 -0.2903569358
S  S45  1  0.11485000  0.69368000  0.92130000  1.0 -0.2986557663
S  S46  1  0.16043000  0.46593000  0.99438000  1.0 -0.2986557663
S  S47  1  0.04972000  0.50680000  0.07896000  1.0 -0.2794707187
S  S48  1  0.15452000  0.60009000  0.04444000  1.0 -0.2903569358
N  N1  1  0.37010000  0.26980000  0.29770000  1.0 -0.4515342292
N  N2  1  0.58790000  0.26430000  0.49320000  1.0 -0.457535439
N  N3  1  0.61760000  0.35930000  0.56990000  1.0 -0.4515342292
N  N4  1  0.65910000  0.35880000  0.45130000  1.0 -0.4710618325
N  N5  1  0.12990000  0.73020000  0.79770000  1.0 -0.4515342292
N  N6  1  0.91210000  0.73570000  0.99320000  1.0 -0.457535439
N  N7  1  0.88240000  0.64070000  0.06990000  1.0 -0.4515342292
N  N8  1  0.84090000  0.64120000  0.95130000  1.0 -0.4710618325
N  N9  1  0.62990000  0.76980000  0.20230000  1.0 -0.4515342292
N  N10  1  0.41210000  0.76430000  0.00680000  1.0 -0.457535439
N  N11  1  0.38240000  0.85930000  0.93010000  1.0 -0.457535439
N  N12  1  0.34090000  0.85880000  0.04870000  1.0 -0.4710618325
N  N13  1  0.87010000  0.23020000  0.70230000  1.0 -0.4515342292
N  N14  1  0.08790000  0.23570000  0.50680000  1.0 -0.457535439
N  N15  1  0.11760000  0.14070000  0.43010000  1.0 -0.4515342292
N  N16  1  0.15910000  0.14120000  0.54870000  1.0 -0.4710618325
N  N17  1  0.29770000  0.37010000  0.26980000  1.0 -0.4515342292
N  N18  1  0.49320000  0.58790000  0.26430000  1.0 -0.457535439
N  N19  1  0.56990000  0.61760000  0.35930000  1.0 -0.4515342292
N  N20  1  0.45130000  0.65910000  0.35880000  1.0 -0.4710618325
N  N21  1  0.79770000  0.12990000  0.73020000  1.0 -0.4515342292
N  N22  1  0.99320000  0.91210000  0.73570000  1.0 -0.457535439
N  N23  1  0.06990000  0.88240000  0.64070000  1.0 -0.457535439
N  N24  1  0.95130000  0.84090000  0.64120000  1.0 -0.4710618325
N  N25  1  0.20230000  0.62990000  0.76980000  1.0 -0.4515342292
N  N26  1  0.00680000  0.41210000  0.76430000  1.0 -0.457535439
N  N27  1  0.93010000  0.38240000  0.85930000  1.0 -0.4515342292
N  N28  1  0.04870000  0.34090000  0.85880000  1.0 -0.4710618325
N  N29  1  0.70230000  0.87010000  0.23020000  1.0 -0.4515342292
N  N30  1  0.50680000  0.08790000  0.23570000  1.0 -0.457535439
N  N31  1  0.43010000  0.11760000  0.14070000  1.0 -0.4515342292
N  N32  1  0.54870000  0.15910000  0.14120000  1.0 -0.4710618325
N  N33  1  0.26980000  0.29770000  0.37010000  1.0 -0.4515342292
N  N34  1  0.26430000  0.49320000  0.58790000  1.0 -0.457535439
N  N35  1  0.35930000  0.56990000  0.61760000  1.0 -0.4515342292
N  N36  1  0.35880000  0.45130000  0.65910000  1.0 -0.4710618325
N  N37  1  0.73020000  0.79770000  0.12990000  1.0 -0.4515342292
N  N38  1  0.73570000  0.99320000  0.91210000  1.0 -0.457535439
N  N39  1  0.64070000  0.06990000  0.88240000  1.0 -0.4515342292
N  N40  1  0.64120000  0.95130000  0.84090000  1.0 -0.4710618325
N  N41  1  0.76980000  0.20230000  0.62990000  1.0 -0.4515342292
N  N42  1  0.76430000  0.00680000  0.41210000  1.0 -0.457535439
N  N43  1  0.85930000  0.93010000  0.38240000  1.0 -0.4515342292
N  N44  1  0.85880000  0.04870000  0.34090000  1.0 -0.4710618325
N  N45  1  0.23020000  0.70230000  0.87010000  1.0 -0.4515342292
N  N46  1  0.23570000  0.50680000  0.08790000  1.0 -0.457535439
N  N47  1  0.14070000  0.43010000  0.11760000  1.0 -0.4515342292
N  N48  1  0.14120000  0.54870000  0.15910000  1.0 -0.4710618325
O  O1  1  0.43000000  0.18440000  0.24830000  1.0 -0.4346084314
O  O2  1  0.47380000  0.23470000  0.19340000  1.0 -0.4993292657
O  O3  1  0.56640000  0.15330000  0.47800000  1.0 -0.727638306
O  O4  1  0.51500000  0.14800000  0.55590000  1.0 -0.6023486573
O  O5  1  0.65490000  0.37970000  0.67420000  1.0 -0.5246739784
O  O6  1  0.68370000  0.46410000  0.65420000  1.0 -0.4515342292
O  O7  1  0.73730000  0.40360000  0.38220000  1.0 -0.532618396
O  O8  1  0.72580000  0.33680000  0.31910000  1.0 -0.4346084314
O  O9  1  0.35450000  0.02740000  0.49740000  1.0 -0.6656096595
O  O10  1  0.38860000  0.09730000  0.54850000  1.0 -0.6940569002
O  O11  1  0.47830000  0.06440000  0.46150000  1.0 -1.1348086017
O  O12  1  0.72770000  0.29490000  0.70810000  1.0 -0.4759309533
O  O13  1  0.07000000  0.81560000  0.74830000  1.0 -0.4346084314
O  O14  1  0.02620000  0.76530000  0.69340000  1.0 -0.4993292657
O  O15  1  0.93360000  0.84670000  0.97800000  1.0 -0.727638306
O  O16  1  0.98500000  0.85200000  0.05590000  1.0 -0.6023486573
O  O17  1  0.84510000  0.62030000  0.17420000  1.0 -0.5246739784
O  O18  1  0.81630000  0.53590000  0.15420000  1.0 -0.4515342292
O  O19  1  0.76270000  0.59640000  0.88220000  1.0 -0.532618396
O  O20  1  0.77420000  0.66320000  0.81910000  1.0 -0.4353536385
O  O21  1  0.14550000  0.97260000  0.99740000  1.0 -0.6656096595
O  O22  1  0.11140000  0.90270000  0.04850000  1.0 -0.6940569002
O  O23  1  0.02170000  0.93560000  0.96150000  1.0 -1.1354326624
O  O24  1  0.77230000  0.70510000  0.20810000  1.0 -0.4759309533
O  O25  1  0.57000000  0.68440000  0.25170000  1.0 -0.4353536385
O  O26  1  0.52620000  0.73470000  0.30660000  1.0 -0.4993292657
O  O27  1  0.43360000  0.65330000  0.02200000  1.0 -0.727638306
O  O28  1  0.48500000  0.64800000  0.94410000  1.0 -0.6023486573
O  O29  1  0.34510000  0.87970000  0.82580000  1.0 -0.5246739784
O  O30  1  0.31630000  0.96410000  0.84580000  1.0 -0.4515342292
O  O31  1  0.26270000  0.90360000  0.11780000  1.0 -0.532618396
O  O32  1  0.27420000  0.83680000  0.18090000  1.0 -0.4346084314
O  O33  1  0.64550000  0.52740000  0.00260000  1.0 -0.6656096595
O  O34  1  0.61140000  0.59730000  0.95150000  1.0 -0.6940569002
O  O35  1  0.52170000  0.56440000  0.03850000  1.0 -1.1348086017
O  O36  1  0.27230000  0.79490000  0.79190000  1.0 -0.4759309533
O  O37  1  0.93000000  0.31560000  0.75170000  1.0 -0.4353536385
O  O38  1  0.97380000  0.26530000  0.80660000  1.0 -0.4993292657
O  O39  1  0.06640000  0.34670000  0.52200000  1.0 -0.727638306
O  O40  1  0.01500000  0.35200000  0.44410000  1.0 -0.6023486573
O  O41  1  0.15490000  0.12030000  0.32580000  1.0 -0.5246739784
O  O42  1  0.18370000  0.03590000  0.34580000  1.0 -0.4515342292
O  O43  1  0.23730000  0.09640000  0.61780000  1.0 -0.532618396
O  O44  1  0.22580000  0.16320000  0.68090000  1.0 -0.4353536385
O  O45  1  0.85450000  0.47260000  0.50260000  1.0 -0.6656096595
O  O46  1  0.88860000  0.40270000  0.45150000  1.0 -0.6940569002
O  O47  1  0.97830000  0.43560000  0.53850000  1.0 -1.1348086017
O  O48  1  0.22770000  0.20510000  0.29190000  1.0 -0.4759309533
O  O49  1  0.24830000  0.43000000  0.18440000  1.0 -0.4346084314
O  O50  1  0.19340000  0.47380000  0.23470000  1.0 -0.4993292657
O  O51  1  0.47800000  0.56640000  0.15330000  1.0 -0.727638306
O  O52  1  0.55590000  0.51500000  0.14800000  1.0 -0.6023486573
O  O53  1  0.67420000  0.65490000  0.37970000  1.0 -0.5246739784
O  O54  1  0.65420000  0.68370000  0.46410000  1.0 -0.4515342292
O  O55  1  0.38220000  0.73730000  0.40360000  1.0 -0.532618396
O  O56  1  0.31910000  0.72580000  0.33680000  1.0 -0.4346084314
O  O57  1  0.49740000  0.35450000  0.02740000  1.0 -0.6656096595
O  O58  1  0.54850000  0.38860000  0.09730000  1.0 -0.6940569002
O  O59  1  0.46150000  0.47830000  0.06440000  1.0 -1.1348086017
O  O60  1  0.70810000  0.72770000  0.29490000  1.0 -0.4759309533
O  O61  1  0.74830000  0.07000000  0.81560000  1.0 -0.4346084314
O  O62  1  0.69340000  0.02620000  0.76530000  1.0 -0.4993292657
O  O63  1  0.97800000  0.93360000  0.84670000  1.0 -0.727638306
O  O64  1  0.05590000  0.98500000  0.85200000  1.0 -0.6023486573
O  O65  1  0.17420000  0.84510000  0.62030000  1.0 -0.5246739784
O  O66  1  0.15420000  0.81630000  0.53590000  1.0 -0.4515342292
O  O67  1  0.88220000  0.76270000  0.59640000  1.0 -0.532618396
O  O68  1  0.81910000  0.77420000  0.66320000  1.0 -0.4353536385
O  O69  1  0.99740000  0.14550000  0.97260000  1.0 -0.6656096595
O  O70  1  0.04850000  0.11140000  0.90270000  1.0 -0.6940569002
O  O71  1  0.96150000  0.02170000  0.93560000  1.0 -1.1348086017
O  O72  1  0.20810000  0.77230000  0.70510000  1.0 -0.4759309533
O  O73  1  0.25170000  0.57000000  0.68440000  1.0 -0.4346084314
O  O74  1  0.30660000  0.52620000  0.73470000  1.0 -0.4993292657
O  O75  1  0.02200000  0.43360000  0.65330000  1.0 -0.727638306
O  O76  1  0.94410000  0.48500000  0.64800000  1.0 -0.6023486573
O  O77  1  0.82580000  0.34510000  0.87970000  1.0 -0.532618396
O  O78  1  0.84580000  0.31630000  0.96410000  1.0 -0.4515342292
O  O79  1  0.11780000  0.26270000  0.90360000  1.0 -0.532618396
O  O80  1  0.18090000  0.27420000  0.83680000  1.0 -0.4353536385
O  O81  1  0.00260000  0.64550000  0.52740000  1.0 -0.6656096595
O  O82  1  0.95150000  0.61140000  0.59730000  1.0 -0.6940569002
O  O83  1  0.03850000  0.52170000  0.56440000  1.0 -1.1354326624
O  O84  1  0.79190000  0.27230000  0.79490000  1.0 -0.4759309533
O  O85  1  0.75170000  0.93000000  0.31560000  1.0 -0.4353536385
O  O86  1  0.80660000  0.97380000  0.26530000  1.0 -0.4993292657
O  O87  1  0.52200000  0.06640000  0.34670000  1.0 -0.727638306
O  O88  1  0.44410000  0.01500000  0.35200000  1.0 -0.6023486573
O  O89  1  0.32580000  0.15490000  0.12030000  1.0 -0.5246739784
O  O90  1  0.34580000  0.18370000  0.03590000  1.0 -0.4515342292
O  O91  1  0.61780000  0.23730000  0.09640000  1.0 -0.532618396
O  O92  1  0.68090000  0.22580000  0.16320000  1.0 -0.4346084314
O  O93  1  0.50260000  0.85450000  0.47260000  1.0 -0.6656096595
O  O94  1  0.45150000  0.88860000  0.40270000  1.0 -0.6940569002
O  O95  1  0.53850000  0.97830000  0.43560000  1.0 -1.1348086017
O  O96  1  0.29190000  0.22770000  0.20510000  1.0 -0.4759309533
O  O97  1  0.18440000  0.24830000  0.43000000  1.0 -0.4346084314
O  O98  1  0.23470000  0.19340000  0.47380000  1.0 -0.4993292657
O  O99  1  0.15330000  0.47800000  0.56640000  1.0 -0.727638306
O  O100  1  0.14800000  0.55590000  0.51500000  1.0 -0.6023486573
O  O101  1  0.37970000  0.67420000  0.65490000  1.0 -0.5246739784
O  O102  1  0.46410000  0.65420000  0.68370000  1.0 -0.4515342292
O  O103  1  0.40360000  0.38220000  0.73730000  1.0 -0.532618396
O  O104  1  0.33680000  0.31910000  0.72580000  1.0 -0.4353536385
O  O105  1  0.02740000  0.49740000  0.35450000  1.0 -0.6656096595
O  O106  1  0.09730000  0.54850000  0.38860000  1.0 -0.6940569002
O  O107  1  0.06440000  0.46150000  0.47830000  1.0 -1.1354326624
O  O108  1  0.29490000  0.70810000  0.72770000  1.0 -0.4759309533
O  O109  1  0.81560000  0.74830000  0.07000000  1.0 -0.4353536385
O  O110  1  0.76530000  0.69340000  0.02620000  1.0 -0.4993292657
O  O111  1  0.84670000  0.97800000  0.93360000  1.0 -0.727638306
O  O112  1  0.85200000  0.05590000  0.98500000  1.0 -0.6023486573
O  O113  1  0.62030000  0.17420000  0.84510000  1.0 -0.5246739784
O  O114  1  0.53590000  0.15420000  0.81630000  1.0 -0.4515342292
O  O115  1  0.59640000  0.88220000  0.76270000  1.0 -0.532618396
O  O116  1  0.66320000  0.81910000  0.77420000  1.0 -0.4346084314
O  O117  1  0.97260000  0.99740000  0.14550000  1.0 -0.6656096595
O  O118  1  0.90270000  0.04850000  0.11140000  1.0 -0.6940569002
O  O119  1  0.93560000  0.96150000  0.02170000  1.0 -1.1348086017
O  O120  1  0.70510000  0.20810000  0.77230000  1.0 -0.4759309533
O  O121  1  0.68440000  0.25170000  0.57000000  1.0 -0.4346084314
O  O122  1  0.73470000  0.30660000  0.52620000  1.0 -0.4993292657
O  O123  1  0.65330000  0.02200000  0.43360000  1.0 -0.727638306
O  O124  1  0.64800000  0.94410000  0.48500000  1.0 -0.6023486573
O  O125  1  0.87970000  0.82580000  0.34510000  1.0 -0.5246739784
O  O126  1  0.96410000  0.84580000  0.31630000  1.0 -0.4515342292
O  O127  1  0.90360000  0.11780000  0.26270000  1.0 -0.532618396
O  O128  1  0.83680000  0.18090000  0.27420000  1.0 -0.4346084314
O  O129  1  0.52740000  0.00260000  0.64550000  1.0 -0.6649629491
O  O130  1  0.59730000  0.95150000  0.61140000  1.0 -0.6940569002
O  O131  1  0.56440000  0.03850000  0.52170000  1.0 -1.1348086017
O  O132  1  0.79490000  0.79190000  0.27230000  1.0 -0.4759309533
O  O133  1  0.31560000  0.75170000  0.93000000  1.0 -0.4346084314
O  O134  1  0.26530000  0.80660000  0.97380000  1.0 -0.4993292657
O  O135  1  0.34670000  0.52200000  0.06640000  1.0 -0.727638306
O  O136  1  0.35200000  0.44410000  0.01500000  1.0 -0.6023486573
O  O137  1  0.12030000  0.32580000  0.15490000  1.0 -0.5246739784
O  O138  1  0.03590000  0.34580000  0.18370000  1.0 -0.4515342292
O  O139  1  0.09640000  0.61780000  0.23730000  1.0 -0.532618396
O  O140  1  0.16320000  0.68090000  0.22580000  1.0 -0.4346084314
O  O141  1  0.47260000  0.50260000  0.85450000  1.0 -0.6656096595
O  O142  1  0.40270000  0.45150000  0.88860000  1.0 -0.6940569002
O  O143  1  0.43560000  0.53850000  0.97830000  1.0 -1.1354326624
O  O144  1  0.20510000  0.29190000  0.22770000  1.0 -0.4759309533
O  O145  1  0.44155000  0.44155000  0.44155000  1.0 -0.814535262
O  O146  1  0.05845000  0.55845000  0.94155000  1.0 -0.814535262
O  O147  1  0.55845000  0.94155000  0.05845000  1.0 -0.8156726974
O  O148  1  0.94155000  0.05845000  0.55845000  1.0 -0.8156726974
O  O149  1  0.46710000  0.96710000  0.53290000  1.0 -1.2616546768
O  O150  1  0.03290000  0.03290000  0.03290000  1.0 -1.2616546768
O  O151  1  0.53290000  0.46710000  0.96710000  1.0 -1.2616546768
O  O152  1  0.96710000  0.53290000  0.46710000  1.0 -1.2616546768
