# DDEC6 charges by PACMAN v1.1 (https://github.com/mtap-research/PACMAN-charge/)
data_DACQAD_ASR_pacman
_symmetry_space_group_name_H-M   'P 1'
_cell_length_a   23.67580000
_cell_length_b   23.67580000
_cell_length_c   23.67580000
_cell_angle_alpha   90.00000000
_cell_angle_beta   90.00000000
_cell_angle_gamma   90.00000000
_symmetry_Int_Tables_number   1
_chemical_formula_structural   Yb10Zn4H73Rh4C42S12(N4O13)3
_chemical_formula_sum   'Yb40 Zn16 H292 Rh16 C168 S48 N48 O156'
_cell_volume   13271.31593083
_cell_formula_units_Z   4
loop_
 _symmetry_equiv_pos_site_id
 _symmetry_equiv_pos_as_xyz
  1  'x, y, z'
loop_
 _atom_site_type_symbol
 _atom_site_label
 _atom_site_symmetry_multiplicity
 _atom_site_fract_x
 _atom_site_fract_y
 _atom_site_fract_z
 _atom_site_occupancy
 _atom_site_charge
Yb  Yb1  1  0.31450000  0.30974000  0.31860000  1.0 2.2309928892
Yb  Yb2  1  0.30801000  0.22897000  0.18280000  1.0 1.9834679721
Yb  Yb3  1  0.55510000  0.45160000  0.55660000  1.0 1.4872849343
Yb  Yb4  1  0.18550000  0.69026000  0.81860000  1.0 2.2309928892
Yb  Yb5  1  0.19199000  0.77103000  0.68280000  1.0 1.9865258228
Yb  Yb6  1  0.94490000  0.54840000  0.05660000  1.0 1.4872849343
Yb  Yb7  1  0.68550000  0.80974000  0.18140000  1.0 2.2309928892
Yb  Yb8  1  0.69199000  0.72897000  0.31720000  1.0 1.9865258228
Yb  Yb9  1  0.44490000  0.95160000  0.94340000  1.0 1.4872849343
Yb  Yb10  1  0.81450000  0.19026000  0.68140000  1.0 2.2309928892
Yb  Yb11  1  0.80801000  0.27103000  0.81720000  1.0 1.9865258228
Yb  Yb12  1  0.05510000  0.04840000  0.44340000  1.0 1.4872849343
Yb  Yb13  1  0.31860000  0.31450000  0.30974000  1.0 2.2309928892
Yb  Yb14  1  0.18280000  0.30801000  0.22897000  1.0 1.9834679721
Yb  Yb15  1  0.55660000  0.55510000  0.45160000  1.0 1.4872849343
Yb  Yb16  1  0.81860000  0.18550000  0.69026000  1.0 2.2309928892
Yb  Yb17  1  0.68280000  0.19199000  0.77103000  1.0 1.9865258228
Yb  Yb18  1  0.05660000  0.94490000  0.54840000  1.0 1.4872849343
Yb  Yb19  1  0.18140000  0.68550000  0.80974000  1.0 2.2309928892
Yb  Yb20  1  0.31720000  0.69199000  0.72897000  1.0 1.9865258228
Yb  Yb21  1  0.94340000  0.44490000  0.95160000  1.0 1.4872849343
Yb  Yb22  1  0.68140000  0.81450000  0.19026000  1.0 2.2309928892
Yb  Yb23  1  0.81720000  0.80801000  0.27103000  1.0 1.9865258228
Yb  Yb24  1  0.44340000  0.05510000  0.04840000  1.0 1.4872849343
Yb  Yb25  1  0.30974000  0.31860000  0.31450000  1.0 2.2309928892
Yb  Yb26  1  0.22897000  0.18280000  0.30801000  1.0 1.9834679721
Yb  Yb27  1  0.45160000  0.55660000  0.55510000  1.0 1.4872849343
Yb  Yb28  1  0.69026000  0.81860000  0.18550000  1.0 2.2309928892
Yb  Yb29  1  0.77103000  0.68280000  0.19199000  1.0 1.9865258228
Yb  Yb30  1  0.54840000  0.05660000  0.94490000  1.0 1.4872849343
Yb  Yb31  1  0.80974000  0.18140000  0.68550000  1.0 2.2309928892
Yb  Yb32  1  0.72897000  0.31720000  0.69199000  1.0 1.9865258228
Yb  Yb33  1  0.95160000  0.94340000  0.44490000  1.0 1.4872849343
Yb  Yb34  1  0.19026000  0.68140000  0.81450000  1.0 2.2309928892
Yb  Yb35  1  0.27103000  0.81720000  0.80801000  1.0 1.9865258228
Yb  Yb36  1  0.04840000  0.44340000  0.05510000  1.0 1.4872849343
Yb  Yb37  1  0.50430000  0.50430000  0.50430000  1.0 -0.5266156735
Yb  Yb38  1  0.99570000  0.49570000  0.00430000  1.0 -0.5266156735
Yb  Yb39  1  0.49570000  0.00430000  0.99570000  1.0 -0.5266156735
Yb  Yb40  1  0.00430000  0.99570000  0.49570000  1.0 -0.5266156735
Zn  Zn1  1  0.66650000  0.23126000  0.37837000  1.0 0.5251356123
Zn  Zn2  1  0.83350000  0.76874000  0.87837000  1.0 0.5251356123
Zn  Zn3  1  0.33350000  0.73126000  0.12163000  1.0 0.5251356123
Zn  Zn4  1  0.16650000  0.26874000  0.62163000  1.0 0.5251356123
Zn  Zn5  1  0.37837000  0.66650000  0.23126000  1.0 0.5251356123
Zn  Zn6  1  0.87837000  0.83350000  0.76874000  1.0 0.5251356123
Zn  Zn7  1  0.12163000  0.33350000  0.73126000  1.0 0.5251356123
Zn  Zn8  1  0.62163000  0.16650000  0.26874000  1.0 0.5251356123
Zn  Zn9  1  0.23126000  0.37837000  0.66650000  1.0 0.5251356123
Zn  Zn10  1  0.76874000  0.87837000  0.83350000  1.0 0.5251356123
Zn  Zn11  1  0.73126000  0.12163000  0.33350000  1.0 0.5251356123
Zn  Zn12  1  0.26874000  0.62163000  0.16650000  1.0 0.5247676728
Zn  Zn13  1  0.73637000  0.23637000  0.26363000  1.0 0.5068290738
Zn  Zn14  1  0.76363000  0.76363000  0.76363000  1.0 0.5068290738
Zn  Zn15  1  0.26363000  0.73637000  0.23637000  1.0 0.5068290738
Zn  Zn16  1  0.23637000  0.26363000  0.73637000  1.0 0.5068290738
H  H1  1  0.49362000  0.13284000  0.43055000  1.0 0.2539864389
H  H2  1  0.50225000  0.08834000  0.47286000  1.0 0.2539864389
H  H3  1  0.49885000  0.33368000  0.29472000  1.0 0.2586060787
H  H4  1  0.50475000  0.37436000  0.24821000  1.0 0.2586060787
H  H5  1  0.60638000  0.33930000  0.15652000  1.0 0.2539864389
H  H6  1  0.58458000  0.39329000  0.17822000  1.0 0.2539864389
H  H7  1  0.64373000  0.42119000  0.30280000  1.0 0.2436476804
H  H8  1  0.58568000  0.43425000  0.28529000  1.0 0.2586060787
H  H9  1  0.58316000  0.23286000  0.50331000  1.0 0.1196399389
H  H10  1  0.55376000  0.22626000  0.44254000  1.0 0.1074724319
H  H11  1  0.55200000  0.14178000  0.52949000  1.0 0.0879356789
H  H12  1  0.49433000  0.21247000  0.20333000  1.0 0.1196399389
H  H13  1  0.50367000  0.22689000  0.26894000  1.0 0.1074724319
H  H14  1  0.49382000  0.31027000  0.18095000  1.0 0.1074724319
H  H15  1  0.75046000  0.36766000  0.18814000  1.0 0.1196399389
H  H16  1  0.71075000  0.31739000  0.16597000  1.0 0.1074724319
H  H17  1  0.67150000  0.42599000  0.20090000  1.0 0.0778246877
H  H18  1  0.59928000  0.35412000  0.43252000  1.0 0.1074724319
H  H19  1  0.65539000  0.35913000  0.39481000  1.0 0.1074724319
H  H20  1  0.54710000  0.40653000  0.36545000  1.0 0.0778246877
H  H21  1  0.34856000  0.20105000  0.29420000  1.0 0.2723772658
H  H22  1  0.39287000  0.05426000  0.22620000  1.0 0.1374861804
H  H23  1  0.37049000  0.05481000  0.28998000  1.0 0.1374861804
H  H24  1  0.33632000  0.02099000  0.24247000  1.0 0.1374861804
H  H25  1  0.00638000  0.86716000  0.93055000  1.0 0.2539864389
H  H26  1  0.99775000  0.91166000  0.97286000  1.0 0.2539864389
H  H27  1  0.00115000  0.66632000  0.79472000  1.0 0.2586060787
H  H28  1  0.99525000  0.62564000  0.74821000  1.0 0.2586060787
H  H29  1  0.89362000  0.66070000  0.65652000  1.0 0.2539864389
H  H30  1  0.91542000  0.60671000  0.67822000  1.0 0.2539864389
H  H31  1  0.85627000  0.57881000  0.80280000  1.0 0.2436476804
H  H32  1  0.91432000  0.56575000  0.78529000  1.0 0.2586060787
H  H33  1  0.91684000  0.76714000  0.00331000  1.0 0.1196399389
H  H34  1  0.94624000  0.77374000  0.94254000  1.0 0.1074724319
H  H35  1  0.94800000  0.85822000  0.02949000  1.0 0.0879356789
H  H36  1  0.00567000  0.78753000  0.70333000  1.0 0.1196399389
H  H37  1  0.99633000  0.77311000  0.76894000  1.0 0.1074724319
H  H38  1  0.00618000  0.68973000  0.68095000  1.0 0.1074724319
H  H39  1  0.74954000  0.63234000  0.68814000  1.0 0.1196399389
H  H40  1  0.78925000  0.68261000  0.66597000  1.0 0.1074724319
H  H41  1  0.82850000  0.57401000  0.70090000  1.0 0.0778246877
H  H42  1  0.90072000  0.64588000  0.93252000  1.0 0.1074724319
H  H43  1  0.84461000  0.64087000  0.89481000  1.0 0.1074724319
H  H44  1  0.95290000  0.59347000  0.86545000  1.0 0.0778246877
H  H45  1  0.15144000  0.79895000  0.79420000  1.0 0.2723772658
H  H46  1  0.10713000  0.94574000  0.72620000  1.0 0.1374861804
H  H47  1  0.12951000  0.94519000  0.78998000  1.0 0.1374861804
H  H48  1  0.16368000  0.97901000  0.74247000  1.0 0.1374861804
H  H49  1  0.50638000  0.63284000  0.06945000  1.0 0.2539864389
H  H50  1  0.49775000  0.58834000  0.02714000  1.0 0.2539864389
H  H51  1  0.50115000  0.83368000  0.20528000  1.0 0.2586060787
H  H52  1  0.49525000  0.87436000  0.25179000  1.0 0.2586060787
H  H53  1  0.39362000  0.83930000  0.34348000  1.0 0.2539864389
H  H54  1  0.41542000  0.89329000  0.32178000  1.0 0.2539864389
H  H55  1  0.35627000  0.92119000  0.19720000  1.0 0.2436476804
H  H56  1  0.41432000  0.93425000  0.21471000  1.0 0.2586060787
H  H57  1  0.41684000  0.73286000  0.99669000  1.0 0.1196399389
H  H58  1  0.44624000  0.72626000  0.05746000  1.0 0.1074724319
H  H59  1  0.44800000  0.64178000  0.97051000  1.0 0.0879356789
H  H60  1  0.50567000  0.71247000  0.29667000  1.0 0.1196399389
H  H61  1  0.49633000  0.72689000  0.23106000  1.0 0.1074724319
H  H62  1  0.50618000  0.81027000  0.31905000  1.0 0.1074724319
H  H63  1  0.24954000  0.86766000  0.31186000  1.0 0.1196399389
H  H64  1  0.28925000  0.81739000  0.33403000  1.0 0.1074724319
H  H65  1  0.32850000  0.92599000  0.29910000  1.0 0.0778246877
H  H66  1  0.40072000  0.85412000  0.06748000  1.0 0.1074724319
H  H67  1  0.34461000  0.85913000  0.10519000  1.0 0.1074724319
H  H68  1  0.45290000  0.90653000  0.13455000  1.0 0.0778246877
H  H69  1  0.65144000  0.70105000  0.20580000  1.0 0.2723772658
H  H70  1  0.60713000  0.55426000  0.27380000  1.0 0.1374861804
H  H71  1  0.62951000  0.55481000  0.21002000  1.0 0.1374861804
H  H72  1  0.66368000  0.52099000  0.25753000  1.0 0.1374861804
H  H73  1  0.99362000  0.36716000  0.56945000  1.0 0.2539864389
H  H74  1  0.00225000  0.41166000  0.52714000  1.0 0.2539864389
H  H75  1  0.99885000  0.16632000  0.70528000  1.0 0.2586060787
H  H76  1  0.00475000  0.12564000  0.75179000  1.0 0.2586060787
H  H77  1  0.10638000  0.16070000  0.84348000  1.0 0.2539864389
H  H78  1  0.08458000  0.10671000  0.82178000  1.0 0.2539864389
H  H79  1  0.14373000  0.07881000  0.69720000  1.0 0.2436476804
H  H80  1  0.08568000  0.06575000  0.71471000  1.0 0.2586060787
H  H81  1  0.08316000  0.26714000  0.49669000  1.0 0.1196399389
H  H82  1  0.05376000  0.27374000  0.55746000  1.0 0.1074724319
H  H83  1  0.05200000  0.35822000  0.47051000  1.0 0.0879356789
H  H84  1  0.99433000  0.28753000  0.79667000  1.0 0.1196399389
H  H85  1  0.00367000  0.27311000  0.73106000  1.0 0.1074724319
H  H86  1  0.99382000  0.18973000  0.81905000  1.0 0.1074724319
H  H87  1  0.25046000  0.13234000  0.81186000  1.0 0.1196399389
H  H88  1  0.21075000  0.18261000  0.83403000  1.0 0.1074724319
H  H89  1  0.17150000  0.07401000  0.79910000  1.0 0.0778246877
H  H90  1  0.09928000  0.14588000  0.56748000  1.0 0.1074724319
H  H91  1  0.15539000  0.14087000  0.60519000  1.0 0.1074724319
H  H92  1  0.04710000  0.09347000  0.63455000  1.0 0.0778246877
H  H93  1  0.84856000  0.29895000  0.70580000  1.0 0.2723772658
H  H94  1  0.89287000  0.44574000  0.77380000  1.0 0.1374861804
H  H95  1  0.87049000  0.44519000  0.71002000  1.0 0.1374861804
H  H96  1  0.83632000  0.47901000  0.75753000  1.0 0.1374861804
H  H97  1  0.43055000  0.49362000  0.13284000  1.0 0.2539864389
H  H98  1  0.47286000  0.50225000  0.08834000  1.0 0.2539864389
H  H99  1  0.29472000  0.49885000  0.33368000  1.0 0.2586060787
H  H100  1  0.24821000  0.50475000  0.37436000  1.0 0.2586060787
H  H101  1  0.15652000  0.60638000  0.33930000  1.0 0.2539864389
H  H102  1  0.17822000  0.58458000  0.39329000  1.0 0.2539864389
H  H103  1  0.30280000  0.64373000  0.42119000  1.0 0.2436476804
H  H104  1  0.28529000  0.58568000  0.43425000  1.0 0.2586060787
H  H105  1  0.50331000  0.58316000  0.23286000  1.0 0.1196399389
H  H106  1  0.44254000  0.55376000  0.22626000  1.0 0.1074724319
H  H107  1  0.52949000  0.55200000  0.14178000  1.0 0.0879356789
H  H108  1  0.20333000  0.49433000  0.21247000  1.0 0.1196399389
H  H109  1  0.26894000  0.50367000  0.22689000  1.0 0.1074724319
H  H110  1  0.18095000  0.49382000  0.31027000  1.0 0.1074724319
H  H111  1  0.18814000  0.75046000  0.36766000  1.0 0.1196399389
H  H112  1  0.16597000  0.71075000  0.31739000  1.0 0.1074724319
H  H113  1  0.20090000  0.67150000  0.42599000  1.0 0.0778246877
H  H114  1  0.43252000  0.59928000  0.35412000  1.0 0.1074724319
H  H115  1  0.39481000  0.65539000  0.35913000  1.0 0.1074724319
H  H116  1  0.36545000  0.54710000  0.40653000  1.0 0.0778246877
H  H117  1  0.29420000  0.34856000  0.20105000  1.0 0.2723772658
H  H118  1  0.22620000  0.39287000  0.05426000  1.0 0.1374861804
H  H119  1  0.28998000  0.37049000  0.05481000  1.0 0.1374861804
H  H120  1  0.24247000  0.33632000  0.02099000  1.0 0.1374861804
H  H121  1  0.93055000  0.00638000  0.86716000  1.0 0.2539864389
H  H122  1  0.97286000  0.99775000  0.91166000  1.0 0.2539864389
H  H123  1  0.79472000  0.00115000  0.66632000  1.0 0.2586060787
H  H124  1  0.74821000  0.99525000  0.62564000  1.0 0.2586060787
H  H125  1  0.65652000  0.89362000  0.66070000  1.0 0.2539864389
H  H126  1  0.67822000  0.91542000  0.60671000  1.0 0.2539864389
H  H127  1  0.80280000  0.85627000  0.57881000  1.0 0.2436476804
H  H128  1  0.78529000  0.91432000  0.56575000  1.0 0.2586060787
H  H129  1  0.00331000  0.91684000  0.76714000  1.0 0.1196399389
H  H130  1  0.94254000  0.94624000  0.77374000  1.0 0.1074724319
H  H131  1  0.02949000  0.94800000  0.85822000  1.0 0.0879356789
H  H132  1  0.70333000  0.00567000  0.78753000  1.0 0.1196399389
H  H133  1  0.76894000  0.99633000  0.77311000  1.0 0.1074724319
H  H134  1  0.68095000  0.00618000  0.68973000  1.0 0.1074724319
H  H135  1  0.68814000  0.74954000  0.63234000  1.0 0.1196399389
H  H136  1  0.66597000  0.78925000  0.68261000  1.0 0.1074724319
H  H137  1  0.70090000  0.82850000  0.57401000  1.0 0.0778246877
H  H138  1  0.93252000  0.90072000  0.64588000  1.0 0.1074724319
H  H139  1  0.89481000  0.84461000  0.64087000  1.0 0.1074724319
H  H140  1  0.86545000  0.95290000  0.59347000  1.0 0.0778246877
H  H141  1  0.79420000  0.15144000  0.79895000  1.0 0.2723772658
H  H142  1  0.72620000  0.10713000  0.94574000  1.0 0.1374861804
H  H143  1  0.78998000  0.12951000  0.94519000  1.0 0.1374861804
H  H144  1  0.74247000  0.16368000  0.97901000  1.0 0.1374861804
H  H145  1  0.06945000  0.50638000  0.63284000  1.0 0.2539864389
H  H146  1  0.02714000  0.49775000  0.58834000  1.0 0.2539864389
H  H147  1  0.20528000  0.50115000  0.83368000  1.0 0.2586060787
H  H148  1  0.25179000  0.49525000  0.87436000  1.0 0.2586060787
H  H149  1  0.34348000  0.39362000  0.83930000  1.0 0.2539864389
H  H150  1  0.32178000  0.41542000  0.89329000  1.0 0.2539864389
H  H151  1  0.19720000  0.35627000  0.92119000  1.0 0.2436476804
H  H152  1  0.21471000  0.41432000  0.93425000  1.0 0.2586060787
H  H153  1  0.99669000  0.41684000  0.73286000  1.0 0.1196399389
H  H154  1  0.05746000  0.44624000  0.72626000  1.0 0.1074724319
H  H155  1  0.97051000  0.44800000  0.64178000  1.0 0.0879356789
H  H156  1  0.29667000  0.50567000  0.71247000  1.0 0.1196399389
H  H157  1  0.23106000  0.49633000  0.72689000  1.0 0.1074724319
H  H158  1  0.31905000  0.50618000  0.81027000  1.0 0.1074724319
H  H159  1  0.31186000  0.24954000  0.86766000  1.0 0.1196399389
H  H160  1  0.33403000  0.28925000  0.81739000  1.0 0.1074724319
H  H161  1  0.29910000  0.32850000  0.92599000  1.0 0.0778246877
H  H162  1  0.06748000  0.40072000  0.85412000  1.0 0.1074724319
H  H163  1  0.10519000  0.34461000  0.85913000  1.0 0.1074724319
H  H164  1  0.13455000  0.45290000  0.90653000  1.0 0.0778246877
H  H165  1  0.20580000  0.65144000  0.70105000  1.0 0.2723772658
H  H166  1  0.27380000  0.60713000  0.55426000  1.0 0.1374861804
H  H167  1  0.21002000  0.62951000  0.55481000  1.0 0.1374861804
H  H168  1  0.25753000  0.66368000  0.52099000  1.0 0.1374861804
H  H169  1  0.56945000  0.99362000  0.36716000  1.0 0.2539864389
H  H170  1  0.52714000  0.00225000  0.41166000  1.0 0.2539864389
H  H171  1  0.70528000  0.99885000  0.16632000  1.0 0.2586060787
H  H172  1  0.75179000  0.00475000  0.12564000  1.0 0.2586060787
H  H173  1  0.84348000  0.10638000  0.16070000  1.0 0.2539864389
H  H174  1  0.82178000  0.08458000  0.10671000  1.0 0.2539864389
H  H175  1  0.69720000  0.14373000  0.07881000  1.0 0.2436476804
H  H176  1  0.71471000  0.08568000  0.06575000  1.0 0.2586060787
H  H177  1  0.49669000  0.08316000  0.26714000  1.0 0.1196399389
H  H178  1  0.55746000  0.05376000  0.27374000  1.0 0.1074724319
H  H179  1  0.47051000  0.05200000  0.35822000  1.0 0.0879356789
H  H180  1  0.79667000  0.99433000  0.28753000  1.0 0.1196399389
H  H181  1  0.73106000  0.00367000  0.27311000  1.0 0.1074724319
H  H182  1  0.81905000  0.99382000  0.18973000  1.0 0.1074724319
H  H183  1  0.81186000  0.25046000  0.13234000  1.0 0.1196399389
H  H184  1  0.83403000  0.21075000  0.18261000  1.0 0.1074724319
H  H185  1  0.79910000  0.17150000  0.07401000  1.0 0.0778246877
H  H186  1  0.56748000  0.09928000  0.14588000  1.0 0.1074724319
H  H187  1  0.60519000  0.15539000  0.14087000  1.0 0.1074724319
H  H188  1  0.63455000  0.04710000  0.09347000  1.0 0.0778246877
H  H189  1  0.70580000  0.84856000  0.29895000  1.0 0.2723772658
H  H190  1  0.77380000  0.89287000  0.44574000  1.0 0.1374861804
H  H191  1  0.71002000  0.87049000  0.44519000  1.0 0.1374861804
H  H192  1  0.75753000  0.83632000  0.47901000  1.0 0.1374861804
H  H193  1  0.13284000  0.43055000  0.49362000  1.0 0.2539864389
H  H194  1  0.08834000  0.47286000  0.50225000  1.0 0.2539864389
H  H195  1  0.33368000  0.29472000  0.49885000  1.0 0.2586060787
H  H196  1  0.37436000  0.24821000  0.50475000  1.0 0.2586060787
H  H197  1  0.33930000  0.15652000  0.60638000  1.0 0.2539864389
H  H198  1  0.39329000  0.17822000  0.58458000  1.0 0.2539864389
H  H199  1  0.42119000  0.30280000  0.64373000  1.0 0.2436476804
H  H200  1  0.43425000  0.28529000  0.58568000  1.0 0.2586060787
H  H201  1  0.23286000  0.50331000  0.58316000  1.0 0.1196399389
H  H202  1  0.22626000  0.44254000  0.55376000  1.0 0.1074724319
H  H203  1  0.14178000  0.52949000  0.55200000  1.0 0.0879356789
H  H204  1  0.21247000  0.20333000  0.49433000  1.0 0.1196399389
H  H205  1  0.22689000  0.26894000  0.50367000  1.0 0.1074724319
H  H206  1  0.31027000  0.18095000  0.49382000  1.0 0.1074724319
H  H207  1  0.36766000  0.18814000  0.75046000  1.0 0.1196399389
H  H208  1  0.31739000  0.16597000  0.71075000  1.0 0.1074724319
H  H209  1  0.42599000  0.20090000  0.67150000  1.0 0.0778246877
H  H210  1  0.35412000  0.43252000  0.59928000  1.0 0.1074724319
H  H211  1  0.35913000  0.39481000  0.65539000  1.0 0.1074724319
H  H212  1  0.40653000  0.36545000  0.54710000  1.0 0.0778246877
H  H213  1  0.20105000  0.29420000  0.34856000  1.0 0.2723772658
H  H214  1  0.05426000  0.22620000  0.39287000  1.0 0.1374861804
H  H215  1  0.05481000  0.28998000  0.37049000  1.0 0.1374861804
H  H216  1  0.02099000  0.24247000  0.33632000  1.0 0.1374861804
H  H217  1  0.86716000  0.93055000  0.00638000  1.0 0.2539864389
H  H218  1  0.91166000  0.97286000  0.99775000  1.0 0.2539864389
H  H219  1  0.66632000  0.79472000  0.00115000  1.0 0.2586060787
H  H220  1  0.62564000  0.74821000  0.99525000  1.0 0.2586060787
H  H221  1  0.66070000  0.65652000  0.89362000  1.0 0.2539864389
H  H222  1  0.60671000  0.67822000  0.91542000  1.0 0.2539864389
H  H223  1  0.57881000  0.80280000  0.85627000  1.0 0.2436476804
H  H224  1  0.56575000  0.78529000  0.91432000  1.0 0.2586060787
H  H225  1  0.76714000  0.00331000  0.91684000  1.0 0.1196399389
H  H226  1  0.77374000  0.94254000  0.94624000  1.0 0.1074724319
H  H227  1  0.85822000  0.02949000  0.94800000  1.0 0.0879356789
H  H228  1  0.78753000  0.70333000  0.00567000  1.0 0.1196399389
H  H229  1  0.77311000  0.76894000  0.99633000  1.0 0.1074724319
H  H230  1  0.68973000  0.68095000  0.00618000  1.0 0.1074724319
H  H231  1  0.63234000  0.68814000  0.74954000  1.0 0.1196399389
H  H232  1  0.68261000  0.66597000  0.78925000  1.0 0.1074724319
H  H233  1  0.57401000  0.70090000  0.82850000  1.0 0.0778246877
H  H234  1  0.64588000  0.93252000  0.90072000  1.0 0.1074724319
H  H235  1  0.64087000  0.89481000  0.84461000  1.0 0.1074724319
H  H236  1  0.59347000  0.86545000  0.95290000  1.0 0.0778246877
H  H237  1  0.79895000  0.79420000  0.15144000  1.0 0.2723772658
H  H238  1  0.94574000  0.72620000  0.10713000  1.0 0.1374861804
H  H239  1  0.94519000  0.78998000  0.12951000  1.0 0.1374861804
H  H240  1  0.97901000  0.74247000  0.16368000  1.0 0.1374861804
H  H241  1  0.63284000  0.06945000  0.50638000  1.0 0.2539864389
H  H242  1  0.58834000  0.02714000  0.49775000  1.0 0.2539864389
H  H243  1  0.83368000  0.20528000  0.50115000  1.0 0.2586060787
H  H244  1  0.87436000  0.25179000  0.49525000  1.0 0.2586060787
H  H245  1  0.83930000  0.34348000  0.39362000  1.0 0.2539864389
H  H246  1  0.89329000  0.32178000  0.41542000  1.0 0.2539864389
H  H247  1  0.92119000  0.19720000  0.35627000  1.0 0.2436476804
H  H248  1  0.93425000  0.21471000  0.41432000  1.0 0.2586060787
H  H249  1  0.73286000  0.99669000  0.41684000  1.0 0.1196399389
H  H250  1  0.72626000  0.05746000  0.44624000  1.0 0.1074724319
H  H251  1  0.64178000  0.97051000  0.44800000  1.0 0.0879356789
H  H252  1  0.71247000  0.29667000  0.50567000  1.0 0.1196399389
H  H253  1  0.72689000  0.23106000  0.49633000  1.0 0.1074724319
H  H254  1  0.81027000  0.31905000  0.50618000  1.0 0.1074724319
H  H255  1  0.86766000  0.31186000  0.24954000  1.0 0.1196399389
H  H256  1  0.81739000  0.33403000  0.28925000  1.0 0.1074724319
H  H257  1  0.92599000  0.29910000  0.32850000  1.0 0.0778246877
H  H258  1  0.85412000  0.06748000  0.40072000  1.0 0.1074724319
H  H259  1  0.85913000  0.10519000  0.34461000  1.0 0.1074724319
H  H260  1  0.90653000  0.13455000  0.45290000  1.0 0.0778246877
H  H261  1  0.70105000  0.20580000  0.65144000  1.0 0.2723772658
H  H262  1  0.55426000  0.27380000  0.60713000  1.0 0.1374861804
H  H263  1  0.55481000  0.21002000  0.62951000  1.0 0.1374861804
H  H264  1  0.52099000  0.25753000  0.66368000  1.0 0.1374861804
H  H265  1  0.36716000  0.56945000  0.99362000  1.0 0.2539864389
H  H266  1  0.41166000  0.52714000  0.00225000  1.0 0.2539864389
H  H267  1  0.16632000  0.70528000  0.99885000  1.0 0.2586060787
H  H268  1  0.12564000  0.75179000  0.00475000  1.0 0.2586060787
H  H269  1  0.16070000  0.84348000  0.10638000  1.0 0.2539864389
H  H270  1  0.10671000  0.82178000  0.08458000  1.0 0.2539864389
H  H271  1  0.07881000  0.69720000  0.14373000  1.0 0.2436476804
H  H272  1  0.06575000  0.71471000  0.08568000  1.0 0.2586060787
H  H273  1  0.26714000  0.49669000  0.08316000  1.0 0.1196399389
H  H274  1  0.27374000  0.55746000  0.05376000  1.0 0.1074724319
H  H275  1  0.35822000  0.47051000  0.05200000  1.0 0.0879356789
H  H276  1  0.28753000  0.79667000  0.99433000  1.0 0.1196399389
H  H277  1  0.27311000  0.73106000  0.00367000  1.0 0.1074724319
H  H278  1  0.18973000  0.81905000  0.99382000  1.0 0.1074724319
H  H279  1  0.13234000  0.81186000  0.25046000  1.0 0.1196399389
H  H280  1  0.18261000  0.83403000  0.21075000  1.0 0.1074724319
H  H281  1  0.07401000  0.79910000  0.17150000  1.0 0.0778246877
H  H282  1  0.14588000  0.56748000  0.09928000  1.0 0.1074724319
H  H283  1  0.14087000  0.60519000  0.15539000  1.0 0.1074724319
H  H284  1  0.09347000  0.63455000  0.04710000  1.0 0.0778246877
H  H285  1  0.29895000  0.70580000  0.84856000  1.0 0.2723772658
H  H286  1  0.44574000  0.77380000  0.89287000  1.0 0.1374861804
H  H287  1  0.44519000  0.71002000  0.87049000  1.0 0.1374861804
H  H288  1  0.47901000  0.75753000  0.83632000  1.0 0.1374861804
H  H289  1  0.19467000  0.19467000  0.19467000  1.0 0.4225819169
H  H290  1  0.30533000  0.80533000  0.69467000  1.0 0.4225819169
H  H291  1  0.80533000  0.69467000  0.30533000  1.0 0.4225819169
H  H292  1  0.69467000  0.30533000  0.80533000  1.0 0.4225819169
Rh  Rh1  1  0.60201000  0.33031000  0.26346000  1.0 0.4475745835
Rh  Rh2  1  0.89799000  0.66969000  0.76346000  1.0 0.4475745835
Rh  Rh3  1  0.39799000  0.83031000  0.23654000  1.0 0.4475745835
Rh  Rh4  1  0.10201000  0.16969000  0.73654000  1.0 0.4475745835
Rh  Rh5  1  0.26346000  0.60201000  0.33031000  1.0 0.4475745835
Rh  Rh6  1  0.76346000  0.89799000  0.66969000  1.0 0.4475745835
Rh  Rh7  1  0.23654000  0.39799000  0.83031000  1.0 0.4475745835
Rh  Rh8  1  0.73654000  0.10201000  0.16969000  1.0 0.4475745835
Rh  Rh9  1  0.33031000  0.26346000  0.60201000  1.0 0.4475745835
Rh  Rh10  1  0.66969000  0.76346000  0.89799000  1.0 0.4475745835
Rh  Rh11  1  0.83031000  0.23654000  0.39799000  1.0 0.4475745835
Rh  Rh12  1  0.16969000  0.73654000  0.10201000  1.0 0.4475745835
Rh  Rh13  1  0.58931000  0.08931000  0.41069000  1.0 0.4475745835
Rh  Rh14  1  0.91069000  0.91069000  0.91069000  1.0 0.4444845376
Rh  Rh15  1  0.41069000  0.58931000  0.08931000  1.0 0.4475745835
Rh  Rh16  1  0.08931000  0.41069000  0.58931000  1.0 0.4475745835
C  C1  1  0.57220000  0.20540000  0.47370000  1.0 -0.2313057934
C  C2  1  0.53130000  0.16140000  0.49830000  1.0 -0.0158330112
C  C3  1  0.47930000  0.18630000  0.52400000  1.0 0.4760813175
C  C4  1  0.51140000  0.23984000  0.22990000  1.0 -0.2313057934
C  C5  1  0.48610000  0.29830000  0.22070000  1.0 0.0269412059
C  C6  1  0.42150000  0.29490000  0.22940000  1.0 0.5444533584
C  C7  1  0.71250000  0.35040000  0.19150000  1.0 -0.2025944533
C  C8  1  0.66830000  0.39250000  0.17540000  1.0 0.0154414123
C  C9  1  0.67660000  0.41200000  0.11420000  1.0 0.5004369773
C  C10  1  0.61370000  0.35640000  0.39330000  1.0 -0.2313057934
C  C11  1  0.58930000  0.40830000  0.36390000  1.0 0.0003542734
C  C12  1  0.60930000  0.45970000  0.39690000  1.0 0.5557446686
C  C13  1  0.32510000  0.10640000  0.23780000  1.0 0.7586694318
C  C14  1  0.35910000  0.05470000  0.25020000  1.0 -0.6203798892
C  C15  1  0.92780000  0.79460000  0.97370000  1.0 -0.2313057934
C  C16  1  0.96870000  0.83860000  0.99830000  1.0 -0.0158330112
C  C17  1  0.02070000  0.81370000  0.02400000  1.0 0.4760813175
C  C18  1  0.98860000  0.76016000  0.72990000  1.0 -0.2313057934
C  C19  1  0.01390000  0.70170000  0.72070000  1.0 0.0269412059
C  C20  1  0.07850000  0.70510000  0.72940000  1.0 0.5457799989
C  C21  1  0.78750000  0.64960000  0.69150000  1.0 -0.2025944533
C  C22  1  0.83170000  0.60750000  0.67540000  1.0 0.0154414123
C  C23  1  0.82340000  0.58800000  0.61420000  1.0 0.5004369773
C  C24  1  0.88630000  0.64360000  0.89330000  1.0 -0.2313057934
C  C25  1  0.91070000  0.59170000  0.86390000  1.0 0.0003542734
C  C26  1  0.89070000  0.54030000  0.89690000  1.0 0.5557446686
C  C27  1  0.17490000  0.89360000  0.73780000  1.0 0.7586694318
C  C28  1  0.14090000  0.94530000  0.75020000  1.0 -0.6203798892
C  C29  1  0.42780000  0.70540000  0.02630000  1.0 -0.2313057934
C  C30  1  0.46870000  0.66140000  0.00170000  1.0 -0.0158330112
C  C31  1  0.52070000  0.68630000  0.97600000  1.0 0.4760813175
C  C32  1  0.48860000  0.73984000  0.27010000  1.0 -0.2313057934
C  C33  1  0.51390000  0.79830000  0.27930000  1.0 0.0269412059
C  C34  1  0.57850000  0.79490000  0.27060000  1.0 0.5457799989
C  C35  1  0.28750000  0.85040000  0.30850000  1.0 -0.2025944533
C  C36  1  0.33170000  0.89250000  0.32460000  1.0 0.0154414123
C  C37  1  0.32340000  0.91200000  0.38580000  1.0 0.5004369773
C  C38  1  0.38630000  0.85640000  0.10670000  1.0 -0.2313057934
C  C39  1  0.41070000  0.90830000  0.13610000  1.0 0.0003542734
C  C40  1  0.39070000  0.95970000  0.10310000  1.0 0.5557446686
C  C41  1  0.67490000  0.60640000  0.26220000  1.0 0.7586694318
C  C42  1  0.64090000  0.55470000  0.24980000  1.0 -0.6203798892
C  C43  1  0.07220000  0.29460000  0.52630000  1.0 -0.2313057934
C  C44  1  0.03130000  0.33860000  0.50170000  1.0 -0.0158330112
C  C45  1  0.97930000  0.31370000  0.47600000  1.0 0.4760813175
C  C46  1  0.01140000  0.26016000  0.77010000  1.0 -0.2313057934
C  C47  1  0.98610000  0.20170000  0.77930000  1.0 0.0269412059
C  C48  1  0.92150000  0.20510000  0.77060000  1.0 0.5457799989
C  C49  1  0.21250000  0.14960000  0.80850000  1.0 -0.2025944533
C  C50  1  0.16830000  0.10750000  0.82460000  1.0 0.0154414123
C  C51  1  0.17660000  0.08800000  0.88580000  1.0 0.5004369773
C  C52  1  0.11370000  0.14360000  0.60670000  1.0 -0.2313057934
C  C53  1  0.08930000  0.09170000  0.63610000  1.0 0.0003542734
C  C54  1  0.10930000  0.04030000  0.60310000  1.0 0.5557446686
C  C55  1  0.82510000  0.39360000  0.76220000  1.0 0.7586694318
C  C56  1  0.85910000  0.44530000  0.74980000  1.0 -0.6203798892
C  C57  1  0.47370000  0.57220000  0.20540000  1.0 -0.2313057934
C  C58  1  0.49830000  0.53130000  0.16140000  1.0 -0.0158330112
C  C59  1  0.52400000  0.47930000  0.18630000  1.0 0.4760813175
C  C60  1  0.22990000  0.51140000  0.23984000  1.0 -0.2313057934
C  C61  1  0.22070000  0.48610000  0.29830000  1.0 0.0269412059
C  C62  1  0.22940000  0.42150000  0.29490000  1.0 0.5444533584
C  C63  1  0.19150000  0.71250000  0.35040000  1.0 -0.2025944533
C  C64  1  0.17540000  0.66830000  0.39250000  1.0 0.0154414123
C  C65  1  0.11420000  0.67660000  0.41200000  1.0 0.5004369773
C  C66  1  0.39330000  0.61370000  0.35640000  1.0 -0.2313057934
C  C67  1  0.36390000  0.58930000  0.40830000  1.0 0.0003542734
C  C68  1  0.39690000  0.60930000  0.45970000  1.0 0.5557446686
C  C69  1  0.23780000  0.32510000  0.10640000  1.0 0.7586694318
C  C70  1  0.25020000  0.35910000  0.05470000  1.0 -0.6203798892
C  C71  1  0.97370000  0.92780000  0.79460000  1.0 -0.2313057934
C  C72  1  0.99830000  0.96870000  0.83860000  1.0 -0.0158330112
C  C73  1  0.02400000  0.02070000  0.81370000  1.0 0.4760813175
C  C74  1  0.72990000  0.98860000  0.76016000  1.0 -0.2313057934
C  C75  1  0.72070000  0.01390000  0.70170000  1.0 0.0269412059
C  C76  1  0.72940000  0.07850000  0.70510000  1.0 0.5457799989
C  C77  1  0.69150000  0.78750000  0.64960000  1.0 -0.2025944533
C  C78  1  0.67540000  0.83170000  0.60750000  1.0 0.0154414123
C  C79  1  0.61420000  0.82340000  0.58800000  1.0 0.5004369773
C  C80  1  0.89330000  0.88630000  0.64360000  1.0 -0.2313057934
C  C81  1  0.86390000  0.91070000  0.59170000  1.0 0.0003542734
C  C82  1  0.89690000  0.89070000  0.54030000  1.0 0.5557446686
C  C83  1  0.73780000  0.17490000  0.89360000  1.0 0.7586694318
C  C84  1  0.75020000  0.14090000  0.94530000  1.0 -0.6203798892
C  C85  1  0.02630000  0.42780000  0.70540000  1.0 -0.2313057934
C  C86  1  0.00170000  0.46870000  0.66140000  1.0 -0.0158330112
C  C87  1  0.97600000  0.52070000  0.68630000  1.0 0.4760813175
C  C88  1  0.27010000  0.48860000  0.73984000  1.0 -0.2313057934
C  C89  1  0.27930000  0.51390000  0.79830000  1.0 0.0269412059
C  C90  1  0.27060000  0.57850000  0.79490000  1.0 0.5457799989
C  C91  1  0.30850000  0.28750000  0.85040000  1.0 -0.2025944533
C  C92  1  0.32460000  0.33170000  0.89250000  1.0 0.0154414123
C  C93  1  0.38580000  0.32340000  0.91200000  1.0 0.5004369773
C  C94  1  0.10670000  0.38630000  0.85640000  1.0 -0.2313057934
C  C95  1  0.13610000  0.41070000  0.90830000  1.0 0.0003542734
C  C96  1  0.10310000  0.39070000  0.95970000  1.0 0.5557446686
C  C97  1  0.26220000  0.67490000  0.60640000  1.0 0.7586694318
C  C98  1  0.24980000  0.64090000  0.55470000  1.0 -0.6203798892
C  C99  1  0.52630000  0.07220000  0.29460000  1.0 -0.2313057934
C  C100  1  0.50170000  0.03130000  0.33860000  1.0 -0.0158330112
C  C101  1  0.47600000  0.97930000  0.31370000  1.0 0.4760813175
C  C102  1  0.77010000  0.01140000  0.26016000  1.0 -0.2313057934
C  C103  1  0.77930000  0.98610000  0.20170000  1.0 0.0269412059
C  C104  1  0.77060000  0.92150000  0.20510000  1.0 0.5457799989
C  C105  1  0.80850000  0.21250000  0.14960000  1.0 -0.2025944533
C  C106  1  0.82460000  0.16830000  0.10750000  1.0 0.0154414123
C  C107  1  0.88580000  0.17660000  0.08800000  1.0 0.5004369773
C  C108  1  0.60670000  0.11370000  0.14360000  1.0 -0.2313057934
C  C109  1  0.63610000  0.08930000  0.09170000  1.0 0.0003542734
C  C110  1  0.60310000  0.10930000  0.04030000  1.0 0.5557446686
C  C111  1  0.76220000  0.82510000  0.39360000  1.0 0.7586694318
C  C112  1  0.74980000  0.85910000  0.44530000  1.0 -0.6203798892
C  C113  1  0.20540000  0.47370000  0.57220000  1.0 -0.2313057934
C  C114  1  0.16140000  0.49830000  0.53130000  1.0 -0.0158330112
C  C115  1  0.18630000  0.52400000  0.47930000  1.0 0.4760813175
C  C116  1  0.23984000  0.22990000  0.51140000  1.0 -0.2313057934
C  C117  1  0.29830000  0.22070000  0.48610000  1.0 0.0269412059
C  C118  1  0.29490000  0.22940000  0.42150000  1.0 0.5444533584
C  C119  1  0.35040000  0.19150000  0.71250000  1.0 -0.2025944533
C  C120  1  0.39250000  0.17540000  0.66830000  1.0 0.0154414123
C  C121  1  0.41200000  0.11420000  0.67660000  1.0 0.5004369773
C  C122  1  0.35640000  0.39330000  0.61370000  1.0 -0.2313057934
C  C123  1  0.40830000  0.36390000  0.58930000  1.0 0.0003542734
C  C124  1  0.45970000  0.39690000  0.60930000  1.0 0.5557446686
C  C125  1  0.10640000  0.23780000  0.32510000  1.0 0.7586694318
C  C126  1  0.05470000  0.25020000  0.35910000  1.0 -0.6203798892
C  C127  1  0.79460000  0.97370000  0.92780000  1.0 -0.2313057934
C  C128  1  0.83860000  0.99830000  0.96870000  1.0 -0.0158330112
C  C129  1  0.81370000  0.02400000  0.02070000  1.0 0.4760813175
C  C130  1  0.76016000  0.72990000  0.98860000  1.0 -0.2313057934
C  C131  1  0.70170000  0.72070000  0.01390000  1.0 0.0269412059
C  C132  1  0.70510000  0.72940000  0.07850000  1.0 0.5457799989
C  C133  1  0.64960000  0.69150000  0.78750000  1.0 -0.2025944533
C  C134  1  0.60750000  0.67540000  0.83170000  1.0 0.0154414123
C  C135  1  0.58800000  0.61420000  0.82340000  1.0 0.5004369773
C  C136  1  0.64360000  0.89330000  0.88630000  1.0 -0.2313057934
C  C137  1  0.59170000  0.86390000  0.91070000  1.0 0.0003542734
C  C138  1  0.54030000  0.89690000  0.89070000  1.0 0.5557446686
C  C139  1  0.89360000  0.73780000  0.17490000  1.0 0.7586694318
C  C140  1  0.94530000  0.75020000  0.14090000  1.0 -0.6203798892
C  C141  1  0.70540000  0.02630000  0.42780000  1.0 -0.2313057934
C  C142  1  0.66140000  0.00170000  0.46870000  1.0 -0.0158330112
C  C143  1  0.68630000  0.97600000  0.52070000  1.0 0.4760813175
C  C144  1  0.73984000  0.27010000  0.48860000  1.0 -0.2313057934
C  C145  1  0.79830000  0.27930000  0.51390000  1.0 0.0269412059
C  C146  1  0.79490000  0.27060000  0.57850000  1.0 0.5457799989
C  C147  1  0.85040000  0.30850000  0.28750000  1.0 -0.2025944533
C  C148  1  0.89250000  0.32460000  0.33170000  1.0 0.0154414123
C  C149  1  0.91200000  0.38580000  0.32340000  1.0 0.5004369773
C  C150  1  0.85640000  0.10670000  0.38630000  1.0 -0.2313057934
C  C151  1  0.90830000  0.13610000  0.41070000  1.0 0.0003542734
C  C152  1  0.95970000  0.10310000  0.39070000  1.0 0.5557446686
C  C153  1  0.60640000  0.26220000  0.67490000  1.0 0.7586694318
C  C154  1  0.55470000  0.24980000  0.64090000  1.0 -0.6203798892
C  C155  1  0.29460000  0.52630000  0.07220000  1.0 -0.2313057934
C  C156  1  0.33860000  0.50170000  0.03130000  1.0 -0.0158330112
C  C157  1  0.31370000  0.47600000  0.97930000  1.0 0.4760813175
C  C158  1  0.26016000  0.77010000  0.01140000  1.0 -0.2313057934
C  C159  1  0.20170000  0.77930000  0.98610000  1.0 0.0269412059
C  C160  1  0.20510000  0.77060000  0.92150000  1.0 0.5457799989
C  C161  1  0.14960000  0.80850000  0.21250000  1.0 -0.2025944533
C  C162  1  0.10750000  0.82460000  0.16830000  1.0 0.0154414123
C  C163  1  0.08800000  0.88580000  0.17660000  1.0 0.5004369773
C  C164  1  0.14360000  0.60670000  0.11370000  1.0 -0.2313057934
C  C165  1  0.09170000  0.63610000  0.08930000  1.0 0.0003542734
C  C166  1  0.04030000  0.60310000  0.10930000  1.0 0.5557446686
C  C167  1  0.39360000  0.76220000  0.82510000  1.0 0.7586694318
C  C168  1  0.44530000  0.74980000  0.85910000  1.0 -0.6203798892
S  S1  1  0.63482000  0.16842000  0.44746000  1.0 -0.3262158649
S  S2  1  0.58764000  0.24422000  0.21812000  1.0 -0.3228426642
S  S3  1  0.70034000  0.32811000  0.26398000  1.0 -0.3096198928
S  S4  1  0.59290000  0.29301000  0.35398000  1.0 -0.3096198928
S  S5  1  0.86518000  0.83158000  0.94746000  1.0 -0.3262158649
S  S6  1  0.91236000  0.75578000  0.71812000  1.0 -0.3228426642
S  S7  1  0.79966000  0.67189000  0.76398000  1.0 -0.3096198928
S  S8  1  0.90710000  0.70699000  0.85398000  1.0 -0.3096198928
S  S9  1  0.36518000  0.66842000  0.05254000  1.0 -0.3262158649
S  S10  1  0.41236000  0.74422000  0.28188000  1.0 -0.3228426642
S  S11  1  0.29966000  0.82811000  0.23602000  1.0 -0.3096198928
S  S12  1  0.40710000  0.79301000  0.14602000  1.0 -0.3096198928
S  S13  1  0.13482000  0.33158000  0.55254000  1.0 -0.3262158649
S  S14  1  0.08764000  0.25578000  0.78188000  1.0 -0.3228426642
S  S15  1  0.20034000  0.17189000  0.73602000  1.0 -0.3096198928
S  S16  1  0.09290000  0.20699000  0.64602000  1.0 -0.3096198928
S  S17  1  0.44746000  0.63482000  0.16842000  1.0 -0.3262158649
S  S18  1  0.21812000  0.58764000  0.24422000  1.0 -0.3228426642
S  S19  1  0.26398000  0.70034000  0.32811000  1.0 -0.3096198928
S  S20  1  0.35398000  0.59290000  0.29301000  1.0 -0.3096198928
S  S21  1  0.94746000  0.86518000  0.83158000  1.0 -0.3262158649
S  S22  1  0.71812000  0.91236000  0.75578000  1.0 -0.3228426642
S  S23  1  0.76398000  0.79966000  0.67189000  1.0 -0.3096198928
S  S24  1  0.85398000  0.90710000  0.70699000  1.0 -0.3096198928
S  S25  1  0.05254000  0.36518000  0.66842000  1.0 -0.3262158649
S  S26  1  0.28188000  0.41236000  0.74422000  1.0 -0.3228426642
S  S27  1  0.23602000  0.29966000  0.82811000  1.0 -0.3096198928
S  S28  1  0.14602000  0.40710000  0.79301000  1.0 -0.3096198928
S  S29  1  0.55254000  0.13482000  0.33158000  1.0 -0.3262158649
S  S30  1  0.78188000  0.08764000  0.25578000  1.0 -0.3228426642
S  S31  1  0.73602000  0.20034000  0.17189000  1.0 -0.3096198928
S  S32  1  0.64602000  0.09290000  0.20699000  1.0 -0.3096198928
S  S33  1  0.16842000  0.44746000  0.63482000  1.0 -0.3262158649
S  S34  1  0.24422000  0.21812000  0.58764000  1.0 -0.3228426642
S  S35  1  0.32811000  0.26398000  0.70034000  1.0 -0.3096198928
S  S36  1  0.29301000  0.35398000  0.59290000  1.0 -0.3096198928
S  S37  1  0.83158000  0.94746000  0.86518000  1.0 -0.3262158649
S  S38  1  0.75578000  0.71812000  0.91236000  1.0 -0.3228426642
S  S39  1  0.67189000  0.76398000  0.79966000  1.0 -0.3096198928
S  S40  1  0.70699000  0.85398000  0.90710000  1.0 -0.3096198928
S  S41  1  0.66842000  0.05254000  0.36518000  1.0 -0.3262158649
S  S42  1  0.74422000  0.28188000  0.41236000  1.0 -0.3228426642
S  S43  1  0.82811000  0.23602000  0.29966000  1.0 -0.3096198928
S  S44  1  0.79301000  0.14602000  0.40710000  1.0 -0.3096198928
S  S45  1  0.33158000  0.55254000  0.13482000  1.0 -0.3262158649
S  S46  1  0.25578000  0.78188000  0.08764000  1.0 -0.3228426642
S  S47  1  0.17189000  0.73602000  0.20034000  1.0 -0.3096198928
S  S48  1  0.20699000  0.64602000  0.09290000  1.0 -0.3096198928
N  N1  1  0.51894000  0.11830000  0.45560000  1.0 -0.4744515883
N  N2  1  0.51335000  0.33863000  0.25950000  1.0 -0.4480302798
N  N3  1  0.61160000  0.36640000  0.18330000  1.0 -0.488407403
N  N4  1  0.60730000  0.40890000  0.30440000  1.0 -0.488407403
N  N5  1  0.98106000  0.88170000  0.95560000  1.0 -0.4744515883
N  N6  1  0.98665000  0.66137000  0.75950000  1.0 -0.4480302798
N  N7  1  0.88840000  0.63360000  0.68330000  1.0 -0.488407403
N  N8  1  0.89270000  0.59110000  0.80440000  1.0 -0.488407403
N  N9  1  0.48106000  0.61830000  0.04440000  1.0 -0.4744515883
N  N10  1  0.48665000  0.83863000  0.24050000  1.0 -0.4480302798
N  N11  1  0.38840000  0.86640000  0.31670000  1.0 -0.488407403
N  N12  1  0.39270000  0.90890000  0.19560000  1.0 -0.488407403
N  N13  1  0.01894000  0.38170000  0.54440000  1.0 -0.4744515883
N  N14  1  0.01335000  0.16137000  0.74050000  1.0 -0.4480302798
N  N15  1  0.11160000  0.13360000  0.81670000  1.0 -0.488407403
N  N16  1  0.10730000  0.09110000  0.69560000  1.0 -0.488407403
N  N17  1  0.45560000  0.51894000  0.11830000  1.0 -0.4744515883
N  N18  1  0.25950000  0.51335000  0.33863000  1.0 -0.4480302798
N  N19  1  0.18330000  0.61160000  0.36640000  1.0 -0.488407403
N  N20  1  0.30440000  0.60730000  0.40890000  1.0 -0.488407403
N  N21  1  0.95560000  0.98106000  0.88170000  1.0 -0.4744515883
N  N22  1  0.75950000  0.98665000  0.66137000  1.0 -0.4480302798
N  N23  1  0.68330000  0.88840000  0.63360000  1.0 -0.488407403
N  N24  1  0.80440000  0.89270000  0.59110000  1.0 -0.488407403
N  N25  1  0.04440000  0.48106000  0.61830000  1.0 -0.4744515883
N  N26  1  0.24050000  0.48665000  0.83863000  1.0 -0.4480302798
N  N27  1  0.31670000  0.38840000  0.86640000  1.0 -0.488407403
N  N28  1  0.19560000  0.39270000  0.90890000  1.0 -0.488407403
N  N29  1  0.54440000  0.01894000  0.38170000  1.0 -0.4744515883
N  N30  1  0.74050000  0.01335000  0.16137000  1.0 -0.4480302798
N  N31  1  0.81670000  0.11160000  0.13360000  1.0 -0.488407403
N  N32  1  0.69560000  0.10730000  0.09110000  1.0 -0.488407403
N  N33  1  0.11830000  0.45560000  0.51894000  1.0 -0.4744515883
N  N34  1  0.33863000  0.25950000  0.51335000  1.0 -0.4480302798
N  N35  1  0.36640000  0.18330000  0.61160000  1.0 -0.488407403
N  N36  1  0.40890000  0.30440000  0.60730000  1.0 -0.488407403
N  N37  1  0.88170000  0.95560000  0.98106000  1.0 -0.4744515883
N  N38  1  0.66137000  0.75950000  0.98665000  1.0 -0.4480302798
N  N39  1  0.63360000  0.68330000  0.88840000  1.0 -0.488407403
N  N40  1  0.59110000  0.80440000  0.89270000  1.0 -0.488407403
N  N41  1  0.61830000  0.04440000  0.48106000  1.0 -0.4744515883
N  N42  1  0.83863000  0.24050000  0.48665000  1.0 -0.4480302798
N  N43  1  0.86640000  0.31670000  0.38840000  1.0 -0.488407403
N  N44  1  0.90890000  0.19560000  0.39270000  1.0 -0.488407403
N  N45  1  0.38170000  0.54440000  0.01894000  1.0 -0.4744515883
N  N46  1  0.16137000  0.74050000  0.01335000  1.0 -0.4480302798
N  N47  1  0.13360000  0.81670000  0.11160000  1.0 -0.488407403
N  N48  1  0.09110000  0.69560000  0.10730000  1.0 -0.488407403
O  O1  1  0.44200000  0.15270000  0.53970000  1.0 -0.488407403
O  O2  1  0.47370000  0.23230000  0.53840000  1.0 -0.4480302798
O  O3  1  0.40120000  0.31990000  0.27160000  1.0 -0.982023144
O  O4  1  0.39595000  0.26620000  0.19480000  1.0 -0.6203798892
O  O5  1  0.64410000  0.39220000  0.08020000  1.0 -0.488407403
O  O6  1  0.71490000  0.44290000  0.10160000  1.0 -0.4620197506
O  O7  1  0.65080000  0.48560000  0.37830000  1.0 -0.5194128297
O  O8  1  0.58640000  0.47220000  0.44040000  1.0 -0.5761457723
O  O9  1  0.31529000  0.22381000  0.28158000  1.0 -1.4209953787
O  O10  1  0.34560000  0.14070000  0.20230000  1.0 -0.6721394551
O  O11  1  0.28000000  0.11300000  0.26550000  1.0 -0.6994177939
O  O12  1  0.54180000  0.51530000  0.60050000  1.0 -0.6091095499
O  O13  1  0.05800000  0.84730000  0.03970000  1.0 -0.488407403
O  O14  1  0.02630000  0.76770000  0.03840000  1.0 -0.4480302798
O  O15  1  0.09880000  0.68010000  0.77160000  1.0 -0.982023144
O  O16  1  0.10405000  0.73380000  0.69480000  1.0 -0.6203798892
O  O17  1  0.85590000  0.60780000  0.58020000  1.0 -0.488407403
O  O18  1  0.78510000  0.55710000  0.60160000  1.0 -0.4620197506
O  O19  1  0.84920000  0.51440000  0.87830000  1.0 -0.5194128297
O  O20  1  0.91360000  0.52780000  0.94040000  1.0 -0.5761457723
O  O21  1  0.18471000  0.77619000  0.78158000  1.0 -1.4209953787
O  O22  1  0.15440000  0.85930000  0.70230000  1.0 -0.6721394551
O  O23  1  0.22000000  0.88700000  0.76550000  1.0 -0.6994177939
O  O24  1  0.95820000  0.48470000  0.10050000  1.0 -0.6091095499
O  O25  1  0.55800000  0.65270000  0.96030000  1.0 -0.488407403
O  O26  1  0.52630000  0.73230000  0.96160000  1.0 -0.4480302798
O  O27  1  0.59880000  0.81990000  0.22840000  1.0 -0.982023144
O  O28  1  0.60405000  0.76620000  0.30520000  1.0 -0.6203798892
O  O29  1  0.35590000  0.89220000  0.41980000  1.0 -0.488407403
O  O30  1  0.28510000  0.94290000  0.39840000  1.0 -0.4620197506
O  O31  1  0.34920000  0.98560000  0.12170000  1.0 -0.5194128297
O  O32  1  0.41360000  0.97220000  0.05960000  1.0 -0.5761457723
O  O33  1  0.68471000  0.72381000  0.21842000  1.0 -1.4209953787
O  O34  1  0.65440000  0.64070000  0.29770000  1.0 -0.6721394551
O  O35  1  0.72000000  0.61300000  0.23450000  1.0 -0.6994177939
O  O36  1  0.45820000  0.01530000  0.89950000  1.0 -0.6091095499
O  O37  1  0.94200000  0.34730000  0.46030000  1.0 -0.488407403
O  O38  1  0.97370000  0.26770000  0.46160000  1.0 -0.4480302798
O  O39  1  0.90120000  0.18010000  0.72840000  1.0 -0.982023144
O  O40  1  0.89595000  0.23380000  0.80520000  1.0 -0.6203798892
O  O41  1  0.14410000  0.10780000  0.91980000  1.0 -0.488407403
O  O42  1  0.21490000  0.05710000  0.89840000  1.0 -0.4620197506
O  O43  1  0.15080000  0.01440000  0.62170000  1.0 -0.5194128297
O  O44  1  0.08640000  0.02780000  0.55960000  1.0 -0.5761457723
O  O45  1  0.81529000  0.27619000  0.71842000  1.0 -1.4209953787
O  O46  1  0.84560000  0.35930000  0.79770000  1.0 -0.6721394551
O  O47  1  0.78000000  0.38700000  0.73450000  1.0 -0.6994177939
O  O48  1  0.04180000  0.98470000  0.39950000  1.0 -0.6091095499
O  O49  1  0.53970000  0.44200000  0.15270000  1.0 -0.488407403
O  O50  1  0.53840000  0.47370000  0.23230000  1.0 -0.4480302798
O  O51  1  0.27160000  0.40120000  0.31990000  1.0 -0.982023144
O  O52  1  0.19480000  0.39595000  0.26620000  1.0 -0.6203798892
O  O53  1  0.08020000  0.64410000  0.39220000  1.0 -0.488407403
O  O54  1  0.10160000  0.71490000  0.44290000  1.0 -0.4620197506
O  O55  1  0.37830000  0.65080000  0.48560000  1.0 -0.5194128297
O  O56  1  0.44040000  0.58640000  0.47220000  1.0 -0.5761457723
O  O57  1  0.28158000  0.31529000  0.22381000  1.0 -1.4209953787
O  O58  1  0.20230000  0.34560000  0.14070000  1.0 -0.6721394551
O  O59  1  0.26550000  0.28000000  0.11300000  1.0 -0.6994177939
O  O60  1  0.60050000  0.54180000  0.51530000  1.0 -0.6091095499
O  O61  1  0.03970000  0.05800000  0.84730000  1.0 -0.488407403
O  O62  1  0.03840000  0.02630000  0.76770000  1.0 -0.4480302798
O  O63  1  0.77160000  0.09880000  0.68010000  1.0 -0.982023144
O  O64  1  0.69480000  0.10405000  0.73380000  1.0 -0.6203798892
O  O65  1  0.58020000  0.85590000  0.60780000  1.0 -0.488407403
O  O66  1  0.60160000  0.78510000  0.55710000  1.0 -0.4620197506
O  O67  1  0.87830000  0.84920000  0.51440000  1.0 -0.5194128297
O  O68  1  0.94040000  0.91360000  0.52780000  1.0 -0.5761457723
O  O69  1  0.78158000  0.18471000  0.77619000  1.0 -1.4209953787
O  O70  1  0.70230000  0.15440000  0.85930000  1.0 -0.6721394551
O  O71  1  0.76550000  0.22000000  0.88700000  1.0 -0.6994177939
O  O72  1  0.10050000  0.95820000  0.48470000  1.0 -0.6091095499
O  O73  1  0.96030000  0.55800000  0.65270000  1.0 -0.488407403
O  O74  1  0.96160000  0.52630000  0.73230000  1.0 -0.4480302798
O  O75  1  0.22840000  0.59880000  0.81990000  1.0 -0.982023144
O  O76  1  0.30520000  0.60405000  0.76620000  1.0 -0.6203798892
O  O77  1  0.41980000  0.35590000  0.89220000  1.0 -0.488407403
O  O78  1  0.39840000  0.28510000  0.94290000  1.0 -0.4620197506
O  O79  1  0.12170000  0.34920000  0.98560000  1.0 -0.5194128297
O  O80  1  0.05960000  0.41360000  0.97220000  1.0 -0.5761457723
O  O81  1  0.21842000  0.68471000  0.72381000  1.0 -1.4209953787
O  O82  1  0.29770000  0.65440000  0.64070000  1.0 -0.6721394551
O  O83  1  0.23450000  0.72000000  0.61300000  1.0 -0.6994177939
O  O84  1  0.89950000  0.45820000  0.01530000  1.0 -0.6091095499
O  O85  1  0.46030000  0.94200000  0.34730000  1.0 -0.488407403
O  O86  1  0.46160000  0.97370000  0.26770000  1.0 -0.4480302798
O  O87  1  0.72840000  0.90120000  0.18010000  1.0 -0.982023144
O  O88  1  0.80520000  0.89595000  0.23380000  1.0 -0.6203798892
O  O89  1  0.91980000  0.14410000  0.10780000  1.0 -0.488407403
O  O90  1  0.89840000  0.21490000  0.05710000  1.0 -0.4620197506
O  O91  1  0.62170000  0.15080000  0.01440000  1.0 -0.5194128297
O  O92  1  0.55960000  0.08640000  0.02780000  1.0 -0.5761457723
O  O93  1  0.71842000  0.81529000  0.27619000  1.0 -1.4209953787
O  O94  1  0.79770000  0.84560000  0.35930000  1.0 -0.6721394551
O  O95  1  0.73450000  0.78000000  0.38700000  1.0 -0.6994177939
O  O96  1  0.39950000  0.04180000  0.98470000  1.0 -0.6091095499
O  O97  1  0.15270000  0.53970000  0.44200000  1.0 -0.488407403
O  O98  1  0.23230000  0.53840000  0.47370000  1.0 -0.4480302798
O  O99  1  0.31990000  0.27160000  0.40120000  1.0 -0.982023144
O  O100  1  0.26620000  0.19480000  0.39595000  1.0 -0.6203798892
O  O101  1  0.39220000  0.08020000  0.64410000  1.0 -0.488407403
O  O102  1  0.44290000  0.10160000  0.71490000  1.0 -0.4620197506
O  O103  1  0.48560000  0.37830000  0.65080000  1.0 -0.5194128297
O  O104  1  0.47220000  0.44040000  0.58640000  1.0 -0.5761457723
O  O105  1  0.22381000  0.28158000  0.31529000  1.0 -1.4209953787
O  O106  1  0.14070000  0.20230000  0.34560000  1.0 -0.6721394551
O  O107  1  0.11300000  0.26550000  0.28000000  1.0 -0.6994177939
O  O108  1  0.51530000  0.60050000  0.54180000  1.0 -0.6091095499
O  O109  1  0.84730000  0.03970000  0.05800000  1.0 -0.488407403
O  O110  1  0.76770000  0.03840000  0.02630000  1.0 -0.4480302798
O  O111  1  0.68010000  0.77160000  0.09880000  1.0 -0.982023144
O  O112  1  0.73380000  0.69480000  0.10405000  1.0 -0.6203798892
O  O113  1  0.60780000  0.58020000  0.85590000  1.0 -0.488407403
O  O114  1  0.55710000  0.60160000  0.78510000  1.0 -0.4620197506
O  O115  1  0.51440000  0.87830000  0.84920000  1.0 -0.5194128297
O  O116  1  0.52780000  0.94040000  0.91360000  1.0 -0.5761457723
O  O117  1  0.77619000  0.78158000  0.18471000  1.0 -1.4209953787
O  O118  1  0.85930000  0.70230000  0.15440000  1.0 -0.6721394551
O  O119  1  0.88700000  0.76550000  0.22000000  1.0 -0.6994177939
O  O120  1  0.48470000  0.10050000  0.95820000  1.0 -0.6091095499
O  O121  1  0.65270000  0.96030000  0.55800000  1.0 -0.488407403
O  O122  1  0.73230000  0.96160000  0.52630000  1.0 -0.4480302798
O  O123  1  0.81990000  0.22840000  0.59880000  1.0 -0.982023144
O  O124  1  0.76620000  0.30520000  0.60405000  1.0 -0.6203798892
O  O125  1  0.89220000  0.41980000  0.35590000  1.0 -0.488407403
O  O126  1  0.94290000  0.39840000  0.28510000  1.0 -0.4620197506
O  O127  1  0.98560000  0.12170000  0.34920000  1.0 -0.5194128297
O  O128  1  0.97220000  0.05960000  0.41360000  1.0 -0.5761457723
O  O129  1  0.72381000  0.21842000  0.68471000  1.0 -1.4209953787
O  O130  1  0.64070000  0.29770000  0.65440000  1.0 -0.6721394551
O  O131  1  0.61300000  0.23450000  0.72000000  1.0 -0.6994177939
O  O132  1  0.01530000  0.89950000  0.45820000  1.0 -0.6091095499
O  O133  1  0.34730000  0.46030000  0.94200000  1.0 -0.488407403
O  O134  1  0.26770000  0.46160000  0.97370000  1.0 -0.4480302798
O  O135  1  0.18010000  0.72840000  0.90120000  1.0 -0.982023144
O  O136  1  0.23380000  0.80520000  0.89595000  1.0 -0.6203798892
O  O137  1  0.10780000  0.91980000  0.14410000  1.0 -0.488407403
O  O138  1  0.05710000  0.89840000  0.21490000  1.0 -0.4620197506
O  O139  1  0.01440000  0.62170000  0.15080000  1.0 -0.5194128297
O  O140  1  0.02780000  0.55960000  0.08640000  1.0 -0.5761457723
O  O141  1  0.27619000  0.71842000  0.81529000  1.0 -1.4209953787
O  O142  1  0.35930000  0.79770000  0.84560000  1.0 -0.6721394551
O  O143  1  0.38700000  0.73450000  0.78000000  1.0 -0.6994177939
O  O144  1  0.98470000  0.39950000  0.04180000  1.0 -0.6091095499
O  O145  1  0.68863000  0.18863000  0.31137000  1.0 -0.8272550346
O  O146  1  0.81137000  0.81137000  0.81137000  1.0 -0.8272550346
O  O147  1  0.31137000  0.68863000  0.18863000  1.0 -0.8272550346
O  O148  1  0.18863000  0.31137000  0.68863000  1.0 -0.8272550346
O  O149  1  0.21906000  0.21906000  0.21906000  1.0 -1.2137845399
O  O150  1  0.37154000  0.37154000  0.37154000  1.0 -1.3184025528
O  O151  1  0.28094000  0.78094000  0.71906000  1.0 -1.2137845399
O  O152  1  0.12846000  0.62846000  0.87154000  1.0 -1.3184025528
O  O153  1  0.78094000  0.71906000  0.28094000  1.0 -1.2137845399
O  O154  1  0.62846000  0.87154000  0.12846000  1.0 -1.3184025528
O  O155  1  0.71906000  0.28094000  0.78094000  1.0 -1.2137845399
O  O156  1  0.87154000  0.12846000  0.62846000  1.0 -1.3184025528
