# DDEC6 charges by PACMAN v1.1 (https://github.com/mtap-research/PACMAN-charge/)
data_DACQEH_ASR_pacman
_symmetry_space_group_name_H-M   'P 1'
_cell_length_a   23.72240000
_cell_length_b   23.72240000
_cell_length_c   23.72240000
_cell_angle_alpha   90.00000000
_cell_angle_beta   90.00000000
_cell_angle_gamma   90.00000000
_symmetry_Int_Tables_number   1
_chemical_formula_structural   Lu12Zn4H73Rh4C42S12N12O43
_chemical_formula_sum   'Lu48 Zn16 H292 Rh16 C168 S48 N48 O172'
_cell_volume   13349.83425438
_cell_formula_units_Z   4
loop_
 _symmetry_equiv_pos_site_id
 _symmetry_equiv_pos_as_xyz
  1  'x, y, z'
loop_
 _atom_site_type_symbol
 _atom_site_label
 _atom_site_symmetry_multiplicity
 _atom_site_fract_x
 _atom_site_fract_y
 _atom_site_fract_z
 _atom_site_occupancy
 _atom_site_charge
Lu  Lu1  1  0.31350000  0.31140000  0.32020000  1.0 1.7706804071
Lu  Lu2  1  0.30976000  0.23013000  0.18501000  1.0 1.5518459473
Lu  Lu3  1  0.54960000  0.47600000  0.53100000  1.0 0.7405987873
Lu  Lu4  1  0.57480000  0.45500000  0.99260000  1.0 0.3859121893
Lu  Lu5  1  0.18650000  0.68860000  0.82020000  1.0 1.7706804071
Lu  Lu6  1  0.19024000  0.76987000  0.68501000  1.0 1.5616659556
Lu  Lu7  1  0.95040000  0.52400000  0.03100000  1.0 0.7405987873
Lu  Lu8  1  0.92520000  0.54500000  0.49260000  1.0 0.3800150945
Lu  Lu9  1  0.68650000  0.81140000  0.17980000  1.0 1.7706804071
Lu  Lu10  1  0.69024000  0.73013000  0.31499000  1.0 1.5616659556
Lu  Lu11  1  0.45040000  0.97600000  0.96900000  1.0 0.7279349361
Lu  Lu12  1  0.42520000  0.95500000  0.50740000  1.0 0.3859121893
Lu  Lu13  1  0.81350000  0.18860000  0.67980000  1.0 1.7706804071
Lu  Lu14  1  0.80976000  0.26987000  0.81499000  1.0 1.5677622352
Lu  Lu15  1  0.04960000  0.02400000  0.46900000  1.0 0.7279349361
Lu  Lu16  1  0.07480000  0.04500000  0.00740000  1.0 0.3800150945
Lu  Lu17  1  0.32020000  0.31350000  0.31140000  1.0 1.7706804071
Lu  Lu18  1  0.18501000  0.30976000  0.23013000  1.0 1.5518459473
Lu  Lu19  1  0.53100000  0.54960000  0.47600000  1.0 0.7405987873
Lu  Lu20  1  0.99260000  0.57480000  0.45500000  1.0 0.3859121893
Lu  Lu21  1  0.82020000  0.18650000  0.68860000  1.0 1.7706804071
Lu  Lu22  1  0.68501000  0.19024000  0.76987000  1.0 1.5677622352
Lu  Lu23  1  0.03100000  0.95040000  0.52400000  1.0 0.7405987873
Lu  Lu24  1  0.49260000  0.92520000  0.54500000  1.0 0.3800150945
Lu  Lu25  1  0.17980000  0.68650000  0.81140000  1.0 1.7706804071
Lu  Lu26  1  0.31499000  0.69024000  0.73013000  1.0 1.5616659556
Lu  Lu27  1  0.96900000  0.45040000  0.97600000  1.0 0.7279349361
Lu  Lu28  1  0.50740000  0.42520000  0.95500000  1.0 0.3859121893
Lu  Lu29  1  0.67980000  0.81350000  0.18860000  1.0 1.7706804071
Lu  Lu30  1  0.81499000  0.80976000  0.26987000  1.0 1.5677622352
Lu  Lu31  1  0.46900000  0.04960000  0.02400000  1.0 0.7279349361
Lu  Lu32  1  0.00740000  0.07480000  0.04500000  1.0 0.3800150945
Lu  Lu33  1  0.31140000  0.32020000  0.31350000  1.0 1.7706804071
Lu  Lu34  1  0.23013000  0.18501000  0.30976000  1.0 1.5518459473
Lu  Lu35  1  0.47600000  0.53100000  0.54960000  1.0 0.7405987873
Lu  Lu36  1  0.45500000  0.99260000  0.57480000  1.0 0.3859121893
Lu  Lu37  1  0.68860000  0.82020000  0.18650000  1.0 1.7706804071
Lu  Lu38  1  0.76987000  0.68501000  0.19024000  1.0 1.5677622352
Lu  Lu39  1  0.52400000  0.03100000  0.95040000  1.0 0.7405987873
Lu  Lu40  1  0.54500000  0.49260000  0.92520000  1.0 0.3800150945
Lu  Lu41  1  0.81140000  0.17980000  0.68650000  1.0 1.7706804071
Lu  Lu42  1  0.73013000  0.31499000  0.69024000  1.0 1.5616659556
Lu  Lu43  1  0.97600000  0.96900000  0.45040000  1.0 0.7279349361
Lu  Lu44  1  0.95500000  0.50740000  0.42520000  1.0 0.3859121893
Lu  Lu45  1  0.18860000  0.67980000  0.81350000  1.0 1.7706804071
Lu  Lu46  1  0.26987000  0.81499000  0.80976000  1.0 1.5616659556
Lu  Lu47  1  0.02400000  0.46900000  0.04960000  1.0 0.7279349361
Lu  Lu48  1  0.04500000  0.00740000  0.07480000  1.0 0.3800150945
Zn  Zn1  1  0.66968000  0.23295000  0.37608000  1.0 0.5422541394
Zn  Zn2  1  0.83032000  0.76705000  0.87608000  1.0 0.5422541394
Zn  Zn3  1  0.33032000  0.73295000  0.12392000  1.0 0.5422541394
Zn  Zn4  1  0.16968000  0.26705000  0.62392000  1.0 0.5422541394
Zn  Zn5  1  0.37608000  0.66968000  0.23295000  1.0 0.5422541394
Zn  Zn6  1  0.87608000  0.83032000  0.76705000  1.0 0.5422541394
Zn  Zn7  1  0.12392000  0.33032000  0.73295000  1.0 0.5422541394
Zn  Zn8  1  0.62392000  0.16968000  0.26705000  1.0 0.5422541394
Zn  Zn9  1  0.23295000  0.37608000  0.66968000  1.0 0.5422541394
Zn  Zn10  1  0.76705000  0.87608000  0.83032000  1.0 0.5422541394
Zn  Zn11  1  0.73295000  0.12392000  0.33032000  1.0 0.5422541394
Zn  Zn12  1  0.26705000  0.62392000  0.16968000  1.0 0.5422541394
Zn  Zn13  1  0.73936000  0.23936000  0.26064000  1.0 0.5292688106
Zn  Zn14  1  0.76064000  0.76064000  0.76064000  1.0 0.5292688106
Zn  Zn15  1  0.26064000  0.73936000  0.23936000  1.0 0.5292688106
Zn  Zn16  1  0.23936000  0.26064000  0.73936000  1.0 0.5292688106
H  H1  1  0.49497000  0.13438000  0.42784000  1.0 0.2609663712
H  H2  1  0.50397000  0.09108000  0.47111000  1.0 0.287582464
H  H3  1  0.50064000  0.33386000  0.29651000  1.0 0.2724847199
H  H4  1  0.50464000  0.37570000  0.25094000  1.0 0.2724847199
H  H5  1  0.64598000  0.42202000  0.30128000  1.0 0.2609663712
H  H6  1  0.58814000  0.43589000  0.28411000  1.0 0.2783176595
H  H7  1  0.60223000  0.34451000  0.15560000  1.0 0.2724847199
H  H8  1  0.58181000  0.39788000  0.17979000  1.0 0.2724847199
H  H9  1  0.58440000  0.23577000  0.49860000  1.0 0.1293165314
H  H10  1  0.55558000  0.22777000  0.43794000  1.0 0.113771645
H  H11  1  0.55033000  0.14714000  0.52859000  1.0 0.1043315474
H  H12  1  0.49461000  0.21359000  0.20493000  1.0 0.138221914
H  H13  1  0.50542000  0.22850000  0.27014000  1.0 0.1207816676
H  H14  1  0.49411000  0.31188000  0.18203000  1.0 0.1207816676
H  H15  1  0.60524000  0.35520000  0.43176000  1.0 0.1293165314
H  H16  1  0.65981000  0.36138000  0.39213000  1.0 0.113771645
H  H17  1  0.54946000  0.40639000  0.36529000  1.0 0.0872395306
H  H18  1  0.74801000  0.36698000  0.17959000  1.0 0.1293165314
H  H19  1  0.70470000  0.31852000  0.16035000  1.0 0.113771645
H  H20  1  0.66985000  0.42858000  0.20034000  1.0 0.0872395306
H  H21  1  0.34934000  0.20232000  0.29655000  1.0 0.3140187357
H  H22  1  0.38635000  0.05289000  0.22382000  1.0 0.1604458435
H  H23  1  0.36621000  0.05342000  0.28820000  1.0 0.1519445573
H  H24  1  0.32897000  0.02212000  0.24147000  1.0 0.1604458435
H  H25  1  0.00503000  0.86562000  0.92784000  1.0 0.2609663712
H  H26  1  0.99603000  0.90892000  0.97111000  1.0 0.287582464
H  H27  1  0.99936000  0.66614000  0.79651000  1.0 0.2724847199
H  H28  1  0.99536000  0.62430000  0.75094000  1.0 0.2783176595
H  H29  1  0.85402000  0.57798000  0.80128000  1.0 0.2609663712
H  H30  1  0.91186000  0.56411000  0.78411000  1.0 0.2783176595
H  H31  1  0.89777000  0.65549000  0.65560000  1.0 0.2724847199
H  H32  1  0.91819000  0.60212000  0.67979000  1.0 0.2724847199
H  H33  1  0.91560000  0.76423000  0.99860000  1.0 0.1293165314
H  H34  1  0.94442000  0.77223000  0.93794000  1.0 0.113771645
H  H35  1  0.94967000  0.85286000  0.02859000  1.0 0.1043315474
H  H36  1  0.00539000  0.78641000  0.70493000  1.0 0.138221914
H  H37  1  0.99458000  0.77150000  0.77014000  1.0 0.1207816676
H  H38  1  0.00589000  0.68812000  0.68203000  1.0 0.1207816676
H  H39  1  0.89476000  0.64480000  0.93176000  1.0 0.1293165314
H  H40  1  0.84019000  0.63862000  0.89213000  1.0 0.113771645
H  H41  1  0.95054000  0.59361000  0.86529000  1.0 0.0872395306
H  H42  1  0.75199000  0.63302000  0.67959000  1.0 0.1293165314
H  H43  1  0.79530000  0.68148000  0.66035000  1.0 0.113771645
H  H44  1  0.83015000  0.57142000  0.70034000  1.0 0.0872395306
H  H45  1  0.15066000  0.79768000  0.79655000  1.0 0.3140187357
H  H46  1  0.11365000  0.94711000  0.72382000  1.0 0.1604458435
H  H47  1  0.13379000  0.94658000  0.78820000  1.0 0.1519445573
H  H48  1  0.17103000  0.97788000  0.74147000  1.0 0.1604458435
H  H49  1  0.50503000  0.63438000  0.07216000  1.0 0.2609663712
H  H50  1  0.49603000  0.59108000  0.02889000  1.0 0.287582464
H  H51  1  0.49936000  0.83386000  0.20349000  1.0 0.2724847199
H  H52  1  0.49536000  0.87570000  0.24906000  1.0 0.2783176595
H  H53  1  0.35402000  0.92202000  0.19872000  1.0 0.2609663712
H  H54  1  0.41186000  0.93589000  0.21589000  1.0 0.2783176595
H  H55  1  0.39777000  0.84451000  0.34440000  1.0 0.2724847199
H  H56  1  0.41819000  0.89788000  0.32021000  1.0 0.2724847199
H  H57  1  0.41560000  0.73577000  0.00140000  1.0 0.1293165314
H  H58  1  0.44442000  0.72777000  0.06206000  1.0 0.113771645
H  H59  1  0.44967000  0.64714000  0.97141000  1.0 0.1043315474
H  H60  1  0.50539000  0.71359000  0.29507000  1.0 0.138221914
H  H61  1  0.49458000  0.72850000  0.22986000  1.0 0.1207816676
H  H62  1  0.50589000  0.81188000  0.31797000  1.0 0.1207816676
H  H63  1  0.39476000  0.85520000  0.06824000  1.0 0.1293165314
H  H64  1  0.34019000  0.86138000  0.10787000  1.0 0.113771645
H  H65  1  0.45054000  0.90639000  0.13471000  1.0 0.0872395306
H  H66  1  0.25199000  0.86698000  0.32041000  1.0 0.1293165314
H  H67  1  0.29530000  0.81852000  0.33965000  1.0 0.113771645
H  H68  1  0.33015000  0.92858000  0.29966000  1.0 0.0872395306
H  H69  1  0.65066000  0.70232000  0.20345000  1.0 0.3140187357
H  H70  1  0.61365000  0.55289000  0.27618000  1.0 0.1604458435
H  H71  1  0.63379000  0.55342000  0.21180000  1.0 0.1519445573
H  H72  1  0.67103000  0.52212000  0.25853000  1.0 0.1604458435
H  H73  1  0.99497000  0.36562000  0.57216000  1.0 0.2609663712
H  H74  1  0.00397000  0.40892000  0.52889000  1.0 0.287582464
H  H75  1  0.00064000  0.16614000  0.70349000  1.0 0.2724847199
H  H76  1  0.00464000  0.12430000  0.74906000  1.0 0.2783176595
H  H77  1  0.14598000  0.07798000  0.69872000  1.0 0.2609663712
H  H78  1  0.08814000  0.06411000  0.71589000  1.0 0.2783176595
H  H79  1  0.10223000  0.15549000  0.84440000  1.0 0.2724847199
H  H80  1  0.08181000  0.10212000  0.82021000  1.0 0.2724847199
H  H81  1  0.08440000  0.26423000  0.50140000  1.0 0.1293165314
H  H82  1  0.05558000  0.27223000  0.56206000  1.0 0.113771645
H  H83  1  0.05033000  0.35286000  0.47141000  1.0 0.1043315474
H  H84  1  0.99461000  0.28641000  0.79507000  1.0 0.138221914
H  H85  1  0.00542000  0.27150000  0.72986000  1.0 0.1207816676
H  H86  1  0.99411000  0.18812000  0.81797000  1.0 0.1207816676
H  H87  1  0.10524000  0.14480000  0.56824000  1.0 0.1293165314
H  H88  1  0.15981000  0.13862000  0.60787000  1.0 0.113771645
H  H89  1  0.04946000  0.09361000  0.63471000  1.0 0.0872395306
H  H90  1  0.24801000  0.13302000  0.82041000  1.0 0.1293165314
H  H91  1  0.20470000  0.18148000  0.83965000  1.0 0.113771645
H  H92  1  0.16985000  0.07142000  0.79966000  1.0 0.0872395306
H  H93  1  0.84934000  0.29768000  0.70345000  1.0 0.3140187357
H  H94  1  0.88635000  0.44711000  0.77618000  1.0 0.1604458435
H  H95  1  0.86621000  0.44658000  0.71180000  1.0 0.1519445573
H  H96  1  0.82897000  0.47788000  0.75853000  1.0 0.1604458435
H  H97  1  0.42784000  0.49497000  0.13438000  1.0 0.2609663712
H  H98  1  0.47111000  0.50397000  0.09108000  1.0 0.287582464
H  H99  1  0.29651000  0.50064000  0.33386000  1.0 0.2724847199
H  H100  1  0.25094000  0.50464000  0.37570000  1.0 0.2724847199
H  H101  1  0.30128000  0.64598000  0.42202000  1.0 0.2609663712
H  H102  1  0.28411000  0.58814000  0.43589000  1.0 0.2783176595
H  H103  1  0.15560000  0.60223000  0.34451000  1.0 0.2724847199
H  H104  1  0.17979000  0.58181000  0.39788000  1.0 0.2724847199
H  H105  1  0.49860000  0.58440000  0.23577000  1.0 0.1293165314
H  H106  1  0.43794000  0.55558000  0.22777000  1.0 0.113771645
H  H107  1  0.52859000  0.55033000  0.14714000  1.0 0.1043315474
H  H108  1  0.20493000  0.49461000  0.21359000  1.0 0.138221914
H  H109  1  0.27014000  0.50542000  0.22850000  1.0 0.1207816676
H  H110  1  0.18203000  0.49411000  0.31188000  1.0 0.1207816676
H  H111  1  0.43176000  0.60524000  0.35520000  1.0 0.1293165314
H  H112  1  0.39213000  0.65981000  0.36138000  1.0 0.113771645
H  H113  1  0.36529000  0.54946000  0.40639000  1.0 0.0872395306
H  H114  1  0.17959000  0.74801000  0.36698000  1.0 0.1293165314
H  H115  1  0.16035000  0.70470000  0.31852000  1.0 0.113771645
H  H116  1  0.20034000  0.66985000  0.42858000  1.0 0.0872395306
H  H117  1  0.29655000  0.34934000  0.20232000  1.0 0.3140187357
H  H118  1  0.22382000  0.38635000  0.05289000  1.0 0.1604458435
H  H119  1  0.28820000  0.36621000  0.05342000  1.0 0.1519445573
H  H120  1  0.24147000  0.32897000  0.02212000  1.0 0.1604458435
H  H121  1  0.92784000  0.00503000  0.86562000  1.0 0.2609663712
H  H122  1  0.97111000  0.99603000  0.90892000  1.0 0.287582464
H  H123  1  0.79651000  0.99936000  0.66614000  1.0 0.2724847199
H  H124  1  0.75094000  0.99536000  0.62430000  1.0 0.2783176595
H  H125  1  0.80128000  0.85402000  0.57798000  1.0 0.2609663712
H  H126  1  0.78411000  0.91186000  0.56411000  1.0 0.2783176595
H  H127  1  0.65560000  0.89777000  0.65549000  1.0 0.2724847199
H  H128  1  0.67979000  0.91819000  0.60212000  1.0 0.2724847199
H  H129  1  0.99860000  0.91560000  0.76423000  1.0 0.1293165314
H  H130  1  0.93794000  0.94442000  0.77223000  1.0 0.113771645
H  H131  1  0.02859000  0.94967000  0.85286000  1.0 0.1043315474
H  H132  1  0.70493000  0.00539000  0.78641000  1.0 0.138221914
H  H133  1  0.77014000  0.99458000  0.77150000  1.0 0.1207816676
H  H134  1  0.68203000  0.00589000  0.68812000  1.0 0.1207816676
H  H135  1  0.93176000  0.89476000  0.64480000  1.0 0.1293165314
H  H136  1  0.89213000  0.84019000  0.63862000  1.0 0.113771645
H  H137  1  0.86529000  0.95054000  0.59361000  1.0 0.0872395306
H  H138  1  0.67959000  0.75199000  0.63302000  1.0 0.1293165314
H  H139  1  0.66035000  0.79530000  0.68148000  1.0 0.113771645
H  H140  1  0.70034000  0.83015000  0.57142000  1.0 0.0872395306
H  H141  1  0.79655000  0.15066000  0.79768000  1.0 0.3140187357
H  H142  1  0.72382000  0.11365000  0.94711000  1.0 0.1604458435
H  H143  1  0.78820000  0.13379000  0.94658000  1.0 0.1519445573
H  H144  1  0.74147000  0.17103000  0.97788000  1.0 0.1604458435
H  H145  1  0.07216000  0.50503000  0.63438000  1.0 0.2609663712
H  H146  1  0.02889000  0.49603000  0.59108000  1.0 0.287582464
H  H147  1  0.20349000  0.49936000  0.83386000  1.0 0.2724847199
H  H148  1  0.24906000  0.49536000  0.87570000  1.0 0.2783176595
H  H149  1  0.19872000  0.35402000  0.92202000  1.0 0.2609663712
H  H150  1  0.21589000  0.41186000  0.93589000  1.0 0.2783176595
H  H151  1  0.34440000  0.39777000  0.84451000  1.0 0.2724847199
H  H152  1  0.32021000  0.41819000  0.89788000  1.0 0.2724847199
H  H153  1  0.00140000  0.41560000  0.73577000  1.0 0.1293165314
H  H154  1  0.06206000  0.44442000  0.72777000  1.0 0.113771645
H  H155  1  0.97141000  0.44967000  0.64714000  1.0 0.1043315474
H  H156  1  0.29507000  0.50539000  0.71359000  1.0 0.138221914
H  H157  1  0.22986000  0.49458000  0.72850000  1.0 0.1207816676
H  H158  1  0.31797000  0.50589000  0.81188000  1.0 0.1207816676
H  H159  1  0.06824000  0.39476000  0.85520000  1.0 0.1293165314
H  H160  1  0.10787000  0.34019000  0.86138000  1.0 0.113771645
H  H161  1  0.13471000  0.45054000  0.90639000  1.0 0.0872395306
H  H162  1  0.32041000  0.25199000  0.86698000  1.0 0.1293165314
H  H163  1  0.33965000  0.29530000  0.81852000  1.0 0.113771645
H  H164  1  0.29966000  0.33015000  0.92858000  1.0 0.0872395306
H  H165  1  0.20345000  0.65066000  0.70232000  1.0 0.3140187357
H  H166  1  0.27618000  0.61365000  0.55289000  1.0 0.1604458435
H  H167  1  0.21180000  0.63379000  0.55342000  1.0 0.1519445573
H  H168  1  0.25853000  0.67103000  0.52212000  1.0 0.1604458435
H  H169  1  0.57216000  0.99497000  0.36562000  1.0 0.2609663712
H  H170  1  0.52889000  0.00397000  0.40892000  1.0 0.287582464
H  H171  1  0.70349000  0.00064000  0.16614000  1.0 0.2724847199
H  H172  1  0.74906000  0.00464000  0.12430000  1.0 0.2783176595
H  H173  1  0.69872000  0.14598000  0.07798000  1.0 0.2609663712
H  H174  1  0.71589000  0.08814000  0.06411000  1.0 0.2783176595
H  H175  1  0.84440000  0.10223000  0.15549000  1.0 0.2724847199
H  H176  1  0.82021000  0.08181000  0.10212000  1.0 0.2724847199
H  H177  1  0.50140000  0.08440000  0.26423000  1.0 0.1293165314
H  H178  1  0.56206000  0.05558000  0.27223000  1.0 0.113771645
H  H179  1  0.47141000  0.05033000  0.35286000  1.0 0.1043315474
H  H180  1  0.79507000  0.99461000  0.28641000  1.0 0.138221914
H  H181  1  0.72986000  0.00542000  0.27150000  1.0 0.1207816676
H  H182  1  0.81797000  0.99411000  0.18812000  1.0 0.1207816676
H  H183  1  0.56824000  0.10524000  0.14480000  1.0 0.1293165314
H  H184  1  0.60787000  0.15981000  0.13862000  1.0 0.113771645
H  H185  1  0.63471000  0.04946000  0.09361000  1.0 0.0872395306
H  H186  1  0.82041000  0.24801000  0.13302000  1.0 0.1293165314
H  H187  1  0.83965000  0.20470000  0.18148000  1.0 0.113771645
H  H188  1  0.79966000  0.16985000  0.07142000  1.0 0.0872395306
H  H189  1  0.70345000  0.84934000  0.29768000  1.0 0.3140187357
H  H190  1  0.77618000  0.88635000  0.44711000  1.0 0.1604458435
H  H191  1  0.71180000  0.86621000  0.44658000  1.0 0.1519445573
H  H192  1  0.75853000  0.82897000  0.47788000  1.0 0.1604458435
H  H193  1  0.13438000  0.42784000  0.49497000  1.0 0.2609663712
H  H194  1  0.09108000  0.47111000  0.50397000  1.0 0.287582464
H  H195  1  0.33386000  0.29651000  0.50064000  1.0 0.2724847199
H  H196  1  0.37570000  0.25094000  0.50464000  1.0 0.2724847199
H  H197  1  0.42202000  0.30128000  0.64598000  1.0 0.2609663712
H  H198  1  0.43589000  0.28411000  0.58814000  1.0 0.2783176595
H  H199  1  0.34451000  0.15560000  0.60223000  1.0 0.2724847199
H  H200  1  0.39788000  0.17979000  0.58181000  1.0 0.2724847199
H  H201  1  0.23577000  0.49860000  0.58440000  1.0 0.1293165314
H  H202  1  0.22777000  0.43794000  0.55558000  1.0 0.113771645
H  H203  1  0.14714000  0.52859000  0.55033000  1.0 0.1043315474
H  H204  1  0.21359000  0.20493000  0.49461000  1.0 0.138221914
H  H205  1  0.22850000  0.27014000  0.50542000  1.0 0.1207816676
H  H206  1  0.31188000  0.18203000  0.49411000  1.0 0.1207816676
H  H207  1  0.35520000  0.43176000  0.60524000  1.0 0.1293165314
H  H208  1  0.36138000  0.39213000  0.65981000  1.0 0.113771645
H  H209  1  0.40639000  0.36529000  0.54946000  1.0 0.0872395306
H  H210  1  0.36698000  0.17959000  0.74801000  1.0 0.1293165314
H  H211  1  0.31852000  0.16035000  0.70470000  1.0 0.113771645
H  H212  1  0.42858000  0.20034000  0.66985000  1.0 0.0872395306
H  H213  1  0.20232000  0.29655000  0.34934000  1.0 0.3140187357
H  H214  1  0.05289000  0.22382000  0.38635000  1.0 0.1604458435
H  H215  1  0.05342000  0.28820000  0.36621000  1.0 0.1519445573
H  H216  1  0.02212000  0.24147000  0.32897000  1.0 0.1604458435
H  H217  1  0.86562000  0.92784000  0.00503000  1.0 0.2609663712
H  H218  1  0.90892000  0.97111000  0.99603000  1.0 0.287582464
H  H219  1  0.66614000  0.79651000  0.99936000  1.0 0.2724847199
H  H220  1  0.62430000  0.75094000  0.99536000  1.0 0.2783176595
H  H221  1  0.57798000  0.80128000  0.85402000  1.0 0.2609663712
H  H222  1  0.56411000  0.78411000  0.91186000  1.0 0.2783176595
H  H223  1  0.65549000  0.65560000  0.89777000  1.0 0.2724847199
H  H224  1  0.60212000  0.67979000  0.91819000  1.0 0.2724847199
H  H225  1  0.76423000  0.99860000  0.91560000  1.0 0.1293165314
H  H226  1  0.77223000  0.93794000  0.94442000  1.0 0.113771645
H  H227  1  0.85286000  0.02859000  0.94967000  1.0 0.1043315474
H  H228  1  0.78641000  0.70493000  0.00539000  1.0 0.138221914
H  H229  1  0.77150000  0.77014000  0.99458000  1.0 0.1207816676
H  H230  1  0.68812000  0.68203000  0.00589000  1.0 0.1207816676
H  H231  1  0.64480000  0.93176000  0.89476000  1.0 0.1293165314
H  H232  1  0.63862000  0.89213000  0.84019000  1.0 0.113771645
H  H233  1  0.59361000  0.86529000  0.95054000  1.0 0.0872395306
H  H234  1  0.63302000  0.67959000  0.75199000  1.0 0.1293165314
H  H235  1  0.68148000  0.66035000  0.79530000  1.0 0.113771645
H  H236  1  0.57142000  0.70034000  0.83015000  1.0 0.0872395306
H  H237  1  0.79768000  0.79655000  0.15066000  1.0 0.3140187357
H  H238  1  0.94711000  0.72382000  0.11365000  1.0 0.1604458435
H  H239  1  0.94658000  0.78820000  0.13379000  1.0 0.1519445573
H  H240  1  0.97788000  0.74147000  0.17103000  1.0 0.1604458435
H  H241  1  0.63438000  0.07216000  0.50503000  1.0 0.2609663712
H  H242  1  0.59108000  0.02889000  0.49603000  1.0 0.287582464
H  H243  1  0.83386000  0.20349000  0.49936000  1.0 0.2724847199
H  H244  1  0.87570000  0.24906000  0.49536000  1.0 0.2783176595
H  H245  1  0.92202000  0.19872000  0.35402000  1.0 0.2609663712
H  H246  1  0.93589000  0.21589000  0.41186000  1.0 0.2783176595
H  H247  1  0.84451000  0.34440000  0.39777000  1.0 0.2724847199
H  H248  1  0.89788000  0.32021000  0.41819000  1.0 0.2724847199
H  H249  1  0.73577000  0.00140000  0.41560000  1.0 0.1293165314
H  H250  1  0.72777000  0.06206000  0.44442000  1.0 0.113771645
H  H251  1  0.64714000  0.97141000  0.44967000  1.0 0.1043315474
H  H252  1  0.71359000  0.29507000  0.50539000  1.0 0.138221914
H  H253  1  0.72850000  0.22986000  0.49458000  1.0 0.1207816676
H  H254  1  0.81188000  0.31797000  0.50589000  1.0 0.1207816676
H  H255  1  0.85520000  0.06824000  0.39476000  1.0 0.1293165314
H  H256  1  0.86138000  0.10787000  0.34019000  1.0 0.113771645
H  H257  1  0.90639000  0.13471000  0.45054000  1.0 0.0872395306
H  H258  1  0.86698000  0.32041000  0.25199000  1.0 0.1293165314
H  H259  1  0.81852000  0.33965000  0.29530000  1.0 0.113771645
H  H260  1  0.92858000  0.29966000  0.33015000  1.0 0.0872395306
H  H261  1  0.70232000  0.20345000  0.65066000  1.0 0.3140187357
H  H262  1  0.55289000  0.27618000  0.61365000  1.0 0.1604458435
H  H263  1  0.55342000  0.21180000  0.63379000  1.0 0.1519445573
H  H264  1  0.52212000  0.25853000  0.67103000  1.0 0.1604458435
H  H265  1  0.36562000  0.57216000  0.99497000  1.0 0.2609663712
H  H266  1  0.40892000  0.52889000  0.00397000  1.0 0.287582464
H  H267  1  0.16614000  0.70349000  0.00064000  1.0 0.2724847199
H  H268  1  0.12430000  0.74906000  0.00464000  1.0 0.2783176595
H  H269  1  0.07798000  0.69872000  0.14598000  1.0 0.2609663712
H  H270  1  0.06411000  0.71589000  0.08814000  1.0 0.2783176595
H  H271  1  0.15549000  0.84440000  0.10223000  1.0 0.2724847199
H  H272  1  0.10212000  0.82021000  0.08181000  1.0 0.2724847199
H  H273  1  0.26423000  0.50140000  0.08440000  1.0 0.1293165314
H  H274  1  0.27223000  0.56206000  0.05558000  1.0 0.113771645
H  H275  1  0.35286000  0.47141000  0.05033000  1.0 0.1043315474
H  H276  1  0.28641000  0.79507000  0.99461000  1.0 0.138221914
H  H277  1  0.27150000  0.72986000  0.00542000  1.0 0.1207816676
H  H278  1  0.18812000  0.81797000  0.99411000  1.0 0.1207816676
H  H279  1  0.14480000  0.56824000  0.10524000  1.0 0.1293165314
H  H280  1  0.13862000  0.60787000  0.15981000  1.0 0.113771645
H  H281  1  0.09361000  0.63471000  0.04946000  1.0 0.0872395306
H  H282  1  0.13302000  0.82041000  0.24801000  1.0 0.1293165314
H  H283  1  0.18148000  0.83965000  0.20470000  1.0 0.113771645
H  H284  1  0.07142000  0.79966000  0.16985000  1.0 0.0872395306
H  H285  1  0.29768000  0.70345000  0.84934000  1.0 0.3140187357
H  H286  1  0.44711000  0.77618000  0.88635000  1.0 0.1604458435
H  H287  1  0.44658000  0.71180000  0.86621000  1.0 0.1519445573
H  H288  1  0.47788000  0.75853000  0.82897000  1.0 0.1604458435
H  H289  1  0.19676000  0.19676000  0.19676000  1.0 0.3982812782
H  H290  1  0.30324000  0.80324000  0.69676000  1.0 0.3982812782
H  H291  1  0.80324000  0.69676000  0.30324000  1.0 0.3982812782
H  H292  1  0.69676000  0.30324000  0.80324000  1.0 0.3982812782
Rh  Rh1  1  0.60302000  0.33259000  0.26216000  1.0 0.4606763572
Rh  Rh2  1  0.89698000  0.66741000  0.76216000  1.0 0.4606763572
Rh  Rh3  1  0.39698000  0.83259000  0.23784000  1.0 0.4606763572
Rh  Rh4  1  0.10302000  0.16741000  0.73784000  1.0 0.4606763572
Rh  Rh5  1  0.26216000  0.60302000  0.33259000  1.0 0.4606763572
Rh  Rh6  1  0.76216000  0.89698000  0.66741000  1.0 0.4606763572
Rh  Rh7  1  0.23784000  0.39698000  0.83259000  1.0 0.4606763572
Rh  Rh8  1  0.73784000  0.10302000  0.16741000  1.0 0.4606763572
Rh  Rh9  1  0.33259000  0.26216000  0.60302000  1.0 0.4606763572
Rh  Rh10  1  0.66741000  0.76216000  0.89698000  1.0 0.4606763572
Rh  Rh11  1  0.83259000  0.23784000  0.39698000  1.0 0.4606763572
Rh  Rh12  1  0.16741000  0.73784000  0.10302000  1.0 0.4606763572
Rh  Rh13  1  0.59117000  0.09117000  0.40883000  1.0 0.4606763572
Rh  Rh14  1  0.90883000  0.90883000  0.90883000  1.0 0.4606763572
Rh  Rh15  1  0.40883000  0.59117000  0.09117000  1.0 0.4606763572
Rh  Rh16  1  0.09117000  0.40883000  0.59117000  1.0 0.4606763572
C  C1  1  0.57360000  0.20760000  0.46970000  1.0 -0.2139320839
C  C2  1  0.53220000  0.16510000  0.49500000  1.0 0.0145598987
C  C3  1  0.47920000  0.19500000  0.51440000  1.0 0.4911555145
C  C4  1  0.51210000  0.24110000  0.23090000  1.0 -0.2002153866
C  C5  1  0.48690000  0.29970000  0.22170000  1.0 0.0307005154
C  C6  1  0.42230000  0.29450000  0.23160000  1.0 0.4231858943
C  C7  1  0.61820000  0.35790000  0.39220000  1.0 -0.2002153866
C  C8  1  0.59140000  0.40960000  0.36340000  1.0 0.0145598987
C  C9  1  0.61030000  0.46300000  0.39550000  1.0 0.5498757456
C  C10  1  0.70980000  0.35130000  0.18570000  1.0 -0.2002153866
C  C11  1  0.66480000  0.39630000  0.17370000  1.0 0.0307005154
C  C12  1  0.66850000  0.41880000  0.11080000  1.0 0.4967626774
C  C13  1  0.32250000  0.10660000  0.23880000  1.0 0.6907355829
C  C14  1  0.35360000  0.05450000  0.24890000  1.0 -0.6046759691
C  C15  1  0.92640000  0.79240000  0.96970000  1.0 -0.2139320839
C  C16  1  0.96780000  0.83490000  0.99500000  1.0 0.0145598987
C  C17  1  0.02080000  0.80500000  0.01440000  1.0 0.4911555145
C  C18  1  0.98790000  0.75890000  0.73090000  1.0 -0.2002153866
C  C19  1  0.01310000  0.70030000  0.72170000  1.0 0.0307005154
C  C20  1  0.07770000  0.70550000  0.73160000  1.0 0.4231858943
C  C21  1  0.88180000  0.64210000  0.89220000  1.0 -0.2002153866
C  C22  1  0.90860000  0.59040000  0.86340000  1.0 0.0145598987
C  C23  1  0.88970000  0.53700000  0.89550000  1.0 0.5498757456
C  C24  1  0.79020000  0.64870000  0.68570000  1.0 -0.2002153866
C  C25  1  0.83520000  0.60370000  0.67370000  1.0 0.0307005154
C  C26  1  0.83150000  0.58120000  0.61080000  1.0 0.4967626774
C  C27  1  0.17750000  0.89340000  0.73880000  1.0 0.6907355829
C  C28  1  0.14640000  0.94550000  0.74890000  1.0 -0.6051681246
C  C29  1  0.42640000  0.70760000  0.03030000  1.0 -0.2139320839
C  C30  1  0.46780000  0.66510000  0.00500000  1.0 0.0152233933
C  C31  1  0.52080000  0.69500000  0.98560000  1.0 0.4911555145
C  C32  1  0.48790000  0.74110000  0.26910000  1.0 -0.2002153866
C  C33  1  0.51310000  0.79970000  0.27830000  1.0 0.0307005154
C  C34  1  0.57770000  0.79450000  0.26840000  1.0 0.4231858943
C  C35  1  0.38180000  0.85790000  0.10780000  1.0 -0.2002153866
C  C36  1  0.40860000  0.90960000  0.13660000  1.0 0.0145598987
C  C37  1  0.38970000  0.96300000  0.10450000  1.0 0.5498757456
C  C38  1  0.29020000  0.85130000  0.31430000  1.0 -0.2002153866
C  C39  1  0.33520000  0.89630000  0.32630000  1.0 0.0307005154
C  C40  1  0.33150000  0.91880000  0.38920000  1.0 0.4967626774
C  C41  1  0.67750000  0.60660000  0.26120000  1.0 0.6907355829
C  C42  1  0.64640000  0.55450000  0.25110000  1.0 -0.6051681246
C  C43  1  0.07360000  0.29240000  0.53030000  1.0 -0.2139320839
C  C44  1  0.03220000  0.33490000  0.50500000  1.0 0.0145598987
C  C45  1  0.97920000  0.30500000  0.48560000  1.0 0.4911555145
C  C46  1  0.01210000  0.25890000  0.76910000  1.0 -0.2002153866
C  C47  1  0.98690000  0.20030000  0.77830000  1.0 0.0307005154
C  C48  1  0.92230000  0.20550000  0.76840000  1.0 0.426049818
C  C49  1  0.11820000  0.14210000  0.60780000  1.0 -0.2002153866
C  C50  1  0.09140000  0.09040000  0.63660000  1.0 0.0145598987
C  C51  1  0.11030000  0.03700000  0.60450000  1.0 0.5498757456
C  C52  1  0.20980000  0.14870000  0.81430000  1.0 -0.2002153866
C  C53  1  0.16480000  0.10370000  0.82630000  1.0 0.0307005154
C  C54  1  0.16850000  0.08120000  0.88920000  1.0 0.4967626774
C  C55  1  0.82250000  0.39340000  0.76120000  1.0 0.6907355829
C  C56  1  0.85360000  0.44550000  0.75110000  1.0 -0.6051681246
C  C57  1  0.46970000  0.57360000  0.20760000  1.0 -0.2139320839
C  C58  1  0.49500000  0.53220000  0.16510000  1.0 0.0145598987
C  C59  1  0.51440000  0.47920000  0.19500000  1.0 0.4911555145
C  C60  1  0.23090000  0.51210000  0.24110000  1.0 -0.2002153866
C  C61  1  0.22170000  0.48690000  0.29970000  1.0 0.0307005154
C  C62  1  0.23160000  0.42230000  0.29450000  1.0 0.4231858943
C  C63  1  0.39220000  0.61820000  0.35790000  1.0 -0.2002153866
C  C64  1  0.36340000  0.59140000  0.40960000  1.0 0.0145598987
C  C65  1  0.39550000  0.61030000  0.46300000  1.0 0.5498757456
C  C66  1  0.18570000  0.70980000  0.35130000  1.0 -0.2002153866
C  C67  1  0.17370000  0.66480000  0.39630000  1.0 0.0307005154
C  C68  1  0.11080000  0.66850000  0.41880000  1.0 0.4967626774
C  C69  1  0.23880000  0.32250000  0.10660000  1.0 0.6907355829
C  C70  1  0.24890000  0.35360000  0.05450000  1.0 -0.6051681246
C  C71  1  0.96970000  0.92640000  0.79240000  1.0 -0.2139320839
C  C72  1  0.99500000  0.96780000  0.83490000  1.0 0.0145598987
C  C73  1  0.01440000  0.02080000  0.80500000  1.0 0.4911555145
C  C74  1  0.73090000  0.98790000  0.75890000  1.0 -0.2002153866
C  C75  1  0.72170000  0.01310000  0.70030000  1.0 0.0307005154
C  C76  1  0.73160000  0.07770000  0.70550000  1.0 0.4231858943
C  C77  1  0.89220000  0.88180000  0.64210000  1.0 -0.2002153866
C  C78  1  0.86340000  0.90860000  0.59040000  1.0 0.0145598987
C  C79  1  0.89550000  0.88970000  0.53700000  1.0 0.5498757456
C  C80  1  0.68570000  0.79020000  0.64870000  1.0 -0.2002153866
C  C81  1  0.67370000  0.83520000  0.60370000  1.0 0.0307005154
C  C82  1  0.61080000  0.83150000  0.58120000  1.0 0.4967626774
C  C83  1  0.73880000  0.17750000  0.89340000  1.0 0.6907355829
C  C84  1  0.74890000  0.14640000  0.94550000  1.0 -0.6051681246
C  C85  1  0.03030000  0.42640000  0.70760000  1.0 -0.2139320839
C  C86  1  0.00500000  0.46780000  0.66510000  1.0 0.0145598987
C  C87  1  0.98560000  0.52080000  0.69500000  1.0 0.4911555145
C  C88  1  0.26910000  0.48790000  0.74110000  1.0 -0.2002153866
C  C89  1  0.27830000  0.51310000  0.79970000  1.0 0.0307005154
C  C90  1  0.26840000  0.57770000  0.79450000  1.0 0.4231858943
C  C91  1  0.10780000  0.38180000  0.85790000  1.0 -0.2002153866
C  C92  1  0.13660000  0.40860000  0.90960000  1.0 0.0145598987
C  C93  1  0.10450000  0.38970000  0.96300000  1.0 0.5498757456
C  C94  1  0.31430000  0.29020000  0.85130000  1.0 -0.2002153866
C  C95  1  0.32630000  0.33520000  0.89630000  1.0 0.0307005154
C  C96  1  0.38920000  0.33150000  0.91880000  1.0 0.4967626774
C  C97  1  0.26120000  0.67750000  0.60660000  1.0 0.6907355829
C  C98  1  0.25110000  0.64640000  0.55450000  1.0 -0.6051681246
C  C99  1  0.53030000  0.07360000  0.29240000  1.0 -0.2139320839
C  C100  1  0.50500000  0.03220000  0.33490000  1.0 0.0152233933
C  C101  1  0.48560000  0.97920000  0.30500000  1.0 0.4911555145
C  C102  1  0.76910000  0.01210000  0.25890000  1.0 -0.2002153866
C  C103  1  0.77830000  0.98690000  0.20030000  1.0 0.0307005154
C  C104  1  0.76840000  0.92230000  0.20550000  1.0 0.426049818
C  C105  1  0.60780000  0.11820000  0.14210000  1.0 -0.2002153866
C  C106  1  0.63660000  0.09140000  0.09040000  1.0 0.0145598987
C  C107  1  0.60450000  0.11030000  0.03700000  1.0 0.5498757456
C  C108  1  0.81430000  0.20980000  0.14870000  1.0 -0.2002153866
C  C109  1  0.82630000  0.16480000  0.10370000  1.0 0.0307005154
C  C110  1  0.88920000  0.16850000  0.08120000  1.0 0.4967626774
C  C111  1  0.76120000  0.82250000  0.39340000  1.0 0.6907355829
C  C112  1  0.75110000  0.85360000  0.44550000  1.0 -0.6051681246
C  C113  1  0.20760000  0.46970000  0.57360000  1.0 -0.2139320839
C  C114  1  0.16510000  0.49500000  0.53220000  1.0 0.0145598987
C  C115  1  0.19500000  0.51440000  0.47920000  1.0 0.4911555145
C  C116  1  0.24110000  0.23090000  0.51210000  1.0 -0.2002153866
C  C117  1  0.29970000  0.22170000  0.48690000  1.0 0.0307005154
C  C118  1  0.29450000  0.23160000  0.42230000  1.0 0.4231858943
C  C119  1  0.35790000  0.39220000  0.61820000  1.0 -0.2002153866
C  C120  1  0.40960000  0.36340000  0.59140000  1.0 0.0145598987
C  C121  1  0.46300000  0.39550000  0.61030000  1.0 0.5498757456
C  C122  1  0.35130000  0.18570000  0.70980000  1.0 -0.2002153866
C  C123  1  0.39630000  0.17370000  0.66480000  1.0 0.0307005154
C  C124  1  0.41880000  0.11080000  0.66850000  1.0 0.4967626774
C  C125  1  0.10660000  0.23880000  0.32250000  1.0 0.6907355829
C  C126  1  0.05450000  0.24890000  0.35360000  1.0 -0.6046759691
C  C127  1  0.79240000  0.96970000  0.92640000  1.0 -0.2139320839
C  C128  1  0.83490000  0.99500000  0.96780000  1.0 0.0152233933
C  C129  1  0.80500000  0.01440000  0.02080000  1.0 0.4911555145
C  C130  1  0.75890000  0.73090000  0.98790000  1.0 -0.2002153866
C  C131  1  0.70030000  0.72170000  0.01310000  1.0 0.0307005154
C  C132  1  0.70550000  0.73160000  0.07770000  1.0 0.4231858943
C  C133  1  0.64210000  0.89220000  0.88180000  1.0 -0.2002153866
C  C134  1  0.59040000  0.86340000  0.90860000  1.0 0.0145598987
C  C135  1  0.53700000  0.89550000  0.88970000  1.0 0.5498757456
C  C136  1  0.64870000  0.68570000  0.79020000  1.0 -0.2002153866
C  C137  1  0.60370000  0.67370000  0.83520000  1.0 0.0307005154
C  C138  1  0.58120000  0.61080000  0.83150000  1.0 0.4967626774
C  C139  1  0.89340000  0.73880000  0.17750000  1.0 0.6907355829
C  C140  1  0.94550000  0.74890000  0.14640000  1.0 -0.6051681246
C  C141  1  0.70760000  0.03030000  0.42640000  1.0 -0.2139320839
C  C142  1  0.66510000  0.00500000  0.46780000  1.0 0.0152233933
C  C143  1  0.69500000  0.98560000  0.52080000  1.0 0.4911555145
C  C144  1  0.74110000  0.26910000  0.48790000  1.0 -0.2002153866
C  C145  1  0.79970000  0.27830000  0.51310000  1.0 0.0307005154
C  C146  1  0.79450000  0.26840000  0.57770000  1.0 0.426049818
C  C147  1  0.85790000  0.10780000  0.38180000  1.0 -0.2002153866
C  C148  1  0.90960000  0.13660000  0.40860000  1.0 0.0145598987
C  C149  1  0.96300000  0.10450000  0.38970000  1.0 0.5498757456
C  C150  1  0.85130000  0.31430000  0.29020000  1.0 -0.2002153866
C  C151  1  0.89630000  0.32630000  0.33520000  1.0 0.0307005154
C  C152  1  0.91880000  0.38920000  0.33150000  1.0 0.4967626774
C  C153  1  0.60660000  0.26120000  0.67750000  1.0 0.6907355829
C  C154  1  0.55450000  0.25110000  0.64640000  1.0 -0.6051681246
C  C155  1  0.29240000  0.53030000  0.07360000  1.0 -0.2139320839
C  C156  1  0.33490000  0.50500000  0.03220000  1.0 0.0145598987
C  C157  1  0.30500000  0.48560000  0.97920000  1.0 0.4911555145
C  C158  1  0.25890000  0.76910000  0.01210000  1.0 -0.2002153866
C  C159  1  0.20030000  0.77830000  0.98690000  1.0 0.0307005154
C  C160  1  0.20550000  0.76840000  0.92230000  1.0 0.4231858943
C  C161  1  0.14210000  0.60780000  0.11820000  1.0 -0.2002153866
C  C162  1  0.09040000  0.63660000  0.09140000  1.0 0.0145598987
C  C163  1  0.03700000  0.60450000  0.11030000  1.0 0.5498757456
C  C164  1  0.14870000  0.81430000  0.20980000  1.0 -0.2002153866
C  C165  1  0.10370000  0.82630000  0.16480000  1.0 0.0307005154
C  C166  1  0.08120000  0.88920000  0.16850000  1.0 0.4967626774
C  C167  1  0.39340000  0.76120000  0.82250000  1.0 0.6907355829
C  C168  1  0.44550000  0.75110000  0.85360000  1.0 -0.6051681246
S  S1  1  0.63641000  0.17034000  0.44480000  1.0 -0.260039201
S  S2  1  0.58863000  0.24680000  0.21696000  1.0 -0.2833690152
S  S3  1  0.59651000  0.29477000  0.35245000  1.0 -0.2833690152
S  S4  1  0.70104000  0.33008000  0.25889000  1.0 -0.2688679005
S  S5  1  0.86359000  0.82966000  0.94480000  1.0 -0.260039201
S  S6  1  0.91137000  0.75320000  0.71696000  1.0 -0.2833690152
S  S7  1  0.90349000  0.70523000  0.85245000  1.0 -0.2833690152
S  S8  1  0.79896000  0.66992000  0.75889000  1.0 -0.2688679005
S  S9  1  0.36359000  0.67034000  0.05520000  1.0 -0.260039201
S  S10  1  0.41137000  0.74680000  0.28304000  1.0 -0.2833690152
S  S11  1  0.40349000  0.79477000  0.14755000  1.0 -0.2833690152
S  S12  1  0.29896000  0.83008000  0.24111000  1.0 -0.2688679005
S  S13  1  0.13641000  0.32966000  0.55520000  1.0 -0.260039201
S  S14  1  0.08863000  0.25320000  0.78304000  1.0 -0.2833690152
S  S15  1  0.09651000  0.20523000  0.64755000  1.0 -0.2833690152
S  S16  1  0.20104000  0.16992000  0.74111000  1.0 -0.2688679005
S  S17  1  0.44480000  0.63641000  0.17034000  1.0 -0.260039201
S  S18  1  0.21696000  0.58863000  0.24680000  1.0 -0.2833690152
S  S19  1  0.35245000  0.59651000  0.29477000  1.0 -0.2833690152
S  S20  1  0.25889000  0.70104000  0.33008000  1.0 -0.2688679005
S  S21  1  0.94480000  0.86359000  0.82966000  1.0 -0.260039201
S  S22  1  0.71696000  0.91137000  0.75320000  1.0 -0.2833690152
S  S23  1  0.85245000  0.90349000  0.70523000  1.0 -0.2833690152
S  S24  1  0.75889000  0.79896000  0.66992000  1.0 -0.2688679005
S  S25  1  0.05520000  0.36359000  0.67034000  1.0 -0.260039201
S  S26  1  0.28304000  0.41137000  0.74680000  1.0 -0.2833690152
S  S27  1  0.14755000  0.40349000  0.79477000  1.0 -0.2833690152
S  S28  1  0.24111000  0.29896000  0.83008000  1.0 -0.2688679005
S  S29  1  0.55520000  0.13641000  0.32966000  1.0 -0.260039201
S  S30  1  0.78304000  0.08863000  0.25320000  1.0 -0.2833690152
S  S31  1  0.64755000  0.09651000  0.20523000  1.0 -0.2833690152
S  S32  1  0.74111000  0.20104000  0.16992000  1.0 -0.2688679005
S  S33  1  0.17034000  0.44480000  0.63641000  1.0 -0.260039201
S  S34  1  0.24680000  0.21696000  0.58863000  1.0 -0.2833690152
S  S35  1  0.29477000  0.35245000  0.59651000  1.0 -0.2833690152
S  S36  1  0.33008000  0.25889000  0.70104000  1.0 -0.2688679005
S  S37  1  0.82966000  0.94480000  0.86359000  1.0 -0.260039201
S  S38  1  0.75320000  0.71696000  0.91137000  1.0 -0.2833690152
S  S39  1  0.70523000  0.85245000  0.90349000  1.0 -0.2833690152
S  S40  1  0.66992000  0.75889000  0.79896000  1.0 -0.2688679005
S  S41  1  0.67034000  0.05520000  0.36359000  1.0 -0.260039201
S  S42  1  0.74680000  0.28304000  0.41137000  1.0 -0.2833690152
S  S43  1  0.79477000  0.14755000  0.40349000  1.0 -0.2833690152
S  S44  1  0.83008000  0.24111000  0.29896000  1.0 -0.2688679005
S  S45  1  0.32966000  0.55520000  0.13641000  1.0 -0.260039201
S  S46  1  0.25320000  0.78304000  0.08863000  1.0 -0.2833690152
S  S47  1  0.20523000  0.64755000  0.09651000  1.0 -0.2833690152
S  S48  1  0.16992000  0.74111000  0.20104000  1.0 -0.2688679005
N  N1  1  0.52037000  0.12080000  0.45316000  1.0 -0.4408171397
N  N2  1  0.51411000  0.33994000  0.26110000  1.0 -0.4408171397
N  N3  1  0.60950000  0.41026000  0.30300000  1.0 -0.4673254744
N  N4  1  0.60880000  0.37080000  0.18280000  1.0 -0.4673254744
N  N5  1  0.97963000  0.87920000  0.95316000  1.0 -0.4408171397
N  N6  1  0.98589000  0.66006000  0.76110000  1.0 -0.4408171397
N  N7  1  0.89050000  0.58974000  0.80300000  1.0 -0.4673254744
N  N8  1  0.89120000  0.62920000  0.68280000  1.0 -0.4673254744
N  N9  1  0.47963000  0.62080000  0.04684000  1.0 -0.4408171397
N  N10  1  0.48589000  0.83994000  0.23890000  1.0 -0.4408171397
N  N11  1  0.39050000  0.91026000  0.19700000  1.0 -0.4673254744
N  N12  1  0.39120000  0.87080000  0.31720000  1.0 -0.4673254744
N  N13  1  0.02037000  0.37920000  0.54684000  1.0 -0.4408171397
N  N14  1  0.01411000  0.16006000  0.73890000  1.0 -0.4408171397
N  N15  1  0.10950000  0.08974000  0.69700000  1.0 -0.4673254744
N  N16  1  0.10880000  0.12920000  0.81720000  1.0 -0.4673254744
N  N17  1  0.45316000  0.52037000  0.12080000  1.0 -0.4408171397
N  N18  1  0.26110000  0.51411000  0.33994000  1.0 -0.4408171397
N  N19  1  0.30300000  0.60950000  0.41026000  1.0 -0.4673254744
N  N20  1  0.18280000  0.60880000  0.37080000  1.0 -0.4673254744
N  N21  1  0.95316000  0.97963000  0.87920000  1.0 -0.4408171397
N  N22  1  0.76110000  0.98589000  0.66006000  1.0 -0.4408171397
N  N23  1  0.80300000  0.89050000  0.58974000  1.0 -0.4673254744
N  N24  1  0.68280000  0.89120000  0.62920000  1.0 -0.4673254744
N  N25  1  0.04684000  0.47963000  0.62080000  1.0 -0.4408171397
N  N26  1  0.23890000  0.48589000  0.83994000  1.0 -0.4408171397
N  N27  1  0.19700000  0.39050000  0.91026000  1.0 -0.4673254744
N  N28  1  0.31720000  0.39120000  0.87080000  1.0 -0.4673254744
N  N29  1  0.54684000  0.02037000  0.37920000  1.0 -0.4408171397
N  N30  1  0.73890000  0.01411000  0.16006000  1.0 -0.4408171397
N  N31  1  0.69700000  0.10950000  0.08974000  1.0 -0.4673254744
N  N32  1  0.81720000  0.10880000  0.12920000  1.0 -0.4673254744
N  N33  1  0.12080000  0.45316000  0.52037000  1.0 -0.4408171397
N  N34  1  0.33994000  0.26110000  0.51411000  1.0 -0.4408171397
N  N35  1  0.41026000  0.30300000  0.60950000  1.0 -0.4673254744
N  N36  1  0.37080000  0.18280000  0.60880000  1.0 -0.4673254744
N  N37  1  0.87920000  0.95316000  0.97963000  1.0 -0.4408171397
N  N38  1  0.66006000  0.76110000  0.98589000  1.0 -0.4408171397
N  N39  1  0.58974000  0.80300000  0.89050000  1.0 -0.4673254744
N  N40  1  0.62920000  0.68280000  0.89120000  1.0 -0.4673254744
N  N41  1  0.62080000  0.04684000  0.47963000  1.0 -0.4408171397
N  N42  1  0.83994000  0.23890000  0.48589000  1.0 -0.4408171397
N  N43  1  0.91026000  0.19700000  0.39050000  1.0 -0.4673254744
N  N44  1  0.87080000  0.31720000  0.39120000  1.0 -0.4673254744
N  N45  1  0.37920000  0.54684000  0.02037000  1.0 -0.4408171397
N  N46  1  0.16006000  0.73890000  0.01411000  1.0 -0.4408171397
N  N47  1  0.08974000  0.69700000  0.10950000  1.0 -0.4673254744
N  N48  1  0.12920000  0.81720000  0.10880000  1.0 -0.4673254744
O  O1  1  0.43290000  0.17710000  0.50330000  1.0 -0.4408171397
O  O2  1  0.48360000  0.22360000  0.55670000  1.0 -0.491625394
O  O3  1  0.40170000  0.31840000  0.27670000  1.0 -0.8176021025
O  O4  1  0.39690000  0.26770000  0.19650000  1.0 -0.5072894847
O  O5  1  0.64780000  0.48980000  0.37560000  1.0 -0.4579180627
O  O6  1  0.58700000  0.46870000  0.44460000  1.0 -0.5579302019
O  O7  1  0.62900000  0.41210000  0.07930000  1.0 -0.4579180627
O  O8  1  0.71170000  0.44120000  0.09860000  1.0 -0.4103434066
O  O9  1  0.31616000  0.22480000  0.28342000  1.0 -1.0625465258
O  O10  1  0.35160000  0.14580000  0.20350000  1.0 -0.6921810117
O  O11  1  0.27750000  0.11280000  0.27050000  1.0 -0.6359204556
O  O12  1  0.55830000  0.50340000  0.04530000  1.0 -0.49881962
O  O13  1  0.60190000  0.54230000  0.51110000  1.0 -0.5669113204
O  O14  1  0.06710000  0.82290000  0.00330000  1.0 -0.4408171397
O  O15  1  0.01640000  0.77640000  0.05670000  1.0 -0.491625394
O  O16  1  0.09830000  0.68160000  0.77670000  1.0 -0.8176021025
O  O17  1  0.10310000  0.73230000  0.69650000  1.0 -0.5072894847
O  O18  1  0.85220000  0.51020000  0.87560000  1.0 -0.4579180627
O  O19  1  0.91300000  0.53130000  0.94460000  1.0 -0.5579302019
O  O20  1  0.87100000  0.58790000  0.57930000  1.0 -0.4579180627
O  O21  1  0.78830000  0.55880000  0.59860000  1.0 -0.4103434066
O  O22  1  0.18384000  0.77520000  0.78342000  1.0 -1.0625465258
O  O23  1  0.14840000  0.85420000  0.70350000  1.0 -0.6921810117
O  O24  1  0.22250000  0.88720000  0.77050000  1.0 -0.6359204556
O  O25  1  0.94170000  0.49660000  0.54530000  1.0 -0.49881962
O  O26  1  0.89810000  0.45770000  0.01110000  1.0 -0.5669113204
O  O27  1  0.56710000  0.67710000  0.99670000  1.0 -0.4408171397
O  O28  1  0.51640000  0.72360000  0.94330000  1.0 -0.491625394
O  O29  1  0.59830000  0.81840000  0.22330000  1.0 -0.8176021025
O  O30  1  0.60310000  0.76770000  0.30350000  1.0 -0.5072894847
O  O31  1  0.35220000  0.98980000  0.12440000  1.0 -0.4579180627
O  O32  1  0.41300000  0.96870000  0.05540000  1.0 -0.5546347703
O  O33  1  0.37100000  0.91210000  0.42070000  1.0 -0.4579180627
O  O34  1  0.28830000  0.94120000  0.40140000  1.0 -0.4103434066
O  O35  1  0.68384000  0.72480000  0.21658000  1.0 -1.0625465258
O  O36  1  0.64840000  0.64580000  0.29650000  1.0 -0.6921810117
O  O37  1  0.72250000  0.61280000  0.22950000  1.0 -0.6359204556
O  O38  1  0.44170000  0.00340000  0.45470000  1.0 -0.49881962
O  O39  1  0.39810000  0.04230000  0.98890000  1.0 -0.5579302019
O  O40  1  0.93290000  0.32290000  0.49670000  1.0 -0.4408171397
O  O41  1  0.98360000  0.27640000  0.44330000  1.0 -0.491625394
O  O42  1  0.90170000  0.18160000  0.72330000  1.0 -0.8176021025
O  O43  1  0.89690000  0.23230000  0.80350000  1.0 -0.5072894847
O  O44  1  0.14780000  0.01020000  0.62440000  1.0 -0.4579180627
O  O45  1  0.08700000  0.03130000  0.55540000  1.0 -0.5579302019
O  O46  1  0.12900000  0.08790000  0.92070000  1.0 -0.453404149
O  O47  1  0.21170000  0.05880000  0.90140000  1.0 -0.4103434066
O  O48  1  0.81616000  0.27520000  0.71658000  1.0 -1.0625465258
O  O49  1  0.85160000  0.35420000  0.79650000  1.0 -0.6921810117
O  O50  1  0.77750000  0.38720000  0.72950000  1.0 -0.6359204556
O  O51  1  0.05830000  0.99660000  0.95470000  1.0 -0.49881962
O  O52  1  0.10190000  0.95770000  0.48890000  1.0 -0.5669113204
O  O53  1  0.50330000  0.43290000  0.17710000  1.0 -0.4408171397
O  O54  1  0.55670000  0.48360000  0.22360000  1.0 -0.491625394
O  O55  1  0.27670000  0.40170000  0.31840000  1.0 -0.8176021025
O  O56  1  0.19650000  0.39690000  0.26770000  1.0 -0.5072894847
O  O57  1  0.37560000  0.64780000  0.48980000  1.0 -0.4579180627
O  O58  1  0.44460000  0.58700000  0.46870000  1.0 -0.5579302019
O  O59  1  0.07930000  0.62900000  0.41210000  1.0 -0.4579180627
O  O60  1  0.09860000  0.71170000  0.44120000  1.0 -0.4103434066
O  O61  1  0.28342000  0.31616000  0.22480000  1.0 -1.0625465258
O  O62  1  0.20350000  0.35160000  0.14580000  1.0 -0.6921810117
O  O63  1  0.27050000  0.27750000  0.11280000  1.0 -0.6359204556
O  O64  1  0.04530000  0.55830000  0.50340000  1.0 -0.49881962
O  O65  1  0.51110000  0.60190000  0.54230000  1.0 -0.5669113204
O  O66  1  0.00330000  0.06710000  0.82290000  1.0 -0.4408171397
O  O67  1  0.05670000  0.01640000  0.77640000  1.0 -0.491625394
O  O68  1  0.77670000  0.09830000  0.68160000  1.0 -0.8176021025
O  O69  1  0.69650000  0.10310000  0.73230000  1.0 -0.5072894847
O  O70  1  0.87560000  0.85220000  0.51020000  1.0 -0.4579180627
O  O71  1  0.94460000  0.91300000  0.53130000  1.0 -0.5579302019
O  O72  1  0.57930000  0.87100000  0.58790000  1.0 -0.4579180627
O  O73  1  0.59860000  0.78830000  0.55880000  1.0 -0.4103434066
O  O74  1  0.78342000  0.18384000  0.77520000  1.0 -1.0625465258
O  O75  1  0.70350000  0.14840000  0.85420000  1.0 -0.6921810117
O  O76  1  0.77050000  0.22250000  0.88720000  1.0 -0.6359204556
O  O77  1  0.54530000  0.94170000  0.49660000  1.0 -0.49881962
O  O78  1  0.01110000  0.89810000  0.45770000  1.0 -0.5669113204
O  O79  1  0.99670000  0.56710000  0.67710000  1.0 -0.4408171397
O  O80  1  0.94330000  0.51640000  0.72360000  1.0 -0.491625394
O  O81  1  0.22330000  0.59830000  0.81840000  1.0 -0.8176021025
O  O82  1  0.30350000  0.60310000  0.76770000  1.0 -0.5072894847
O  O83  1  0.12440000  0.35220000  0.98980000  1.0 -0.4579180627
O  O84  1  0.05540000  0.41300000  0.96870000  1.0 -0.5546347703
O  O85  1  0.42070000  0.37100000  0.91210000  1.0 -0.4579180627
O  O86  1  0.40140000  0.28830000  0.94120000  1.0 -0.4103434066
O  O87  1  0.21658000  0.68384000  0.72480000  1.0 -1.0625465258
O  O88  1  0.29650000  0.64840000  0.64580000  1.0 -0.6921810117
O  O89  1  0.22950000  0.72250000  0.61280000  1.0 -0.6359204556
O  O90  1  0.45470000  0.44170000  0.00340000  1.0 -0.49881962
O  O91  1  0.98890000  0.39810000  0.04230000  1.0 -0.5579302019
O  O92  1  0.49670000  0.93290000  0.32290000  1.0 -0.4408171397
O  O93  1  0.44330000  0.98360000  0.27640000  1.0 -0.491625394
O  O94  1  0.72330000  0.90170000  0.18160000  1.0 -0.8176021025
O  O95  1  0.80350000  0.89690000  0.23230000  1.0 -0.5072894847
O  O96  1  0.62440000  0.14780000  0.01020000  1.0 -0.4579180627
O  O97  1  0.55540000  0.08700000  0.03130000  1.0 -0.5579302019
O  O98  1  0.92070000  0.12900000  0.08790000  1.0 -0.453404149
O  O99  1  0.90140000  0.21170000  0.05880000  1.0 -0.4103434066
O  O100  1  0.71658000  0.81616000  0.27520000  1.0 -1.0625465258
O  O101  1  0.79650000  0.85160000  0.35420000  1.0 -0.6921810117
O  O102  1  0.72950000  0.77750000  0.38720000  1.0 -0.6359204556
O  O103  1  0.95470000  0.05830000  0.99660000  1.0 -0.49881962
O  O104  1  0.48890000  0.10190000  0.95770000  1.0 -0.5669113204
O  O105  1  0.17710000  0.50330000  0.43290000  1.0 -0.4408171397
O  O106  1  0.22360000  0.55670000  0.48360000  1.0 -0.491625394
O  O107  1  0.31840000  0.27670000  0.40170000  1.0 -0.8176021025
O  O108  1  0.26770000  0.19650000  0.39690000  1.0 -0.5072894847
O  O109  1  0.48980000  0.37560000  0.64780000  1.0 -0.4579180627
O  O110  1  0.46870000  0.44460000  0.58700000  1.0 -0.5579302019
O  O111  1  0.41210000  0.07930000  0.62900000  1.0 -0.4579180627
O  O112  1  0.44120000  0.09860000  0.71170000  1.0 -0.4103434066
O  O113  1  0.22480000  0.28342000  0.31616000  1.0 -1.0625465258
O  O114  1  0.14580000  0.20350000  0.35160000  1.0 -0.6921810117
O  O115  1  0.11280000  0.27050000  0.27750000  1.0 -0.6359204556
O  O116  1  0.50340000  0.04530000  0.55830000  1.0 -0.49881962
O  O117  1  0.54230000  0.51110000  0.60190000  1.0 -0.5669113204
O  O118  1  0.82290000  0.00330000  0.06710000  1.0 -0.4408171397
O  O119  1  0.77640000  0.05670000  0.01640000  1.0 -0.491625394
O  O120  1  0.68160000  0.77670000  0.09830000  1.0 -0.8176021025
O  O121  1  0.73230000  0.69650000  0.10310000  1.0 -0.5072894847
O  O122  1  0.51020000  0.87560000  0.85220000  1.0 -0.4579180627
O  O123  1  0.53130000  0.94460000  0.91300000  1.0 -0.5579302019
O  O124  1  0.58790000  0.57930000  0.87100000  1.0 -0.4579180627
O  O125  1  0.55880000  0.59860000  0.78830000  1.0 -0.4103434066
O  O126  1  0.77520000  0.78342000  0.18384000  1.0 -1.0625465258
O  O127  1  0.85420000  0.70350000  0.14840000  1.0 -0.6921810117
O  O128  1  0.88720000  0.77050000  0.22250000  1.0 -0.6359204556
O  O129  1  0.49660000  0.54530000  0.94170000  1.0 -0.49881962
O  O130  1  0.45770000  0.01110000  0.89810000  1.0 -0.5669113204
O  O131  1  0.67710000  0.99670000  0.56710000  1.0 -0.4408171397
O  O132  1  0.72360000  0.94330000  0.51640000  1.0 -0.491625394
O  O133  1  0.81840000  0.22330000  0.59830000  1.0 -0.8176021025
O  O134  1  0.76770000  0.30350000  0.60310000  1.0 -0.5072894847
O  O135  1  0.98980000  0.12440000  0.35220000  1.0 -0.4579180627
O  O136  1  0.96870000  0.05540000  0.41300000  1.0 -0.5546347703
O  O137  1  0.91210000  0.42070000  0.37100000  1.0 -0.4579180627
O  O138  1  0.94120000  0.40140000  0.28830000  1.0 -0.4103434066
O  O139  1  0.72480000  0.21658000  0.68384000  1.0 -1.0625465258
O  O140  1  0.64580000  0.29650000  0.64840000  1.0 -0.6921810117
O  O141  1  0.61280000  0.22950000  0.72250000  1.0 -0.6359204556
O  O142  1  0.00340000  0.45470000  0.44170000  1.0 -0.49881962
O  O143  1  0.04230000  0.98890000  0.39810000  1.0 -0.5579302019
O  O144  1  0.32290000  0.49670000  0.93290000  1.0 -0.4408171397
O  O145  1  0.27640000  0.44330000  0.98360000  1.0 -0.491625394
O  O146  1  0.18160000  0.72330000  0.90170000  1.0 -0.8176021025
O  O147  1  0.23230000  0.80350000  0.89690000  1.0 -0.5072894847
O  O148  1  0.01020000  0.62440000  0.14780000  1.0 -0.4579180627
O  O149  1  0.03130000  0.55540000  0.08700000  1.0 -0.5579302019
O  O150  1  0.08790000  0.92070000  0.12900000  1.0 -0.453404149
O  O151  1  0.05880000  0.90140000  0.21170000  1.0 -0.4103434066
O  O152  1  0.27520000  0.71658000  0.81616000  1.0 -1.0625465258
O  O153  1  0.35420000  0.79650000  0.85160000  1.0 -0.6921810117
O  O154  1  0.38720000  0.72950000  0.77750000  1.0 -0.6359204556
O  O155  1  0.99660000  0.95470000  0.05830000  1.0 -0.49881962
O  O156  1  0.95770000  0.48890000  0.10190000  1.0 -0.5669113204
O  O157  1  0.69131000  0.19131000  0.30869000  1.0 -0.8176021025
O  O158  1  0.80869000  0.80869000  0.80869000  1.0 -0.8176021025
O  O159  1  0.30869000  0.69131000  0.19131000  1.0 -0.8176021025
O  O160  1  0.19131000  0.30869000  0.69131000  1.0 -0.8144692983
O  O161  1  0.22110000  0.22110000  0.22110000  1.0 -0.9477820005
O  O162  1  0.37234000  0.37234000  0.37234000  1.0 -1.0673728393
O  O163  1  0.27890000  0.77890000  0.72110000  1.0 -0.9477820005
O  O164  1  0.12766000  0.62766000  0.87234000  1.0 -1.0625465258
O  O165  1  0.77890000  0.72110000  0.27890000  1.0 -0.9477820005
O  O166  1  0.62766000  0.87234000  0.12766000  1.0 -1.0673728393
O  O167  1  0.72110000  0.27890000  0.77890000  1.0 -0.9477820005
O  O168  1  0.87234000  0.12766000  0.62766000  1.0 -1.0673728393
O  O169  1  0.54214000  0.45786000  0.95786000  1.0 -0.4408171397
O  O170  1  0.95786000  0.54214000  0.45786000  1.0 -0.4408171397
O  O171  1  0.45786000  0.95786000  0.54214000  1.0 -0.4408171397
O  O172  1  0.04214000  0.04214000  0.04214000  1.0 -0.4301831331
