# DDEC6 charges by PACMAN v1.1 (https://github.com/mtap-research/PACMAN-charge/)
data_DADLOM_ASR_pacman
_symmetry_space_group_name_H-M   'P 1'
_cell_length_a   10.15650000
_cell_length_b   37.90510000
_cell_length_c   41.21750000
_cell_angle_alpha   90.00000000
_cell_angle_beta   99.89400000
_cell_angle_gamma   90.00000000
_symmetry_Int_Tables_number   1
_chemical_formula_structural   Mn3H49C78N2O13
_chemical_formula_sum   'Mn12 H196 C312 N8 O52'
_cell_volume   15632.04266581
_cell_formula_units_Z   4
loop_
 _symmetry_equiv_pos_site_id
 _symmetry_equiv_pos_as_xyz
  1  'x, y, z'
loop_
 _atom_site_type_symbol
 _atom_site_label
 _atom_site_symmetry_multiplicity
 _atom_site_fract_x
 _atom_site_fract_y
 _atom_site_fract_z
 _atom_site_occupancy
 _atom_site_charge
Mn  Mn1  1  0.15076000  0.66701000  0.70743000  1.0 1.0788070711
Mn  Mn2  1  0.84924000  0.16701000  0.79257000  1.0 1.0788070711
Mn  Mn3  1  0.84924000  0.33299000  0.29257000  1.0 1.0788070711
Mn  Mn4  1  0.15076000  0.83299000  0.20743000  1.0 1.0788070711
Mn  Mn5  1  0.47288000  0.62002000  0.71861000  1.0 1.0412597212
Mn  Mn6  1  0.52712000  0.12002000  0.78139000  1.0 1.0412597212
Mn  Mn7  1  0.52712000  0.37998000  0.28139000  1.0 1.0412597212
Mn  Mn8  1  0.47288000  0.87998000  0.21861000  1.0 1.0412597212
Mn  Mn9  1  0.07576000  0.10072000  0.77317000  1.0 1.0263747128
Mn  Mn10  1  0.92424000  0.60072000  0.72683000  1.0 1.0263747128
Mn  Mn11  1  0.92424000  0.89928000  0.22683000  1.0 1.0263747128
Mn  Mn12  1  0.07576000  0.39928000  0.27317000  1.0 1.0263747128
H  H1  1  0.44200000  0.71750000  0.86050000  1.0 0.1187749044
H  H2  1  0.55800000  0.21750000  0.63950000  1.0 0.1187749044
H  H3  1  0.55800000  0.28250000  0.13950000  1.0 0.1187749044
H  H4  1  0.44200000  0.78250000  0.36050000  1.0 0.1187749044
H  H5  1  0.24620000  0.79870000  0.91700000  1.0 0.1187749044
H  H6  1  0.75380000  0.29870000  0.58300000  1.0 0.1187749044
H  H7  1  0.75380000  0.20130000  0.08300000  1.0 0.1187749044
H  H8  1  0.24620000  0.70130000  0.41700000  1.0 0.1187749044
H  H9  1  0.54370000  0.88860000  0.92570000  1.0 0.1187749044
H  H10  1  0.45630000  0.38860000  0.57430000  1.0 0.1187749044
H  H11  1  0.45630000  0.11140000  0.07430000  1.0 0.1187749044
H  H12  1  0.54370000  0.61140000  0.42570000  1.0 0.1187749044
H  H13  1  0.85230000  0.79700000  0.06940000  1.0 0.1187749044
H  H14  1  0.14770000  0.29700000  0.43060000  1.0 0.1187749044
H  H15  1  0.14770000  0.20300000  0.93060000  1.0 0.1187749044
H  H16  1  0.85230000  0.70300000  0.56940000  1.0 0.1187749044
H  H17  1  0.32880000  0.73230000  0.74760000  1.0 0.1296593075
H  H18  1  0.67120000  0.23230000  0.75240000  1.0 0.1296593075
H  H19  1  0.67120000  0.26770000  0.25240000  1.0 0.1296593075
H  H20  1  0.32880000  0.76770000  0.24760000  1.0 0.1296593075
H  H21  1  0.07120000  0.02480000  0.86910000  1.0 0.1187749044
H  H22  1  0.92880000  0.52480000  0.63090000  1.0 0.1187749044
H  H23  1  0.92880000  0.97520000  0.13090000  1.0 0.1187749044
H  H24  1  0.07120000  0.47520000  0.36910000  1.0 0.1187749044
H  H25  1  0.06630000  0.75850000  0.83490000  1.0 0.1093113483
H  H26  1  0.93370000  0.25850000  0.66510000  1.0 0.1093113483
H  H27  1  0.93370000  0.24150000  0.16510000  1.0 0.1093113483
H  H28  1  0.06630000  0.74150000  0.33490000  1.0 0.1093113483
H  H29  1  0.75680000  0.89960000  0.12220000  1.0 0.1187749044
H  H30  1  0.24320000  0.39960000  0.37780000  1.0 0.1187749044
H  H31  1  0.24320000  0.10040000  0.87780000  1.0 0.1187749044
H  H32  1  0.75680000  0.60040000  0.62220000  1.0 0.1187749044
H  H33  1  0.89060000  0.79850000  0.12380000  1.0 0.1296593075
H  H34  1  0.10940000  0.29850000  0.37620000  1.0 0.1296593075
H  H35  1  0.10940000  0.20150000  0.87620000  1.0 0.1296593075
H  H36  1  0.89060000  0.70150000  0.62380000  1.0 0.1296593075
H  H37  1  0.32400000  0.77970000  0.78230000  1.0 0.1187749044
H  H38  1  0.67600000  0.27970000  0.71770000  1.0 0.1187749044
H  H39  1  0.67600000  0.22030000  0.21770000  1.0 0.1187749044
H  H40  1  0.32400000  0.72030000  0.28230000  1.0 0.1187749044
H  H41  1  0.81170000  0.90120000  0.01910000  1.0 0.1187749044
H  H42  1  0.18830000  0.40120000  0.48090000  1.0 0.1187749044
H  H43  1  0.18830000  0.09880000  0.98090000  1.0 0.1187749044
H  H44  1  0.81170000  0.59880000  0.51910000  1.0 0.1187749044
H  H45  1  0.97330000  0.81340000  0.92400000  1.0 0.1187749044
H  H46  1  0.02670000  0.31340000  0.57600000  1.0 0.1187749044
H  H47  1  0.02670000  0.18660000  0.07600000  1.0 0.1187749044
H  H48  1  0.97330000  0.68660000  0.42400000  1.0 0.1187749044
H  H49  1  0.37960000  0.82290000  0.81670000  1.0 0.1187749044
H  H50  1  0.62040000  0.32290000  0.68330000  1.0 0.1187749044
H  H51  1  0.62040000  0.17710000  0.18330000  1.0 0.1187749044
H  H52  1  0.37960000  0.67710000  0.31670000  1.0 0.1187749044
H  H53  1  0.64640000  0.77940000  0.83570000  1.0 0.1093113483
H  H54  1  0.35360000  0.27940000  0.66430000  1.0 0.1093113483
H  H55  1  0.35360000  0.22060000  0.16430000  1.0 0.1093113483
H  H56  1  0.64640000  0.72060000  0.33570000  1.0 0.1093113483
H  H57  1  0.74430000  0.79920000  0.95910000  1.0 0.1296593075
H  H58  1  0.25570000  0.29920000  0.54090000  1.0 0.1296593075
H  H59  1  0.25570000  0.20080000  0.04090000  1.0 0.1296593075
H  H60  1  0.74430000  0.70080000  0.45910000  1.0 0.1296593075
H  H61  1  0.33440000  0.86870000  0.84920000  1.0 0.1296593075
H  H62  1  0.66560000  0.36870000  0.65080000  1.0 0.1296593075
H  H63  1  0.66560000  0.13130000  0.15080000  1.0 0.1296593075
H  H64  1  0.33440000  0.63130000  0.34920000  1.0 0.1296593075
H  H65  1  0.77250000  0.01200000  0.77160000  1.0 0.1296593075
H  H66  1  0.22750000  0.51200000  0.72840000  1.0 0.1296593075
H  H67  1  0.22750000  0.98800000  0.22840000  1.0 0.1296593075
H  H68  1  0.77250000  0.48800000  0.27160000  1.0 0.1296593075
H  H69  1  0.75250000  0.79630000  0.01610000  1.0 0.1187749044
H  H70  1  0.24750000  0.29630000  0.48390000  1.0 0.1187749044
H  H71  1  0.24750000  0.20370000  0.98390000  1.0 0.1187749044
H  H72  1  0.75250000  0.70370000  0.51610000  1.0 0.1187749044
H  H73  1  0.78810000  0.90340000  0.96510000  1.0 0.1296593075
H  H74  1  0.21190000  0.40340000  0.53490000  1.0 0.1296593075
H  H75  1  0.21190000  0.09660000  0.03490000  1.0 0.1296593075
H  H76  1  0.78810000  0.59660000  0.46510000  1.0 0.1296593075
H  H77  1  0.31150000  0.75470000  0.88640000  1.0 0.1187749044
H  H78  1  0.68850000  0.25470000  0.61360000  1.0 0.1187749044
H  H79  1  0.68850000  0.24530000  0.11360000  1.0 0.1187749044
H  H80  1  0.31150000  0.74530000  0.38640000  1.0 0.1187749044
H  H81  1  0.86940000  0.96590000  0.80000000  1.0 0.1187749044
H  H82  1  0.13060000  0.46590000  0.70000000  1.0 0.1187749044
H  H83  1  0.13060000  0.03410000  0.20000000  1.0 0.1187749044
H  H84  1  0.86940000  0.53410000  0.30000000  1.0 0.1187749044
H  H85  1  0.49440000  0.86750000  0.11190000  1.0 0.1187749044
H  H86  1  0.50560000  0.36750000  0.38810000  1.0 0.1187749044
H  H87  1  0.50560000  0.13250000  0.88810000  1.0 0.1187749044
H  H88  1  0.49440000  0.63250000  0.61190000  1.0 0.1187749044
H  H89  1  0.06240000  0.88390000  0.94230000  1.0 0.1187749044
H  H90  1  0.93760000  0.38390000  0.55770000  1.0 0.1187749044
H  H91  1  0.93760000  0.11610000  0.05770000  1.0 0.1187749044
H  H92  1  0.06240000  0.61610000  0.44230000  1.0 0.1187749044
H  H93  1  0.85100000  0.89080000  0.87730000  1.0 0.1187749044
H  H94  1  0.14900000  0.39080000  0.62270000  1.0 0.1187749044
H  H95  1  0.14900000  0.10920000  0.12270000  1.0 0.1187749044
H  H96  1  0.85100000  0.60920000  0.37730000  1.0 0.1187749044
H  H97  1  0.07550000  0.88210000  0.99750000  1.0 0.1093113483
H  H98  1  0.92450000  0.38210000  0.50250000  1.0 0.1093113483
H  H99  1  0.92450000  0.11790000  0.00250000  1.0 0.1093113483
H  H100  1  0.07550000  0.61790000  0.49750000  1.0 0.1093113483
H  H101  1  0.13100000  0.98130000  0.89620000  1.0 0.1187749044
H  H102  1  0.86900000  0.48130000  0.60380000  1.0 0.1187749044
H  H103  1  0.86900000  0.01870000  0.10380000  1.0 0.1187749044
H  H104  1  0.13100000  0.51870000  0.39620000  1.0 0.1187749044
H  H105  1  0.99660000  0.92300000  0.81810000  1.0 0.1187749044
H  H106  1  0.00340000  0.42300000  0.68190000  1.0 0.1187749044
H  H107  1  0.00340000  0.07700000  0.18190000  1.0 0.1187749044
H  H108  1  0.99660000  0.57700000  0.31810000  1.0 0.1187749044
H  H109  1  0.09900000  0.85410000  0.10300000  1.0 0.1187749044
H  H110  1  0.90100000  0.35410000  0.39700000  1.0 0.1187749044
H  H111  1  0.90100000  0.14590000  0.89700000  1.0 0.1187749044
H  H112  1  0.09900000  0.64590000  0.60300000  1.0 0.1187749044
H  H113  1  0.98990000  0.07570000  0.84100000  1.0 0.1296593075
H  H114  1  0.01010000  0.57570000  0.65900000  1.0 0.1296593075
H  H115  1  0.01010000  0.92430000  0.15900000  1.0 0.1296593075
H  H116  1  0.98990000  0.42430000  0.34100000  1.0 0.1296593075
H  H117  1  0.07850000  0.85770000  0.04730000  1.0 0.1042489412
H  H118  1  0.92150000  0.35770000  0.45270000  1.0 0.1042489412
H  H119  1  0.92150000  0.14230000  0.95270000  1.0 0.1042489412
H  H120  1  0.07850000  0.64230000  0.54730000  1.0 0.1042489412
H  H121  1  0.22320000  0.93320000  0.92340000  1.0 0.1296593075
H  H122  1  0.77680000  0.43320000  0.57660000  1.0 0.1296593075
H  H123  1  0.77680000  0.06680000  0.07660000  1.0 0.1296593075
H  H124  1  0.22320000  0.56680000  0.42340000  1.0 0.1296593075
H  H125  1  0.47370000  0.87030000  0.05480000  1.0 0.1093113483
H  H126  1  0.52630000  0.37030000  0.44520000  1.0 0.1093113483
H  H127  1  0.52630000  0.12970000  0.94520000  1.0 0.1093113483
H  H128  1  0.47370000  0.62970000  0.55480000  1.0 0.1093113483
H  H129  1  0.75190000  0.67600000  0.79260000  1.0 0.1296593075
H  H130  1  0.24810000  0.17600000  0.70740000  1.0 0.1296593075
H  H131  1  0.24810000  0.32400000  0.20740000  1.0 0.1296593075
H  H132  1  0.75190000  0.82400000  0.29260000  1.0 0.1296593075
H  H133  1  0.45370000  0.66990000  0.82800000  1.0 0.1296593075
H  H134  1  0.54630000  0.16990000  0.67200000  1.0 0.1296593075
H  H135  1  0.54630000  0.33010000  0.17200000  1.0 0.1296593075
H  H136  1  0.45370000  0.83010000  0.32800000  1.0 0.1296593075
H  H137  1  0.33300000  0.95140000  0.84160000  1.0 0.1093113483
H  H138  1  0.66700000  0.45140000  0.65840000  1.0 0.1093113483
H  H139  1  0.66700000  0.04860000  0.15840000  1.0 0.1093113483
H  H140  1  0.33300000  0.54860000  0.34160000  1.0 0.1093113483
H  H141  1  0.60250000  0.82190000  0.87380000  1.0 0.1187749044
H  H142  1  0.39750000  0.32190000  0.62620000  1.0 0.1187749044
H  H143  1  0.39750000  0.17810000  0.12620000  1.0 0.1187749044
H  H144  1  0.60250000  0.67810000  0.37380000  1.0 0.1187749044
H  H145  1  0.01790000  0.76940000  0.89010000  1.0 0.1093113483
H  H146  1  0.98210000  0.26940000  0.60990000  1.0 0.1093113483
H  H147  1  0.98210000  0.23060000  0.10990000  1.0 0.1093113483
H  H148  1  0.01790000  0.73060000  0.39010000  1.0 0.1093113483
H  H149  1  0.73060000  0.89780000  0.06470000  1.0 0.1187749044
H  H150  1  0.26940000  0.39780000  0.43530000  1.0 0.1187749044
H  H151  1  0.26940000  0.10220000  0.93530000  1.0 0.1187749044
H  H152  1  0.73060000  0.60220000  0.56470000  1.0 0.1187749044
H  H153  1  0.07280000  0.87170000  0.84640000  1.0 0.1296593075
H  H154  1  0.92720000  0.37170000  0.65360000  1.0 0.1296593075
H  H155  1  0.92720000  0.12830000  0.15360000  1.0 0.1296593075
H  H156  1  0.07280000  0.62830000  0.34640000  1.0 0.1296593075
H  H157  1  0.42770000  0.84210000  0.94830000  1.0 0.1187749044
H  H158  1  0.57230000  0.34210000  0.55170000  1.0 0.1187749044
H  H159  1  0.57230000  0.15790000  0.05170000  1.0 0.1187749044
H  H160  1  0.42770000  0.65790000  0.44830000  1.0 0.1187749044
H  H161  1  0.67800000  0.00000000  0.84770000  1.0 0.1093113483
H  H162  1  0.32200000  0.50000000  0.65230000  1.0 0.1093113483
H  H163  1  0.32200000  0.00000000  0.15230000  1.0 0.1093113483
H  H164  1  0.67800000  0.50000000  0.34770000  1.0 0.1093113483
H  H165  1  0.11090000  0.71930000  0.79610000  1.0 0.1187749044
H  H166  1  0.88910000  0.21930000  0.70390000  1.0 0.1187749044
H  H167  1  0.88910000  0.28070000  0.20390000  1.0 0.1187749044
H  H168  1  0.11090000  0.78070000  0.29610000  1.0 0.1187749044
H  H169  1  0.74770000  0.93920000  0.84580000  1.0 0.1093113483
H  H170  1  0.25230000  0.43920000  0.65420000  1.0 0.1093113483
H  H171  1  0.25230000  0.06080000  0.15420000  1.0 0.1093113483
H  H172  1  0.74770000  0.56080000  0.34580000  1.0 0.1093113483
H  H173  1  0.44500000  0.93540000  0.89600000  1.0 0.1093113483
H  H174  1  0.55500000  0.43540000  0.60400000  1.0 0.1093113483
H  H175  1  0.55500000  0.06460000  0.10400000  1.0 0.1093113483
H  H176  1  0.44500000  0.56460000  0.39600000  1.0 0.1093113483
H  H177  1  0.68800000  0.71860000  0.82540000  1.0 0.1093113483
H  H178  1  0.31200000  0.21860000  0.67460000  1.0 0.1093113483
H  H179  1  0.31200000  0.28140000  0.17460000  1.0 0.1093113483
H  H180  1  0.68800000  0.78140000  0.32540000  1.0 0.1093113483
H  H181  1  0.22090000  0.99700000  0.80980000  1.0 0.1093113483
H  H182  1  0.77910000  0.49700000  0.69020000  1.0 0.1093113483
H  H183  1  0.77910000  0.00300000  0.19020000  1.0 0.1093113483
H  H184  1  0.22090000  0.50300000  0.30980000  1.0 0.1093113483
H  H185  1  0.57300000  0.04580000  0.81320000  1.0 0.1187749044
H  H186  1  0.42700000  0.54580000  0.68680000  1.0 0.1187749044
H  H187  1  0.42700000  0.95420000  0.18680000  1.0 0.1187749044
H  H188  1  0.57300000  0.45420000  0.31320000  1.0 0.1187749044
H  H189  1  0.44790000  0.84360000  0.00520000  1.0 0.1093113483
H  H190  1  0.55210000  0.34360000  0.49480000  1.0 0.1093113483
H  H191  1  0.55210000  0.15640000  0.99480000  1.0 0.1093113483
H  H192  1  0.44790000  0.65640000  0.50520000  1.0 0.1093113483
H  H193  1  0.64400000  0.64900000  0.72700000  1.0 0.3375092896
H  H194  1  0.35600000  0.14900000  0.77300000  1.0 0.3375092896
H  H195  1  0.35600000  0.35100000  0.27300000  1.0 0.3375092896
H  H196  1  0.64400000  0.85100000  0.22700000  1.0 0.3375092896
C  C1  1  0.41580000  0.71990000  0.83790000  1.0 -0.1491334395
C  C2  1  0.58420000  0.21990000  0.66210000  1.0 -0.1491334395
C  C3  1  0.58420000  0.28010000  0.16210000  1.0 -0.1491334395
C  C4  1  0.41580000  0.78010000  0.33790000  1.0 -0.1491334395
C  C5  1  0.27200000  0.80410000  0.89700000  1.0 -0.1901851902
C  C6  1  0.72800000  0.30410000  0.60300000  1.0 -0.1901851902
C  C7  1  0.72800000  0.19590000  0.10300000  1.0 -0.1901851902
C  C8  1  0.27200000  0.69590000  0.39700000  1.0 -0.1901851902
C  C9  1  0.58430000  0.89830000  0.90920000  1.0 -0.1709624777
C  C10  1  0.41570000  0.39830000  0.59080000  1.0 -0.1709624777
C  C11  1  0.41570000  0.10170000  0.09080000  1.0 -0.1709624777
C  C12  1  0.58430000  0.60170000  0.40920000  1.0 -0.1709624777
C  C13  1  0.29780000  0.86350000  0.11490000  1.0 -0.0189806887
C  C14  1  0.70220000  0.36350000  0.38510000  1.0 -0.0189806887
C  C15  1  0.70220000  0.13650000  0.88510000  1.0 -0.0189806887
C  C16  1  0.29780000  0.63650000  0.61490000  1.0 -0.0189806887
C  C17  1  0.69950000  0.88470000  0.90340000  1.0 0.1602918471
C  C18  1  0.30050000  0.38470000  0.59660000  1.0 0.1602918471
C  C19  1  0.30050000  0.11530000  0.09660000  1.0 0.1602918471
C  C20  1  0.69950000  0.61530000  0.40340000  1.0 0.1602918471
C  C21  1  0.34280000  0.78340000  0.84830000  1.0 0.0511138703
C  C22  1  0.65720000  0.28340000  0.65170000  1.0 0.0511138703
C  C23  1  0.65720000  0.21660000  0.15170000  1.0 0.0511138703
C  C24  1  0.34280000  0.71660000  0.34830000  1.0 0.0511138703
C  C25  1  0.83790000  0.81790000  0.08000000  1.0 -0.1491334395
C  C26  1  0.16210000  0.31790000  0.42000000  1.0 -0.1491334395
C  C27  1  0.16210000  0.18210000  0.92000000  1.0 -0.1491334395
C  C28  1  0.83790000  0.68210000  0.58000000  1.0 -0.1491334395
C  C29  1  0.27180000  0.83960000  0.88650000  1.0 0.1907501745
C  C30  1  0.72820000  0.33960000  0.61350000  1.0 0.1907501745
C  C31  1  0.72820000  0.16040000  0.11350000  1.0 0.1907501745
C  C32  1  0.27180000  0.66040000  0.38650000  1.0 0.1907501745
C  C33  1  0.26300000  0.86320000  0.00910000  1.0 0.0686311859
C  C34  1  0.73700000  0.36320000  0.49090000  1.0 0.0686311859
C  C35  1  0.73700000  0.13680000  0.99090000  1.0 0.0608523304
C  C36  1  0.26300000  0.63680000  0.50910000  1.0 0.0686311859
C  C37  1  0.35190000  0.72930000  0.77020000  1.0 -0.1091246602
C  C38  1  0.64810000  0.22930000  0.72980000  1.0 -0.1091246602
C  C39  1  0.64810000  0.27070000  0.22980000  1.0 -0.1091246602
C  C40  1  0.35190000  0.77070000  0.27020000  1.0 -0.1091246602
C  C41  1  0.04360000  0.95750000  0.85450000  1.0 0.0608523304
C  C42  1  0.95640000  0.45750000  0.64550000  1.0 0.0608523304
C  C43  1  0.95640000  0.04250000  0.14550000  1.0 0.0608523304
C  C44  1  0.04360000  0.54250000  0.35450000  1.0 0.0608523304
C  C45  1  0.01380000  0.02270000  0.84910000  1.0 -0.1399466072
C  C46  1  0.98620000  0.52270000  0.65090000  1.0 -0.1317952703
C  C47  1  0.98620000  0.97730000  0.15090000  1.0 -0.1317952703
C  C48  1  0.01380000  0.47730000  0.34910000  1.0 -0.1317952703
C  C49  1  0.00060000  0.74260000  0.82570000  1.0 -0.1709624777
C  C50  1  0.99940000  0.24260000  0.67430000  1.0 -0.1709624777
C  C51  1  0.99940000  0.25740000  0.17430000  1.0 -0.1709624777
C  C52  1  0.00060000  0.75740000  0.32570000  1.0 -0.1709624777
C  C53  1  0.24110000  0.86410000  0.93860000  1.0 0.1745788011
C  C54  1  0.75890000  0.36410000  0.56140000  1.0 0.1745788011
C  C55  1  0.75890000  0.13590000  0.06140000  1.0 0.1745788011
C  C56  1  0.24110000  0.63590000  0.43860000  1.0 0.1745788011
C  C57  1  0.79150000  0.84900000  0.06030000  1.0 0.0686311859
C  C58  1  0.20850000  0.34900000  0.43970000  1.0 0.0686311859
C  C59  1  0.20850000  0.15100000  0.93970000  1.0 0.0608523304
C  C60  1  0.79150000  0.65100000  0.56030000  1.0 0.0686311859
C  C61  1  0.58180000  0.94130000  0.86630000  1.0 0.0686311859
C  C62  1  0.41820000  0.44130000  0.63370000  1.0 0.0686311859
C  C63  1  0.41820000  0.05870000  0.13370000  1.0 0.0686311859
C  C64  1  0.58180000  0.55870000  0.36630000  1.0 0.0801254853
C  C65  1  0.41920000  0.66666667  0.76220000  1.0 0.5488714727
C  C66  1  0.58080000  0.16667000  0.73780000  1.0 0.5488714727
C  C67  1  0.58080000  0.33333333  0.23780000  1.0 0.5488714727
C  C68  1  0.41920000  0.83333000  0.26220000  1.0 0.5488714727
C  C69  1  0.39490000  0.69620000  0.78350000  1.0 -0.0189806887
C  C70  1  0.60510000  0.19620000  0.71650000  1.0 -0.0189806887
C  C71  1  0.60510000  0.30380000  0.21650000  1.0 -0.0189806887
C  C72  1  0.39490000  0.80380000  0.28350000  1.0 -0.0189806887
C  C73  1  0.78140000  0.87950000  0.11180000  1.0 -0.0616603539
C  C74  1  0.21860000  0.37950000  0.38820000  1.0 -0.0616603539
C  C75  1  0.21860000  0.12050000  0.88820000  1.0 -0.0616603539
C  C76  1  0.78140000  0.62050000  0.61180000  1.0 -0.0616603539
C  C77  1  0.85970000  0.81890000  0.11240000  1.0 -0.0616603539
C  C78  1  0.14030000  0.31890000  0.38760000  1.0 -0.0616603539
C  C79  1  0.14030000  0.18110000  0.88760000  1.0 -0.0728438583
C  C80  1  0.85970000  0.68110000  0.61240000  1.0 -0.0616603539
C  C81  1  0.83860000  0.84950000  0.13110000  1.0 -0.1237648569
C  C82  1  0.16140000  0.34950000  0.36890000  1.0 -0.1237648569
C  C83  1  0.16140000  0.15050000  0.86890000  1.0 -0.1237648569
C  C84  1  0.83860000  0.65050000  0.63110000  1.0 -0.1237648569
C  C85  1  0.34440000  0.75740000  0.79130000  1.0 -0.1491334395
C  C86  1  0.65560000  0.25740000  0.70870000  1.0 -0.1491334395
C  C87  1  0.65560000  0.24260000  0.20870000  1.0 -0.1491334395
C  C88  1  0.34440000  0.74260000  0.29130000  1.0 -0.1491334395
C  C89  1  0.79280000  0.88030000  0.00740000  1.0 -0.1237648569
C  C90  1  0.20720000  0.38030000  0.49260000  1.0 -0.1237648569
C  C91  1  0.20720000  0.11970000  0.99260000  1.0 -0.1237648569
C  C92  1  0.79280000  0.61970000  0.50740000  1.0 -0.1237648569
C  C93  1  0.90840000  0.80640000  0.90650000  1.0 -0.179759373
C  C94  1  0.09160000  0.30640000  0.59350000  1.0 -0.179759373
C  C95  1  0.09160000  0.19360000  0.09350000  1.0 -0.179759373
C  C96  1  0.90840000  0.69360000  0.40650000  1.0 -0.179759373
C  C97  1  0.35290000  0.81860000  0.83680000  1.0 -0.1317952703
C  C98  1  0.64710000  0.31860000  0.66320000  1.0 -0.1317952703
C  C99  1  0.64710000  0.18140000  0.16320000  1.0 -0.1317952703
C  C100  1  0.35290000  0.68140000  0.33680000  1.0 -0.1317952703
C  C101  1  0.16970000  0.89840000  0.88650000  1.0 0.1499377119
C  C102  1  0.83030000  0.39840000  0.61350000  1.0 0.1499377119
C  C103  1  0.83030000  0.10160000  0.11350000  1.0 0.1499377119
C  C104  1  0.16970000  0.60160000  0.38650000  1.0 0.1499377119
C  C105  1  0.76350000  0.85190000  0.95500000  1.0 0.1951101574
C  C106  1  0.23650000  0.35190000  0.54500000  1.0 0.1951101574
C  C107  1  0.23650000  0.14810000  0.04500000  1.0 0.1951101574
C  C108  1  0.76350000  0.64810000  0.45500000  1.0 0.1951101574
C  C109  1  0.71070000  0.78580000  0.85360000  1.0 -0.1399466072
C  C110  1  0.28930000  0.28580000  0.64640000  1.0 -0.1399466072
C  C111  1  0.28930000  0.21420000  0.14640000  1.0 -0.1399466072
C  C112  1  0.71070000  0.71420000  0.35360000  1.0 -0.1399466072
C  C113  1  0.75440000  0.81990000  0.97130000  1.0 -0.1962511835
C  C114  1  0.24560000  0.31990000  0.52870000  1.0 -0.1962511835
C  C115  1  0.24560000  0.18010000  0.02870000  1.0 -0.1962511835
C  C116  1  0.75440000  0.68010000  0.47130000  1.0 -0.1962511835
C  C117  1  0.38650000  0.02740000  0.80840000  1.0 -0.0616603539
C  C118  1  0.61350000  0.52740000  0.69160000  1.0 -0.0616603539
C  C119  1  0.61350000  0.97260000  0.19160000  1.0 -0.0616603539
C  C120  1  0.38650000  0.47260000  0.30840000  1.0 -0.0616603539
C  C121  1  0.32250000  0.84570000  0.85580000  1.0 -0.179759373
C  C122  1  0.67750000  0.34570000  0.64420000  1.0 -0.179759373
C  C123  1  0.67750000  0.15430000  0.14420000  1.0 -0.179759373
C  C124  1  0.32250000  0.65430000  0.35580000  1.0 -0.179759373
C  C125  1  0.83320000  0.01540000  0.79100000  1.0 -0.0992874283
C  C126  1  0.16680000  0.51540000  0.70900000  1.0 -0.0992874283
C  C127  1  0.16680000  0.98460000  0.20900000  1.0 -0.0992874283
C  C128  1  0.83320000  0.48460000  0.29100000  1.0 -0.0992874283
C  C129  1  0.76000000  0.81800000  0.00600000  1.0 -0.1317952703
C  C130  1  0.24000000  0.31800000  0.49400000  1.0 -0.1317952703
C  C131  1  0.24000000  0.18200000  0.99400000  1.0 -0.1317952703
C  C132  1  0.76000000  0.68200000  0.50600000  1.0 -0.1317952703
C  C133  1  0.78240000  0.88150000  0.97500000  1.0 -0.179759373
C  C134  1  0.21760000  0.38150000  0.52500000  1.0 -0.179759373
C  C135  1  0.21760000  0.11850000  0.02500000  1.0 -0.179759373
C  C136  1  0.78240000  0.61850000  0.47500000  1.0 -0.179759373
C  C137  1  0.30900000  0.77770000  0.87830000  1.0 -0.1317952703
C  C138  1  0.69100000  0.27770000  0.62170000  1.0 -0.1317952703
C  C139  1  0.69100000  0.22230000  0.12170000  1.0 -0.1317952703
C  C140  1  0.30900000  0.72230000  0.37830000  1.0 -0.1317952703
C  C141  1  0.30600000  0.86160000  0.15140000  1.0 0.5888772758
C  C142  1  0.69400000  0.36160000  0.34860000  1.0 0.5888772758
C  C143  1  0.69400000  0.13840000  0.84860000  1.0 0.5888772758
C  C144  1  0.30600000  0.63840000  0.65140000  1.0 0.5888772758
C  C145  1  0.89220000  0.98830000  0.80820000  1.0 -0.1399466072
C  C146  1  0.10780000  0.48830000  0.69180000  1.0 -0.1399466072
C  C147  1  0.10780000  0.01170000  0.19180000  1.0 -0.1399466072
C  C148  1  0.89220000  0.51170000  0.30820000  1.0 -0.1399466072
C  C149  1  0.40980000  0.86610000  0.09910000  1.0 -0.0884947302
C  C150  1  0.59020000  0.36610000  0.40090000  1.0 -0.0884947302
C  C151  1  0.59020000  0.13390000  0.90090000  1.0 -0.0884947302
C  C152  1  0.40980000  0.63390000  0.59910000  1.0 -0.0884947302
C  C153  1  0.14070000  0.87530000  0.95490000  1.0 -0.1901851902
C  C154  1  0.85930000  0.37530000  0.54510000  1.0 -0.1901851902
C  C155  1  0.85930000  0.12470000  0.04510000  1.0 -0.1901851902
C  C156  1  0.14070000  0.62470000  0.45490000  1.0 -0.1901851902
C  C157  1  0.76830000  0.89940000  0.88040000  1.0 -0.1709624777
C  C158  1  0.23170000  0.39940000  0.61960000  1.0 -0.1709624777
C  C159  1  0.23170000  0.10060000  0.11960000  1.0 -0.179759373
C  C160  1  0.76830000  0.60060000  0.38040000  1.0 -0.1709624777
C  C161  1  0.14850000  0.87470000  0.98840000  1.0 -0.1237648569
C  C162  1  0.85150000  0.37470000  0.51160000  1.0 -0.1237648569
C  C163  1  0.85150000  0.12530000  0.01160000  1.0 -0.1237648569
C  C164  1  0.14850000  0.62530000  0.48840000  1.0 -0.1237648569
C  C165  1  0.36620000  0.75370000  0.82540000  1.0 0.0686311859
C  C166  1  0.63380000  0.25370000  0.67460000  1.0 0.0686311859
C  C167  1  0.63380000  0.24630000  0.17460000  1.0 0.0686311859
C  C168  1  0.36620000  0.74630000  0.32540000  1.0 0.0686311859
C  C169  1  0.77720000  0.84960000  0.02520000  1.0 0.0372477698
C  C170  1  0.22280000  0.34960000  0.47480000  1.0 0.0372477698
C  C171  1  0.22280000  0.15040000  0.97480000  1.0 0.0372477698
C  C172  1  0.77720000  0.65040000  0.52520000  1.0 0.0372477698
C  C173  1  0.11970000  0.95940000  0.88590000  1.0 -0.1317952703
C  C174  1  0.88030000  0.45940000  0.61410000  1.0 -0.1317952703
C  C175  1  0.88030000  0.04060000  0.11410000  1.0 -0.1317952703
C  C176  1  0.11970000  0.54060000  0.38590000  1.0 -0.1317952703
C  C177  1  0.03800000  0.92480000  0.83990000  1.0 -0.1491334395
C  C178  1  0.96200000  0.42480000  0.66010000  1.0 -0.1491334395
C  C179  1  0.96200000  0.07520000  0.16010000  1.0 -0.1491334395
C  C180  1  0.03800000  0.57520000  0.33990000  1.0 -0.1491334395
C  C181  1  0.51420000  0.97200000  0.84690000  1.0 0.0801254853
C  C182  1  0.48580000  0.47200000  0.65310000  1.0 0.0801254853
C  C183  1  0.48580000  0.02800000  0.15310000  1.0 0.0801254853
C  C184  1  0.51420000  0.52800000  0.34690000  1.0 0.0801254853
C  C185  1  0.17500000  0.85830000  0.09380000  1.0 -0.0992874283
C  C186  1  0.82500000  0.35830000  0.40620000  1.0 -0.0992874283
C  C187  1  0.82500000  0.14170000  0.90620000  1.0 -0.0992874283
C  C188  1  0.17500000  0.64170000  0.59380000  1.0 -0.0992874283
C  C189  1  0.96200000  0.05360000  0.83270000  1.0 -0.1091246602
C  C190  1  0.03800000  0.55360000  0.66730000  1.0 -0.1091246602
C  C191  1  0.03800000  0.94640000  0.16730000  1.0 -0.1091246602
C  C192  1  0.96200000  0.44640000  0.33270000  1.0 -0.1091246602
C  C193  1  0.16280000  0.85910000  0.06030000  1.0 -0.1491334395
C  C194  1  0.83720000  0.35910000  0.43970000  1.0 -0.1491334395
C  C195  1  0.83720000  0.14090000  0.93970000  1.0 -0.1491334395
C  C196  1  0.16280000  0.64090000  0.56030000  1.0 -0.1491334395
C  C197  1  0.27750000  0.86210000  0.04510000  1.0 0.0686311859
C  C198  1  0.72250000  0.36210000  0.45490000  1.0 0.0686311859
C  C199  1  0.72250000  0.13790000  0.95490000  1.0 0.0686311859
C  C200  1  0.27750000  0.63790000  0.54510000  1.0 0.0686311859
C  C201  1  0.96560000  0.66820000  0.76250000  1.0 0.597433463
C  C202  1  0.03440000  0.16820000  0.73750000  1.0 0.597433463
C  C203  1  0.03440000  0.33180000  0.23750000  1.0 0.597433463
C  C204  1  0.96560000  0.83180000  0.26250000  1.0 0.597433463
C  C205  1  0.17770000  0.93100000  0.90190000  1.0 -0.1709624777
C  C206  1  0.82230000  0.43100000  0.59810000  1.0 -0.1709624777
C  C207  1  0.82230000  0.06900000  0.09810000  1.0 -0.1709624777
C  C208  1  0.17770000  0.56900000  0.40190000  1.0 -0.1709624777
C  C209  1  0.39820000  0.86670000  0.06440000  1.0 -0.1491334395
C  C210  1  0.60180000  0.36670000  0.43560000  1.0 -0.1491334395
C  C211  1  0.60180000  0.13330000  0.93560000  1.0 -0.1491334395
C  C212  1  0.39820000  0.63330000  0.56440000  1.0 -0.1491334395
C  C213  1  0.81140000  0.69410000  0.80000000  1.0 -0.0793939975
C  C214  1  0.18860000  0.19410000  0.70000000  1.0 -0.0793939975
C  C215  1  0.18860000  0.30590000  0.20000000  1.0 -0.0793939975
C  C216  1  0.81140000  0.80590000  0.30000000  1.0 -0.0793939975
C  C217  1  0.42670000  0.69170000  0.81880000  1.0 -0.0992874283
C  C218  1  0.57330000  0.19170000  0.68120000  1.0 -0.0992874283
C  C219  1  0.57330000  0.30830000  0.18120000  1.0 -0.0992874283
C  C220  1  0.42670000  0.80830000  0.31880000  1.0 -0.0992874283
C  C221  1  0.87300000  0.74300000  0.83580000  1.0 0.0801254853
C  C222  1  0.12700000  0.24300000  0.66420000  1.0 0.0801254853
C  C223  1  0.12700000  0.25700000  0.16420000  1.0 0.0801254853
C  C224  1  0.87300000  0.75700000  0.33580000  1.0 0.0801254853
C  C225  1  0.38110000  0.97080000  0.83620000  1.0 -0.1577708109
C  C226  1  0.61890000  0.47080000  0.66380000  1.0 -0.1577708109
C  C227  1  0.61890000  0.02920000  0.16380000  1.0 -0.1577708109
C  C228  1  0.38110000  0.52920000  0.33620000  1.0 -0.1577708109
C  C229  1  0.93900000  0.69490000  0.78830000  1.0 -0.0189806887
C  C230  1  0.06100000  0.19490000  0.71170000  1.0 -0.0189806887
C  C231  1  0.06100000  0.30510000  0.21170000  1.0 -0.0189806887
C  C232  1  0.93900000  0.80510000  0.28830000  1.0 -0.0189806887
C  C233  1  0.68710000  0.81180000  0.87610000  1.0 -0.179759373
C  C234  1  0.31290000  0.31180000  0.62390000  1.0 -0.179759373
C  C235  1  0.31290000  0.18820000  0.12390000  1.0 -0.179759373
C  C236  1  0.68710000  0.68820000  0.37610000  1.0 -0.179759373
C  C237  1  0.93500000  0.78050000  0.88650000  1.0 -0.1237648569
C  C238  1  0.06500000  0.28050000  0.61350000  1.0 -0.1237648569
C  C239  1  0.06500000  0.21950000  0.11350000  1.0 -0.1237648569
C  C240  1  0.93500000  0.71950000  0.38650000  1.0 -0.1237648569
C  C241  1  0.76330000  0.87800000  0.07670000  1.0 -0.1709624777
C  C242  1  0.23670000  0.37800000  0.42330000  1.0 -0.1709624777
C  C243  1  0.23670000  0.12200000  0.92330000  1.0 -0.1709624777
C  C244  1  0.76330000  0.62200000  0.57670000  1.0 -0.1709624777
C  C245  1  0.09020000  0.89390000  0.85580000  1.0 -0.179759373
C  C246  1  0.90980000  0.39390000  0.64420000  1.0 -0.179759373
C  C247  1  0.90980000  0.10610000  0.14420000  1.0 -0.179759373
C  C248  1  0.09020000  0.60610000  0.35580000  1.0 -0.179759373
C  C249  1  0.35840000  0.85090000  0.95800000  1.0 -0.1962511835
C  C250  1  0.64160000  0.35090000  0.54200000  1.0 -0.1962511835
C  C251  1  0.64160000  0.14910000  0.04200000  1.0 -0.1962511835
C  C252  1  0.35840000  0.64910000  0.45800000  1.0 -0.1962511835
C  C253  1  0.58670000  0.99910000  0.83970000  1.0 -0.1317952703
C  C254  1  0.41330000  0.49910000  0.66030000  1.0 -0.1317952703
C  C255  1  0.41330000  0.00090000  0.16030000  1.0 -0.1317952703
C  C256  1  0.58670000  0.50090000  0.33970000  1.0 -0.1317952703
C  C257  1  0.83650000  0.77020000  0.85990000  1.0 0.0686311859
C  C258  1  0.16350000  0.27020000  0.64010000  1.0 0.0686311859
C  C259  1  0.16350000  0.22980000  0.14010000  1.0 0.0686311859
C  C260  1  0.83650000  0.72980000  0.35990000  1.0 0.0686311859
C  C261  1  0.02720000  0.71870000  0.80230000  1.0 -0.0884947302
C  C262  1  0.97280000  0.21870000  0.69770000  1.0 -0.0884947302
C  C263  1  0.97280000  0.28130000  0.19770000  1.0 -0.0884947302
C  C264  1  0.02720000  0.78130000  0.30230000  1.0 -0.0884947302
C  C265  1  0.78420000  0.82300000  0.90110000  1.0 0.1602918471
C  C266  1  0.21580000  0.32300000  0.59890000  1.0 0.1602918471
C  C267  1  0.21580000  0.17700000  0.09890000  1.0 0.1602918471
C  C268  1  0.78420000  0.67700000  0.40110000  1.0 0.1602918471
C  C269  1  0.70510000  0.92870000  0.86150000  1.0 -0.1491334395
C  C270  1  0.29490000  0.42870000  0.63850000  1.0 -0.1491334395
C  C271  1  0.29490000  0.07130000  0.13850000  1.0 -0.1491334395
C  C272  1  0.70510000  0.57130000  0.36150000  1.0 -0.1491334395
C  C273  1  0.52470000  0.92640000  0.89130000  1.0 -0.1399466072
C  C274  1  0.47530000  0.42640000  0.60870000  1.0 -0.1399466072
C  C275  1  0.47530000  0.07360000  0.10870000  1.0 -0.1399466072
C  C276  1  0.52470000  0.57360000  0.39130000  1.0 -0.1399466072
C  C277  1  0.77450000  0.71820000  0.82090000  1.0 -0.1577708109
C  C278  1  0.22550000  0.21820000  0.67910000  1.0 -0.1577708109
C  C279  1  0.22550000  0.28180000  0.17910000  1.0 -0.1577708109
C  C280  1  0.77450000  0.78180000  0.32090000  1.0 -0.1577708109
C  C281  1  0.80500000  0.08360000  0.78690000  1.0 0.5776435288
C  C282  1  0.19500000  0.58360000  0.71310000  1.0 0.5776435288
C  C283  1  0.19500000  0.91640000  0.21310000  1.0 0.5776435288
C  C284  1  0.80500000  0.41640000  0.28690000  1.0 0.5776435288
C  C285  1  0.98330000  0.99020000  0.83680000  1.0 0.0608523304
C  C286  1  0.01670000  0.49020000  0.66320000  1.0 0.0608523304
C  C287  1  0.01670000  0.00980000  0.16320000  1.0 0.0608523304
C  C288  1  0.98330000  0.50980000  0.33680000  1.0 0.0608523304
C  C289  1  0.31280000  0.99820000  0.81680000  1.0 -0.0884947302
C  C290  1  0.68720000  0.49820000  0.68320000  1.0 -0.0884947302
C  C291  1  0.68720000  0.00180000  0.18320000  1.0 -0.0884947302
C  C292  1  0.31280000  0.50180000  0.31680000  1.0 -0.0884947302
C  C293  1  0.31690000  0.05610000  0.78900000  1.0 0.6060213896
C  C294  1  0.68310000  0.55610000  0.71100000  1.0 0.6060213896
C  C295  1  0.68310000  0.94390000  0.21100000  1.0 0.6060213896
C  C296  1  0.31690000  0.44390000  0.28900000  1.0 0.6060213896
C  C297  1  0.87200000  0.85160000  0.16500000  1.0 0.5488714727
C  C298  1  0.12800000  0.35160000  0.33500000  1.0 0.5488714727
C  C299  1  0.12800000  0.14840000  0.83500000  1.0 0.5488714727
C  C300  1  0.87200000  0.64840000  0.66500000  1.0 0.5488714727
C  C301  1  0.86780000  0.05040000  0.80390000  1.0 -0.0189806887
C  C302  1  0.13220000  0.55040000  0.69610000  1.0 -0.0189806887
C  C303  1  0.13220000  0.94960000  0.19610000  1.0 -0.0189806887
C  C304  1  0.86780000  0.44960000  0.30390000  1.0 -0.0189806887
C  C305  1  0.52170000  0.02740000  0.81910000  1.0 -0.0728438583
C  C306  1  0.47830000  0.52740000  0.68090000  1.0 -0.0728438583
C  C307  1  0.47830000  0.97260000  0.18090000  1.0 -0.0728438583
C  C308  1  0.52170000  0.47260000  0.31910000  1.0 -0.0728438583
C  C309  1  0.36870000  0.85140000  0.99250000  1.0 -0.1317952703
C  C310  1  0.63130000  0.35140000  0.50750000  1.0 -0.1317952703
C  C311  1  0.63130000  0.14860000  0.00750000  1.0 -0.1317952703
C  C312  1  0.36870000  0.64860000  0.49250000  1.0 -0.1317952703
N  N1  1  0.23370000  0.86710000  0.90480000  1.0 -0.1491334395
N  N2  1  0.76630000  0.36710000  0.59520000  1.0 -0.1577708109
N  N3  1  0.76630000  0.13290000  0.09520000  1.0 -0.1577708109
N  N4  1  0.23370000  0.63290000  0.40480000  1.0 -0.1577708109
N  N5  1  0.76130000  0.85320000  0.92160000  1.0 -0.1901851902
N  N6  1  0.23870000  0.35320000  0.57840000  1.0 -0.1901851902
N  N7  1  0.23870000  0.14680000  0.07840000  1.0 -0.1901851902
N  N8  1  0.76130000  0.64680000  0.42160000  1.0 -0.1901851902
O  O1  1  0.35250000  0.66720000  0.73150000  1.0 -0.6238236127
O  O2  1  0.64750000  0.16720000  0.76850000  1.0 -0.6238236127
O  O3  1  0.64750000  0.33280000  0.26850000  1.0 -0.6238236127
O  O4  1  0.35250000  0.83280000  0.23150000  1.0 -0.6238236127
O  O5  1  0.49850000  0.64370000  0.77080000  1.0 -0.4519421084
O  O6  1  0.50150000  0.14370000  0.72920000  1.0 -0.4519421084
O  O7  1  0.50150000  0.35630000  0.22920000  1.0 -0.4519421084
O  O8  1  0.49850000  0.85630000  0.27080000  1.0 -0.4519421084
O  O9  1  0.82750000  0.87660000  0.17974000  1.0 -0.5211557793
O  O10  1  0.17250000  0.37660000  0.32026000  1.0 -0.5145720688
O  O11  1  0.17250000  0.12340000  0.82026000  1.0 -0.5145720688
O  O12  1  0.82750000  0.62340000  0.67974000  1.0 -0.5211557793
O  O13  1  0.19110000  0.05593000  0.78508000  1.0 -0.5516394747
O  O14  1  0.80890000  0.55593000  0.71492000  1.0 -0.5516394747
O  O15  1  0.80890000  0.94407000  0.21492000  1.0 -0.5516394747
O  O16  1  0.19110000  0.44407000  0.28508000  1.0 -0.5516394747
O  O17  1  0.07420000  0.67370000  0.75354000  1.0 -0.56125316
O  O18  1  0.92580000  0.17370000  0.74646000  1.0 -0.56125316
O  O19  1  0.92580000  0.32630000  0.24646000  1.0 -0.56125316
O  O20  1  0.07420000  0.82630000  0.25354000  1.0 -0.56125316
O  O21  1  0.68430000  0.08460000  0.77651000  1.0 -0.5010433791
O  O22  1  0.31570000  0.58460000  0.72349000  1.0 -0.5010433791
O  O23  1  0.31570000  0.91540000  0.22349000  1.0 -0.5010433791
O  O24  1  0.68430000  0.41540000  0.27651000  1.0 -0.5010433791
O  O25  1  0.88810000  0.11130000  0.78679000  1.0 -0.6522708086
O  O26  1  0.11190000  0.61130000  0.71321000  1.0 -0.6522708086
O  O27  1  0.11190000  0.88870000  0.21321000  1.0 -0.6522708086
O  O28  1  0.88810000  0.38870000  0.28679000  1.0 -0.6522708086
O  O29  1  0.88200000  0.64400000  0.75500000  1.0 -0.5211557793
O  O30  1  0.11800000  0.14400000  0.74500000  1.0 -0.5211557793
O  O31  1  0.11800000  0.35600000  0.24500000  1.0 -0.5211557793
O  O32  1  0.88200000  0.85600000  0.25500000  1.0 -0.5211557793
O  O33  1  0.94840000  0.82730000  0.18144000  1.0 -0.5900535357
O  O34  1  0.05160000  0.32730000  0.31856000  1.0 -0.5900535357
O  O35  1  0.05160000  0.17270000  0.81856000  1.0 -0.5900535357
O  O36  1  0.94840000  0.67270000  0.68144000  1.0 -0.5900535357
O  O37  1  0.41680000  0.87310000  0.16788000  1.0 -0.5439496634
O  O38  1  0.58320000  0.37310000  0.33212000  1.0 -0.5439496634
O  O39  1  0.58320000  0.12690000  0.83212000  1.0 -0.5439496634
O  O40  1  0.41680000  0.62690000  0.66788000  1.0 -0.5439496634
O  O41  1  0.21450000  0.84900000  0.16290000  1.0 -0.5288743225
O  O42  1  0.78550000  0.34900000  0.33710000  1.0 -0.5288743225
O  O43  1  0.78550000  0.15100000  0.83710000  1.0 -0.5288743225
O  O44  1  0.21450000  0.65100000  0.66290000  1.0 -0.5288743225
O  O45  1  0.38290000  0.08126000  0.77832000  1.0 -0.5516394747
O  O46  1  0.61710000  0.58126000  0.72168000  1.0 -0.5516394747
O  O47  1  0.61710000  0.91874000  0.22168000  1.0 -0.5516394747
O  O48  1  0.38290000  0.41874000  0.27832000  1.0 -0.5516394747
O  O49  1  0.64240000  0.65640000  0.71501000  1.0 -0.5900535357
O  O50  1  0.35760000  0.15640000  0.78499000  1.0 -0.5900535357
O  O51  1  0.35760000  0.34360000  0.28499000  1.0 -0.5900535357
O  O52  1  0.64240000  0.84360000  0.21501000  1.0 -0.5900535357
