# DDEC6 charges by PACMAN v1.1 (https://github.com/mtap-research/PACMAN-charge/)
data_DADLAY_ASR_pacman
_symmetry_space_group_name_H-M   'P 1'
_cell_length_a   28.85000000
_cell_length_b   28.85000000
_cell_length_c   28.85000000
_cell_angle_alpha   90.00000000
_cell_angle_beta   90.00000000
_cell_angle_gamma   90.00000000
_symmetry_Int_Tables_number   1
_chemical_formula_structural   Zr(C7O)4
_chemical_formula_sum   'Zr18 C504 O72'
_cell_volume   24012.50412500
_cell_formula_units_Z   18
loop_
 _symmetry_equiv_pos_site_id
 _symmetry_equiv_pos_as_xyz
  1  'x, y, z'
loop_
 _atom_site_type_symbol
 _atom_site_label
 _atom_site_symmetry_multiplicity
 _atom_site_fract_x
 _atom_site_fract_y
 _atom_site_fract_z
 _atom_site_occupancy
 _atom_site_charge
Zr  Zr1  1  0.50000000  0.50000000  0.08373000  1.0 2.3205506214
Zr  Zr2  1  0.50000000  0.50000000  0.91627000  1.0 2.3205506214
Zr  Zr3  1  0.08373000  0.50000000  0.50000000  1.0 2.3205506214
Zr  Zr4  1  0.91627000  0.50000000  0.50000000  1.0 2.3205506214
Zr  Zr5  1  0.50000000  0.08373000  0.50000000  1.0 2.3205506214
Zr  Zr6  1  0.50000000  0.91627000  0.50000000  1.0 2.3205506214
Zr  Zr7  1  0.43839000  0.43839000  0.00000000  1.0 2.4607866812
Zr  Zr8  1  0.56161000  0.56161000  0.00000000  1.0 2.4607866812
Zr  Zr9  1  0.56161000  0.43839000  0.00000000  1.0 2.4607866812
Zr  Zr10  1  0.43839000  0.56161000  0.00000000  1.0 2.4607866812
Zr  Zr11  1  0.00000000  0.43839000  0.43839000  1.0 2.4607866812
Zr  Zr12  1  0.00000000  0.56161000  0.56161000  1.0 2.4607866812
Zr  Zr13  1  0.00000000  0.56161000  0.43839000  1.0 2.4607866812
Zr  Zr14  1  0.00000000  0.43839000  0.56161000  1.0 2.4607866812
Zr  Zr15  1  0.43839000  0.00000000  0.43839000  1.0 2.4607866812
Zr  Zr16  1  0.56161000  0.00000000  0.56161000  1.0 2.4607866812
Zr  Zr17  1  0.43839000  0.00000000  0.56161000  1.0 2.4607866812
Zr  Zr18  1  0.56161000  0.00000000  0.43839000  1.0 2.4607866812
C  C1  1  0.38140000  0.35830000  0.14350000  1.0 0.0084748084
C  C2  1  0.36240000  0.33440000  0.18040000  1.0 -0.0195765746
C  C3  1  0.37832000  0.39757000  0.23299000  1.0 0.0249435301
C  C4  1  0.39265000  0.42603000  0.19621000  1.0 0.0084748084
C  C5  1  0.40392000  0.47265000  0.20447000  1.0 -0.0038859795
C  C6  1  0.40085000  0.49080000  0.24954000  1.0 0.0474281108
C  C7  1  0.38651000  0.46233000  0.28630000  1.0 -0.1429238861
C  C8  1  0.37525000  0.41572000  0.27804000  1.0 0.0313730443
C  C9  1  0.35674000  0.39084000  0.32438000  1.0 0.0084748084
C  C10  1  0.61860000  0.64170000  0.14350000  1.0 0.0084748084
C  C11  1  0.63760000  0.66560000  0.18040000  1.0 -0.0195765746
C  C12  1  0.62168000  0.60243000  0.23299000  1.0 0.0249435301
C  C13  1  0.60735000  0.57397000  0.19621000  1.0 0.0084748084
C  C14  1  0.59608000  0.52735000  0.20447000  1.0 -0.0038859795
C  C15  1  0.59915000  0.50920000  0.24954000  1.0 0.0474281108
C  C16  1  0.61349000  0.53767000  0.28630000  1.0 -0.1429238861
C  C17  1  0.62475000  0.58428000  0.27804000  1.0 0.0313730443
C  C18  1  0.64326000  0.60916000  0.32438000  1.0 0.0084748084
C  C19  1  0.61860000  0.35830000  0.85650000  1.0 0.0084748084
C  C20  1  0.63760000  0.33440000  0.81960000  1.0 -0.0195765746
C  C21  1  0.62168000  0.39757000  0.76701000  1.0 0.0249435301
C  C22  1  0.60735000  0.42603000  0.80379000  1.0 0.0084748084
C  C23  1  0.59608000  0.47265000  0.79553000  1.0 -0.0038859795
C  C24  1  0.59915000  0.49080000  0.75046000  1.0 0.0474281108
C  C25  1  0.61349000  0.46233000  0.71370000  1.0 -0.1429238861
C  C26  1  0.62475000  0.41572000  0.72196000  1.0 0.0313730443
C  C27  1  0.64326000  0.39084000  0.67562000  1.0 0.0084748084
C  C28  1  0.38140000  0.64170000  0.85650000  1.0 0.0084748084
C  C29  1  0.36240000  0.66560000  0.81960000  1.0 -0.0195765746
C  C30  1  0.37832000  0.60243000  0.76701000  1.0 0.0249435301
C  C31  1  0.39265000  0.57397000  0.80379000  1.0 0.0084748084
C  C32  1  0.40392000  0.52735000  0.79553000  1.0 -0.0038859795
C  C33  1  0.40085000  0.50920000  0.75046000  1.0 0.0474281108
C  C34  1  0.38651000  0.53767000  0.71370000  1.0 -0.1429238861
C  C35  1  0.37525000  0.58428000  0.72196000  1.0 0.0313730443
C  C36  1  0.35674000  0.60916000  0.67562000  1.0 0.0084748084
C  C37  1  0.14350000  0.38140000  0.35830000  1.0 0.0084748084
C  C38  1  0.18040000  0.36240000  0.33440000  1.0 -0.0195765746
C  C39  1  0.23299000  0.37832000  0.39757000  1.0 0.0249435301
C  C40  1  0.19621000  0.39265000  0.42603000  1.0 0.0084748084
C  C41  1  0.20447000  0.40392000  0.47265000  1.0 -0.0038859795
C  C42  1  0.24954000  0.40085000  0.49080000  1.0 0.0474281108
C  C43  1  0.28630000  0.38651000  0.46233000  1.0 -0.1429238861
C  C44  1  0.27804000  0.37525000  0.41572000  1.0 0.0313730443
C  C45  1  0.32438000  0.35674000  0.39084000  1.0 0.0084748084
C  C46  1  0.14350000  0.61860000  0.64170000  1.0 0.0084748084
C  C47  1  0.18040000  0.63760000  0.66560000  1.0 -0.0195765746
C  C48  1  0.23299000  0.62168000  0.60243000  1.0 0.0249435301
C  C49  1  0.19621000  0.60735000  0.57397000  1.0 0.0084748084
C  C50  1  0.20447000  0.59608000  0.52735000  1.0 -0.0038859795
C  C51  1  0.24954000  0.59915000  0.50920000  1.0 0.0474281108
C  C52  1  0.28630000  0.61349000  0.53767000  1.0 -0.1429238861
C  C53  1  0.27804000  0.62475000  0.58428000  1.0 0.0313730443
C  C54  1  0.32438000  0.64326000  0.60916000  1.0 0.0084748084
C  C55  1  0.85650000  0.61860000  0.35830000  1.0 0.0084748084
C  C56  1  0.81960000  0.63760000  0.33440000  1.0 -0.0195765746
C  C57  1  0.76701000  0.62168000  0.39757000  1.0 0.0249435301
C  C58  1  0.80379000  0.60735000  0.42603000  1.0 0.0084748084
C  C59  1  0.79553000  0.59608000  0.47265000  1.0 -0.0038859795
C  C60  1  0.75046000  0.59915000  0.49080000  1.0 0.0474281108
C  C61  1  0.71370000  0.61349000  0.46233000  1.0 -0.1429238861
C  C62  1  0.72196000  0.62475000  0.41572000  1.0 0.0313730443
C  C63  1  0.67562000  0.64326000  0.39084000  1.0 0.0084748084
C  C64  1  0.85650000  0.38140000  0.64170000  1.0 0.0084748084
C  C65  1  0.81960000  0.36240000  0.66560000  1.0 -0.0195765746
C  C66  1  0.76701000  0.37832000  0.60243000  1.0 0.0249435301
C  C67  1  0.80379000  0.39265000  0.57397000  1.0 0.0084748084
C  C68  1  0.79553000  0.40392000  0.52735000  1.0 -0.0038859795
C  C69  1  0.75046000  0.40085000  0.50920000  1.0 0.0474281108
C  C70  1  0.71370000  0.38651000  0.53767000  1.0 -0.1429238861
C  C71  1  0.72196000  0.37525000  0.58428000  1.0 0.0313730443
C  C72  1  0.67562000  0.35674000  0.60916000  1.0 0.0084748084
C  C73  1  0.35830000  0.14350000  0.38140000  1.0 0.0084748084
C  C74  1  0.33440000  0.18040000  0.36240000  1.0 -0.0195765746
C  C75  1  0.39757000  0.23299000  0.37832000  1.0 0.0249435301
C  C76  1  0.42603000  0.19621000  0.39265000  1.0 0.0084748084
C  C77  1  0.47265000  0.20447000  0.40392000  1.0 -0.0038859795
C  C78  1  0.49080000  0.24954000  0.40085000  1.0 0.0474281108
C  C79  1  0.46233000  0.28630000  0.38651000  1.0 -0.1429238861
C  C80  1  0.41572000  0.27804000  0.37525000  1.0 0.0313730443
C  C81  1  0.39084000  0.32438000  0.35674000  1.0 0.0084748084
C  C82  1  0.64170000  0.14350000  0.61860000  1.0 0.0084748084
C  C83  1  0.66560000  0.18040000  0.63760000  1.0 -0.0195765746
C  C84  1  0.60243000  0.23299000  0.62168000  1.0 0.0249435301
C  C85  1  0.57397000  0.19621000  0.60735000  1.0 0.0084748084
C  C86  1  0.52735000  0.20447000  0.59608000  1.0 -0.0038859795
C  C87  1  0.50920000  0.24954000  0.59915000  1.0 0.0474281108
C  C88  1  0.53767000  0.28630000  0.61349000  1.0 -0.1429238861
C  C89  1  0.58428000  0.27804000  0.62475000  1.0 0.0313730443
C  C90  1  0.60916000  0.32438000  0.64326000  1.0 0.0084748084
C  C91  1  0.35830000  0.85650000  0.61860000  1.0 0.0084748084
C  C92  1  0.33440000  0.81960000  0.63760000  1.0 -0.0195765746
C  C93  1  0.39757000  0.76701000  0.62168000  1.0 0.0249435301
C  C94  1  0.42603000  0.80379000  0.60735000  1.0 0.0084748084
C  C95  1  0.47265000  0.79553000  0.59608000  1.0 -0.0038859795
C  C96  1  0.49080000  0.75046000  0.59915000  1.0 0.0474281108
C  C97  1  0.46233000  0.71370000  0.61349000  1.0 -0.1429238861
C  C98  1  0.41572000  0.72196000  0.62475000  1.0 0.0313730443
C  C99  1  0.39084000  0.67562000  0.64326000  1.0 0.0084748084
C  C100  1  0.64170000  0.85650000  0.38140000  1.0 0.0084748084
C  C101  1  0.66560000  0.81960000  0.36240000  1.0 -0.0195765746
C  C102  1  0.60243000  0.76701000  0.37832000  1.0 0.0249435301
C  C103  1  0.57397000  0.80379000  0.39265000  1.0 0.0084748084
C  C104  1  0.52735000  0.79553000  0.40392000  1.0 -0.0038859795
C  C105  1  0.50920000  0.75046000  0.40085000  1.0 0.0474281108
C  C106  1  0.53767000  0.71370000  0.38651000  1.0 -0.1429238861
C  C107  1  0.58428000  0.72196000  0.37525000  1.0 0.0313730443
C  C108  1  0.60916000  0.67562000  0.35674000  1.0 0.0084748084
C  C109  1  0.35830000  0.38140000  0.85650000  1.0 0.0084748084
C  C110  1  0.33440000  0.36240000  0.81960000  1.0 -0.0195765746
C  C111  1  0.39757000  0.37832000  0.76701000  1.0 0.0249435301
C  C112  1  0.42603000  0.39265000  0.80379000  1.0 0.0084748084
C  C113  1  0.47265000  0.40392000  0.79553000  1.0 -0.0038859795
C  C114  1  0.49080000  0.40085000  0.75046000  1.0 0.0474281108
C  C115  1  0.46233000  0.38651000  0.71370000  1.0 -0.1429238861
C  C116  1  0.41572000  0.37525000  0.72196000  1.0 0.0313730443
C  C117  1  0.39084000  0.35674000  0.67562000  1.0 0.0084748084
C  C118  1  0.64170000  0.61860000  0.85650000  1.0 0.0084748084
C  C119  1  0.66560000  0.63760000  0.81960000  1.0 -0.0195765746
C  C120  1  0.60243000  0.62168000  0.76701000  1.0 0.0249435301
C  C121  1  0.57397000  0.60735000  0.80379000  1.0 0.0084748084
C  C122  1  0.52735000  0.59608000  0.79553000  1.0 -0.0038859795
C  C123  1  0.50920000  0.59915000  0.75046000  1.0 0.0474281108
C  C124  1  0.53767000  0.61349000  0.71370000  1.0 -0.1429238861
C  C125  1  0.58428000  0.62475000  0.72196000  1.0 0.0313730443
C  C126  1  0.60916000  0.64326000  0.67562000  1.0 0.0084748084
C  C127  1  0.35830000  0.61860000  0.14350000  1.0 0.0084748084
C  C128  1  0.33440000  0.63760000  0.18040000  1.0 -0.0195765746
C  C129  1  0.39757000  0.62168000  0.23299000  1.0 0.0249435301
C  C130  1  0.42603000  0.60735000  0.19621000  1.0 0.0084748084
C  C131  1  0.47265000  0.59608000  0.20447000  1.0 -0.0038859795
C  C132  1  0.49080000  0.59915000  0.24954000  1.0 0.0474281108
C  C133  1  0.46233000  0.61349000  0.28630000  1.0 -0.1429238861
C  C134  1  0.41572000  0.62475000  0.27804000  1.0 0.0313730443
C  C135  1  0.39084000  0.64326000  0.32438000  1.0 0.0084748084
C  C136  1  0.64170000  0.38140000  0.14350000  1.0 0.0084748084
C  C137  1  0.66560000  0.36240000  0.18040000  1.0 -0.0195765746
C  C138  1  0.60243000  0.37832000  0.23299000  1.0 0.0249435301
C  C139  1  0.57397000  0.39265000  0.19621000  1.0 0.0084748084
C  C140  1  0.52735000  0.40392000  0.20447000  1.0 -0.0038859795
C  C141  1  0.50920000  0.40085000  0.24954000  1.0 0.0474281108
C  C142  1  0.53767000  0.38651000  0.28630000  1.0 -0.1429238861
C  C143  1  0.58428000  0.37525000  0.27804000  1.0 0.0313730443
C  C144  1  0.60916000  0.35674000  0.32438000  1.0 0.0084748084
C  C145  1  0.38140000  0.14350000  0.64170000  1.0 0.0084748084
C  C146  1  0.36240000  0.18040000  0.66560000  1.0 -0.0195765746
C  C147  1  0.37832000  0.23299000  0.60243000  1.0 0.0249435301
C  C148  1  0.39265000  0.19621000  0.57397000  1.0 0.0084748084
C  C149  1  0.40392000  0.20447000  0.52735000  1.0 -0.0038859795
C  C150  1  0.40085000  0.24954000  0.50920000  1.0 0.0474281108
C  C151  1  0.38651000  0.28630000  0.53767000  1.0 -0.1429238861
C  C152  1  0.37525000  0.27804000  0.58428000  1.0 0.0313730443
C  C153  1  0.35674000  0.32438000  0.60916000  1.0 0.0084748084
C  C154  1  0.61860000  0.14350000  0.35830000  1.0 0.0084748084
C  C155  1  0.63760000  0.18040000  0.33440000  1.0 -0.0195765746
C  C156  1  0.62168000  0.23299000  0.39757000  1.0 0.0249435301
C  C157  1  0.60735000  0.19621000  0.42603000  1.0 0.0084748084
C  C158  1  0.59608000  0.20447000  0.47265000  1.0 -0.0038859795
C  C159  1  0.59915000  0.24954000  0.49080000  1.0 0.0474281108
C  C160  1  0.61349000  0.28630000  0.46233000  1.0 -0.1429238861
C  C161  1  0.62475000  0.27804000  0.41572000  1.0 0.0313730443
C  C162  1  0.64326000  0.32438000  0.39084000  1.0 0.0084748084
C  C163  1  0.61860000  0.85650000  0.64170000  1.0 0.0084748084
C  C164  1  0.63760000  0.81960000  0.66560000  1.0 -0.0195765746
C  C165  1  0.62168000  0.76701000  0.60243000  1.0 0.0249435301
C  C166  1  0.60735000  0.80379000  0.57397000  1.0 0.0084748084
C  C167  1  0.59608000  0.79553000  0.52735000  1.0 -0.0038859795
C  C168  1  0.59915000  0.75046000  0.50920000  1.0 0.0474281108
C  C169  1  0.61349000  0.71370000  0.53767000  1.0 -0.1429238861
C  C170  1  0.62475000  0.72196000  0.58428000  1.0 0.0313730443
C  C171  1  0.64326000  0.67562000  0.60916000  1.0 0.0084748084
C  C172  1  0.38140000  0.85650000  0.35830000  1.0 0.0084748084
C  C173  1  0.36240000  0.81960000  0.33440000  1.0 -0.0195765746
C  C174  1  0.37832000  0.76701000  0.39757000  1.0 0.0249435301
C  C175  1  0.39265000  0.80379000  0.42603000  1.0 0.0084748084
C  C176  1  0.40392000  0.79553000  0.47265000  1.0 -0.0038859795
C  C177  1  0.40085000  0.75046000  0.49080000  1.0 0.0474281108
C  C178  1  0.38651000  0.71370000  0.46233000  1.0 -0.1429238861
C  C179  1  0.37525000  0.72196000  0.41572000  1.0 0.0313730443
C  C180  1  0.35674000  0.67562000  0.39084000  1.0 0.0084748084
C  C181  1  0.14350000  0.35830000  0.61860000  1.0 0.0084748084
C  C182  1  0.18040000  0.33440000  0.63760000  1.0 -0.0195765746
C  C183  1  0.23299000  0.39757000  0.62168000  1.0 0.0249435301
C  C184  1  0.19621000  0.42603000  0.60735000  1.0 0.0084748084
C  C185  1  0.20447000  0.47265000  0.59608000  1.0 -0.0038859795
C  C186  1  0.24954000  0.49080000  0.59915000  1.0 0.0474281108
C  C187  1  0.28630000  0.46233000  0.61349000  1.0 -0.1429238861
C  C188  1  0.27804000  0.41572000  0.62475000  1.0 0.0313730443
C  C189  1  0.32438000  0.39084000  0.64326000  1.0 0.0084748084
C  C190  1  0.14350000  0.64170000  0.38140000  1.0 0.0084748084
C  C191  1  0.18040000  0.66560000  0.36240000  1.0 -0.0195765746
C  C192  1  0.23299000  0.60243000  0.37832000  1.0 0.0249435301
C  C193  1  0.19621000  0.57397000  0.39265000  1.0 0.0084748084
C  C194  1  0.20447000  0.52735000  0.40392000  1.0 -0.0038859795
C  C195  1  0.24954000  0.50920000  0.40085000  1.0 0.0474281108
C  C196  1  0.28630000  0.53767000  0.38651000  1.0 -0.1429238861
C  C197  1  0.27804000  0.58428000  0.37525000  1.0 0.0313730443
C  C198  1  0.32438000  0.60916000  0.35674000  1.0 0.0084748084
C  C199  1  0.85650000  0.35830000  0.38140000  1.0 0.0084748084
C  C200  1  0.81960000  0.33440000  0.36240000  1.0 -0.0195765746
C  C201  1  0.76701000  0.39757000  0.37832000  1.0 0.0249435301
C  C202  1  0.80379000  0.42603000  0.39265000  1.0 0.0084748084
C  C203  1  0.79553000  0.47265000  0.40392000  1.0 -0.0038859795
C  C204  1  0.75046000  0.49080000  0.40085000  1.0 0.0474281108
C  C205  1  0.71370000  0.46233000  0.38651000  1.0 -0.1429238861
C  C206  1  0.72196000  0.41572000  0.37525000  1.0 0.0313730443
C  C207  1  0.67562000  0.39084000  0.35674000  1.0 0.0084748084
C  C208  1  0.85650000  0.64170000  0.61860000  1.0 0.0084748084
C  C209  1  0.81960000  0.66560000  0.63760000  1.0 -0.0195765746
C  C210  1  0.76701000  0.60243000  0.62168000  1.0 0.0249435301
C  C211  1  0.80379000  0.57397000  0.60735000  1.0 0.0084748084
C  C212  1  0.79553000  0.52735000  0.59608000  1.0 -0.0038859795
C  C213  1  0.75046000  0.50920000  0.59915000  1.0 0.0474281108
C  C214  1  0.71370000  0.53767000  0.61349000  1.0 -0.1429238861
C  C215  1  0.72196000  0.58428000  0.62475000  1.0 0.0313730443
C  C216  1  0.67562000  0.60916000  0.64326000  1.0 0.0084748084
C  C217  1  0.61860000  0.64170000  0.85650000  1.0 0.0084748084
C  C218  1  0.63760000  0.66560000  0.81960000  1.0 -0.0195765746
C  C219  1  0.62168000  0.60243000  0.76701000  1.0 0.0249435301
C  C220  1  0.60735000  0.57397000  0.80379000  1.0 0.0084748084
C  C221  1  0.59608000  0.52735000  0.79553000  1.0 -0.0038859795
C  C222  1  0.59915000  0.50920000  0.75046000  1.0 0.0474281108
C  C223  1  0.61349000  0.53767000  0.71370000  1.0 -0.1429238861
C  C224  1  0.62475000  0.58428000  0.72196000  1.0 0.0313730443
C  C225  1  0.64326000  0.60916000  0.67562000  1.0 0.0084748084
C  C226  1  0.38140000  0.35830000  0.85650000  1.0 0.0084748084
C  C227  1  0.36240000  0.33440000  0.81960000  1.0 -0.0195765746
C  C228  1  0.37832000  0.39757000  0.76701000  1.0 0.0249435301
C  C229  1  0.39265000  0.42603000  0.80379000  1.0 0.0084748084
C  C230  1  0.40392000  0.47265000  0.79553000  1.0 -0.0038859795
C  C231  1  0.40085000  0.49080000  0.75046000  1.0 0.0474281108
C  C232  1  0.38651000  0.46233000  0.71370000  1.0 -0.1429238861
C  C233  1  0.37525000  0.41572000  0.72196000  1.0 0.0313730443
C  C234  1  0.35674000  0.39084000  0.67562000  1.0 0.0084748084
C  C235  1  0.38140000  0.64170000  0.14350000  1.0 0.0084748084
C  C236  1  0.36240000  0.66560000  0.18040000  1.0 -0.0195765746
C  C237  1  0.37832000  0.60243000  0.23299000  1.0 0.0249435301
C  C238  1  0.39265000  0.57397000  0.19621000  1.0 0.0084748084
C  C239  1  0.40392000  0.52735000  0.20447000  1.0 -0.0038859795
C  C240  1  0.40085000  0.50920000  0.24954000  1.0 0.0474281108
C  C241  1  0.38651000  0.53767000  0.28630000  1.0 -0.1429238861
C  C242  1  0.37525000  0.58428000  0.27804000  1.0 0.0313730443
C  C243  1  0.35674000  0.60916000  0.32438000  1.0 0.0084748084
C  C244  1  0.61860000  0.35830000  0.14350000  1.0 0.0084748084
C  C245  1  0.63760000  0.33440000  0.18040000  1.0 -0.0195765746
C  C246  1  0.62168000  0.39757000  0.23299000  1.0 0.0249435301
C  C247  1  0.60735000  0.42603000  0.19621000  1.0 0.0084748084
C  C248  1  0.59608000  0.47265000  0.20447000  1.0 -0.0038859795
C  C249  1  0.59915000  0.49080000  0.24954000  1.0 0.0474281108
C  C250  1  0.61349000  0.46233000  0.28630000  1.0 -0.1429238861
C  C251  1  0.62475000  0.41572000  0.27804000  1.0 0.0313730443
C  C252  1  0.64326000  0.39084000  0.32438000  1.0 0.0084748084
C  C253  1  0.85650000  0.61860000  0.64170000  1.0 0.0084748084
C  C254  1  0.81960000  0.63760000  0.66560000  1.0 -0.0195765746
C  C255  1  0.76701000  0.62168000  0.60243000  1.0 0.0249435301
C  C256  1  0.80379000  0.60735000  0.57397000  1.0 0.0084748084
C  C257  1  0.79553000  0.59608000  0.52735000  1.0 -0.0038859795
C  C258  1  0.75046000  0.59915000  0.50920000  1.0 0.0474281108
C  C259  1  0.71370000  0.61349000  0.53767000  1.0 -0.1429238861
C  C260  1  0.72196000  0.62475000  0.58428000  1.0 0.0313730443
C  C261  1  0.67562000  0.64326000  0.60916000  1.0 0.0084748084
C  C262  1  0.85650000  0.38140000  0.35830000  1.0 0.0084748084
C  C263  1  0.81960000  0.36240000  0.33440000  1.0 -0.0195765746
C  C264  1  0.76701000  0.37832000  0.39757000  1.0 0.0249435301
C  C265  1  0.80379000  0.39265000  0.42603000  1.0 0.0084748084
C  C266  1  0.79553000  0.40392000  0.47265000  1.0 -0.0038859795
C  C267  1  0.75046000  0.40085000  0.49080000  1.0 0.0474281108
C  C268  1  0.71370000  0.38651000  0.46233000  1.0 -0.1429238861
C  C269  1  0.72196000  0.37525000  0.41572000  1.0 0.0313730443
C  C270  1  0.67562000  0.35674000  0.39084000  1.0 0.0084748084
C  C271  1  0.14350000  0.38140000  0.64170000  1.0 0.0084748084
C  C272  1  0.18040000  0.36240000  0.66560000  1.0 -0.0195765746
C  C273  1  0.23299000  0.37832000  0.60243000  1.0 0.0249435301
C  C274  1  0.19621000  0.39265000  0.57397000  1.0 0.0084748084
C  C275  1  0.20447000  0.40392000  0.52735000  1.0 -0.0038859795
C  C276  1  0.24954000  0.40085000  0.50920000  1.0 0.0474281108
C  C277  1  0.28630000  0.38651000  0.53767000  1.0 -0.1429238861
C  C278  1  0.27804000  0.37525000  0.58428000  1.0 0.0313730443
C  C279  1  0.32438000  0.35674000  0.60916000  1.0 0.0084748084
C  C280  1  0.14350000  0.61860000  0.35830000  1.0 0.0084748084
C  C281  1  0.18040000  0.63760000  0.33440000  1.0 -0.0195765746
C  C282  1  0.23299000  0.62168000  0.39757000  1.0 0.0249435301
C  C283  1  0.19621000  0.60735000  0.42603000  1.0 0.0084748084
C  C284  1  0.20447000  0.59608000  0.47265000  1.0 -0.0038859795
C  C285  1  0.24954000  0.59915000  0.49080000  1.0 0.0474281108
C  C286  1  0.28630000  0.61349000  0.46233000  1.0 -0.1429238861
C  C287  1  0.27804000  0.62475000  0.41572000  1.0 0.0313730443
C  C288  1  0.32438000  0.64326000  0.39084000  1.0 0.0084748084
C  C289  1  0.64170000  0.85650000  0.61860000  1.0 0.0084748084
C  C290  1  0.66560000  0.81960000  0.63760000  1.0 -0.0195765746
C  C291  1  0.60243000  0.76701000  0.62168000  1.0 0.0249435301
C  C292  1  0.57397000  0.80379000  0.60735000  1.0 0.0084748084
C  C293  1  0.52735000  0.79553000  0.59608000  1.0 -0.0038859795
C  C294  1  0.50920000  0.75046000  0.59915000  1.0 0.0474281108
C  C295  1  0.53767000  0.71370000  0.61349000  1.0 -0.1429238861
C  C296  1  0.58428000  0.72196000  0.62475000  1.0 0.0313730443
C  C297  1  0.60916000  0.67562000  0.64326000  1.0 0.0084748084
C  C298  1  0.35830000  0.85650000  0.38140000  1.0 0.0084748084
C  C299  1  0.33440000  0.81960000  0.36240000  1.0 -0.0195765746
C  C300  1  0.39757000  0.76701000  0.37832000  1.0 0.0249435301
C  C301  1  0.42603000  0.80379000  0.39265000  1.0 0.0084748084
C  C302  1  0.47265000  0.79553000  0.40392000  1.0 -0.0038859795
C  C303  1  0.49080000  0.75046000  0.40085000  1.0 0.0474281108
C  C304  1  0.46233000  0.71370000  0.38651000  1.0 -0.1429238861
C  C305  1  0.41572000  0.72196000  0.37525000  1.0 0.0313730443
C  C306  1  0.39084000  0.67562000  0.35674000  1.0 0.0084748084
C  C307  1  0.64170000  0.14350000  0.38140000  1.0 0.0084748084
C  C308  1  0.66560000  0.18040000  0.36240000  1.0 -0.0195765746
C  C309  1  0.60243000  0.23299000  0.37832000  1.0 0.0249435301
C  C310  1  0.57397000  0.19621000  0.39265000  1.0 0.0084748084
C  C311  1  0.52735000  0.20447000  0.40392000  1.0 -0.0038859795
C  C312  1  0.50920000  0.24954000  0.40085000  1.0 0.0474281108
C  C313  1  0.53767000  0.28630000  0.38651000  1.0 -0.1429238861
C  C314  1  0.58428000  0.27804000  0.37525000  1.0 0.0313730443
C  C315  1  0.60916000  0.32438000  0.35674000  1.0 0.0084748084
C  C316  1  0.35830000  0.14350000  0.61860000  1.0 0.0084748084
C  C317  1  0.33440000  0.18040000  0.63760000  1.0 -0.0195765746
C  C318  1  0.39757000  0.23299000  0.62168000  1.0 0.0249435301
C  C319  1  0.42603000  0.19621000  0.60735000  1.0 0.0084748084
C  C320  1  0.47265000  0.20447000  0.59608000  1.0 -0.0038859795
C  C321  1  0.49080000  0.24954000  0.59915000  1.0 0.0474281108
C  C322  1  0.46233000  0.28630000  0.61349000  1.0 -0.1429238861
C  C323  1  0.41572000  0.27804000  0.62475000  1.0 0.0313730443
C  C324  1  0.39084000  0.32438000  0.64326000  1.0 0.0084748084
C  C325  1  0.64170000  0.61860000  0.14350000  1.0 0.0084748084
C  C326  1  0.66560000  0.63760000  0.18040000  1.0 -0.0195765746
C  C327  1  0.60243000  0.62168000  0.23299000  1.0 0.0249435301
C  C328  1  0.57397000  0.60735000  0.19621000  1.0 0.0084748084
C  C329  1  0.52735000  0.59608000  0.20447000  1.0 -0.0038859795
C  C330  1  0.50920000  0.59915000  0.24954000  1.0 0.0474281108
C  C331  1  0.53767000  0.61349000  0.28630000  1.0 -0.1429238861
C  C332  1  0.58428000  0.62475000  0.27804000  1.0 0.0313730443
C  C333  1  0.60916000  0.64326000  0.32438000  1.0 0.0084748084
C  C334  1  0.35830000  0.38140000  0.14350000  1.0 0.0084748084
C  C335  1  0.33440000  0.36240000  0.18040000  1.0 -0.0195765746
C  C336  1  0.39757000  0.37832000  0.23299000  1.0 0.0249435301
C  C337  1  0.42603000  0.39265000  0.19621000  1.0 0.0084748084
C  C338  1  0.47265000  0.40392000  0.20447000  1.0 -0.0038859795
C  C339  1  0.49080000  0.40085000  0.24954000  1.0 0.0474281108
C  C340  1  0.46233000  0.38651000  0.28630000  1.0 -0.1429238861
C  C341  1  0.41572000  0.37525000  0.27804000  1.0 0.0313730443
C  C342  1  0.39084000  0.35674000  0.32438000  1.0 0.0084748084
C  C343  1  0.64170000  0.38140000  0.85650000  1.0 0.0084748084
C  C344  1  0.66560000  0.36240000  0.81960000  1.0 -0.0195765746
C  C345  1  0.60243000  0.37832000  0.76701000  1.0 0.0249435301
C  C346  1  0.57397000  0.39265000  0.80379000  1.0 0.0084748084
C  C347  1  0.52735000  0.40392000  0.79553000  1.0 -0.0038859795
C  C348  1  0.50920000  0.40085000  0.75046000  1.0 0.0474281108
C  C349  1  0.53767000  0.38651000  0.71370000  1.0 -0.1429238861
C  C350  1  0.58428000  0.37525000  0.72196000  1.0 0.0313730443
C  C351  1  0.60916000  0.35674000  0.67562000  1.0 0.0084748084
C  C352  1  0.35830000  0.61860000  0.85650000  1.0 0.0084748084
C  C353  1  0.33440000  0.63760000  0.81960000  1.0 -0.0195765746
C  C354  1  0.39757000  0.62168000  0.76701000  1.0 0.0249435301
C  C355  1  0.42603000  0.60735000  0.80379000  1.0 0.0084748084
C  C356  1  0.47265000  0.59608000  0.79553000  1.0 -0.0038859795
C  C357  1  0.49080000  0.59915000  0.75046000  1.0 0.0474281108
C  C358  1  0.46233000  0.61349000  0.71370000  1.0 -0.1429238861
C  C359  1  0.41572000  0.62475000  0.72196000  1.0 0.0313730443
C  C360  1  0.39084000  0.64326000  0.67562000  1.0 0.0084748084
C  C361  1  0.61860000  0.85650000  0.35830000  1.0 0.0084748084
C  C362  1  0.63760000  0.81960000  0.33440000  1.0 -0.0195765746
C  C363  1  0.62168000  0.76701000  0.39757000  1.0 0.0249435301
C  C364  1  0.60735000  0.80379000  0.42603000  1.0 0.0084748084
C  C365  1  0.59608000  0.79553000  0.47265000  1.0 -0.0038859795
C  C366  1  0.59915000  0.75046000  0.49080000  1.0 0.0474281108
C  C367  1  0.61349000  0.71370000  0.46233000  1.0 -0.1429238861
C  C368  1  0.62475000  0.72196000  0.41572000  1.0 0.0313730443
C  C369  1  0.64326000  0.67562000  0.39084000  1.0 0.0084748084
C  C370  1  0.38140000  0.85650000  0.64170000  1.0 0.0084748084
C  C371  1  0.36240000  0.81960000  0.66560000  1.0 -0.0195765746
C  C372  1  0.37832000  0.76701000  0.60243000  1.0 0.0249435301
C  C373  1  0.39265000  0.80379000  0.57397000  1.0 0.0084748084
C  C374  1  0.40392000  0.79553000  0.52735000  1.0 -0.0038859795
C  C375  1  0.40085000  0.75046000  0.50920000  1.0 0.0474281108
C  C376  1  0.38651000  0.71370000  0.53767000  1.0 -0.1429238861
C  C377  1  0.37525000  0.72196000  0.58428000  1.0 0.0313730443
C  C378  1  0.35674000  0.67562000  0.60916000  1.0 0.0084748084
C  C379  1  0.38140000  0.14350000  0.35830000  1.0 0.0084748084
C  C380  1  0.36240000  0.18040000  0.33440000  1.0 -0.0195765746
C  C381  1  0.37832000  0.23299000  0.39757000  1.0 0.0249435301
C  C382  1  0.39265000  0.19621000  0.42603000  1.0 0.0084748084
C  C383  1  0.40392000  0.20447000  0.47265000  1.0 -0.0038859795
C  C384  1  0.40085000  0.24954000  0.49080000  1.0 0.0474281108
C  C385  1  0.38651000  0.28630000  0.46233000  1.0 -0.1429238861
C  C386  1  0.37525000  0.27804000  0.41572000  1.0 0.0313730443
C  C387  1  0.35674000  0.32438000  0.39084000  1.0 0.0084748084
C  C388  1  0.61860000  0.14350000  0.64170000  1.0 0.0084748084
C  C389  1  0.63760000  0.18040000  0.66560000  1.0 -0.0195765746
C  C390  1  0.62168000  0.23299000  0.60243000  1.0 0.0249435301
C  C391  1  0.60735000  0.19621000  0.57397000  1.0 0.0084748084
C  C392  1  0.59608000  0.20447000  0.52735000  1.0 -0.0038859795
C  C393  1  0.59915000  0.24954000  0.50920000  1.0 0.0474281108
C  C394  1  0.61349000  0.28630000  0.53767000  1.0 -0.1429238861
C  C395  1  0.62475000  0.27804000  0.58428000  1.0 0.0313730443
C  C396  1  0.64326000  0.32438000  0.60916000  1.0 0.0084748084
C  C397  1  0.85650000  0.64170000  0.38140000  1.0 0.0084748084
C  C398  1  0.81960000  0.66560000  0.36240000  1.0 -0.0195765746
C  C399  1  0.76701000  0.60243000  0.37832000  1.0 0.0249435301
C  C400  1  0.80379000  0.57397000  0.39265000  1.0 0.0084748084
C  C401  1  0.79553000  0.52735000  0.40392000  1.0 -0.0038859795
C  C402  1  0.75046000  0.50920000  0.40085000  1.0 0.0474281108
C  C403  1  0.71370000  0.53767000  0.38651000  1.0 -0.1429238861
C  C404  1  0.72196000  0.58428000  0.37525000  1.0 0.0313730443
C  C405  1  0.67562000  0.60916000  0.35674000  1.0 0.0084748084
C  C406  1  0.85650000  0.35830000  0.61860000  1.0 0.0084748084
C  C407  1  0.81960000  0.33440000  0.63760000  1.0 -0.0195765746
C  C408  1  0.76701000  0.39757000  0.62168000  1.0 0.0249435301
C  C409  1  0.80379000  0.42603000  0.60735000  1.0 0.0084748084
C  C410  1  0.79553000  0.47265000  0.59608000  1.0 -0.0038859795
C  C411  1  0.75046000  0.49080000  0.59915000  1.0 0.0474281108
C  C412  1  0.71370000  0.46233000  0.61349000  1.0 -0.1429238861
C  C413  1  0.72196000  0.41572000  0.62475000  1.0 0.0313730443
C  C414  1  0.67562000  0.39084000  0.64326000  1.0 0.0084748084
C  C415  1  0.14350000  0.64170000  0.61860000  1.0 0.0084748084
C  C416  1  0.18040000  0.66560000  0.63760000  1.0 -0.0195765746
C  C417  1  0.23299000  0.60243000  0.62168000  1.0 0.0249435301
C  C418  1  0.19621000  0.57397000  0.60735000  1.0 0.0084748084
C  C419  1  0.20447000  0.52735000  0.59608000  1.0 -0.0038859795
C  C420  1  0.24954000  0.50920000  0.59915000  1.0 0.0474281108
C  C421  1  0.28630000  0.53767000  0.61349000  1.0 -0.1429238861
C  C422  1  0.27804000  0.58428000  0.62475000  1.0 0.0313730443
C  C423  1  0.32438000  0.60916000  0.64326000  1.0 0.0084748084
C  C424  1  0.14350000  0.35830000  0.38140000  1.0 0.0084748084
C  C425  1  0.18040000  0.33440000  0.36240000  1.0 -0.0195765746
C  C426  1  0.23299000  0.39757000  0.37832000  1.0 0.0249435301
C  C427  1  0.19621000  0.42603000  0.39265000  1.0 0.0084748084
C  C428  1  0.20447000  0.47265000  0.40392000  1.0 -0.0038859795
C  C429  1  0.24954000  0.49080000  0.40085000  1.0 0.0474281108
C  C430  1  0.28630000  0.46233000  0.38651000  1.0 -0.1429238861
C  C431  1  0.27804000  0.41572000  0.37525000  1.0 0.0313730443
C  C432  1  0.32438000  0.39084000  0.35674000  1.0 0.0084748084
C  C433  1  0.42499000  0.42499000  0.11196000  1.0 0.6287369165
C  C434  1  0.40072000  0.40072000  0.15033000  1.0 -0.0396520494
C  C435  1  0.35643000  0.35643000  0.22398000  1.0 -0.0396520494
C  C436  1  0.57501000  0.57501000  0.11196000  1.0 0.6287369165
C  C437  1  0.59928000  0.59928000  0.15033000  1.0 -0.0396520494
C  C438  1  0.64357000  0.64357000  0.22398000  1.0 -0.0396520494
C  C439  1  0.57501000  0.42499000  0.88804000  1.0 0.6287369165
C  C440  1  0.59928000  0.40072000  0.84967000  1.0 -0.0396520494
C  C441  1  0.64357000  0.35643000  0.77602000  1.0 -0.0396520494
C  C442  1  0.42499000  0.57501000  0.88804000  1.0 0.6287369165
C  C443  1  0.40072000  0.59928000  0.84967000  1.0 -0.0396520494
C  C444  1  0.35643000  0.64357000  0.77602000  1.0 -0.0396520494
C  C445  1  0.11196000  0.42499000  0.42499000  1.0 0.6287369165
C  C446  1  0.15033000  0.40072000  0.40072000  1.0 -0.0396520494
C  C447  1  0.22398000  0.35643000  0.35643000  1.0 -0.0396520494
C  C448  1  0.11196000  0.57501000  0.57501000  1.0 0.6287369165
C  C449  1  0.15033000  0.59928000  0.59928000  1.0 -0.0396520494
C  C450  1  0.22398000  0.64357000  0.64357000  1.0 -0.0396520494
C  C451  1  0.88804000  0.57501000  0.42499000  1.0 0.6287369165
C  C452  1  0.84967000  0.59928000  0.40072000  1.0 -0.0396520494
C  C453  1  0.77602000  0.64357000  0.35643000  1.0 -0.0396520494
C  C454  1  0.88804000  0.42499000  0.57501000  1.0 0.6287369165
C  C455  1  0.84967000  0.40072000  0.59928000  1.0 -0.0396520494
C  C456  1  0.77602000  0.35643000  0.64357000  1.0 -0.0396520494
C  C457  1  0.42499000  0.11196000  0.42499000  1.0 0.6287369165
C  C458  1  0.40072000  0.15033000  0.40072000  1.0 -0.0396520494
C  C459  1  0.35643000  0.22398000  0.35643000  1.0 -0.0396520494
C  C460  1  0.57501000  0.11196000  0.57501000  1.0 0.6287369165
C  C461  1  0.59928000  0.15033000  0.59928000  1.0 -0.0396520494
C  C462  1  0.64357000  0.22398000  0.64357000  1.0 -0.0396520494
C  C463  1  0.42499000  0.88804000  0.57501000  1.0 0.6287369165
C  C464  1  0.40072000  0.84967000  0.59928000  1.0 -0.0396520494
C  C465  1  0.35643000  0.77602000  0.64357000  1.0 -0.0396520494
C  C466  1  0.57501000  0.88804000  0.42499000  1.0 0.6287369165
C  C467  1  0.59928000  0.84967000  0.40072000  1.0 -0.0396520494
C  C468  1  0.64357000  0.77602000  0.35643000  1.0 -0.0396520494
C  C469  1  0.42499000  0.42499000  0.88804000  1.0 0.6287369165
C  C470  1  0.40072000  0.40072000  0.84967000  1.0 -0.0396520494
C  C471  1  0.35643000  0.35643000  0.77602000  1.0 -0.0396520494
C  C472  1  0.57501000  0.57501000  0.88804000  1.0 0.6287369165
C  C473  1  0.59928000  0.59928000  0.84967000  1.0 -0.0396520494
C  C474  1  0.64357000  0.64357000  0.77602000  1.0 -0.0396520494
C  C475  1  0.42499000  0.57501000  0.11196000  1.0 0.6287369165
C  C476  1  0.40072000  0.59928000  0.15033000  1.0 -0.0396520494
C  C477  1  0.35643000  0.64357000  0.22398000  1.0 -0.0396520494
C  C478  1  0.57501000  0.42499000  0.11196000  1.0 0.6287369165
C  C479  1  0.59928000  0.40072000  0.15033000  1.0 -0.0396520494
C  C480  1  0.64357000  0.35643000  0.22398000  1.0 -0.0396520494
C  C481  1  0.42499000  0.11196000  0.57501000  1.0 0.6287369165
C  C482  1  0.40072000  0.15033000  0.59928000  1.0 -0.0396520494
C  C483  1  0.35643000  0.22398000  0.64357000  1.0 -0.0396520494
C  C484  1  0.57501000  0.11196000  0.42499000  1.0 0.6287369165
C  C485  1  0.59928000  0.15033000  0.40072000  1.0 -0.0396520494
C  C486  1  0.64357000  0.22398000  0.35643000  1.0 -0.0396520494
C  C487  1  0.57501000  0.88804000  0.57501000  1.0 0.6287369165
C  C488  1  0.59928000  0.84967000  0.59928000  1.0 -0.0396520494
C  C489  1  0.64357000  0.77602000  0.64357000  1.0 -0.0396520494
C  C490  1  0.42499000  0.88804000  0.42499000  1.0 0.6287369165
C  C491  1  0.40072000  0.84967000  0.40072000  1.0 -0.0396520494
C  C492  1  0.35643000  0.77602000  0.35643000  1.0 -0.0396520494
C  C493  1  0.11196000  0.42499000  0.57501000  1.0 0.6287369165
C  C494  1  0.15033000  0.40072000  0.59928000  1.0 -0.0396520494
C  C495  1  0.22398000  0.35643000  0.64357000  1.0 -0.0396520494
C  C496  1  0.11196000  0.57501000  0.42499000  1.0 0.6287369165
C  C497  1  0.15033000  0.59928000  0.40072000  1.0 -0.0396520494
C  C498  1  0.22398000  0.64357000  0.35643000  1.0 -0.0396520494
C  C499  1  0.88804000  0.42499000  0.42499000  1.0 0.6287369165
C  C500  1  0.84967000  0.40072000  0.40072000  1.0 -0.0396520494
C  C501  1  0.77602000  0.35643000  0.35643000  1.0 -0.0396520494
C  C502  1  0.88804000  0.57501000  0.57501000  1.0 0.6287369165
C  C503  1  0.84967000  0.59928000  0.59928000  1.0 -0.0396520494
C  C504  1  0.77602000  0.64357000  0.64357000  1.0 -0.0396520494
O  O1  1  0.45350000  0.45350000  0.12280000  1.0 -0.4824389981
O  O2  1  0.41324000  0.41324000  0.07035000  1.0 -0.5995012042
O  O3  1  0.54650000  0.54650000  0.12280000  1.0 -0.4824389981
O  O4  1  0.58676000  0.58676000  0.07035000  1.0 -0.5995012042
O  O5  1  0.54650000  0.45350000  0.87720000  1.0 -0.4824389981
O  O6  1  0.58676000  0.41324000  0.92965000  1.0 -0.5995012042
O  O7  1  0.45350000  0.54650000  0.87720000  1.0 -0.4824389981
O  O8  1  0.41324000  0.58676000  0.92965000  1.0 -0.5995012042
O  O9  1  0.12280000  0.45350000  0.45350000  1.0 -0.4824389981
O  O10  1  0.07035000  0.41324000  0.41324000  1.0 -0.5995012042
O  O11  1  0.12280000  0.54650000  0.54650000  1.0 -0.4824389981
O  O12  1  0.07035000  0.58676000  0.58676000  1.0 -0.5995012042
O  O13  1  0.87720000  0.54650000  0.45350000  1.0 -0.4824389981
O  O14  1  0.92965000  0.58676000  0.41324000  1.0 -0.5995012042
O  O15  1  0.87720000  0.45350000  0.54650000  1.0 -0.4824389981
O  O16  1  0.92965000  0.41324000  0.58676000  1.0 -0.5995012042
O  O17  1  0.45350000  0.12280000  0.45350000  1.0 -0.4824389981
O  O18  1  0.41324000  0.07035000  0.41324000  1.0 -0.5995012042
O  O19  1  0.54650000  0.12280000  0.54650000  1.0 -0.4824389981
O  O20  1  0.58676000  0.07035000  0.58676000  1.0 -0.5995012042
O  O21  1  0.45350000  0.87720000  0.54650000  1.0 -0.4824389981
O  O22  1  0.41324000  0.92965000  0.58676000  1.0 -0.5995012042
O  O23  1  0.54650000  0.87720000  0.45350000  1.0 -0.4824389981
O  O24  1  0.58676000  0.92965000  0.41324000  1.0 -0.5995012042
O  O25  1  0.45350000  0.45350000  0.87720000  1.0 -0.4824389981
O  O26  1  0.41324000  0.41324000  0.92965000  1.0 -0.5995012042
O  O27  1  0.54650000  0.54650000  0.87720000  1.0 -0.4824389981
O  O28  1  0.58676000  0.58676000  0.92965000  1.0 -0.5995012042
O  O29  1  0.45350000  0.54650000  0.12280000  1.0 -0.4824389981
O  O30  1  0.41324000  0.58676000  0.07035000  1.0 -0.5995012042
O  O31  1  0.54650000  0.45350000  0.12280000  1.0 -0.4824389981
O  O32  1  0.58676000  0.41324000  0.07035000  1.0 -0.5995012042
O  O33  1  0.45350000  0.12280000  0.54650000  1.0 -0.4824389981
O  O34  1  0.41324000  0.07035000  0.58676000  1.0 -0.5995012042
O  O35  1  0.54650000  0.12280000  0.45350000  1.0 -0.4824389981
O  O36  1  0.58676000  0.07035000  0.41324000  1.0 -0.5995012042
O  O37  1  0.54650000  0.87720000  0.54650000  1.0 -0.4824389981
O  O38  1  0.58676000  0.92965000  0.58676000  1.0 -0.5995012042
O  O39  1  0.45350000  0.87720000  0.45350000  1.0 -0.4824389981
O  O40  1  0.41324000  0.92965000  0.41324000  1.0 -0.5995012042
O  O41  1  0.12280000  0.45350000  0.54650000  1.0 -0.4824389981
O  O42  1  0.07035000  0.41324000  0.58676000  1.0 -0.5995012042
O  O43  1  0.12280000  0.54650000  0.45350000  1.0 -0.4824389981
O  O44  1  0.07035000  0.58676000  0.41324000  1.0 -0.5995012042
O  O45  1  0.87720000  0.45350000  0.45350000  1.0 -0.4824389981
O  O46  1  0.92965000  0.41324000  0.41324000  1.0 -0.5995012042
O  O47  1  0.87720000  0.54650000  0.54650000  1.0 -0.4824389981
O  O48  1  0.92965000  0.58676000  0.58676000  1.0 -0.5995012042
O  O49  1  0.50000000  0.43810000  0.04171000  1.0 -1.2035889518
O  O50  1  0.50000000  0.56190000  0.04171000  1.0 -1.2035889518
O  O51  1  0.50000000  0.43810000  0.95829000  1.0 -1.2035889518
O  O52  1  0.50000000  0.56190000  0.95829000  1.0 -1.2035889518
O  O53  1  0.04171000  0.50000000  0.43810000  1.0 -1.2035889518
O  O54  1  0.04171000  0.50000000  0.56190000  1.0 -1.2035889518
O  O55  1  0.95829000  0.50000000  0.43810000  1.0 -1.2035889518
O  O56  1  0.95829000  0.50000000  0.56190000  1.0 -1.2035889518
O  O57  1  0.43810000  0.04171000  0.50000000  1.0 -1.2035889518
O  O58  1  0.56190000  0.04171000  0.50000000  1.0 -1.2035889518
O  O59  1  0.43810000  0.95829000  0.50000000  1.0 -1.2035889518
O  O60  1  0.56190000  0.95829000  0.50000000  1.0 -1.2035889518
O  O61  1  0.43810000  0.50000000  0.95829000  1.0 -1.2035889518
O  O62  1  0.56190000  0.50000000  0.95829000  1.0 -1.2035889518
O  O63  1  0.43810000  0.50000000  0.04171000  1.0 -1.2035889518
O  O64  1  0.56190000  0.50000000  0.04171000  1.0 -1.2035889518
O  O65  1  0.50000000  0.04171000  0.56190000  1.0 -1.2035889518
O  O66  1  0.50000000  0.04171000  0.43810000  1.0 -1.2035889518
O  O67  1  0.50000000  0.95829000  0.56190000  1.0 -1.2035889518
O  O68  1  0.50000000  0.95829000  0.43810000  1.0 -1.2035889518
O  O69  1  0.04171000  0.43810000  0.50000000  1.0 -1.2035889518
O  O70  1  0.04171000  0.56190000  0.50000000  1.0 -1.2035889518
O  O71  1  0.95829000  0.43810000  0.50000000  1.0 -1.2035889518
O  O72  1  0.95829000  0.56190000  0.50000000  1.0 -1.2035889518
