# DDEC6 charges by PACMAN v1.1 (https://github.com/mtap-research/PACMAN-charge/)
data_DAJHOM_FSR_pacman
_symmetry_space_group_name_H-M   'P 1'
_cell_length_a   13.17170000
_cell_length_b   13.19010000
_cell_length_c   16.23470000
_cell_angle_alpha   97.29300000
_cell_angle_beta   94.43700000
_cell_angle_gamma   90.52300000
_symmetry_Int_Tables_number   1
_chemical_formula_structural   CoH10C18NO4
_chemical_formula_sum   'Co6 H60 C108 N6 O24'
_cell_volume   2788.83722762
_cell_formula_units_Z   6
loop_
 _symmetry_equiv_pos_site_id
 _symmetry_equiv_pos_as_xyz
  1  'x, y, z'
loop_
 _atom_site_type_symbol
 _atom_site_label
 _atom_site_symmetry_multiplicity
 _atom_site_fract_x
 _atom_site_fract_y
 _atom_site_fract_z
 _atom_site_occupancy
 _atom_site_charge
Co  Co1  1  0.00227000  0.99492000  0.41409000  1.0 0.8615933108
Co  Co2  1  0.99773000  0.00508000  0.58591000  1.0 0.8615933108
Co  Co3  1  0.67495000  0.77125000  0.88817000  1.0 0.8615933108
Co  Co4  1  0.67940000  0.76154000  0.71773000  1.0 0.8615933108
Co  Co5  1  0.32505000  0.22875000  0.11183000  1.0 0.8615933108
Co  Co6  1  0.32060000  0.23846000  0.28227000  1.0 0.8615933108
H  H1  1  0.83800000  0.98100000  0.27000000  1.0 0.1119474024
H  H2  1  0.16200000  0.01900000  0.73000000  1.0 0.1119474024
H  H3  1  0.82200000  0.97500000  0.12800000  1.0 0.1293822872
H  H4  1  0.17800000  0.02500000  0.87200000  1.0 0.1293822872
H  H5  1  0.12600000  0.98600000  0.13200000  1.0 0.1293822872
H  H6  1  0.87400000  0.01400000  0.86800000  1.0 0.1293822872
H  H7  1  0.13500000  0.99000000  0.27300000  1.0 0.1119474024
H  H8  1  0.86500000  0.01000000  0.72700000  1.0 0.1119474024
H  H9  1  0.89900000  0.97100000  0.99400000  1.0 0.1293822872
H  H10  1  0.10100000  0.02900000  0.00600000  1.0 0.1293822872
H  H11  1  0.66560000  0.98410000  0.59890000  1.0 0.1293822872
H  H12  1  0.33440000  0.01590000  0.40110000  1.0 0.1293822872
H  H13  1  0.49620000  0.96890000  0.65730000  1.0 0.1293822872
H  H14  1  0.50380000  0.03110000  0.34270000  1.0 0.1293822872
H  H15  1  0.67630000  0.03070000  0.36000000  1.0 0.1119474024
H  H16  1  0.32370000  0.96930000  0.64000000  1.0 0.1119474024
H  H17  1  0.04530000  0.32900000  0.41060000  1.0 0.1215901039
H  H18  1  0.95470000  0.67100000  0.58940000  1.0 0.1215901039
H  H19  1  0.07880000  0.49290000  0.35430000  1.0 0.1293822872
H  H20  1  0.92120000  0.50710000  0.64570000  1.0 0.1293822872
H  H21  1  0.93430000  0.33420000  0.63420000  1.0 0.1293822872
H  H22  1  0.06570000  0.66580000  0.36580000  1.0 0.1293822872
H  H23  1  0.34230000  0.76490000  0.90580000  1.0 0.1215901039
H  H24  1  0.17320000  0.75170000  0.96410000  1.0 0.1215901039
H  H25  1  0.99880000  0.75140000  0.94480000  1.0 0.1215901039
H  H26  1  0.01170000  0.77340000  0.70230000  1.0 0.1215901039
H  H27  1  0.18080000  0.77760000  0.64300000  1.0 0.1293822872
H  H28  1  0.35420000  0.77350000  0.66030000  1.0 0.1215901039
H  H29  1  0.69800000  0.09300000  0.70920000  1.0 0.1215901039
H  H30  1  0.71750000  0.25550000  0.64670000  1.0 0.1293822872
H  H31  1  0.71420000  0.42940000  0.66090000  1.0 0.1215901039
H  H32  1  0.64790000  0.43990000  0.89910000  1.0 0.1293822872
H  H33  1  0.63290000  0.27840000  0.96110000  1.0 0.1215901039
H  H34  1  0.64020000  0.10560000  0.94950000  1.0 0.1293822872
H  H35  1  0.82800000  0.72350000  0.02460000  1.0 0.1215901039
H  H36  1  0.84400000  0.71940000  0.16540000  1.0 0.137557705
H  H37  1  0.77930000  0.76270000  0.30400000  1.0 0.1293822872
H  H38  1  0.57240000  0.75920000  0.30040000  1.0 0.137557705
H  H39  1  0.80140000  0.76650000  0.43540000  1.0 0.1215901039
H  H40  1  0.80990000  0.77090000  0.57780000  1.0 0.1119474024
H  H41  1  0.51380000  0.73740000  0.57200000  1.0 0.1293822872
H  H42  1  0.65770000  0.23510000  0.09420000  1.0 0.1215901039
H  H43  1  0.82680000  0.24830000  0.03590000  1.0 0.1215901039
H  H44  1  0.00120000  0.24860000  0.05520000  1.0 0.1215901039
H  H45  1  0.98830000  0.22660000  0.29770000  1.0 0.1293822872
H  H46  1  0.81920000  0.22240000  0.35700000  1.0 0.1293822872
H  H47  1  0.64580000  0.22650000  0.33970000  1.0 0.1215901039
H  H48  1  0.30200000  0.90700000  0.29080000  1.0 0.1215901039
H  H49  1  0.28250000  0.74450000  0.35330000  1.0 0.1293822872
H  H50  1  0.28580000  0.57060000  0.33910000  1.0 0.1215901039
H  H51  1  0.35210000  0.56010000  0.10090000  1.0 0.1293822872
H  H52  1  0.36710000  0.72160000  0.03890000  1.0 0.1215901039
H  H53  1  0.35980000  0.89440000  0.05050000  1.0 0.1293822872
H  H54  1  0.17200000  0.27650000  0.97540000  1.0 0.1215901039
H  H55  1  0.15600000  0.28060000  0.83460000  1.0 0.137557705
H  H56  1  0.22070000  0.23730000  0.69600000  1.0 0.1293822872
H  H57  1  0.42760000  0.24080000  0.69960000  1.0 0.137557705
H  H58  1  0.19860000  0.23350000  0.56460000  1.0 0.1215901039
H  H59  1  0.19010000  0.22910000  0.42220000  1.0 0.1119474024
H  H60  1  0.48620000  0.26260000  0.42800000  1.0 0.1293822872
C  C1  1  0.89670000  0.98170000  0.24190000  1.0 0.090722496
C  C2  1  0.10330000  0.01830000  0.75810000  1.0 0.090722496
C  C3  1  0.88640000  0.97920000  0.15590000  1.0 -0.204717542
C  C4  1  0.11360000  0.02080000  0.84410000  1.0 -0.204717542
C  C5  1  0.97290000  0.98300000  0.11220000  1.0 0.1630933109
C  C6  1  0.02710000  0.01700000  0.88780000  1.0 0.1630933109
C  C7  1  0.06640000  0.98530000  0.15840000  1.0 -0.1855402542
C  C8  1  0.93360000  0.01470000  0.84160000  1.0 -0.1810508919
C  C9  1  0.07120000  0.98710000  0.24370000  1.0 0.090722496
C  C10  1  0.92880000  0.01290000  0.75630000  1.0 0.090722496
C  C11  1  0.96260000  0.98720000  0.02220000  1.0 -0.1496688849
C  C12  1  0.03740000  0.01280000  0.97780000  1.0 -0.1496688849
C  C13  1  0.80240000  0.00320000  0.49230000  1.0 0.5693312931
C  C14  1  0.19760000  0.99680000  0.50770000  1.0 0.5693312931
C  C15  1  0.68890000  0.00750000  0.48250000  1.0 -0.0201013772
C  C16  1  0.31110000  0.99250000  0.51750000  1.0 -0.0201013772
C  C17  1  0.63240000  0.99350000  0.54780000  1.0 -0.1496688849
C  C18  1  0.36760000  0.00650000  0.45220000  1.0 -0.1496688849
C  C19  1  0.52520000  0.99300000  0.53920000  1.0 0.0793556204
C  C20  1  0.47480000  0.00700000  0.46080000  1.0 0.0707498657
C  C21  1  0.46450000  0.97850000  0.60580000  1.0 -0.1425386322
C  C22  1  0.53550000  0.02150000  0.39420000  1.0 -0.1425386322
C  C23  1  0.63840000  0.02150000  0.40450000  1.0 -0.111401726
C  C24  1  0.36160000  0.97850000  0.59550000  1.0 -0.111401726
C  C25  1  0.99700000  0.19940000  0.51300000  1.0 0.5626588213
C  C26  1  0.00300000  0.80060000  0.48700000  1.0 0.5626588213
C  C27  1  0.99050000  0.31290000  0.52040000  1.0 -0.026770329
C  C28  1  0.00950000  0.68710000  0.47960000  1.0 -0.026770329
C  C29  1  0.02160000  0.36540000  0.45800000  1.0 -0.1600446505
C  C30  1  0.97840000  0.63460000  0.54200000  1.0 -0.1600446505
C  C31  1  0.01850000  0.47230000  0.46450000  1.0 0.0793556204
C  C32  1  0.98150000  0.52770000  0.53550000  1.0 0.0793556204
C  C33  1  0.05230000  0.52790000  0.40100000  1.0 -0.1425386322
C  C34  1  0.94770000  0.47210000  0.59900000  1.0 -0.1496688849
C  C35  1  0.95430000  0.36880000  0.59140000  1.0 -0.111401726
C  C36  1  0.04570000  0.63120000  0.40860000  1.0 -0.111401726
C  C37  1  0.36640000  0.76740000  0.78530000  1.0 -0.0201013772
C  C38  1  0.30920000  0.76510000  0.85310000  1.0 -0.1600446505
C  C39  1  0.20240000  0.76320000  0.84410000  1.0 0.0707498657
C  C40  1  0.14200000  0.75610000  0.91140000  1.0 -0.1600446505
C  C41  1  0.03750000  0.75580000  0.89980000  1.0 -0.111401726
C  C42  1  0.98870000  0.76210000  0.82090000  1.0 -0.0201013772
C  C43  1  0.04470000  0.76840000  0.75430000  1.0 -0.1496688849
C  C44  1  0.15280000  0.76720000  0.76360000  1.0 0.0793556204
C  C45  1  0.21260000  0.77290000  0.69550000  1.0 -0.1425386322
C  C46  1  0.31610000  0.77160000  0.70600000  1.0 -0.111401726
C  C47  1  0.47990000  0.76560000  0.79630000  1.0 0.5844965922
C  C48  1  0.87350000  0.76540000  0.80960000  1.0 0.5693312931
C  C49  1  0.66830000  0.08030000  0.82650000  1.0 -0.0201013772
C  C50  1  0.68560000  0.13070000  0.75970000  1.0 -0.1678424281
C  C51  1  0.68500000  0.23840000  0.76600000  1.0 0.0793556204
C  C52  1  0.70370000  0.29180000  0.69740000  1.0 -0.1496688849
C  C53  1  0.70150000  0.39560000  0.70610000  1.0 -0.1043814001
C  C54  1  0.68030000  0.45360000  0.78230000  1.0 -0.026770329
C  C55  1  0.66190000  0.40250000  0.84880000  1.0 -0.1600446505
C  C56  1  0.66380000  0.29500000  0.84240000  1.0 0.0707498657
C  C57  1  0.64670000  0.24180000  0.91050000  1.0 -0.1496688849
C  C58  1  0.65000000  0.13870000  0.90340000  1.0 -0.1185645563
C  C59  1  0.67400000  0.96570000  0.81900000  1.0 0.5626588213
C  C60  1  0.67900000  0.56690000  0.79010000  1.0 0.5889110016
C  C61  1  0.77330000  0.74360000  0.05540000  1.0 0.090722496
C  C62  1  0.78330000  0.74050000  0.14030000  1.0 -0.2064525139
C  C63  1  0.70390000  0.76850000  0.18790000  1.0 0.1630933109
C  C64  1  0.61830000  0.80390000  0.14820000  1.0 -0.1600446505
C  C65  1  0.61350000  0.80610000  0.06240000  1.0 0.2479137825
C  C66  1  0.71370000  0.76320000  0.27840000  1.0 -0.128443296
C  C67  1  0.63810000  0.75900000  0.32590000  1.0 -0.111401726
C  C68  1  0.64850000  0.75420000  0.41680000  1.0 0.1518158364
C  C69  1  0.74190000  0.76210000  0.46220000  1.0 -0.1810508919
C  C70  1  0.74660000  0.76340000  0.54790000  1.0 0.0793556204
C  C71  1  0.57220000  0.74420000  0.54420000  1.0 0.0601050678
C  C72  1  0.56170000  0.74340000  0.45920000  1.0 -0.1496688849
C  C73  1  0.63360000  0.23260000  0.21470000  1.0 -0.0201013772
C  C74  1  0.69080000  0.23490000  0.14690000  1.0 -0.1600446505
C  C75  1  0.79760000  0.23680000  0.15590000  1.0 0.0707498657
C  C76  1  0.85800000  0.24390000  0.08860000  1.0 -0.1600446505
C  C77  1  0.96250000  0.24420000  0.10020000  1.0 -0.111401726
C  C78  1  0.01130000  0.23790000  0.17910000  1.0 -0.0201013772
C  C79  1  0.95530000  0.23160000  0.24570000  1.0 -0.1496688849
C  C80  1  0.84720000  0.23280000  0.23640000  1.0 0.0793556204
C  C81  1  0.78740000  0.22710000  0.30450000  1.0 -0.1425386322
C  C82  1  0.68390000  0.22840000  0.29400000  1.0 -0.111401726
C  C83  1  0.52010000  0.23440000  0.20370000  1.0 0.5844965922
C  C84  1  0.12650000  0.23460000  0.19040000  1.0 0.5693312931
C  C85  1  0.33170000  0.91970000  0.17350000  1.0 -0.0201013772
C  C86  1  0.31440000  0.86930000  0.24030000  1.0 -0.1678424281
C  C87  1  0.31500000  0.76160000  0.23400000  1.0 0.0793556204
C  C88  1  0.29630000  0.70820000  0.30260000  1.0 -0.1496688849
C  C89  1  0.29850000  0.60440000  0.29390000  1.0 -0.1043814001
C  C90  1  0.31970000  0.54640000  0.21770000  1.0 -0.026770329
C  C91  1  0.33810000  0.59750000  0.15120000  1.0 -0.1600446505
C  C92  1  0.33620000  0.70500000  0.15760000  1.0 0.0707498657
C  C93  1  0.35330000  0.75820000  0.08950000  1.0 -0.1496688849
C  C94  1  0.35000000  0.86130000  0.09660000  1.0 -0.1185645563
C  C95  1  0.32600000  0.03430000  0.18100000  1.0 0.5626588213
C  C96  1  0.32100000  0.43310000  0.20990000  1.0 0.5889110016
C  C97  1  0.22670000  0.25640000  0.94460000  1.0 0.090722496
C  C98  1  0.21670000  0.25950000  0.85970000  1.0 -0.2064525139
C  C99  1  0.29610000  0.23150000  0.81210000  1.0 0.1630933109
C  C100  1  0.38170000  0.19610000  0.85180000  1.0 -0.1600446505
C  C101  1  0.38650000  0.19390000  0.93760000  1.0 0.2449064302
C  C102  1  0.28630000  0.23680000  0.72160000  1.0 -0.128443296
C  C103  1  0.36190000  0.24100000  0.67410000  1.0 -0.111401726
C  C104  1  0.35150000  0.24580000  0.58320000  1.0 0.1518158364
C  C105  1  0.25810000  0.23790000  0.53780000  1.0 -0.1810508919
C  C106  1  0.25340000  0.23660000  0.45210000  1.0 0.0793556204
C  C107  1  0.42780000  0.25580000  0.45580000  1.0 0.0601050678
C  C108  1  0.43830000  0.25660000  0.54080000  1.0 -0.1496688849
N  N1  1  0.98720000  0.98540000  0.28580000  1.0 -0.2391854701
N  N2  1  0.01280000  0.01460000  0.71420000  1.0 -0.2391854701
N  N3  1  0.69010000  0.77370000  0.01600000  1.0 -0.1810508919
N  N4  1  0.66310000  0.75420000  0.58940000  1.0 -0.2391854701
N  N5  1  0.30990000  0.22630000  0.98400000  1.0 -0.1855402542
N  N6  1  0.33690000  0.24580000  0.41060000  1.0 -0.2391854701
O  O1  1  0.84930000  0.99730000  0.42770000  1.0 -0.5666157854
O  O2  1  0.15070000  0.00270000  0.57230000  1.0 -0.5666157854
O  O3  1  0.15580000  0.99470000  0.43480000  1.0 -0.5348518146
O  O4  1  0.84420000  0.00530000  0.56520000  1.0 -0.5348518146
O  O5  1  0.00430000  0.15120000  0.44180000  1.0 -0.539918567
O  O6  1  0.99570000  0.84880000  0.55820000  1.0 -0.539918567
O  O7  1  0.00260000  0.84130000  0.42100000  1.0 -0.539918567
O  O8  1  0.99740000  0.15870000  0.57900000  1.0 -0.539918567
O  O9  1  0.52140000  0.76750000  0.86850000  1.0 -0.539918567
O  O10  1  0.52730000  0.76230000  0.73130000  1.0 -0.55869254
O  O11  1  0.83290000  0.76400000  0.73780000  1.0 -0.5240382207
O  O12  1  0.82700000  0.77120000  0.87510000  1.0 -0.5768046332
O  O13  1  0.67830000  0.91790000  0.74710000  1.0 -0.5503860069
O  O14  1  0.67320000  0.92570000  0.88510000  1.0 -0.5503860069
O  O15  1  0.67430000  0.61540000  0.86180000  1.0 -0.5503860069
O  O16  1  0.68110000  0.60830000  0.72420000  1.0 -0.5503860069
O  O17  1  0.47860000  0.23250000  0.13150000  1.0 -0.539918567
O  O18  1  0.47270000  0.23770000  0.26870000  1.0 -0.55869254
O  O19  1  0.16710000  0.23600000  0.26220000  1.0 -0.5240382207
O  O20  1  0.17300000  0.22880000  0.12490000  1.0 -0.5768046332
O  O21  1  0.32170000  0.08210000  0.25290000  1.0 -0.5503860069
O  O22  1  0.32680000  0.07430000  0.11490000  1.0 -0.5503860069
O  O23  1  0.32570000  0.38460000  0.13820000  1.0 -0.5503860069
O  O24  1  0.31890000  0.39170000  0.27580000  1.0 -0.5503860069
