# DDEC6 charges by PACMAN v1.1 (https://github.com/mtap-research/PACMAN-charge/)
data_DAJVES_ASR_pacman
_symmetry_space_group_name_H-M   'P 1'
_cell_length_a   32.13970000
_cell_length_b   32.13970000
_cell_length_c   16.69760000
_cell_angle_alpha   90.00000000
_cell_angle_beta   90.00000000
_cell_angle_gamma   120.00000000
_symmetry_Int_Tables_number   1
_chemical_formula_structural   Co3H18C36N3O8
_chemical_formula_sum   'Co12 H72 C144 N12 O32'
_cell_volume   14937.16994205
_cell_formula_units_Z   4
loop_
 _symmetry_equiv_pos_site_id
 _symmetry_equiv_pos_as_xyz
  1  'x, y, z'
loop_
 _atom_site_type_symbol
 _atom_site_label
 _atom_site_symmetry_multiplicity
 _atom_site_fract_x
 _atom_site_fract_y
 _atom_site_fract_z
 _atom_site_occupancy
 _atom_site_charge
Co  Co1  1  0.29693000  0.70307000  0.00000000  1.0 1.1532172881
Co  Co2  1  0.29693000  0.59386000  0.00000000  1.0 1.1532172881
Co  Co3  1  0.40614000  0.70307000  0.00000000  1.0 1.1532172881
Co  Co4  1  0.70307000  0.29693000  0.00000000  1.0 1.1555301272
Co  Co5  1  0.70307000  0.40614000  0.00000000  1.0 1.1555301272
Co  Co6  1  0.59386000  0.29693000  0.00000000  1.0 1.1532172881
Co  Co7  1  0.00000000  0.50500000  0.50000000  1.0 0.7598497394
Co  Co8  1  0.49500000  0.49500000  0.50000000  1.0 0.7598497394
Co  Co9  1  0.50500000  0.00000000  0.50000000  1.0 0.7598497394
Co  Co10  1  0.00000000  0.49500000  0.50000000  1.0 0.7598497394
Co  Co11  1  0.50500000  0.50500000  0.50000000  1.0 0.7598497394
Co  Co12  1  0.49500000  0.00000000  0.50000000  1.0 0.7598497394
H  H1  1  0.17760000  0.58880000  0.57320000  1.0 0.1158120513
H  H2  1  0.41120000  0.58880000  0.57320000  1.0 0.1158120513
H  H3  1  0.41120000  0.82240000  0.57320000  1.0 0.1158120513
H  H4  1  0.82240000  0.41120000  0.57320000  1.0 0.1158120513
H  H5  1  0.58880000  0.41120000  0.57320000  1.0 0.1158120513
H  H6  1  0.58880000  0.17760000  0.57320000  1.0 0.1158120513
H  H7  1  0.58880000  0.17760000  0.42680000  1.0 0.1158120513
H  H8  1  0.58880000  0.41120000  0.42680000  1.0 0.1158120513
H  H9  1  0.82240000  0.41120000  0.42680000  1.0 0.1158120513
H  H10  1  0.41120000  0.82240000  0.42680000  1.0 0.1158120513
H  H11  1  0.41120000  0.58880000  0.42680000  1.0 0.1158120513
H  H12  1  0.17760000  0.58880000  0.42680000  1.0 0.1158120513
H  H13  1  0.04400000  0.52200000  0.79560000  1.0 0.1148166381
H  H14  1  0.47800000  0.52200000  0.79560000  1.0 0.1158120513
H  H15  1  0.47800000  0.95600000  0.79560000  1.0 0.1148166381
H  H16  1  0.95600000  0.47800000  0.79560000  1.0 0.1158120513
H  H17  1  0.52200000  0.47800000  0.79560000  1.0 0.1158120513
H  H18  1  0.52200000  0.04400000  0.79560000  1.0 0.1158120513
H  H19  1  0.52200000  0.04400000  0.20440000  1.0 0.1158120513
H  H20  1  0.52200000  0.47800000  0.20440000  1.0 0.1158120513
H  H21  1  0.95600000  0.47800000  0.20440000  1.0 0.1158120513
H  H22  1  0.47800000  0.95600000  0.20440000  1.0 0.1158120513
H  H23  1  0.47800000  0.52200000  0.20440000  1.0 0.1158120513
H  H24  1  0.04400000  0.52200000  0.20440000  1.0 0.1158120513
H  H25  1  0.19050000  0.53430000  0.81390000  1.0 0.1319483368
H  H26  1  0.46570000  0.65620000  0.81390000  1.0 0.1319483368
H  H27  1  0.34380000  0.80950000  0.81390000  1.0 0.1319483368
H  H28  1  0.80950000  0.46570000  0.81390000  1.0 0.1319483368
H  H29  1  0.53430000  0.34380000  0.81390000  1.0 0.1319483368
H  H30  1  0.65620000  0.19050000  0.81390000  1.0 0.1319483368
H  H31  1  0.53430000  0.19050000  0.18610000  1.0 0.1319483368
H  H32  1  0.65620000  0.46570000  0.18610000  1.0 0.1319483368
H  H33  1  0.80950000  0.34380000  0.18610000  1.0 0.1319483368
H  H34  1  0.46570000  0.80950000  0.18610000  1.0 0.1319483368
H  H35  1  0.34380000  0.53430000  0.18610000  1.0 0.1319483368
H  H36  1  0.19050000  0.65620000  0.18610000  1.0 0.1319483368
H  H37  1  0.80950000  0.46570000  0.18610000  1.0 0.1319483368
H  H38  1  0.53430000  0.34380000  0.18610000  1.0 0.1319483368
H  H39  1  0.65620000  0.19050000  0.18610000  1.0 0.1319483368
H  H40  1  0.19050000  0.53430000  0.18610000  1.0 0.1319483368
H  H41  1  0.46570000  0.65620000  0.18610000  1.0 0.1319483368
H  H42  1  0.34380000  0.80950000  0.18610000  1.0 0.1319483368
H  H43  1  0.46570000  0.80950000  0.81390000  1.0 0.1319483368
H  H44  1  0.34380000  0.53430000  0.81390000  1.0 0.1319483368
H  H45  1  0.19050000  0.65620000  0.81390000  1.0 0.1319483368
H  H46  1  0.53430000  0.19050000  0.81390000  1.0 0.1319483368
H  H47  1  0.65620000  0.46570000  0.81390000  1.0 0.1319483368
H  H48  1  0.80950000  0.34380000  0.81390000  1.0 0.1319483368
H  H49  1  0.13000000  0.50350000  0.72110000  1.0 0.1319483368
H  H50  1  0.49650000  0.62650000  0.72110000  1.0 0.1319483368
H  H51  1  0.37350000  0.87000000  0.72110000  1.0 0.1319483368
H  H52  1  0.87000000  0.49650000  0.72110000  1.0 0.1319483368
H  H53  1  0.50350000  0.37350000  0.72110000  1.0 0.1319483368
H  H54  1  0.62650000  0.13000000  0.72110000  1.0 0.1319483368
H  H55  1  0.50350000  0.13000000  0.27890000  1.0 0.1319483368
H  H56  1  0.62650000  0.49650000  0.27890000  1.0 0.1319483368
H  H57  1  0.87000000  0.37350000  0.27890000  1.0 0.1319483368
H  H58  1  0.49650000  0.87000000  0.27890000  1.0 0.1319483368
H  H59  1  0.37350000  0.50350000  0.27890000  1.0 0.1319483368
H  H60  1  0.13000000  0.62650000  0.27890000  1.0 0.1319483368
H  H61  1  0.87000000  0.49650000  0.27890000  1.0 0.1319483368
H  H62  1  0.50350000  0.37350000  0.27890000  1.0 0.1319483368
H  H63  1  0.62650000  0.13000000  0.27890000  1.0 0.1319483368
H  H64  1  0.13000000  0.50350000  0.27890000  1.0 0.1319483368
H  H65  1  0.49650000  0.62650000  0.27890000  1.0 0.1319483368
H  H66  1  0.37350000  0.87000000  0.27890000  1.0 0.1319483368
H  H67  1  0.49650000  0.87000000  0.72110000  1.0 0.1319483368
H  H68  1  0.37350000  0.50350000  0.72110000  1.0 0.1319483368
H  H69  1  0.13000000  0.62650000  0.72110000  1.0 0.1319483368
H  H70  1  0.50350000  0.13000000  0.72110000  1.0 0.1319483368
H  H71  1  0.62650000  0.49650000  0.72110000  1.0 0.1319483368
H  H72  1  0.87000000  0.37350000  0.72110000  1.0 0.1319483368
C  C1  1  0.09990000  0.54995000  0.56700000  1.0 0.1466130041
C  C2  1  0.45005000  0.54995000  0.56700000  1.0 0.1466130041
C  C3  1  0.45005000  0.90010000  0.56700000  1.0 0.1466130041
C  C4  1  0.90010000  0.45005000  0.56700000  1.0 0.1466130041
C  C5  1  0.54995000  0.45005000  0.56700000  1.0 0.1466130041
C  C6  1  0.54995000  0.09990000  0.56700000  1.0 0.1466130041
C  C7  1  0.54995000  0.09990000  0.43300000  1.0 0.1466130041
C  C8  1  0.54995000  0.45005000  0.43300000  1.0 0.1466130041
C  C9  1  0.90010000  0.45005000  0.43300000  1.0 0.1466130041
C  C10  1  0.45005000  0.90010000  0.43300000  1.0 0.1466130041
C  C11  1  0.45005000  0.54995000  0.43300000  1.0 0.1466130041
C  C12  1  0.09990000  0.54995000  0.43300000  1.0 0.1466130041
C  C13  1  0.03920000  0.51960000  0.66870000  1.0 0.1319483368
C  C14  1  0.48040000  0.51960000  0.66870000  1.0 0.1319483368
C  C15  1  0.48040000  0.96080000  0.66870000  1.0 0.1319483368
C  C16  1  0.96080000  0.48040000  0.66870000  1.0 0.1319483368
C  C17  1  0.51960000  0.48040000  0.66870000  1.0 0.1319483368
C  C18  1  0.51960000  0.03920000  0.66870000  1.0 0.1319483368
C  C19  1  0.51960000  0.03920000  0.33130000  1.0 0.1319483368
C  C20  1  0.51960000  0.48040000  0.33130000  1.0 0.1319483368
C  C21  1  0.96080000  0.48040000  0.33130000  1.0 0.1319483368
C  C22  1  0.48040000  0.96080000  0.33130000  1.0 0.1319483368
C  C23  1  0.48040000  0.51960000  0.33130000  1.0 0.1319483368
C  C24  1  0.03920000  0.51960000  0.33130000  1.0 0.1319483368
C  C25  1  0.08630000  0.54315000  0.64550000  1.0 -0.0876340104
C  C26  1  0.45685000  0.54315000  0.64550000  1.0 -0.0876340104
C  C27  1  0.45685000  0.91370000  0.64550000  1.0 -0.0876340104
C  C28  1  0.91370000  0.45685000  0.64550000  1.0 -0.0876340104
C  C29  1  0.54315000  0.45685000  0.64550000  1.0 -0.0876340104
C  C30  1  0.54315000  0.08630000  0.64550000  1.0 -0.0876340104
C  C31  1  0.54315000  0.08630000  0.35450000  1.0 -0.0876340104
C  C32  1  0.54315000  0.45685000  0.35450000  1.0 -0.0876340104
C  C33  1  0.91370000  0.45685000  0.35450000  1.0 -0.0876340104
C  C34  1  0.45685000  0.91370000  0.35450000  1.0 -0.0876340104
C  C35  1  0.45685000  0.54315000  0.35450000  1.0 -0.0876340104
C  C36  1  0.08630000  0.54315000  0.35450000  1.0 -0.0876340104
C  C37  1  0.15070000  0.57535000  0.54030000  1.0 -0.1309364664
C  C38  1  0.42465000  0.57535000  0.54030000  1.0 -0.1309364664
C  C39  1  0.42465000  0.84930000  0.54030000  1.0 -0.1309364664
C  C40  1  0.84930000  0.42465000  0.54030000  1.0 -0.1309364664
C  C41  1  0.57535000  0.42465000  0.54030000  1.0 -0.1309364664
C  C42  1  0.57535000  0.15070000  0.54030000  1.0 -0.1309364664
C  C43  1  0.57535000  0.15070000  0.45970000  1.0 -0.1309364664
C  C44  1  0.57535000  0.42465000  0.45970000  1.0 -0.1309364664
C  C45  1  0.84930000  0.42465000  0.45970000  1.0 -0.1309364664
C  C46  1  0.42465000  0.84930000  0.45970000  1.0 -0.1309364664
C  C47  1  0.42465000  0.57535000  0.45970000  1.0 -0.1309364664
C  C48  1  0.15070000  0.57535000  0.45970000  1.0 -0.1309364664
C  C49  1  0.02410000  0.51205000  0.75080000  1.0 -0.1388842228
C  C50  1  0.48795000  0.51205000  0.75080000  1.0 -0.1388842228
C  C51  1  0.48795000  0.97590000  0.75080000  1.0 -0.1388842228
C  C52  1  0.97590000  0.48795000  0.75080000  1.0 -0.1388842228
C  C53  1  0.51205000  0.48795000  0.75080000  1.0 -0.1388842228
C  C54  1  0.51205000  0.02410000  0.75080000  1.0 -0.1388842228
C  C55  1  0.51205000  0.02410000  0.24920000  1.0 -0.1388842228
C  C56  1  0.51205000  0.48795000  0.24920000  1.0 -0.1388842228
C  C57  1  0.97590000  0.48795000  0.24920000  1.0 -0.1388842228
C  C58  1  0.48795000  0.97590000  0.24920000  1.0 -0.1388842228
C  C59  1  0.48795000  0.51205000  0.24920000  1.0 -0.1388842228
C  C60  1  0.02410000  0.51205000  0.24920000  1.0 -0.1388842228
C  C61  1  0.17830000  0.55336000  0.79530000  1.0 -0.0965351812
C  C62  1  0.44664000  0.62494000  0.79530000  1.0 -0.0965351812
C  C63  1  0.37506000  0.82170000  0.79530000  1.0 -0.0965351812
C  C64  1  0.82170000  0.44664000  0.79530000  1.0 -0.0965351812
C  C65  1  0.55336000  0.37506000  0.79530000  1.0 -0.0965351812
C  C66  1  0.62494000  0.17830000  0.79530000  1.0 -0.0965351812
C  C67  1  0.55336000  0.17830000  0.20470000  1.0 -0.0965351812
C  C68  1  0.62494000  0.44664000  0.20470000  1.0 -0.0965351812
C  C69  1  0.82170000  0.37506000  0.20470000  1.0 -0.0965351812
C  C70  1  0.44664000  0.82170000  0.20470000  1.0 -0.0965351812
C  C71  1  0.37506000  0.55336000  0.20470000  1.0 -0.0965351812
C  C72  1  0.17830000  0.62494000  0.20470000  1.0 -0.0965351812
C  C73  1  0.82170000  0.44664000  0.20470000  1.0 -0.0965351812
C  C74  1  0.55336000  0.37506000  0.20470000  1.0 -0.0965351812
C  C75  1  0.62494000  0.17830000  0.20470000  1.0 -0.0965351812
C  C76  1  0.17830000  0.55336000  0.20470000  1.0 -0.0965351812
C  C77  1  0.44664000  0.62494000  0.20470000  1.0 -0.0965351812
C  C78  1  0.37506000  0.82170000  0.20470000  1.0 -0.0965351812
C  C79  1  0.44664000  0.82170000  0.79530000  1.0 -0.0965351812
C  C80  1  0.37506000  0.55336000  0.79530000  1.0 -0.0965351812
C  C81  1  0.17830000  0.62494000  0.79530000  1.0 -0.0965351812
C  C82  1  0.55336000  0.17830000  0.79530000  1.0 -0.0965351812
C  C83  1  0.62494000  0.44664000  0.79530000  1.0 -0.0965351812
C  C84  1  0.82170000  0.37506000  0.79530000  1.0 -0.0965351812
C  C85  1  0.14250000  0.53500000  0.73880000  1.0 -0.1388842228
C  C86  1  0.46500000  0.60750000  0.73880000  1.0 -0.1309364664
C  C87  1  0.39250000  0.85750000  0.73880000  1.0 -0.1309364664
C  C88  1  0.85750000  0.46500000  0.73880000  1.0 -0.1309364664
C  C89  1  0.53500000  0.39250000  0.73880000  1.0 -0.1309364664
C  C90  1  0.60750000  0.14250000  0.73880000  1.0 -0.1309364664
C  C91  1  0.53500000  0.14250000  0.26120000  1.0 -0.1388842228
C  C92  1  0.60750000  0.46500000  0.26120000  1.0 -0.1388842228
C  C93  1  0.85750000  0.39250000  0.26120000  1.0 -0.1309364664
C  C94  1  0.46500000  0.85750000  0.26120000  1.0 -0.1309364664
C  C95  1  0.39250000  0.53500000  0.26120000  1.0 -0.1388842228
C  C96  1  0.14250000  0.60750000  0.26120000  1.0 -0.1388842228
C  C97  1  0.85750000  0.46500000  0.26120000  1.0 -0.1309364664
C  C98  1  0.53500000  0.39250000  0.26120000  1.0 -0.1388842228
C  C99  1  0.60750000  0.14250000  0.26120000  1.0 -0.1388842228
C  C100  1  0.14250000  0.53500000  0.26120000  1.0 -0.1388842228
C  C101  1  0.46500000  0.60750000  0.26120000  1.0 -0.1309364664
C  C102  1  0.39250000  0.85750000  0.26120000  1.0 -0.1309364664
C  C103  1  0.46500000  0.85750000  0.73880000  1.0 -0.1309364664
C  C104  1  0.39250000  0.53500000  0.73880000  1.0 -0.1309364664
C  C105  1  0.14250000  0.60750000  0.73880000  1.0 -0.1388842228
C  C106  1  0.53500000  0.14250000  0.73880000  1.0 -0.1309364664
C  C107  1  0.60750000  0.46500000  0.73880000  1.0 -0.1309364664
C  C108  1  0.85750000  0.39250000  0.73880000  1.0 -0.1309364664
C  C109  1  0.12540000  0.56270000  0.70860000  1.0 0.0694411793
C  C110  1  0.43730000  0.56270000  0.70860000  1.0 0.0694411793
C  C111  1  0.43730000  0.87460000  0.70860000  1.0 0.0694411793
C  C112  1  0.87460000  0.43730000  0.70860000  1.0 0.0694411793
C  C113  1  0.56270000  0.43730000  0.70860000  1.0 0.0694411793
C  C114  1  0.56270000  0.12540000  0.70860000  1.0 0.0694411793
C  C115  1  0.56270000  0.12540000  0.29140000  1.0 0.0694411793
C  C116  1  0.56270000  0.43730000  0.29140000  1.0 0.0694411793
C  C117  1  0.87460000  0.43730000  0.29140000  1.0 0.0694411793
C  C118  1  0.43730000  0.87460000  0.29140000  1.0 0.0694411793
C  C119  1  0.43730000  0.56270000  0.29140000  1.0 0.0694411793
C  C120  1  0.12540000  0.56270000  0.29140000  1.0 0.0694411793
C  C121  1  0.19620000  0.59810000  0.82480000  1.0 -0.0236031558
C  C122  1  0.40190000  0.59810000  0.82480000  1.0 -0.0236031558
C  C123  1  0.40190000  0.80380000  0.82480000  1.0 -0.0236031558
C  C124  1  0.80380000  0.40190000  0.82480000  1.0 -0.0236031558
C  C125  1  0.59810000  0.40190000  0.82480000  1.0 -0.0236031558
C  C126  1  0.59810000  0.19620000  0.82480000  1.0 -0.0236031558
C  C127  1  0.59810000  0.19620000  0.17520000  1.0 -0.0236031558
C  C128  1  0.59810000  0.40190000  0.17520000  1.0 -0.0236031558
C  C129  1  0.80380000  0.40190000  0.17520000  1.0 -0.0236031558
C  C130  1  0.40190000  0.80380000  0.17520000  1.0 -0.0236031558
C  C131  1  0.40190000  0.59810000  0.17520000  1.0 -0.0236031558
C  C132  1  0.19620000  0.59810000  0.17520000  1.0 -0.0236031558
C  C133  1  0.23610000  0.61805000  0.88920000  1.0 0.6034242435
C  C134  1  0.38195000  0.61805000  0.88920000  1.0 0.6034242435
C  C135  1  0.38195000  0.76390000  0.88920000  1.0 0.6034242435
C  C136  1  0.76390000  0.38195000  0.88920000  1.0 0.6034242435
C  C137  1  0.61805000  0.38195000  0.88920000  1.0 0.6034242435
C  C138  1  0.61805000  0.23610000  0.88920000  1.0 0.6034242435
C  C139  1  0.61805000  0.23610000  0.11080000  1.0 0.6034242435
C  C140  1  0.61805000  0.38195000  0.11080000  1.0 0.6034242435
C  C141  1  0.76390000  0.38195000  0.11080000  1.0 0.6034242435
C  C142  1  0.38195000  0.76390000  0.11080000  1.0 0.6034242435
C  C143  1  0.38195000  0.61805000  0.11080000  1.0 0.6034242435
C  C144  1  0.23610000  0.61805000  0.11080000  1.0 0.6034242435
N  N1  1  0.07020000  0.53510000  0.50000000  1.0 -0.2789370593
N  N2  1  0.46490000  0.53510000  0.50000000  1.0 -0.2789370593
N  N3  1  0.46490000  0.92980000  0.50000000  1.0 -0.2789370593
N  N4  1  0.92980000  0.46490000  0.50000000  1.0 -0.2789370593
N  N5  1  0.53510000  0.46490000  0.50000000  1.0 -0.2789370593
N  N6  1  0.53510000  0.07020000  0.50000000  1.0 -0.2789370593
N  N7  1  0.00000000  0.50000000  0.61660000  1.0 -0.2883521295
N  N8  1  0.50000000  0.50000000  0.61660000  1.0 -0.2883521295
N  N9  1  0.50000000  0.00000000  0.61660000  1.0 -0.2883521295
N  N10  1  0.50000000  0.00000000  0.38340000  1.0 -0.2883521295
N  N11  1  0.50000000  0.50000000  0.38340000  1.0 -0.2883521295
N  N12  1  0.00000000  0.50000000  0.38340000  1.0 -0.2883521295
O  O1  1  0.33333333  0.66666667  0.00000000  1.0 -0.9123086012
O  O2  1  0.66666667  0.33333333  0.00000000  1.0 -0.9123086012
O  O3  1  0.25009000  0.66015000  0.91180000  1.0 -0.5418315084
O  O4  1  0.33985000  0.58994000  0.91180000  1.0 -0.5418315084
O  O5  1  0.41006000  0.74991000  0.91180000  1.0 -0.5418315084
O  O6  1  0.74991000  0.33985000  0.91180000  1.0 -0.5418315084
O  O7  1  0.66015000  0.41006000  0.91180000  1.0 -0.5418315084
O  O8  1  0.58994000  0.25009000  0.91180000  1.0 -0.5418315084
O  O9  1  0.66015000  0.25009000  0.08820000  1.0 -0.5418315084
O  O10  1  0.58994000  0.33985000  0.08820000  1.0 -0.5418315084
O  O11  1  0.74991000  0.41006000  0.08820000  1.0 -0.5418315084
O  O12  1  0.33985000  0.74991000  0.08820000  1.0 -0.5418315084
O  O13  1  0.41006000  0.66015000  0.08820000  1.0 -0.5418315084
O  O14  1  0.25009000  0.58994000  0.08820000  1.0 -0.5418315084
O  O15  1  0.74991000  0.33985000  0.08820000  1.0 -0.5418315084
O  O16  1  0.66015000  0.41006000  0.08820000  1.0 -0.5418315084
O  O17  1  0.58994000  0.25009000  0.08820000  1.0 -0.5418315084
O  O18  1  0.25009000  0.66015000  0.08820000  1.0 -0.5418315084
O  O19  1  0.33985000  0.58994000  0.08820000  1.0 -0.5418315084
O  O20  1  0.41006000  0.74991000  0.08820000  1.0 -0.5418315084
O  O21  1  0.33985000  0.74991000  0.91180000  1.0 -0.5418315084
O  O22  1  0.41006000  0.66015000  0.91180000  1.0 -0.5418315084
O  O23  1  0.25009000  0.58994000  0.91180000  1.0 -0.5418315084
O  O24  1  0.66015000  0.25009000  0.91180000  1.0 -0.5418315084
O  O25  1  0.58994000  0.33985000  0.91180000  1.0 -0.5418315084
O  O26  1  0.74991000  0.41006000  0.91180000  1.0 -0.5418315084
O  O27  1  0.00000000  0.56620000  0.50000000  1.0 -0.612552571
O  O28  1  0.43380000  0.43380000  0.50000000  1.0 -0.612552571
O  O29  1  0.56620000  0.00000000  0.50000000  1.0 -0.612552571
O  O30  1  0.00000000  0.43380000  0.50000000  1.0 -0.612552571
O  O31  1  0.56620000  0.56620000  0.50000000  1.0 -0.612552571
O  O32  1  0.43380000  0.00000000  0.50000000  1.0 -0.612552571
