# DDEC6 charges by PACMAN v1.1 (https://github.com/mtap-research/PACMAN-charge/)
data_DAJVIW_ASR_pacman
_symmetry_space_group_name_H-M   'P 1'
_cell_length_a   31.35000000
_cell_length_b   31.35000000
_cell_length_c   16.91030000
_cell_angle_alpha   90.00000000
_cell_angle_beta   90.00000000
_cell_angle_gamma   120.00000000
_symmetry_Int_Tables_number   1
_chemical_formula_structural   Fe3Co3H36C72(N3O8)2
_chemical_formula_sum   'Fe6 Co6 H72 C144 N12 O32'
_cell_volume   14393.18920304
_cell_formula_units_Z   2
loop_
 _symmetry_equiv_pos_site_id
 _symmetry_equiv_pos_as_xyz
  1  'x, y, z'
loop_
 _atom_site_type_symbol
 _atom_site_label
 _atom_site_symmetry_multiplicity
 _atom_site_fract_x
 _atom_site_fract_y
 _atom_site_fract_z
 _atom_site_occupancy
 _atom_site_charge
Fe  Fe1  1  0.29784000  0.70216000  0.50000000  1.0 1.1912081168
Fe  Fe2  1  0.29784000  0.59568000  0.50000000  1.0 1.1912081168
Fe  Fe3  1  0.40432000  0.70216000  0.50000000  1.0 1.1912081168
Fe  Fe4  1  0.70216000  0.29784000  0.50000000  1.0 1.1912081168
Fe  Fe5  1  0.70216000  0.40432000  0.50000000  1.0 1.1912081168
Fe  Fe6  1  0.59568000  0.29784000  0.50000000  1.0 1.1912081168
Co  Co1  1  0.00000000  0.49300000  0.00000000  1.0 0.447351349
Co  Co2  1  0.50700000  0.50700000  0.00000000  1.0 0.447351349
Co  Co3  1  0.49300000  0.00000000  0.00000000  1.0 0.447351349
Co  Co4  1  0.00000000  0.50700000  0.00000000  1.0 0.447351349
Co  Co5  1  0.49300000  0.49300000  0.00000000  1.0 0.447351349
Co  Co6  1  0.50700000  0.00000000  0.00000000  1.0 0.447351349
H  H1  1  0.04550000  0.52275000  0.28900000  1.0 0.1187251987
H  H2  1  0.47725000  0.52275000  0.28900000  1.0 0.1187251987
H  H3  1  0.47725000  0.95450000  0.28900000  1.0 0.1187251987
H  H4  1  0.95450000  0.47725000  0.28900000  1.0 0.1187251987
H  H5  1  0.52275000  0.47725000  0.28900000  1.0 0.1187251987
H  H6  1  0.52275000  0.04550000  0.28900000  1.0 0.1187251987
H  H7  1  0.52275000  0.04550000  0.71100000  1.0 0.1187251987
H  H8  1  0.52275000  0.47725000  0.71100000  1.0 0.1187251987
H  H9  1  0.95450000  0.47725000  0.71100000  1.0 0.1187251987
H  H10  1  0.47725000  0.95450000  0.71100000  1.0 0.1187251987
H  H11  1  0.47725000  0.52275000  0.71100000  1.0 0.1187251987
H  H12  1  0.04550000  0.52275000  0.71100000  1.0 0.1187251987
H  H13  1  0.18160000  0.59080000  0.07300000  1.0 0.1187251987
H  H14  1  0.40920000  0.59080000  0.07300000  1.0 0.1187251987
H  H15  1  0.40920000  0.81840000  0.07300000  1.0 0.1187251987
H  H16  1  0.81840000  0.40920000  0.07300000  1.0 0.1187251987
H  H17  1  0.59080000  0.40920000  0.07300000  1.0 0.1187251987
H  H18  1  0.59080000  0.18160000  0.07300000  1.0 0.1187251987
H  H19  1  0.59080000  0.18160000  0.92700000  1.0 0.1187251987
H  H20  1  0.59080000  0.40920000  0.92700000  1.0 0.1187251987
H  H21  1  0.81840000  0.40920000  0.92700000  1.0 0.1187251987
H  H22  1  0.40920000  0.81840000  0.92700000  1.0 0.1187251987
H  H23  1  0.40920000  0.59080000  0.92700000  1.0 0.1187251987
H  H24  1  0.18160000  0.59080000  0.92700000  1.0 0.1187251987
H  H25  1  0.13710000  0.50580000  0.21270000  1.0 0.1344870896
H  H26  1  0.49420000  0.63130000  0.21270000  1.0 0.1344870896
H  H27  1  0.36870000  0.86290000  0.21270000  1.0 0.1344870896
H  H28  1  0.86290000  0.49420000  0.21270000  1.0 0.1344870896
H  H29  1  0.50580000  0.36870000  0.21270000  1.0 0.1355528112
H  H30  1  0.63130000  0.13710000  0.21270000  1.0 0.1355528112
H  H31  1  0.50580000  0.13710000  0.78730000  1.0 0.1355528112
H  H32  1  0.63130000  0.49420000  0.78730000  1.0 0.1344870896
H  H33  1  0.86290000  0.36870000  0.78730000  1.0 0.1344870896
H  H34  1  0.49420000  0.86290000  0.78730000  1.0 0.1344870896
H  H35  1  0.36870000  0.50580000  0.78730000  1.0 0.1344870896
H  H36  1  0.13710000  0.63130000  0.78730000  1.0 0.1344870896
H  H37  1  0.86290000  0.49420000  0.78730000  1.0 0.1344870896
H  H38  1  0.50580000  0.36870000  0.78730000  1.0 0.1355528112
H  H39  1  0.63130000  0.13710000  0.78730000  1.0 0.1355528112
H  H40  1  0.13710000  0.50580000  0.78730000  1.0 0.1344870896
H  H41  1  0.49420000  0.63130000  0.78730000  1.0 0.1344870896
H  H42  1  0.36870000  0.86290000  0.78730000  1.0 0.1344870896
H  H43  1  0.49420000  0.86290000  0.21270000  1.0 0.1344870896
H  H44  1  0.36870000  0.50580000  0.21270000  1.0 0.1344870896
H  H45  1  0.13710000  0.63130000  0.21270000  1.0 0.1344870896
H  H46  1  0.50580000  0.13710000  0.21270000  1.0 0.1344870896
H  H47  1  0.63130000  0.49420000  0.21270000  1.0 0.1355528112
H  H48  1  0.86290000  0.36870000  0.21270000  1.0 0.1344870896
H  H49  1  0.19270000  0.53350000  0.31440000  1.0 0.1344870896
H  H50  1  0.46650000  0.65920000  0.31440000  1.0 0.1344870896
H  H51  1  0.34080000  0.80730000  0.31440000  1.0 0.1344870896
H  H52  1  0.80730000  0.46650000  0.31440000  1.0 0.1344870896
H  H53  1  0.53350000  0.34080000  0.31440000  1.0 0.1344870896
H  H54  1  0.65920000  0.19270000  0.31440000  1.0 0.1344870896
H  H55  1  0.53350000  0.19270000  0.68560000  1.0 0.1344870896
H  H56  1  0.65920000  0.46650000  0.68560000  1.0 0.1344870896
H  H57  1  0.80730000  0.34080000  0.68560000  1.0 0.1344870896
H  H58  1  0.46650000  0.80730000  0.68560000  1.0 0.1344870896
H  H59  1  0.34080000  0.53350000  0.68560000  1.0 0.1344870896
H  H60  1  0.19270000  0.65920000  0.68560000  1.0 0.1344870896
H  H61  1  0.80730000  0.46650000  0.68560000  1.0 0.1344870896
H  H62  1  0.53350000  0.34080000  0.68560000  1.0 0.1344870896
H  H63  1  0.65920000  0.19270000  0.68560000  1.0 0.1344870896
H  H64  1  0.19270000  0.53350000  0.68560000  1.0 0.1344870896
H  H65  1  0.46650000  0.65920000  0.68560000  1.0 0.1344870896
H  H66  1  0.34080000  0.80730000  0.68560000  1.0 0.1344870896
H  H67  1  0.46650000  0.80730000  0.31440000  1.0 0.1344870896
H  H68  1  0.34080000  0.53350000  0.31440000  1.0 0.1344870896
H  H69  1  0.19270000  0.65920000  0.31440000  1.0 0.1344870896
H  H70  1  0.53350000  0.19270000  0.31440000  1.0 0.1344870896
H  H71  1  0.65920000  0.46650000  0.31440000  1.0 0.1344870896
H  H72  1  0.80730000  0.34080000  0.31440000  1.0 0.1344870896
C  C1  1  0.03970000  0.51985000  0.16550000  1.0 0.1187251987
C  C2  1  0.48015000  0.51985000  0.16550000  1.0 0.1187251987
C  C3  1  0.48015000  0.96030000  0.16550000  1.0 0.1187251987
C  C4  1  0.96030000  0.48015000  0.16550000  1.0 0.1187251987
C  C5  1  0.51985000  0.48015000  0.16550000  1.0 0.1187251987
C  C6  1  0.51985000  0.03970000  0.16550000  1.0 0.1187251987
C  C7  1  0.51985000  0.03970000  0.83450000  1.0 0.1187251987
C  C8  1  0.51985000  0.48015000  0.83450000  1.0 0.1187251987
C  C9  1  0.96030000  0.48015000  0.83450000  1.0 0.1187251987
C  C10  1  0.48015000  0.96030000  0.83450000  1.0 0.1187251987
C  C11  1  0.48015000  0.51985000  0.83450000  1.0 0.1187251987
C  C12  1  0.03970000  0.51985000  0.83450000  1.0 0.1187251987
C  C13  1  0.10260000  0.55130000  0.06460000  1.0 0.1344870896
C  C14  1  0.44870000  0.55130000  0.06460000  1.0 0.1344870896
C  C15  1  0.44870000  0.89740000  0.06460000  1.0 0.1344870896
C  C16  1  0.89740000  0.44870000  0.06460000  1.0 0.1344870896
C  C17  1  0.55130000  0.44870000  0.06460000  1.0 0.1344870896
C  C18  1  0.55130000  0.10260000  0.06460000  1.0 0.1344870896
C  C19  1  0.55130000  0.10260000  0.93540000  1.0 0.1344870896
C  C20  1  0.55130000  0.44870000  0.93540000  1.0 0.1344870896
C  C21  1  0.89740000  0.44870000  0.93540000  1.0 0.1344870896
C  C22  1  0.44870000  0.89740000  0.93540000  1.0 0.1344870896
C  C23  1  0.44870000  0.55130000  0.93540000  1.0 0.1344870896
C  C24  1  0.10260000  0.55130000  0.93540000  1.0 0.1344870896
C  C25  1  0.08900000  0.54450000  0.14270000  1.0 -0.0627628378
C  C26  1  0.45550000  0.54450000  0.14270000  1.0 -0.0627628378
C  C27  1  0.45550000  0.91100000  0.14270000  1.0 -0.0627628378
C  C28  1  0.91100000  0.45550000  0.14270000  1.0 -0.0627628378
C  C29  1  0.54450000  0.45550000  0.14270000  1.0 -0.0627628378
C  C30  1  0.54450000  0.08900000  0.14270000  1.0 -0.0627628378
C  C31  1  0.54450000  0.08900000  0.85730000  1.0 -0.0627628378
C  C32  1  0.54450000  0.45550000  0.85730000  1.0 -0.0627628378
C  C33  1  0.91100000  0.45550000  0.85730000  1.0 -0.0627628378
C  C34  1  0.45550000  0.91100000  0.85730000  1.0 -0.0627628378
C  C35  1  0.45550000  0.54450000  0.85730000  1.0 -0.0627628378
C  C36  1  0.08900000  0.54450000  0.85730000  1.0 -0.0627628378
C  C37  1  0.02500000  0.51250000  0.24500000  1.0 -0.1516410558
C  C38  1  0.48750000  0.51250000  0.24500000  1.0 -0.1516410558
C  C39  1  0.48750000  0.97500000  0.24500000  1.0 -0.1516410558
C  C40  1  0.97500000  0.48750000  0.24500000  1.0 -0.1516410558
C  C41  1  0.51250000  0.48750000  0.24500000  1.0 -0.1516410558
C  C42  1  0.51250000  0.02500000  0.24500000  1.0 -0.1516410558
C  C43  1  0.51250000  0.02500000  0.75500000  1.0 -0.1516410558
C  C44  1  0.51250000  0.48750000  0.75500000  1.0 -0.1516410558
C  C45  1  0.97500000  0.48750000  0.75500000  1.0 -0.1516410558
C  C46  1  0.48750000  0.97500000  0.75500000  1.0 -0.1516410558
C  C47  1  0.48750000  0.51250000  0.75500000  1.0 -0.1516410558
C  C48  1  0.02500000  0.51250000  0.75500000  1.0 -0.1516410558
C  C49  1  0.15420000  0.57710000  0.04010000  1.0 -0.1410796136
C  C50  1  0.42290000  0.57710000  0.04010000  1.0 -0.1410796136
C  C51  1  0.42290000  0.84580000  0.04010000  1.0 -0.1410796136
C  C52  1  0.84580000  0.42290000  0.04010000  1.0 -0.1410796136
C  C53  1  0.57710000  0.42290000  0.04010000  1.0 -0.1410796136
C  C54  1  0.57710000  0.15420000  0.04010000  1.0 -0.1410796136
C  C55  1  0.57710000  0.15420000  0.95990000  1.0 -0.1410796136
C  C56  1  0.57710000  0.42290000  0.95990000  1.0 -0.1410796136
C  C57  1  0.84580000  0.42290000  0.95990000  1.0 -0.1410796136
C  C58  1  0.42290000  0.84580000  0.95990000  1.0 -0.1410796136
C  C59  1  0.42290000  0.57710000  0.95990000  1.0 -0.1410796136
C  C60  1  0.15420000  0.57710000  0.95990000  1.0 -0.1410796136
C  C61  1  0.14710000  0.53670000  0.23430000  1.0 -0.1410796136
C  C62  1  0.46330000  0.61040000  0.23430000  1.0 -0.1410796136
C  C63  1  0.38960000  0.85290000  0.23430000  1.0 -0.1410796136
C  C64  1  0.85290000  0.46330000  0.23430000  1.0 -0.1410796136
C  C65  1  0.53670000  0.38960000  0.23430000  1.0 -0.1410796136
C  C66  1  0.61040000  0.14710000  0.23430000  1.0 -0.1410796136
C  C67  1  0.53670000  0.14710000  0.76570000  1.0 -0.1410796136
C  C68  1  0.61040000  0.46330000  0.76570000  1.0 -0.1410796136
C  C69  1  0.85290000  0.38960000  0.76570000  1.0 -0.1410796136
C  C70  1  0.46330000  0.85290000  0.76570000  1.0 -0.1410796136
C  C71  1  0.38960000  0.53670000  0.76570000  1.0 -0.1410796136
C  C72  1  0.14710000  0.61040000  0.76570000  1.0 -0.1410796136
C  C73  1  0.85290000  0.46330000  0.76570000  1.0 -0.1410796136
C  C74  1  0.53670000  0.38960000  0.76570000  1.0 -0.1410796136
C  C75  1  0.61040000  0.14710000  0.76570000  1.0 -0.1410796136
C  C76  1  0.14710000  0.53670000  0.76570000  1.0 -0.1410796136
C  C77  1  0.46330000  0.61040000  0.76570000  1.0 -0.1410796136
C  C78  1  0.38960000  0.85290000  0.76570000  1.0 -0.1410796136
C  C79  1  0.46330000  0.85290000  0.23430000  1.0 -0.1410796136
C  C80  1  0.38960000  0.53670000  0.23430000  1.0 -0.1410796136
C  C81  1  0.14710000  0.61040000  0.23430000  1.0 -0.1410796136
C  C82  1  0.53670000  0.14710000  0.23430000  1.0 -0.1410796136
C  C83  1  0.61040000  0.46330000  0.23430000  1.0 -0.1410796136
C  C84  1  0.85290000  0.38960000  0.23430000  1.0 -0.1410796136
C  C85  1  0.12770000  0.56385000  0.20560000  1.0 0.0707781502
C  C86  1  0.43615000  0.56385000  0.20560000  1.0 0.0707781502
C  C87  1  0.43615000  0.87230000  0.20560000  1.0 0.0707781502
C  C88  1  0.87230000  0.43615000  0.20560000  1.0 0.0707781502
C  C89  1  0.56385000  0.43615000  0.20560000  1.0 0.0707781502
C  C90  1  0.56385000  0.12770000  0.20560000  1.0 0.0707781502
C  C91  1  0.56385000  0.12770000  0.79440000  1.0 0.0707781502
C  C92  1  0.56385000  0.43615000  0.79440000  1.0 0.0707781502
C  C93  1  0.87230000  0.43615000  0.79440000  1.0 0.0707781502
C  C94  1  0.43615000  0.87230000  0.79440000  1.0 0.0707781502
C  C95  1  0.43615000  0.56385000  0.79440000  1.0 0.0707781502
C  C96  1  0.12770000  0.56385000  0.79440000  1.0 0.0707781502
C  C97  1  0.19890000  0.59945000  0.32540000  1.0 -0.044670465
C  C98  1  0.40055000  0.59945000  0.32540000  1.0 -0.044670465
C  C99  1  0.40055000  0.80110000  0.32540000  1.0 -0.044670465
C  C100  1  0.80110000  0.40055000  0.32540000  1.0 -0.044670465
C  C101  1  0.59945000  0.40055000  0.32540000  1.0 -0.044670465
C  C102  1  0.59945000  0.19890000  0.32540000  1.0 -0.044670465
C  C103  1  0.59945000  0.19890000  0.67460000  1.0 -0.044670465
C  C104  1  0.59945000  0.40055000  0.67460000  1.0 -0.044670465
C  C105  1  0.80110000  0.40055000  0.67460000  1.0 -0.044670465
C  C106  1  0.40055000  0.80110000  0.67460000  1.0 -0.044670465
C  C107  1  0.40055000  0.59945000  0.67460000  1.0 -0.044670465
C  C108  1  0.19890000  0.59945000  0.67460000  1.0 -0.044670465
C  C109  1  0.18140000  0.55380000  0.29450000  1.0 -0.0887706899
C  C110  1  0.44620000  0.62760000  0.29450000  1.0 -0.0887706899
C  C111  1  0.37240000  0.81860000  0.29450000  1.0 -0.0887706899
C  C112  1  0.81860000  0.44620000  0.29450000  1.0 -0.0887706899
C  C113  1  0.55380000  0.37240000  0.29450000  1.0 -0.0887706899
C  C114  1  0.62760000  0.18140000  0.29450000  1.0 -0.0887706899
C  C115  1  0.55380000  0.18140000  0.70550000  1.0 -0.0887706899
C  C116  1  0.62760000  0.44620000  0.70550000  1.0 -0.0887706899
C  C117  1  0.81860000  0.37240000  0.70550000  1.0 -0.0887706899
C  C118  1  0.44620000  0.81860000  0.70550000  1.0 -0.0887706899
C  C119  1  0.37240000  0.55380000  0.70550000  1.0 -0.0887706899
C  C120  1  0.18140000  0.62760000  0.70550000  1.0 -0.0887706899
C  C121  1  0.81860000  0.44620000  0.70550000  1.0 -0.0887706899
C  C122  1  0.55380000  0.37240000  0.70550000  1.0 -0.0887706899
C  C123  1  0.62760000  0.18140000  0.70550000  1.0 -0.0887706899
C  C124  1  0.18140000  0.55380000  0.70550000  1.0 -0.0887706899
C  C125  1  0.44620000  0.62760000  0.70550000  1.0 -0.0887706899
C  C126  1  0.37240000  0.81860000  0.70550000  1.0 -0.0887706899
C  C127  1  0.44620000  0.81860000  0.29450000  1.0 -0.0887706899
C  C128  1  0.37240000  0.55380000  0.29450000  1.0 -0.0887706899
C  C129  1  0.18140000  0.62760000  0.29450000  1.0 -0.0887706899
C  C130  1  0.55380000  0.18140000  0.29450000  1.0 -0.0887706899
C  C131  1  0.62760000  0.44620000  0.29450000  1.0 -0.0887706899
C  C132  1  0.81860000  0.37240000  0.29450000  1.0 -0.0887706899
C  C133  1  0.23620000  0.61810000  0.39000000  1.0 0.6025381859
C  C134  1  0.38190000  0.61810000  0.39000000  1.0 0.6025381859
C  C135  1  0.38190000  0.76380000  0.39000000  1.0 0.6025381859
C  C136  1  0.76380000  0.38190000  0.39000000  1.0 0.6025381859
C  C137  1  0.61810000  0.38190000  0.39000000  1.0 0.6025381859
C  C138  1  0.61810000  0.23620000  0.39000000  1.0 0.6025381859
C  C139  1  0.61810000  0.23620000  0.61000000  1.0 0.6025381859
C  C140  1  0.61810000  0.38190000  0.61000000  1.0 0.6025381859
C  C141  1  0.76380000  0.38190000  0.61000000  1.0 0.6025381859
C  C142  1  0.38190000  0.76380000  0.61000000  1.0 0.6025381859
C  C143  1  0.38190000  0.61810000  0.61000000  1.0 0.6025381859
C  C144  1  0.23620000  0.61810000  0.61000000  1.0 0.6025381859
N  N1  1  0.00000000  0.50000000  0.11260000  1.0 -0.1965710222
N  N2  1  0.50000000  0.50000000  0.11260000  1.0 -0.1965710222
N  N3  1  0.50000000  0.00000000  0.11260000  1.0 -0.1965710222
N  N4  1  0.50000000  0.00000000  0.88740000  1.0 -0.1965710222
N  N5  1  0.50000000  0.50000000  0.88740000  1.0 -0.1965710222
N  N6  1  0.00000000  0.50000000  0.88740000  1.0 -0.1965710222
N  N7  1  0.07150000  0.53575000  0.00000000  1.0 -0.1898673697
N  N8  1  0.46425000  0.53575000  0.00000000  1.0 -0.1898673697
N  N9  1  0.46425000  0.92850000  0.00000000  1.0 -0.1898673697
N  N10  1  0.92850000  0.46425000  0.00000000  1.0 -0.1898673697
N  N11  1  0.53575000  0.46425000  0.00000000  1.0 -0.1898673697
N  N12  1  0.53575000  0.07150000  0.00000000  1.0 -0.1898673697
O  O1  1  0.33333333  0.66666667  0.50000000  1.0 -0.9284958218
O  O2  1  0.66666667  0.33333333  0.50000000  1.0 -0.9284958218
O  O3  1  0.25079000  0.66121000  0.41490000  1.0 -0.5373494003
O  O4  1  0.33879000  0.58958000  0.41490000  1.0 -0.5373494003
O  O5  1  0.41042000  0.74921000  0.41490000  1.0 -0.5373494003
O  O6  1  0.74921000  0.33879000  0.41490000  1.0 -0.5373494003
O  O7  1  0.66121000  0.41042000  0.41490000  1.0 -0.5373494003
O  O8  1  0.58958000  0.25079000  0.41490000  1.0 -0.5373494003
O  O9  1  0.66121000  0.25079000  0.58510000  1.0 -0.5373494003
O  O10  1  0.58958000  0.33879000  0.58510000  1.0 -0.5373494003
O  O11  1  0.74921000  0.41042000  0.58510000  1.0 -0.5373494003
O  O12  1  0.33879000  0.74921000  0.58510000  1.0 -0.5373494003
O  O13  1  0.41042000  0.66121000  0.58510000  1.0 -0.5373494003
O  O14  1  0.25079000  0.58958000  0.58510000  1.0 -0.5373494003
O  O15  1  0.74921000  0.33879000  0.58510000  1.0 -0.5373494003
O  O16  1  0.66121000  0.41042000  0.58510000  1.0 -0.5373494003
O  O17  1  0.58958000  0.25079000  0.58510000  1.0 -0.5373494003
O  O18  1  0.25079000  0.66121000  0.58510000  1.0 -0.5373494003
O  O19  1  0.33879000  0.58958000  0.58510000  1.0 -0.5373494003
O  O20  1  0.41042000  0.74921000  0.58510000  1.0 -0.5373494003
O  O21  1  0.33879000  0.74921000  0.41490000  1.0 -0.5373494003
O  O22  1  0.41042000  0.66121000  0.41490000  1.0 -0.5373494003
O  O23  1  0.25079000  0.58958000  0.41490000  1.0 -0.5373494003
O  O24  1  0.66121000  0.25079000  0.41490000  1.0 -0.5373494003
O  O25  1  0.58958000  0.33879000  0.41490000  1.0 -0.5373494003
O  O26  1  0.74921000  0.41042000  0.41490000  1.0 -0.5373494003
O  O27  1  0.00000000  0.42970000  0.00000000  1.0 -0.4716852282
O  O28  1  0.57030000  0.57030000  0.00000000  1.0 -0.4818116699
O  O29  1  0.42970000  0.00000000  0.00000000  1.0 -0.4818116699
O  O30  1  0.00000000  0.57030000  0.00000000  1.0 -0.4716852282
O  O31  1  0.42970000  0.42970000  0.00000000  1.0 -0.4818116699
O  O32  1  0.57030000  0.00000000  0.00000000  1.0 -0.4818116699
