# DDEC6 charges by PACMAN v1.1 (https://github.com/mtap-research/PACMAN-charge/)
data_DAJXEU_ASR_pacman
_symmetry_space_group_name_H-M   'P 1'
_cell_length_a   31.46890000
_cell_length_b   31.46890000
_cell_length_c   16.87140000
_cell_angle_alpha   90.00000000
_cell_angle_beta   90.00000000
_cell_angle_gamma   120.00000000
_symmetry_Int_Tables_number   1
_chemical_formula_structural   Fe3Co3H36C72N6O13
_chemical_formula_sum   'Fe6 Co6 H72 C144 N12 O26'
_cell_volume   14469.21195483
_cell_formula_units_Z   2
loop_
 _symmetry_equiv_pos_site_id
 _symmetry_equiv_pos_as_xyz
  1  'x, y, z'
loop_
 _atom_site_type_symbol
 _atom_site_label
 _atom_site_symmetry_multiplicity
 _atom_site_fract_x
 _atom_site_fract_y
 _atom_site_fract_z
 _atom_site_occupancy
 _atom_site_charge
Fe  Fe1  1  0.29635000  0.70365000  0.00000000  1.0 1.1924225133
Fe  Fe2  1  0.29635000  0.59270000  0.00000000  1.0 1.1924225133
Fe  Fe3  1  0.40730000  0.70365000  0.00000000  1.0 1.1924225133
Fe  Fe4  1  0.70365000  0.29635000  0.00000000  1.0 1.1924225133
Fe  Fe5  1  0.70365000  0.40730000  0.00000000  1.0 1.1924225133
Fe  Fe6  1  0.59270000  0.29635000  0.00000000  1.0 1.1954547923
Co  Co1  1  0.49330000  0.00000000  0.50000000  1.0 0.439399473
Co  Co2  1  0.00000000  0.49330000  0.50000000  1.0 0.439399473
Co  Co3  1  0.50670000  0.50670000  0.50000000  1.0 0.439399473
Co  Co4  1  0.50670000  0.00000000  0.50000000  1.0 0.4340699475
Co  Co5  1  0.00000000  0.50670000  0.50000000  1.0 0.439399473
Co  Co6  1  0.49330000  0.49330000  0.50000000  1.0 0.439399473
H  H1  1  0.41030000  0.82060000  0.42550000  1.0 0.1222448676
H  H2  1  0.17940000  0.58970000  0.42550000  1.0 0.1222448676
H  H3  1  0.41030000  0.58970000  0.42550000  1.0 0.1222448676
H  H4  1  0.58970000  0.17940000  0.42550000  1.0 0.1222448676
H  H5  1  0.82060000  0.41030000  0.42550000  1.0 0.1222448676
H  H6  1  0.58970000  0.41030000  0.42550000  1.0 0.1222448676
H  H7  1  0.82060000  0.41030000  0.57450000  1.0 0.1222448676
H  H8  1  0.58970000  0.17940000  0.57450000  1.0 0.1222448676
H  H9  1  0.58970000  0.41030000  0.57450000  1.0 0.1222448676
H  H10  1  0.17940000  0.58970000  0.57450000  1.0 0.1222448676
H  H11  1  0.41030000  0.82060000  0.57450000  1.0 0.1222448676
H  H12  1  0.41030000  0.58970000  0.57450000  1.0 0.1222448676
H  H13  1  0.47695000  0.95390000  0.20980000  1.0 0.1222448676
H  H14  1  0.04610000  0.52305000  0.20980000  1.0 0.1222448676
H  H15  1  0.47695000  0.52305000  0.20980000  1.0 0.1222448676
H  H16  1  0.52305000  0.04610000  0.20980000  1.0 0.1222448676
H  H17  1  0.95390000  0.47695000  0.20980000  1.0 0.1222448676
H  H18  1  0.52305000  0.47695000  0.20980000  1.0 0.1222448676
H  H19  1  0.95390000  0.47695000  0.79020000  1.0 0.1222448676
H  H20  1  0.52305000  0.04610000  0.79020000  1.0 0.1222448676
H  H21  1  0.52305000  0.47695000  0.79020000  1.0 0.1222448676
H  H22  1  0.04610000  0.52305000  0.79020000  1.0 0.1222448676
H  H23  1  0.47695000  0.95390000  0.79020000  1.0 0.1222448676
H  H24  1  0.47695000  0.52305000  0.79020000  1.0 0.1222448676
H  H25  1  0.34020000  0.80600000  0.18540000  1.0 0.1222448676
H  H26  1  0.19400000  0.53420000  0.18540000  1.0 0.1222448676
H  H27  1  0.46580000  0.65980000  0.18540000  1.0 0.1222448676
H  H28  1  0.65980000  0.19400000  0.18540000  1.0 0.1222448676
H  H29  1  0.80600000  0.46580000  0.18540000  1.0 0.1222448676
H  H30  1  0.53420000  0.34020000  0.18540000  1.0 0.1222448676
H  H31  1  0.80600000  0.34020000  0.81460000  1.0 0.1222448676
H  H32  1  0.53420000  0.19400000  0.81460000  1.0 0.1222448676
H  H33  1  0.65980000  0.46580000  0.81460000  1.0 0.1222448676
H  H34  1  0.19400000  0.65980000  0.81460000  1.0 0.1222448676
H  H35  1  0.46580000  0.80600000  0.81460000  1.0 0.1222448676
H  H36  1  0.34020000  0.53420000  0.81460000  1.0 0.1222448676
H  H37  1  0.65980000  0.19400000  0.81460000  1.0 0.1222448676
H  H38  1  0.80600000  0.46580000  0.81460000  1.0 0.1222448676
H  H39  1  0.53420000  0.34020000  0.81460000  1.0 0.1222448676
H  H40  1  0.34020000  0.80600000  0.81460000  1.0 0.1222448676
H  H41  1  0.19400000  0.53420000  0.81460000  1.0 0.1222448676
H  H42  1  0.46580000  0.65980000  0.81460000  1.0 0.1222448676
H  H43  1  0.19400000  0.65980000  0.18540000  1.0 0.1222448676
H  H44  1  0.46580000  0.80600000  0.18540000  1.0 0.1222448676
H  H45  1  0.34020000  0.53420000  0.18540000  1.0 0.1222448676
H  H46  1  0.80600000  0.34020000  0.18540000  1.0 0.1222448676
H  H47  1  0.53420000  0.19400000  0.18540000  1.0 0.1222448676
H  H48  1  0.65980000  0.46580000  0.18540000  1.0 0.1222448676
H  H49  1  0.36790000  0.86550000  0.28430000  1.0 0.1222448676
H  H50  1  0.13450000  0.50240000  0.28430000  1.0 0.1222448676
H  H51  1  0.49760000  0.63210000  0.28430000  1.0 0.1222448676
H  H52  1  0.63210000  0.13450000  0.28430000  1.0 0.1222448676
H  H53  1  0.86550000  0.49760000  0.28430000  1.0 0.1222448676
H  H54  1  0.50240000  0.36790000  0.28430000  1.0 0.1222448676
H  H55  1  0.86550000  0.36790000  0.71570000  1.0 0.1222448676
H  H56  1  0.50240000  0.13450000  0.71570000  1.0 0.1222448676
H  H57  1  0.63210000  0.49760000  0.71570000  1.0 0.1222448676
H  H58  1  0.13450000  0.63210000  0.71570000  1.0 0.1222448676
H  H59  1  0.49760000  0.86550000  0.71570000  1.0 0.1222448676
H  H60  1  0.36790000  0.50240000  0.71570000  1.0 0.1222448676
H  H61  1  0.63210000  0.13450000  0.71570000  1.0 0.1222448676
H  H62  1  0.86550000  0.49760000  0.71570000  1.0 0.1222448676
H  H63  1  0.50240000  0.36790000  0.71570000  1.0 0.1222448676
H  H64  1  0.36790000  0.86550000  0.71570000  1.0 0.1222448676
H  H65  1  0.13450000  0.50240000  0.71570000  1.0 0.1222448676
H  H66  1  0.49760000  0.63210000  0.71570000  1.0 0.1222448676
H  H67  1  0.13450000  0.63210000  0.28430000  1.0 0.1222448676
H  H68  1  0.49760000  0.86550000  0.28430000  1.0 0.1222448676
H  H69  1  0.36790000  0.50240000  0.28430000  1.0 0.1222448676
H  H70  1  0.86550000  0.36790000  0.28430000  1.0 0.1222448676
H  H71  1  0.50240000  0.13450000  0.28430000  1.0 0.1222448676
H  H72  1  0.63210000  0.49760000  0.28430000  1.0 0.1222448676
C  C1  1  0.44845000  0.89690000  0.43520000  1.0 0.1407663659
C  C2  1  0.10310000  0.55155000  0.43520000  1.0 0.1407663659
C  C3  1  0.44845000  0.55155000  0.43520000  1.0 0.1407663659
C  C4  1  0.55155000  0.10310000  0.43520000  1.0 0.1407663659
C  C5  1  0.89690000  0.44845000  0.43520000  1.0 0.1407663659
C  C6  1  0.55155000  0.44845000  0.43520000  1.0 0.1407663659
C  C7  1  0.89690000  0.44845000  0.56480000  1.0 0.1407663659
C  C8  1  0.55155000  0.10310000  0.56480000  1.0 0.1407663659
C  C9  1  0.55155000  0.44845000  0.56480000  1.0 0.1407663659
C  C10  1  0.10310000  0.55155000  0.56480000  1.0 0.1407663659
C  C11  1  0.44845000  0.89690000  0.56480000  1.0 0.1407663659
C  C12  1  0.44845000  0.55155000  0.56480000  1.0 0.1407663659
C  C13  1  0.48060000  0.96120000  0.33280000  1.0 0.1407663659
C  C14  1  0.03880000  0.51940000  0.33280000  1.0 0.1407663659
C  C15  1  0.48060000  0.51940000  0.33280000  1.0 0.1407663659
C  C16  1  0.51940000  0.03880000  0.33280000  1.0 0.1407663659
C  C17  1  0.96120000  0.48060000  0.33280000  1.0 0.1407663659
C  C18  1  0.51940000  0.48060000  0.33280000  1.0 0.1407663659
C  C19  1  0.96120000  0.48060000  0.66720000  1.0 0.1407663659
C  C20  1  0.51940000  0.03880000  0.66720000  1.0 0.1407663659
C  C21  1  0.51940000  0.48060000  0.66720000  1.0 0.1407663659
C  C22  1  0.03880000  0.51940000  0.66720000  1.0 0.1407663659
C  C23  1  0.48060000  0.96120000  0.66720000  1.0 0.1407663659
C  C24  1  0.48060000  0.51940000  0.66720000  1.0 0.1407663659
C  C25  1  0.45565000  0.91130000  0.35690000  1.0 -0.0713173898
C  C26  1  0.08870000  0.54435000  0.35690000  1.0 -0.0713173898
C  C27  1  0.45565000  0.54435000  0.35690000  1.0 -0.0713173898
C  C28  1  0.54435000  0.08870000  0.35690000  1.0 -0.0713173898
C  C29  1  0.91130000  0.45565000  0.35690000  1.0 -0.0713173898
C  C30  1  0.54435000  0.45565000  0.35690000  1.0 -0.0713173898
C  C31  1  0.91130000  0.45565000  0.64310000  1.0 -0.0713173898
C  C32  1  0.54435000  0.08870000  0.64310000  1.0 -0.0713173898
C  C33  1  0.54435000  0.45565000  0.64310000  1.0 -0.0713173898
C  C34  1  0.08870000  0.54435000  0.64310000  1.0 -0.0713173898
C  C35  1  0.45565000  0.91130000  0.64310000  1.0 -0.0713173898
C  C36  1  0.45565000  0.54435000  0.64310000  1.0 -0.0713173898
C  C37  1  0.42395000  0.84790000  0.45850000  1.0 -0.203219468
C  C38  1  0.15210000  0.57605000  0.45850000  1.0 -0.203219468
C  C39  1  0.42395000  0.57605000  0.45850000  1.0 -0.203219468
C  C40  1  0.57605000  0.15210000  0.45850000  1.0 -0.203219468
C  C41  1  0.84790000  0.42395000  0.45850000  1.0 -0.203219468
C  C42  1  0.57605000  0.42395000  0.45850000  1.0 -0.203219468
C  C43  1  0.84790000  0.42395000  0.54150000  1.0 -0.203219468
C  C44  1  0.57605000  0.15210000  0.54150000  1.0 -0.203219468
C  C45  1  0.57605000  0.42395000  0.54150000  1.0 -0.203219468
C  C46  1  0.15210000  0.57605000  0.54150000  1.0 -0.203219468
C  C47  1  0.42395000  0.84790000  0.54150000  1.0 -0.203219468
C  C48  1  0.42395000  0.57605000  0.54150000  1.0 -0.203219468
C  C49  1  0.48730000  0.97460000  0.25370000  1.0 -0.2053806622
C  C50  1  0.02540000  0.51270000  0.25370000  1.0 -0.2053806622
C  C51  1  0.48730000  0.51270000  0.25370000  1.0 -0.2053806622
C  C52  1  0.51270000  0.02540000  0.25370000  1.0 -0.2053806622
C  C53  1  0.97460000  0.48730000  0.25370000  1.0 -0.203219468
C  C54  1  0.51270000  0.48730000  0.25370000  1.0 -0.2053806622
C  C55  1  0.97460000  0.48730000  0.74630000  1.0 -0.203219468
C  C56  1  0.51270000  0.02540000  0.74630000  1.0 -0.2053806622
C  C57  1  0.51270000  0.48730000  0.74630000  1.0 -0.2053806622
C  C58  1  0.02540000  0.51270000  0.74630000  1.0 -0.2053806622
C  C59  1  0.48730000  0.97460000  0.74630000  1.0 -0.2053806622
C  C60  1  0.48730000  0.51270000  0.74630000  1.0 -0.2053806622
C  C61  1  0.37180000  0.81850000  0.20530000  1.0 -0.0925453037
C  C62  1  0.18150000  0.55330000  0.20530000  1.0 -0.0925453037
C  C63  1  0.44670000  0.62820000  0.20530000  1.0 -0.0925453037
C  C64  1  0.62820000  0.18150000  0.20530000  1.0 -0.0925453037
C  C65  1  0.81850000  0.44670000  0.20530000  1.0 -0.0925453037
C  C66  1  0.55330000  0.37180000  0.20530000  1.0 -0.0925453037
C  C67  1  0.81850000  0.37180000  0.79470000  1.0 -0.0925453037
C  C68  1  0.55330000  0.18150000  0.79470000  1.0 -0.0925453037
C  C69  1  0.62820000  0.44670000  0.79470000  1.0 -0.0925453037
C  C70  1  0.18150000  0.62820000  0.79470000  1.0 -0.0925453037
C  C71  1  0.44670000  0.81850000  0.79470000  1.0 -0.0925453037
C  C72  1  0.37180000  0.55330000  0.79470000  1.0 -0.0925453037
C  C73  1  0.62820000  0.18150000  0.79470000  1.0 -0.0925453037
C  C74  1  0.81850000  0.44670000  0.79470000  1.0 -0.0925453037
C  C75  1  0.55330000  0.37180000  0.79470000  1.0 -0.0925453037
C  C76  1  0.37180000  0.81850000  0.79470000  1.0 -0.0925453037
C  C77  1  0.18150000  0.55330000  0.79470000  1.0 -0.0925453037
C  C78  1  0.44670000  0.62820000  0.79470000  1.0 -0.0925453037
C  C79  1  0.18150000  0.62820000  0.20530000  1.0 -0.0925453037
C  C80  1  0.44670000  0.81850000  0.20530000  1.0 -0.0925453037
C  C81  1  0.37180000  0.55330000  0.20530000  1.0 -0.0925453037
C  C82  1  0.81850000  0.37180000  0.20530000  1.0 -0.0925453037
C  C83  1  0.55330000  0.18150000  0.20530000  1.0 -0.0925453037
C  C84  1  0.62820000  0.44670000  0.20530000  1.0 -0.0925453037
C  C85  1  0.38800000  0.85400000  0.26460000  1.0 -0.1697938829
C  C86  1  0.14600000  0.53400000  0.26460000  1.0 -0.1697938829
C  C87  1  0.46600000  0.61200000  0.26460000  1.0 -0.1697938829
C  C88  1  0.61200000  0.14600000  0.26460000  1.0 -0.1697938829
C  C89  1  0.85400000  0.46600000  0.26460000  1.0 -0.1697938829
C  C90  1  0.53400000  0.38800000  0.26460000  1.0 -0.1697938829
C  C91  1  0.85400000  0.38800000  0.73540000  1.0 -0.1697938829
C  C92  1  0.53400000  0.14600000  0.73540000  1.0 -0.1697938829
C  C93  1  0.61200000  0.46600000  0.73540000  1.0 -0.1697938829
C  C94  1  0.14600000  0.61200000  0.73540000  1.0 -0.1697938829
C  C95  1  0.46600000  0.85400000  0.73540000  1.0 -0.1697938829
C  C96  1  0.38800000  0.53400000  0.73540000  1.0 -0.1697938829
C  C97  1  0.61200000  0.14600000  0.73540000  1.0 -0.1697938829
C  C98  1  0.85400000  0.46600000  0.73540000  1.0 -0.1697938829
C  C99  1  0.53400000  0.38800000  0.73540000  1.0 -0.1697938829
C  C100  1  0.38800000  0.85400000  0.73540000  1.0 -0.1697938829
C  C101  1  0.14600000  0.53400000  0.73540000  1.0 -0.1697938829
C  C102  1  0.46600000  0.61200000  0.73540000  1.0 -0.1697938829
C  C103  1  0.14600000  0.61200000  0.26460000  1.0 -0.1697938829
C  C104  1  0.46600000  0.85400000  0.26460000  1.0 -0.1697938829
C  C105  1  0.38800000  0.53400000  0.26460000  1.0 -0.1697938829
C  C106  1  0.85400000  0.38800000  0.26460000  1.0 -0.1697938829
C  C107  1  0.53400000  0.14600000  0.26460000  1.0 -0.1697938829
C  C108  1  0.61200000  0.46600000  0.26460000  1.0 -0.1697938829
C  C109  1  0.43600000  0.87200000  0.29350000  1.0 0.0942356678
C  C110  1  0.12800000  0.56400000  0.29350000  1.0 0.0942356678
C  C111  1  0.43600000  0.56400000  0.29350000  1.0 0.0942356678
C  C112  1  0.56400000  0.12800000  0.29350000  1.0 0.0942356678
C  C113  1  0.87200000  0.43600000  0.29350000  1.0 0.0942356678
C  C114  1  0.56400000  0.43600000  0.29350000  1.0 0.0942356678
C  C115  1  0.87200000  0.43600000  0.70650000  1.0 0.0942356678
C  C116  1  0.56400000  0.12800000  0.70650000  1.0 0.0942356678
C  C117  1  0.56400000  0.43600000  0.70650000  1.0 0.0942356678
C  C118  1  0.12800000  0.56400000  0.70650000  1.0 0.0942356678
C  C119  1  0.43600000  0.87200000  0.70650000  1.0 0.0942356678
C  C120  1  0.43600000  0.56400000  0.70650000  1.0 0.0942356678
C  C121  1  0.40070000  0.80140000  0.17560000  1.0 -0.0368518386
C  C122  1  0.19860000  0.59930000  0.17560000  1.0 -0.0368518386
C  C123  1  0.40070000  0.59930000  0.17560000  1.0 -0.0368518386
C  C124  1  0.59930000  0.19860000  0.17560000  1.0 -0.0368518386
C  C125  1  0.80140000  0.40070000  0.17560000  1.0 -0.0368518386
C  C126  1  0.59930000  0.40070000  0.17560000  1.0 -0.0368518386
C  C127  1  0.80140000  0.40070000  0.82440000  1.0 -0.0368518386
C  C128  1  0.59930000  0.19860000  0.82440000  1.0 -0.0368518386
C  C129  1  0.59930000  0.40070000  0.82440000  1.0 -0.0368518386
C  C130  1  0.19860000  0.59930000  0.82440000  1.0 -0.0368518386
C  C131  1  0.40070000  0.80140000  0.82440000  1.0 -0.0368518386
C  C132  1  0.40070000  0.59930000  0.82440000  1.0 -0.0368518386
C  C133  1  0.38160000  0.76320000  0.10810000  1.0 0.5962180953
C  C134  1  0.23680000  0.61840000  0.10810000  1.0 0.5962180953
C  C135  1  0.38160000  0.61840000  0.10810000  1.0 0.5962180953
C  C136  1  0.61840000  0.23680000  0.10810000  1.0 0.5962180953
C  C137  1  0.76320000  0.38160000  0.10810000  1.0 0.5962180953
C  C138  1  0.61840000  0.38160000  0.10810000  1.0 0.5962180953
C  C139  1  0.76320000  0.38160000  0.89190000  1.0 0.5962180953
C  C140  1  0.61840000  0.23680000  0.89190000  1.0 0.5962180953
C  C141  1  0.61840000  0.38160000  0.89190000  1.0 0.5962180953
C  C142  1  0.23680000  0.61840000  0.89190000  1.0 0.5962180953
C  C143  1  0.38160000  0.76320000  0.89190000  1.0 0.5962180953
C  C144  1  0.38160000  0.61840000  0.89190000  1.0 0.5962180953
N  N1  1  0.46380000  0.92760000  0.50000000  1.0 -0.3060762474
N  N2  1  0.07240000  0.53620000  0.50000000  1.0 -0.3060762474
N  N3  1  0.46380000  0.53620000  0.50000000  1.0 -0.3060762474
N  N4  1  0.53620000  0.07240000  0.50000000  1.0 -0.3060762474
N  N5  1  0.92760000  0.46380000  0.50000000  1.0 -0.3060762474
N  N6  1  0.53620000  0.46380000  0.50000000  1.0 -0.3060762474
N  N7  1  0.50000000  0.00000000  0.38250000  1.0 -0.2922277192
N  N8  1  0.00000000  0.50000000  0.38250000  1.0 -0.2922277192
N  N9  1  0.50000000  0.50000000  0.38250000  1.0 -0.2922277192
N  N10  1  0.00000000  0.50000000  0.61750000  1.0 -0.2922277192
N  N11  1  0.50000000  0.00000000  0.61750000  1.0 -0.2922277192
N  N12  1  0.50000000  0.50000000  0.61750000  1.0 -0.2922277192
O  O1  1  0.33333333  0.66666667  0.00000000  1.0 -0.8645404418
O  O2  1  0.66666667  0.33333333  0.00000000  1.0 -0.8681776364
O  O3  1  0.33959000  0.74927000  0.08470000  1.0 -0.5182712838
O  O4  1  0.25073000  0.59032000  0.08470000  1.0 -0.5182712838
O  O5  1  0.40968000  0.66041000  0.08470000  1.0 -0.5182712838
O  O6  1  0.66041000  0.25073000  0.08470000  1.0 -0.5182712838
O  O7  1  0.74927000  0.40968000  0.08470000  1.0 -0.5182712838
O  O8  1  0.59032000  0.33959000  0.08470000  1.0 -0.5182712838
O  O9  1  0.74927000  0.33959000  0.91530000  1.0 -0.5182712838
O  O10  1  0.59032000  0.25073000  0.91530000  1.0 -0.5182712838
O  O11  1  0.66041000  0.40968000  0.91530000  1.0 -0.5182712838
O  O12  1  0.25073000  0.66041000  0.91530000  1.0 -0.5182712838
O  O13  1  0.40968000  0.74927000  0.91530000  1.0 -0.5182712838
O  O14  1  0.33959000  0.59032000  0.91530000  1.0 -0.5182712838
O  O15  1  0.66041000  0.25073000  0.91530000  1.0 -0.5182712838
O  O16  1  0.74927000  0.40968000  0.91530000  1.0 -0.5182712838
O  O17  1  0.59032000  0.33959000  0.91530000  1.0 -0.5182712838
O  O18  1  0.33959000  0.74927000  0.91530000  1.0 -0.5182712838
O  O19  1  0.25073000  0.59032000  0.91530000  1.0 -0.5182712838
O  O20  1  0.40968000  0.66041000  0.91530000  1.0 -0.5182712838
O  O21  1  0.25073000  0.66041000  0.08470000  1.0 -0.5182712838
O  O22  1  0.40968000  0.74927000  0.08470000  1.0 -0.5182712838
O  O23  1  0.33959000  0.59032000  0.08470000  1.0 -0.5182712838
O  O24  1  0.74927000  0.33959000  0.08470000  1.0 -0.5182712838
O  O25  1  0.59032000  0.25073000  0.08470000  1.0 -0.5182712838
O  O26  1  0.66041000  0.40968000  0.08470000  1.0 -0.5182712838
