# DDEC6 charges by PACMAN v1.1 (https://github.com/mtap-research/PACMAN-charge/)
data_DAKVUI_ASR_pacman
_symmetry_space_group_name_H-M   'P 1'
_cell_length_a   12.29700000
_cell_length_b   26.05700000
_cell_length_c   26.08400000
_cell_angle_alpha   90.00000000
_cell_angle_beta   90.00000000
_cell_angle_gamma   90.00000000
_symmetry_Int_Tables_number   1
_chemical_formula_structural   Cu4H20C37O20
_chemical_formula_sum   'Cu16 H80 C148 O80'
_cell_volume   8357.91168004
_cell_formula_units_Z   4
loop_
 _symmetry_equiv_pos_site_id
 _symmetry_equiv_pos_as_xyz
  1  'x, y, z'
loop_
 _atom_site_type_symbol
 _atom_site_label
 _atom_site_symmetry_multiplicity
 _atom_site_fract_x
 _atom_site_fract_y
 _atom_site_fract_z
 _atom_site_occupancy
 _atom_site_charge
Cu  Cu1  1  0.14653000  0.22428000  0.25000000  1.0 0.848021659
Cu  Cu2  1  0.85347000  0.77572000  0.75000000  1.0 0.848021659
Cu  Cu3  1  0.14653000  0.27572000  0.75000000  1.0 0.848021659
Cu  Cu4  1  0.85347000  0.72428000  0.25000000  1.0 0.848021659
Cu  Cu5  1  0.99600000  0.29698000  0.25000000  1.0 0.8725344865
Cu  Cu6  1  0.00400000  0.70302000  0.75000000  1.0 0.8725344865
Cu  Cu7  1  0.99600000  0.20302000  0.75000000  1.0 0.8725344865
Cu  Cu8  1  0.00400000  0.79698000  0.25000000  1.0 0.8725344865
Cu  Cu9  1  0.92587000  0.49360000  0.03637000  1.0 0.8642223132
Cu  Cu10  1  0.07413000  0.50640000  0.53637000  1.0 0.8642223132
Cu  Cu11  1  0.92587000  0.00640000  0.96363000  1.0 0.8642223132
Cu  Cu12  1  0.07413000  0.99360000  0.46363000  1.0 0.8642223132
Cu  Cu13  1  0.07413000  0.50640000  0.96363000  1.0 0.8642223132
Cu  Cu14  1  0.92587000  0.49360000  0.46363000  1.0 0.8642223132
Cu  Cu15  1  0.07413000  0.99360000  0.03637000  1.0 0.8642223132
Cu  Cu16  1  0.92587000  0.00640000  0.53637000  1.0 0.8642223132
H  H1  1  0.79140000  0.24440000  0.13300000  1.0 0.1497876244
H  H2  1  0.20860000  0.75560000  0.63300000  1.0 0.1497876244
H  H3  1  0.79140000  0.25560000  0.86700000  1.0 0.1497876244
H  H4  1  0.20860000  0.74440000  0.36700000  1.0 0.1497876244
H  H5  1  0.20860000  0.75560000  0.86700000  1.0 0.1497876244
H  H6  1  0.79140000  0.24440000  0.36700000  1.0 0.1497876244
H  H7  1  0.20860000  0.74440000  0.13300000  1.0 0.1497876244
H  H8  1  0.79140000  0.25560000  0.63300000  1.0 0.1497876244
H  H9  1  0.75430000  0.13270000  0.02870000  1.0 0.1335856197
H  H10  1  0.24570000  0.86730000  0.52870000  1.0 0.1335856197
H  H11  1  0.75430000  0.36730000  0.97130000  1.0 0.1335856197
H  H12  1  0.24570000  0.63270000  0.47130000  1.0 0.1335856197
H  H13  1  0.24570000  0.86730000  0.97130000  1.0 0.1335856197
H  H14  1  0.75430000  0.13270000  0.47130000  1.0 0.1335856197
H  H15  1  0.24570000  0.63270000  0.02870000  1.0 0.1335856197
H  H16  1  0.75430000  0.36730000  0.52870000  1.0 0.1335856197
H  H17  1  0.00020000  0.12490000  0.13110000  1.0 0.1449230788
H  H18  1  0.99980000  0.87510000  0.63110000  1.0 0.1449230788
H  H19  1  0.00020000  0.37510000  0.86890000  1.0 0.1449230788
H  H20  1  0.99980000  0.62490000  0.36890000  1.0 0.1449230788
H  H21  1  0.99980000  0.87510000  0.86890000  1.0 0.1449230788
H  H22  1  0.00020000  0.12490000  0.36890000  1.0 0.1449230788
H  H23  1  0.99980000  0.62490000  0.13110000  1.0 0.1449230788
H  H24  1  0.00020000  0.37510000  0.63110000  1.0 0.1449230788
H  H25  1  0.57070000  0.17550000  0.02540000  1.0 0.1074638506
H  H26  1  0.42930000  0.82450000  0.52540000  1.0 0.1074638506
H  H27  1  0.57070000  0.32450000  0.97460000  1.0 0.1074638506
H  H28  1  0.42930000  0.67550000  0.47460000  1.0 0.1074638506
H  H29  1  0.42930000  0.82450000  0.97460000  1.0 0.1074638506
H  H30  1  0.57070000  0.17550000  0.47460000  1.0 0.1074638506
H  H31  1  0.42930000  0.67550000  0.02540000  1.0 0.1074638506
H  H32  1  0.57070000  0.32450000  0.52540000  1.0 0.1074638506
H  H33  1  0.66490000  0.19550000  0.98970000  1.0 0.1046402873
H  H34  1  0.33510000  0.80450000  0.48970000  1.0 0.1046402873
H  H35  1  0.66490000  0.30450000  0.01030000  1.0 0.1046402873
H  H36  1  0.33510000  0.69550000  0.51030000  1.0 0.1046402873
H  H37  1  0.33510000  0.80450000  0.01030000  1.0 0.1046402873
H  H38  1  0.66490000  0.19550000  0.51030000  1.0 0.1046402873
H  H39  1  0.33510000  0.69550000  0.98970000  1.0 0.1046402873
H  H40  1  0.66490000  0.30450000  0.48970000  1.0 0.1046402873
H  H41  1  0.42300000  0.25980000  0.94520000  1.0 0.1046402873
H  H42  1  0.57700000  0.74020000  0.44520000  1.0 0.1046402873
H  H43  1  0.42300000  0.24020000  0.05480000  1.0 0.1046402873
H  H44  1  0.57700000  0.75980000  0.55480000  1.0 0.1046402873
H  H45  1  0.57700000  0.74020000  0.05480000  1.0 0.1046402873
H  H46  1  0.42300000  0.25980000  0.55480000  1.0 0.1046402873
H  H47  1  0.57700000  0.75980000  0.94520000  1.0 0.1046402873
H  H48  1  0.42300000  0.24020000  0.44520000  1.0 0.1046402873
H  H49  1  0.51850000  0.22470000  0.92550000  1.0 0.1074638506
H  H50  1  0.48150000  0.77530000  0.42550000  1.0 0.1074638506
H  H51  1  0.51850000  0.27530000  0.07450000  1.0 0.1074638506
H  H52  1  0.48150000  0.72470000  0.57450000  1.0 0.1074638506
H  H53  1  0.48150000  0.77530000  0.07450000  1.0 0.1074638506
H  H54  1  0.51850000  0.22470000  0.57450000  1.0 0.1074638506
H  H55  1  0.48150000  0.72470000  0.92550000  1.0 0.1074638506
H  H56  1  0.51850000  0.27530000  0.42550000  1.0 0.1074638506
H  H57  1  0.33970000  0.21840000  0.88100000  1.0 0.1335856197
H  H58  1  0.66030000  0.78160000  0.38100000  1.0 0.1335856197
H  H59  1  0.33970000  0.28160000  0.11900000  1.0 0.1335856197
H  H60  1  0.66030000  0.71840000  0.61900000  1.0 0.1335856197
H  H61  1  0.66030000  0.78160000  0.11900000  1.0 0.1335856197
H  H62  1  0.33970000  0.21840000  0.61900000  1.0 0.1335856197
H  H63  1  0.66030000  0.71840000  0.88100000  1.0 0.1335856197
H  H64  1  0.33970000  0.28160000  0.38100000  1.0 0.1335856197
H  H65  1  0.09740000  0.11460000  0.87200000  1.0 0.1497876244
H  H66  1  0.90260000  0.88540000  0.37200000  1.0 0.1497876244
H  H67  1  0.09740000  0.38540000  0.12800000  1.0 0.1497876244
H  H68  1  0.90260000  0.61460000  0.62800000  1.0 0.1497876244
H  H69  1  0.90260000  0.88540000  0.12800000  1.0 0.1497876244
H  H70  1  0.09740000  0.11460000  0.62800000  1.0 0.1497876244
H  H71  1  0.90260000  0.61460000  0.87200000  1.0 0.1497876244
H  H72  1  0.09740000  0.38540000  0.37200000  1.0 0.1497876244
H  H73  1  0.30130000  0.11350000  0.99280000  1.0 0.1497876244
H  H74  1  0.69870000  0.88650000  0.49280000  1.0 0.1497876244
H  H75  1  0.30130000  0.38650000  0.00720000  1.0 0.1497876244
H  H76  1  0.69870000  0.61350000  0.50720000  1.0 0.1497876244
H  H77  1  0.69870000  0.88650000  0.00720000  1.0 0.1497876244
H  H78  1  0.30130000  0.11350000  0.50720000  1.0 0.1497876244
H  H79  1  0.69870000  0.61350000  0.99280000  1.0 0.1497876244
H  H80  1  0.30130000  0.38650000  0.49280000  1.0 0.1497876244
C  C1  1  0.96680000  0.21350000  0.18180000  1.0 0.5819539555
C  C2  1  0.03320000  0.78650000  0.68180000  1.0 0.5819539555
C  C3  1  0.96680000  0.28650000  0.81820000  1.0 0.5819539555
C  C4  1  0.03320000  0.71350000  0.31820000  1.0 0.5819539555
C  C5  1  0.03320000  0.78650000  0.81820000  1.0 0.5819539555
C  C6  1  0.96680000  0.21350000  0.31820000  1.0 0.5819539555
C  C7  1  0.03320000  0.71350000  0.18180000  1.0 0.5819539555
C  C8  1  0.96680000  0.28650000  0.68180000  1.0 0.5819539555
C  C9  1  0.90540000  0.18830000  0.13890000  1.0 0.0032968285
C  C10  1  0.09460000  0.81170000  0.63890000  1.0 0.0032968285
C  C11  1  0.90540000  0.31170000  0.86110000  1.0 0.0032968285
C  C12  1  0.09460000  0.68830000  0.36110000  1.0 0.0032968285
C  C13  1  0.09460000  0.81170000  0.86110000  1.0 0.0032968285
C  C14  1  0.90540000  0.18830000  0.36110000  1.0 0.0032968285
C  C15  1  0.09460000  0.68830000  0.13890000  1.0 0.0032968285
C  C16  1  0.90540000  0.31170000  0.63890000  1.0 0.0032968285
C  C17  1  0.81420000  0.21350000  0.11880000  1.0 -0.2231944176
C  C18  1  0.18580000  0.78650000  0.61880000  1.0 -0.2231944176
C  C19  1  0.81420000  0.28650000  0.88120000  1.0 -0.2231944176
C  C20  1  0.18580000  0.71350000  0.38120000  1.0 -0.2231944176
C  C21  1  0.18580000  0.78650000  0.88120000  1.0 -0.2231944176
C  C22  1  0.81420000  0.21350000  0.38120000  1.0 -0.2231944176
C  C23  1  0.18580000  0.71350000  0.11880000  1.0 -0.2231944176
C  C24  1  0.81420000  0.28650000  0.61880000  1.0 -0.2231944176
C  C25  1  0.75790000  0.19250000  0.07790000  1.0 0.2615344403
C  C26  1  0.24210000  0.80750000  0.57790000  1.0 0.2615344403
C  C27  1  0.75790000  0.30750000  0.92210000  1.0 0.2615344403
C  C28  1  0.24210000  0.69250000  0.42210000  1.0 0.2615344403
C  C29  1  0.24210000  0.80750000  0.92210000  1.0 0.2615344403
C  C30  1  0.75790000  0.19250000  0.42210000  1.0 0.2615344403
C  C31  1  0.24210000  0.69250000  0.07790000  1.0 0.2615344403
C  C32  1  0.75790000  0.30750000  0.57790000  1.0 0.2615344403
C  C33  1  0.79160000  0.14650000  0.05650000  1.0 -0.2491611662
C  C34  1  0.20840000  0.85350000  0.55650000  1.0 -0.2491611662
C  C35  1  0.79160000  0.35350000  0.94350000  1.0 -0.2491611662
C  C36  1  0.20840000  0.64650000  0.44350000  1.0 -0.2491611662
C  C37  1  0.20840000  0.85350000  0.94350000  1.0 -0.2491611662
C  C38  1  0.79160000  0.14650000  0.44350000  1.0 -0.2491611662
C  C39  1  0.20840000  0.64650000  0.05650000  1.0 -0.2491611662
C  C40  1  0.79160000  0.35350000  0.55650000  1.0 -0.2491611662
C  C41  1  0.88190000  0.12090000  0.07670000  1.0 0.0082540506
C  C42  1  0.11810000  0.87910000  0.57670000  1.0 0.0082540506
C  C43  1  0.88190000  0.37910000  0.92330000  1.0 0.0082540506
C  C44  1  0.11810000  0.62090000  0.42330000  1.0 0.0082540506
C  C45  1  0.11810000  0.87910000  0.92330000  1.0 0.0082540506
C  C46  1  0.88190000  0.12090000  0.42330000  1.0 0.0082540506
C  C47  1  0.11810000  0.62090000  0.07670000  1.0 0.0082540506
C  C48  1  0.88190000  0.37910000  0.57670000  1.0 0.0082540506
C  C49  1  0.93980000  0.14180000  0.11790000  1.0 -0.1385902586
C  C50  1  0.06020000  0.85820000  0.61790000  1.0 -0.1385902586
C  C51  1  0.93980000  0.35820000  0.88210000  1.0 -0.1385902586
C  C52  1  0.06020000  0.64180000  0.38210000  1.0 -0.1385902586
C  C53  1  0.06020000  0.85820000  0.88210000  1.0 -0.1385902586
C  C54  1  0.93980000  0.14180000  0.38210000  1.0 -0.1385902586
C  C55  1  0.06020000  0.64180000  0.11790000  1.0 -0.1385902586
C  C56  1  0.93980000  0.35820000  0.61790000  1.0 -0.1385902586
C  C57  1  0.92230000  0.07300000  0.05120000  1.0 0.5819539555
C  C58  1  0.07770000  0.92700000  0.55120000  1.0 0.5819539555
C  C59  1  0.92230000  0.42700000  0.94880000  1.0 0.5819539555
C  C60  1  0.07770000  0.57300000  0.44880000  1.0 0.5819539555
C  C61  1  0.07770000  0.92700000  0.94880000  1.0 0.5819539555
C  C62  1  0.92230000  0.07300000  0.44880000  1.0 0.5819539555
C  C63  1  0.07770000  0.57300000  0.05120000  1.0 0.5819539555
C  C64  1  0.92230000  0.42700000  0.55120000  1.0 0.5819539555
C  C65  1  0.61520000  0.20500000  0.01690000  1.0 -0.0828924934
C  C66  1  0.38480000  0.79500000  0.51690000  1.0 -0.0828924934
C  C67  1  0.61520000  0.29500000  0.98310000  1.0 -0.0828924934
C  C68  1  0.38480000  0.70500000  0.48310000  1.0 -0.0828924934
C  C69  1  0.38480000  0.79500000  0.98310000  1.0 -0.0828924934
C  C70  1  0.61520000  0.20500000  0.48310000  1.0 -0.0828924934
C  C71  1  0.38480000  0.70500000  0.01690000  1.0 -0.0828924934
C  C72  1  0.61520000  0.29500000  0.51690000  1.0 -0.0828924934
C  C73  1  0.54340000  0.25000000  0.00000000  1.0 0.0483389487
C  C74  1  0.45660000  0.75000000  0.50000000  1.0 0.0483389487
C  C75  1  0.45660000  0.75000000  0.00000000  1.0 0.0483389487
C  C76  1  0.54340000  0.25000000  0.50000000  1.0 0.0483389487
C  C77  1  0.47330000  0.23290000  0.95480000  1.0 -0.0828924934
C  C78  1  0.52670000  0.76710000  0.45480000  1.0 -0.0828924934
C  C79  1  0.47330000  0.26710000  0.04520000  1.0 -0.0828924934
C  C80  1  0.52670000  0.73290000  0.54520000  1.0 -0.0828924934
C  C81  1  0.52670000  0.76710000  0.04520000  1.0 -0.0828924934
C  C82  1  0.47330000  0.23290000  0.54520000  1.0 -0.0828924934
C  C83  1  0.52670000  0.73290000  0.95480000  1.0 -0.0828924934
C  C84  1  0.47330000  0.26710000  0.45480000  1.0 -0.0828924934
C  C85  1  0.33350000  0.16980000  0.94180000  1.0 0.2615344403
C  C86  1  0.66650000  0.83020000  0.44180000  1.0 0.2615344403
C  C87  1  0.33350000  0.33020000  0.05820000  1.0 0.2615344403
C  C88  1  0.66650000  0.66980000  0.55820000  1.0 0.2615344403
C  C89  1  0.66650000  0.83020000  0.05820000  1.0 0.2615344403
C  C90  1  0.33350000  0.16980000  0.55820000  1.0 0.2615344403
C  C91  1  0.66650000  0.66980000  0.94180000  1.0 0.2615344403
C  C92  1  0.33350000  0.33020000  0.44180000  1.0 0.2615344403
C  C93  1  0.30200000  0.19080000  0.89500000  1.0 -0.2419836196
C  C94  1  0.69800000  0.80920000  0.39500000  1.0 -0.2419836196
C  C95  1  0.30200000  0.30920000  0.10500000  1.0 -0.2419836196
C  C96  1  0.69800000  0.69080000  0.60500000  1.0 -0.2419836196
C  C97  1  0.69800000  0.80920000  0.10500000  1.0 -0.2419836196
C  C98  1  0.30200000  0.19080000  0.60500000  1.0 -0.2419836196
C  C99  1  0.69800000  0.69080000  0.89500000  1.0 -0.2419836196
C  C100  1  0.30200000  0.30920000  0.39500000  1.0 -0.2419836196
C  C101  1  0.21320000  0.16980000  0.86950000  1.0 0.0082540506
C  C102  1  0.78680000  0.83020000  0.36950000  1.0 0.0082540506
C  C103  1  0.21320000  0.33020000  0.13050000  1.0 0.0082540506
C  C104  1  0.78680000  0.66980000  0.63050000  1.0 0.0082540506
C  C105  1  0.78680000  0.83020000  0.13050000  1.0 0.0082540506
C  C106  1  0.21320000  0.16980000  0.63050000  1.0 0.0082540506
C  C107  1  0.78680000  0.66980000  0.86950000  1.0 0.0082540506
C  C108  1  0.21320000  0.33020000  0.36950000  1.0 0.0082540506
C  C109  1  0.15700000  0.12810000  0.88940000  1.0 -0.132057135
C  C110  1  0.84300000  0.87190000  0.38940000  1.0 -0.132057135
C  C111  1  0.15700000  0.37190000  0.11060000  1.0 -0.132057135
C  C112  1  0.84300000  0.62810000  0.61060000  1.0 -0.132057135
C  C113  1  0.84300000  0.87190000  0.11060000  1.0 -0.132057135
C  C114  1  0.15700000  0.12810000  0.61060000  1.0 -0.132057135
C  C115  1  0.84300000  0.62810000  0.88940000  1.0 -0.132057135
C  C116  1  0.15700000  0.37190000  0.38940000  1.0 -0.132057135
C  C117  1  0.19120000  0.10680000  0.93570000  1.0 0.0032968285
C  C118  1  0.80880000  0.89320000  0.43570000  1.0 0.0032968285
C  C119  1  0.19120000  0.39320000  0.06430000  1.0 0.0032968285
C  C120  1  0.80880000  0.60680000  0.56430000  1.0 0.0032968285
C  C121  1  0.80880000  0.89320000  0.06430000  1.0 0.0032968285
C  C122  1  0.19120000  0.10680000  0.56430000  1.0 0.0032968285
C  C123  1  0.80880000  0.60680000  0.93570000  1.0 0.0032968285
C  C124  1  0.19120000  0.39320000  0.43570000  1.0 0.0032968285
C  C125  1  0.27900000  0.12770000  0.96180000  1.0 -0.2145575257
C  C126  1  0.72100000  0.87230000  0.46180000  1.0 -0.2145575257
C  C127  1  0.27900000  0.37230000  0.03820000  1.0 -0.2145575257
C  C128  1  0.72100000  0.62770000  0.53820000  1.0 -0.2145575257
C  C129  1  0.72100000  0.87230000  0.03820000  1.0 -0.2145575257
C  C130  1  0.27900000  0.12770000  0.53820000  1.0 -0.2145575257
C  C131  1  0.72100000  0.62770000  0.96180000  1.0 -0.2145575257
C  C132  1  0.27900000  0.37230000  0.46180000  1.0 -0.2145575257
C  C133  1  0.17000000  0.19390000  0.82090000  1.0 0.5851838318
C  C134  1  0.83000000  0.80610000  0.32090000  1.0 0.5851838318
C  C135  1  0.17000000  0.30610000  0.17910000  1.0 0.5851838318
C  C136  1  0.83000000  0.69390000  0.67910000  1.0 0.5851838318
C  C137  1  0.83000000  0.80610000  0.17910000  1.0 0.5851838318
C  C138  1  0.17000000  0.19390000  0.67910000  1.0 0.5851838318
C  C139  1  0.83000000  0.69390000  0.82090000  1.0 0.5851838318
C  C140  1  0.17000000  0.30610000  0.32090000  1.0 0.5851838318
C  C141  1  0.12560000  0.06420000  0.95950000  1.0 0.5819539555
C  C142  1  0.87440000  0.93580000  0.45950000  1.0 0.5819539555
C  C143  1  0.12560000  0.43580000  0.04050000  1.0 0.5819539555
C  C144  1  0.87440000  0.56420000  0.54050000  1.0 0.5819539555
C  C145  1  0.87440000  0.93580000  0.04050000  1.0 0.5819539555
C  C146  1  0.12560000  0.06420000  0.54050000  1.0 0.5819539555
C  C147  1  0.87440000  0.56420000  0.95950000  1.0 0.5819539555
C  C148  1  0.12560000  0.43580000  0.45950000  1.0 0.5819539555
O  O1  1  0.05240000  0.19224000  0.19689000  1.0 -0.5091350498
O  O2  1  0.94760000  0.80776000  0.69689000  1.0 -0.5091350498
O  O3  1  0.05240000  0.30776000  0.80311000  1.0 -0.5091350498
O  O4  1  0.94760000  0.69224000  0.30311000  1.0 -0.5091350498
O  O5  1  0.94760000  0.80776000  0.80311000  1.0 -0.5091350498
O  O6  1  0.05240000  0.19224000  0.30311000  1.0 -0.5091350498
O  O7  1  0.94760000  0.69224000  0.19689000  1.0 -0.5091350498
O  O8  1  0.05240000  0.30776000  0.69689000  1.0 -0.5091350498
O  O9  1  0.92870000  0.25530000  0.19760000  1.0 -0.5299250232
O  O10  1  0.07130000  0.74470000  0.69760000  1.0 -0.5299250232
O  O11  1  0.92870000  0.24470000  0.80240000  1.0 -0.5299250232
O  O12  1  0.07130000  0.75530000  0.30240000  1.0 -0.5299250232
O  O13  1  0.07130000  0.74470000  0.80240000  1.0 -0.5299250232
O  O14  1  0.92870000  0.25530000  0.30240000  1.0 -0.5299250232
O  O15  1  0.07130000  0.75530000  0.19760000  1.0 -0.5299250232
O  O16  1  0.92870000  0.24470000  0.69760000  1.0 -0.5299250232
O  O17  1  0.00220000  0.05097000  0.07124000  1.0 -0.5091350498
O  O18  1  0.99780000  0.94903000  0.57124000  1.0 -0.5091350498
O  O19  1  0.00220000  0.44903000  0.92876000  1.0 -0.5091350498
O  O20  1  0.99780000  0.55097000  0.42876000  1.0 -0.5091350498
O  O21  1  0.99780000  0.94903000  0.92876000  1.0 -0.5091350498
O  O22  1  0.00220000  0.05097000  0.42876000  1.0 -0.5091350498
O  O23  1  0.99780000  0.55097000  0.07124000  1.0 -0.5091350498
O  O24  1  0.00220000  0.44903000  0.57124000  1.0 -0.5091350498
O  O25  1  0.87530000  0.06045000  0.01033000  1.0 -0.5299250232
O  O26  1  0.12470000  0.93955000  0.51033000  1.0 -0.5299250232
O  O27  1  0.87530000  0.43955000  0.98967000  1.0 -0.5299250232
O  O28  1  0.12470000  0.56045000  0.48967000  1.0 -0.5299250232
O  O29  1  0.12470000  0.93955000  0.98967000  1.0 -0.5299250232
O  O30  1  0.87530000  0.06045000  0.48967000  1.0 -0.5299250232
O  O31  1  0.12470000  0.56045000  0.01033000  1.0 -0.5299250232
O  O32  1  0.87530000  0.43955000  0.51033000  1.0 -0.5299250232
O  O33  1  0.67450000  0.22190000  0.06110000  1.0 -0.1986653554
O  O34  1  0.32550000  0.77810000  0.56110000  1.0 -0.1986653554
O  O35  1  0.67450000  0.27810000  0.93890000  1.0 -0.1986653554
O  O36  1  0.32550000  0.72190000  0.43890000  1.0 -0.1986653554
O  O37  1  0.32550000  0.77810000  0.93890000  1.0 -0.1986653554
O  O38  1  0.67450000  0.22190000  0.43890000  1.0 -0.1986653554
O  O39  1  0.32550000  0.72190000  0.06110000  1.0 -0.1986653554
O  O40  1  0.67450000  0.27810000  0.56110000  1.0 -0.1986653554
O  O41  1  0.41510000  0.18816000  0.97178000  1.0 -0.1986653554
O  O42  1  0.58490000  0.81184000  0.47178000  1.0 -0.1986653554
O  O43  1  0.41510000  0.31184000  0.02822000  1.0 -0.1986653554
O  O44  1  0.58490000  0.68816000  0.52822000  1.0 -0.1986653554
O  O45  1  0.58490000  0.81184000  0.02822000  1.0 -0.1986653554
O  O46  1  0.41510000  0.18816000  0.52822000  1.0 -0.1986653554
O  O47  1  0.58490000  0.68816000  0.97178000  1.0 -0.1986653554
O  O48  1  0.41510000  0.31184000  0.47178000  1.0 -0.1986653554
O  O49  1  0.21470000  0.23359000  0.80455000  1.0 -0.5091350498
O  O50  1  0.78530000  0.76641000  0.30455000  1.0 -0.5091350498
O  O51  1  0.21470000  0.26641000  0.19545000  1.0 -0.5091350498
O  O52  1  0.78530000  0.73359000  0.69545000  1.0 -0.5091350498
O  O53  1  0.78530000  0.76641000  0.19545000  1.0 -0.5091350498
O  O54  1  0.21470000  0.23359000  0.69545000  1.0 -0.5091350498
O  O55  1  0.78530000  0.73359000  0.80455000  1.0 -0.5091350498
O  O56  1  0.21470000  0.26641000  0.30455000  1.0 -0.5091350498
O  O57  1  0.08640000  0.17270000  0.80250000  1.0 -0.5205455494
O  O58  1  0.91360000  0.82730000  0.30250000  1.0 -0.5205455494
O  O59  1  0.08640000  0.32730000  0.19750000  1.0 -0.5205455494
O  O60  1  0.91360000  0.67270000  0.69750000  1.0 -0.5205455494
O  O61  1  0.91360000  0.82730000  0.19750000  1.0 -0.5205455494
O  O62  1  0.08640000  0.17270000  0.69750000  1.0 -0.5205455494
O  O63  1  0.91360000  0.67270000  0.80250000  1.0 -0.5205455494
O  O64  1  0.08640000  0.32730000  0.30250000  1.0 -0.5205455494
O  O65  1  0.03800000  0.05329000  0.93789000  1.0 -0.5205455494
O  O66  1  0.96200000  0.94671000  0.43789000  1.0 -0.5205455494
O  O67  1  0.03800000  0.44671000  0.06211000  1.0 -0.5205455494
O  O68  1  0.96200000  0.55329000  0.56211000  1.0 -0.5205455494
O  O69  1  0.96200000  0.94671000  0.06211000  1.0 -0.5205455494
O  O70  1  0.03800000  0.05329000  0.56211000  1.0 -0.5205455494
O  O71  1  0.96200000  0.55329000  0.93789000  1.0 -0.5205455494
O  O72  1  0.03800000  0.44671000  0.43789000  1.0 -0.5205455494
O  O73  1  0.16310000  0.04433000  0.99998000  1.0 -0.5205455494
O  O74  1  0.83690000  0.95567000  0.49998000  1.0 -0.5205455494
O  O75  1  0.16310000  0.45567000  0.00002000  1.0 -0.5205455494
O  O76  1  0.83690000  0.54433000  0.50002000  1.0 -0.5205455494
O  O77  1  0.83690000  0.95567000  0.00002000  1.0 -0.5205455494
O  O78  1  0.16310000  0.04433000  0.50002000  1.0 -0.5205455494
O  O79  1  0.83690000  0.54433000  0.99998000  1.0 -0.5205455494
O  O80  1  0.16310000  0.45567000  0.49998000  1.0 -0.5205455494
