# DDEC6 charges by PACMAN v1.1 (https://github.com/mtap-research/PACMAN-charge/)
data_DAKXIA_ASR_pacman
_symmetry_space_group_name_H-M   'P 1'
_cell_length_a   27.93900000
_cell_length_b   27.93900000
_cell_length_c   27.93900000
_cell_angle_alpha   109.30600000
_cell_angle_beta   109.30600000
_cell_angle_gamma   109.80300000
_symmetry_Int_Tables_number   1
_chemical_formula_structural   Cu2H11C25N7O8
_chemical_formula_sum   'Cu24 H132 C300 N84 O96'
_cell_volume   16787.85964215
_cell_formula_units_Z   12
loop_
 _symmetry_equiv_pos_site_id
 _symmetry_equiv_pos_as_xyz
  1  'x, y, z'
loop_
 _atom_site_type_symbol
 _atom_site_label
 _atom_site_symmetry_multiplicity
 _atom_site_fract_x
 _atom_site_fract_y
 _atom_site_fract_z
 _atom_site_occupancy
 _atom_site_charge
Cu  Cu1  1  0.29526000  0.03610000  0.79220000  1.0 0.7821446051
Cu  Cu2  1  0.34922000  0.15373000  0.84339000  1.0 0.8817367378
Cu  Cu3  1  0.24390000  0.50306000  0.20780000  1.0 0.7821446051
Cu  Cu4  1  0.31034000  0.50583000  0.15661000  1.0 0.8817367378
Cu  Cu5  1  0.03610000  0.24390000  0.74084000  1.0 0.7821446051
Cu  Cu6  1  0.15373000  0.31034000  0.80451000  1.0 0.8817367378
Cu  Cu7  1  0.50306000  0.29526000  0.25916000  1.0 0.7821446051
Cu  Cu8  1  0.50583000  0.34922000  0.19549000  1.0 0.8817367378
Cu  Cu9  1  0.70474000  0.96390000  0.20780000  1.0 0.7821446051
Cu  Cu10  1  0.65078000  0.84627000  0.15661000  1.0 0.8817367378
Cu  Cu11  1  0.75610000  0.49694000  0.79220000  1.0 0.7821446051
Cu  Cu12  1  0.68966000  0.49417000  0.84339000  1.0 0.8817367378
Cu  Cu13  1  0.96390000  0.75610000  0.25916000  1.0 0.7821446051
Cu  Cu14  1  0.84627000  0.68966000  0.19549000  1.0 0.8817367378
Cu  Cu15  1  0.49694000  0.70474000  0.74084000  1.0 0.7821446051
Cu  Cu16  1  0.49417000  0.65078000  0.80451000  1.0 0.8817367378
Cu  Cu17  1  0.30547000  0.66038000  0.96585000  1.0 0.8729303767
Cu  Cu18  1  0.23967000  0.71155000  0.95122000  1.0 0.7570772608
Cu  Cu19  1  0.69453000  0.33962000  0.03415000  1.0 0.8729303767
Cu  Cu20  1  0.76033000  0.28845000  0.04878000  1.0 0.7570772608
Cu  Cu21  1  0.66038000  0.69453000  0.35491000  1.0 0.8817367378
Cu  Cu22  1  0.71155000  0.76033000  0.47188000  1.0 0.7570772608
Cu  Cu23  1  0.33962000  0.30547000  0.64509000  1.0 0.8729303767
Cu  Cu24  1  0.28845000  0.23967000  0.52812000  1.0 0.7570772608
H  H1  1  0.01770000  0.07400000  0.72010000  1.0 0.1388263289
H  H2  1  0.19220000  0.17380000  0.79460000  1.0 0.1388263289
H  H3  1  0.12130000  0.00190000  0.74540000  1.0 0.1388263289
H  H4  1  0.94130000  0.96650000  0.65040000  1.0 0.1308395043
H  H5  1  0.83030000  0.86580000  0.57770000  1.0 0.1094587994
H  H6  1  0.24450000  0.72690000  0.80060000  1.0 0.1388263289
H  H7  1  0.34470000  0.72110000  0.72280000  1.0 0.1388263289
H  H8  1  0.28210000  0.90850000  0.76100000  1.0 0.1180244078
H  H9  1  0.17870000  0.95930000  0.69040000  1.0 0.1180244078
H  H10  1  0.12610000  0.78910000  0.62480000  1.0 0.1308395043
H  H11  1  0.04340000  0.78510000  0.53090000  1.0 0.1388263289
H  H12  1  0.36260000  0.67600000  0.84680000  1.0 0.1485262216
H  H13  1  0.26530000  0.81890000  0.78440000  1.0 0.1388263289
H  H14  1  0.99080000  0.79930000  0.43850000  1.0 0.1388263289
H  H15  1  0.81300000  0.72710000  0.33510000  1.0 0.1485262216
H  H16  1  0.89140000  0.80120000  0.51320000  1.0 0.1388263289
H  H17  1  0.35390000  0.29760000  0.27990000  1.0 0.1388263289
H  H18  1  0.37920000  0.39760000  0.20540000  1.0 0.1388263289
H  H19  1  0.25650000  0.37590000  0.25460000  1.0 0.1388263289
H  H20  1  0.31610000  0.29090000  0.34960000  1.0 0.1308395043
H  H21  1  0.28810000  0.25260000  0.42230000  1.0 0.1094587994
H  H22  1  0.92630000  0.44390000  0.19940000  1.0 0.1388263289
H  H23  1  0.99830000  0.62190000  0.27720000  1.0 0.1388263289
H  H24  1  0.14750000  0.52110000  0.23900000  1.0 0.1180244078
H  H25  1  0.26890000  0.48830000  0.30960000  1.0 0.1180244078
H  H26  1  0.16430000  0.50130000  0.37520000  1.0 0.1308395043
H  H27  1  0.25420000  0.51250000  0.46910000  1.0 0.1388263289
H  H28  1  0.82920000  0.51580000  0.15320000  1.0 0.1485262216
H  H29  1  0.03450000  0.48090000  0.21560000  1.0 0.1388263289
H  H30  1  0.36080000  0.55230000  0.56150000  1.0 0.1388263289
H  H31  1  0.39200000  0.47790000  0.66490000  1.0 0.1485262216
H  H32  1  0.28800000  0.37820000  0.48680000  1.0 0.1388263289
H  H33  1  0.07400000  0.35390000  0.05630000  1.0 0.1388263289
H  H34  1  0.17380000  0.37920000  0.98160000  1.0 0.1388263289
H  H35  1  0.00190000  0.25650000  0.88060000  1.0 0.1388263289
H  H36  1  0.96650000  0.31610000  0.02520000  1.0 0.1308395043
H  H37  1  0.86580000  0.28810000  0.03550000  1.0 0.1094587994
H  H38  1  0.72690000  0.92630000  0.48240000  1.0 0.1388263289
H  H39  1  0.72110000  0.99830000  0.37640000  1.0 0.1388263289
H  H40  1  0.90850000  0.14750000  0.62640000  1.0 0.1180244078
H  H41  1  0.95930000  0.26890000  0.78060000  1.0 0.1180244078
H  H42  1  0.78910000  0.16430000  0.66300000  1.0 0.1308395043
H  H43  1  0.78510000  0.25420000  0.74170000  1.0 0.1388263289
H  H44  1  0.67600000  0.82920000  0.31340000  1.0 0.1485262216
H  H45  1  0.81890000  0.03450000  0.55360000  1.0 0.1388263289
H  H46  1  0.79930000  0.36080000  0.80850000  1.0 0.1388263289
H  H47  1  0.72710000  0.39200000  0.91410000  1.0 0.1485262216
H  H48  1  0.80120000  0.28800000  0.90980000  1.0 0.1388263289
H  H49  1  0.29760000  0.01770000  0.94370000  1.0 0.1388263289
H  H50  1  0.39760000  0.19220000  0.01840000  1.0 0.1388263289
H  H51  1  0.37590000  0.12130000  0.11940000  1.0 0.1388263289
H  H52  1  0.29090000  0.94130000  0.97480000  1.0 0.1308395043
H  H53  1  0.25260000  0.83030000  0.96450000  1.0 0.1094587994
H  H54  1  0.44390000  0.24450000  0.51760000  1.0 0.1388263289
H  H55  1  0.62190000  0.34470000  0.62360000  1.0 0.1388263289
H  H56  1  0.52110000  0.28210000  0.37360000  1.0 0.1180244078
H  H57  1  0.48830000  0.17870000  0.21940000  1.0 0.1180244078
H  H58  1  0.50130000  0.12610000  0.33700000  1.0 0.1308395043
H  H59  1  0.51250000  0.04340000  0.25830000  1.0 0.1388263289
H  H60  1  0.51580000  0.36260000  0.68660000  1.0 0.1485262216
H  H61  1  0.48090000  0.26530000  0.44640000  1.0 0.1388263289
H  H62  1  0.55230000  0.99080000  0.19150000  1.0 0.1388263289
H  H63  1  0.47790000  0.81300000  0.08590000  1.0 0.1485262216
H  H64  1  0.37820000  0.89140000  0.09020000  1.0 0.1388263289
H  H65  1  0.98230000  0.92600000  0.27990000  1.0 0.1388263289
H  H66  1  0.80780000  0.82620000  0.20540000  1.0 0.1388263289
H  H67  1  0.87870000  0.99810000  0.25460000  1.0 0.1388263289
H  H68  1  0.05870000  0.03350000  0.34960000  1.0 0.1308395043
H  H69  1  0.16970000  0.13420000  0.42230000  1.0 0.1094587994
H  H70  1  0.75550000  0.27310000  0.19940000  1.0 0.1388263289
H  H71  1  0.65530000  0.27890000  0.27720000  1.0 0.1388263289
H  H72  1  0.71790000  0.09150000  0.23900000  1.0 0.1180244078
H  H73  1  0.82130000  0.04070000  0.30960000  1.0 0.1180244078
H  H74  1  0.87390000  0.21090000  0.37520000  1.0 0.1308395043
H  H75  1  0.95660000  0.21490000  0.46910000  1.0 0.1388263289
H  H76  1  0.63740000  0.32400000  0.15320000  1.0 0.1485262216
H  H77  1  0.73470000  0.18110000  0.21560000  1.0 0.1388263289
H  H78  1  0.00920000  0.20070000  0.56150000  1.0 0.1388263289
H  H79  1  0.18700000  0.27290000  0.66490000  1.0 0.1485262216
H  H80  1  0.10860000  0.19880000  0.48680000  1.0 0.1388263289
H  H81  1  0.64610000  0.70240000  0.72010000  1.0 0.1388263289
H  H82  1  0.62080000  0.60240000  0.79460000  1.0 0.1388263289
H  H83  1  0.74350000  0.62410000  0.74540000  1.0 0.1388263289
H  H84  1  0.68390000  0.70910000  0.65040000  1.0 0.1308395043
H  H85  1  0.71190000  0.74740000  0.57770000  1.0 0.1094587994
H  H86  1  0.07370000  0.55610000  0.80060000  1.0 0.1388263289
H  H87  1  0.00170000  0.37810000  0.72280000  1.0 0.1388263289
H  H88  1  0.85250000  0.47890000  0.76100000  1.0 0.1180244078
H  H89  1  0.73110000  0.51170000  0.69040000  1.0 0.1180244078
H  H90  1  0.83570000  0.49870000  0.62480000  1.0 0.1308395043
H  H91  1  0.74580000  0.48750000  0.53090000  1.0 0.1388263289
H  H92  1  0.17080000  0.48420000  0.84680000  1.0 0.1485262216
H  H93  1  0.96550000  0.51910000  0.78440000  1.0 0.1388263289
H  H94  1  0.63920000  0.44770000  0.43850000  1.0 0.1388263289
H  H95  1  0.60800000  0.52210000  0.33510000  1.0 0.1485262216
H  H96  1  0.71200000  0.62180000  0.51320000  1.0 0.1388263289
H  H97  1  0.92600000  0.64610000  0.94370000  1.0 0.1388263289
H  H98  1  0.82620000  0.62080000  0.01840000  1.0 0.1388263289
H  H99  1  0.99810000  0.74350000  0.11940000  1.0 0.1388263289
H  H100  1  0.03350000  0.68390000  0.97480000  1.0 0.1308395043
H  H101  1  0.13420000  0.71190000  0.96450000  1.0 0.1094587994
H  H102  1  0.27310000  0.07370000  0.51760000  1.0 0.1388263289
H  H103  1  0.27890000  0.00170000  0.62360000  1.0 0.1388263289
H  H104  1  0.09150000  0.85250000  0.37360000  1.0 0.1180244078
H  H105  1  0.04070000  0.73110000  0.21940000  1.0 0.1180244078
H  H106  1  0.21090000  0.83570000  0.33700000  1.0 0.1308395043
H  H107  1  0.21490000  0.74580000  0.25830000  1.0 0.1388263289
H  H108  1  0.32400000  0.17080000  0.68660000  1.0 0.1485262216
H  H109  1  0.18110000  0.96550000  0.44640000  1.0 0.1388263289
H  H110  1  0.20070000  0.63920000  0.19150000  1.0 0.1388263289
H  H111  1  0.27290000  0.60800000  0.08590000  1.0 0.1485262216
H  H112  1  0.19880000  0.71200000  0.09020000  1.0 0.1388263289
H  H113  1  0.70240000  0.98230000  0.05630000  1.0 0.1388263289
H  H114  1  0.60240000  0.80780000  0.98160000  1.0 0.1388263289
H  H115  1  0.62410000  0.87870000  0.88060000  1.0 0.1388263289
H  H116  1  0.70910000  0.05870000  0.02520000  1.0 0.1308395043
H  H117  1  0.74740000  0.16970000  0.03550000  1.0 0.1094587994
H  H118  1  0.55610000  0.75550000  0.48240000  1.0 0.1388263289
H  H119  1  0.37810000  0.65530000  0.37640000  1.0 0.1388263289
H  H120  1  0.47890000  0.71790000  0.62640000  1.0 0.1180244078
H  H121  1  0.51170000  0.82130000  0.78060000  1.0 0.1180244078
H  H122  1  0.49870000  0.87390000  0.66300000  1.0 0.1308395043
H  H123  1  0.48750000  0.95660000  0.74170000  1.0 0.1388263289
H  H124  1  0.48420000  0.63740000  0.31340000  1.0 0.1485262216
H  H125  1  0.51910000  0.73470000  0.55360000  1.0 0.1388263289
H  H126  1  0.44770000  0.00920000  0.80850000  1.0 0.1388263289
H  H127  1  0.52210000  0.18700000  0.91410000  1.0 0.1485262216
H  H128  1  0.62180000  0.10860000  0.90980000  1.0 0.1388263289
H  H129  1  0.87740000  0.82690000  0.70430000  1.0 0.1308395043
H  H130  1  0.12260000  0.17310000  0.29570000  1.0 0.1308395043
H  H131  1  0.82690000  0.12260000  0.94950000  1.0 0.1308395043
H  H132  1  0.17310000  0.87740000  0.05050000  1.0 0.1308395043
C  C1  1  0.09710000  0.18290000  0.76380000  1.0 0.5580149879
C  C2  1  0.10370000  0.13320000  0.75890000  1.0 -0.049356775
C  C3  1  0.05510000  0.07860000  0.73430000  1.0 -0.1680936182
C  C4  1  0.15970000  0.13770000  0.77920000  1.0 -0.0828162172
C  C5  1  0.22710000  0.09660000  0.79430000  1.0 0.5883290832
C  C6  1  0.16850000  0.09210000  0.77720000  1.0 -0.0194901015
C  C7  1  0.11770000  0.03480000  0.75010000  1.0 -0.1680936182
C  C8  1  0.06210000  0.03110000  0.73080000  1.0 0.1388263289
C  C9  1  0.95700000  0.95240000  0.67360000  1.0 -0.1184630837
C  C10  1  0.92820000  0.90260000  0.67640000  1.0 0.0840067034
C  C11  1  0.82050000  0.84350000  0.59500000  1.0 0.0330685274
C  C12  1  0.86420000  0.85760000  0.64760000  1.0 0.0330685274
C  C13  1  0.28950000  0.69630000  0.87840000  1.0 0.5717948491
C  C14  1  0.30900000  0.70480000  0.83500000  1.0 0.0122796202
C  C15  1  0.27480000  0.72160000  0.79800000  1.0 -0.1971934746
C  C16  1  0.29290000  0.72870000  0.75820000  1.0 0.1388263289
C  C17  1  0.33550000  0.71690000  0.75080000  1.0 -0.1680936182
C  C18  1  0.24560000  0.89920000  0.73360000  1.0 0.0163547792
C  C19  1  0.18410000  0.92920000  0.69370000  1.0 0.0658646998
C  C20  1  0.13830000  0.86950000  0.65100000  1.0 0.0419875904
C  C21  1  0.15370000  0.82830000  0.65220000  1.0 -0.1184630837
C  C22  1  0.20710000  0.84160000  0.69130000  1.0 0.0163547792
C  C23  1  0.08180000  0.86200000  0.61160000  1.0 0.1094587994
C  C24  1  0.04210000  0.81710000  0.55360000  1.0 -0.1879016711
C  C25  1  0.90710000  0.74520000  0.32410000  1.0 0.5717948491
C  C26  1  0.90170000  0.75830000  0.37780000  1.0 0.003621482
C  C27  1  0.78210000  0.74700000  0.41890000  1.0 0.5717948491
C  C28  1  0.34640000  0.69150000  0.82570000  1.0 -0.0884280783
C  C29  1  0.36410000  0.69860000  0.78630000  1.0 -0.0194901015
C  C30  1  0.25430000  0.79530000  0.74580000  1.0 -0.2117532159
C  C31  1  0.22480000  0.79740000  0.69460000  1.0 0.1485262216
C  C32  1  0.84470000  0.76470000  0.42680000  1.0 0.0163547792
C  C33  1  0.95390000  0.78880000  0.43490000  1.0 -0.1777187932
C  C34  1  0.84640000  0.74590000  0.37150000  1.0 -0.1184630837
C  C35  1  0.40770000  0.68460000  0.77710000  1.0 0.5784102519
C  C36  1  0.89370000  0.79060000  0.47910000  1.0 -0.1777187932
C  C37  1  0.94730000  0.80130000  0.48200000  1.0 0.1308395043
C  C38  1  0.41910000  0.33333333  0.23620000  1.0 0.5580149879
C  C39  1  0.37430000  0.34480000  0.24110000  1.0 -0.049356775
C  C40  1  0.34430000  0.32080000  0.26570000  1.0 -0.1680936182
C  C41  1  0.35850000  0.38050000  0.22080000  1.0 -0.0828162172
C  C42  1  0.30230000  0.43280000  0.20570000  1.0 0.5883290832
C  C43  1  0.31490000  0.39130000  0.22280000  1.0 -0.0194901015
C  C44  1  0.28470000  0.36760000  0.24990000  1.0 -0.1680936182
C  C45  1  0.30030000  0.33130000  0.26920000  1.0 0.1388263289
C  C46  1  0.27880000  0.28340000  0.32640000  1.0 -0.1184630837
C  C47  1  0.22620000  0.25180000  0.32360000  1.0 0.0840067034
C  C48  1  0.24850000  0.22550000  0.40500000  1.0 0.0330685274
C  C49  1  0.21000000  0.21660000  0.35240000  1.0 0.0330685274
C  C50  1  0.81790000  0.41110000  0.12160000  1.0 0.5717948491
C  C51  1  0.86980000  0.47400000  0.16500000  1.0 0.0122796202
C  C52  1  0.92360000  0.47680000  0.20200000  1.0 -0.1971934746
C  C53  1  0.97050000  0.53470000  0.24180000  1.0 0.1485262216
C  C54  1  0.96610000  0.58470000  0.24920000  1.0 -0.1649638574
C  C55  1  0.16560000  0.51200000  0.26640000  1.0 0.0163547792
C  C56  1  0.23550000  0.49040000  0.30630000  1.0 0.0658646998
C  C57  1  0.21850000  0.48730000  0.34900000  1.0 0.0419875904
C  C58  1  0.17610000  0.50150000  0.34780000  1.0 -0.1184630837
C  C59  1  0.15030000  0.51580000  0.30870000  1.0 0.0163547792
C  C60  1  0.25040000  0.47020000  0.38840000  1.0 0.1094587994
C  C61  1  0.26350000  0.48850000  0.44640000  1.0 -0.1879016711
C  C62  1  0.42110000  0.58300000  0.67590000  1.0 0.5717948491
C  C63  1  0.38050000  0.52390000  0.62220000  1.0 0.003621482
C  C64  1  0.32810000  0.36320000  0.58110000  1.0 0.5717948491
C  C65  1  0.86580000  0.52070000  0.17430000  1.0 -0.0884280783
C  C66  1  0.91230000  0.57780000  0.21370000  1.0 -0.0194901015
C  C67  1  0.04950000  0.50850000  0.25420000  1.0 -0.2201606915
C  C68  1  0.10280000  0.53020000  0.30540000  1.0 0.1485262216
C  C69  1  0.33790000  0.41790000  0.57320000  1.0 0.0163547792
C  C70  1  0.35390000  0.51900000  0.56510000  1.0 -0.1777187932
C  C71  1  0.37440000  0.47490000  0.62850000  1.0 -0.1184630837
C  C72  1  0.90750000  0.63060000  0.22290000  1.0 0.5784102519
C  C73  1  0.31150000  0.41460000  0.52090000  1.0 -0.1777187932
C  C74  1  0.31930000  0.46530000  0.51800000  1.0 0.1308395043
C  C75  1  0.18290000  0.41910000  0.08580000  1.0 0.5580149879
C  C76  1  0.13320000  0.37430000  0.02950000  1.0 -0.049356775
C  C77  1  0.07860000  0.34430000  0.02350000  1.0 -0.1680936182
C  C78  1  0.13770000  0.35850000  0.97800000  1.0 -0.0828162172
C  C79  1  0.09660000  0.30230000  0.86950000  1.0 0.5883290832
C  C80  1  0.09210000  0.31490000  0.92360000  1.0 -0.0194901015
C  C81  1  0.03480000  0.28470000  0.91710000  1.0 -0.1680936182
C  C82  1  0.03110000  0.30030000  0.96900000  1.0 0.1388263289
C  C83  1  0.95240000  0.27880000  0.99540000  1.0 -0.1184630837
C  C84  1  0.90260000  0.22620000  0.97440000  1.0 0.0840067034
C  C85  1  0.84350000  0.24850000  0.02300000  1.0 0.0330685274
C  C86  1  0.85760000  0.21000000  0.99340000  1.0 0.0330685274
C  C87  1  0.69630000  0.81790000  0.40680000  1.0 0.5717948491
C  C88  1  0.70480000  0.86980000  0.39580000  1.0 0.0122796202
C  C89  1  0.72160000  0.92360000  0.44680000  1.0 -0.1971934746
C  C90  1  0.72870000  0.97050000  0.43580000  1.0 0.1388263289
C  C91  1  0.71690000  0.96610000  0.38140000  1.0 -0.1680936182
C  C92  1  0.89920000  0.16560000  0.65360000  1.0 0.0163547792
C  C93  1  0.92920000  0.23550000  0.74510000  1.0 0.0658646998
C  C94  1  0.86950000  0.21850000  0.73120000  1.0 0.0419875904
C  C95  1  0.82830000  0.17610000  0.67460000  1.0 -0.1184630837
C  C96  1  0.84160000  0.15030000  0.63450000  1.0 0.0163547792
C  C97  1  0.86200000  0.25040000  0.78020000  1.0 0.1094587994
C  C98  1  0.81710000  0.26350000  0.77500000  1.0 -0.1879016711
C  C99  1  0.74520000  0.42110000  0.83810000  1.0 0.5717948491
C  C100  1  0.75830000  0.38050000  0.85660000  1.0 0.003621482
C  C101  1  0.74700000  0.32810000  0.96490000  1.0 0.5717948491
C  C102  1  0.69150000  0.86580000  0.34510000  1.0 -0.0884280783
C  C103  1  0.69860000  0.91230000  0.33450000  1.0 -0.0194901015
C  C104  1  0.79530000  0.04950000  0.54100000  1.0 -0.2117532159
C  C105  1  0.79740000  0.10280000  0.57260000  1.0 0.1485262216
C  C106  1  0.76470000  0.33790000  0.92000000  1.0 0.0163547792
C  C107  1  0.78880000  0.35390000  0.83490000  1.0 -0.1777187932
C  C108  1  0.74590000  0.37440000  0.89950000  1.0 -0.1184630837
C  C109  1  0.68460000  0.90750000  0.27690000  1.0 0.5784102519
C  C110  1  0.79060000  0.31150000  0.89690000  1.0 -0.1777187932
C  C111  1  0.80130000  0.31930000  0.85400000  1.0 0.1308395043
C  C112  1  0.33333333  0.09710000  0.91420000  1.0 0.5580149879
C  C113  1  0.34480000  0.10370000  0.97050000  1.0 -0.049356775
C  C114  1  0.32080000  0.05510000  0.97650000  1.0 -0.1680936182
C  C115  1  0.38050000  0.15970000  0.02200000  1.0 -0.0828162172
C  C116  1  0.43280000  0.22710000  0.13050000  1.0 0.5883290832
C  C117  1  0.39130000  0.16850000  0.07640000  1.0 -0.0194901015
C  C118  1  0.36760000  0.11770000  0.08290000  1.0 -0.1680936182
C  C119  1  0.33130000  0.06210000  0.03100000  1.0 0.1485262216
C  C120  1  0.28340000  0.95700000  0.00460000  1.0 -0.1184630837
C  C121  1  0.25180000  0.92820000  0.02560000  1.0 0.0840067034
C  C122  1  0.22550000  0.82050000  0.97700000  1.0 0.0330685274
C  C123  1  0.21660000  0.86420000  0.00660000  1.0 0.0330685274
C  C124  1  0.41110000  0.28950000  0.59320000  1.0 0.5717948491
C  C125  1  0.47400000  0.30900000  0.60420000  1.0 0.0122796202
C  C126  1  0.47680000  0.27480000  0.55320000  1.0 -0.1971934746
C  C127  1  0.53470000  0.29290000  0.56420000  1.0 0.1388263289
C  C128  1  0.58470000  0.33550000  0.61860000  1.0 -0.1680936182
C  C129  1  0.51200000  0.24560000  0.34640000  1.0 0.0163547792
C  C130  1  0.49040000  0.18410000  0.25490000  1.0 0.0658646998
C  C131  1  0.48730000  0.13830000  0.26880000  1.0 0.0419875904
C  C132  1  0.50150000  0.15370000  0.32540000  1.0 -0.1184630837
C  C133  1  0.51580000  0.20710000  0.36550000  1.0 0.0163547792
C  C134  1  0.47020000  0.08180000  0.21980000  1.0 0.1094587994
C  C135  1  0.48850000  0.04210000  0.22500000  1.0 -0.1879016711
C  C136  1  0.58300000  0.90710000  0.16190000  1.0 0.5717948491
C  C137  1  0.52390000  0.90170000  0.14340000  1.0 0.003621482
C  C138  1  0.36320000  0.78210000  0.03510000  1.0 0.5717948491
C  C139  1  0.52070000  0.34640000  0.65490000  1.0 -0.0884280783
C  C140  1  0.57780000  0.36410000  0.66550000  1.0 -0.0194901015
C  C141  1  0.50850000  0.25430000  0.45900000  1.0 -0.2117532159
C  C142  1  0.53020000  0.22480000  0.42740000  1.0 0.1485262216
C  C143  1  0.41790000  0.84470000  0.08000000  1.0 0.0163547792
C  C144  1  0.51900000  0.95390000  0.16510000  1.0 -0.1777187932
C  C145  1  0.47490000  0.84640000  0.10050000  1.0 -0.1184630837
C  C146  1  0.63060000  0.40770000  0.72310000  1.0 0.5784102519
C  C147  1  0.41460000  0.89370000  0.10310000  1.0 -0.1777187932
C  C148  1  0.46530000  0.94730000  0.14600000  1.0 0.1308395043
C  C149  1  0.90290000  0.81710000  0.23620000  1.0 0.5580149879
C  C150  1  0.89630000  0.86680000  0.24110000  1.0 -0.049356775
C  C151  1  0.94490000  0.92140000  0.26570000  1.0 -0.1680936182
C  C152  1  0.84030000  0.86230000  0.22080000  1.0 -0.0828162172
C  C153  1  0.77290000  0.90340000  0.20570000  1.0 0.5883290832
C  C154  1  0.83150000  0.90790000  0.22280000  1.0 -0.0194901015
C  C155  1  0.88230000  0.96520000  0.24990000  1.0 -0.1680936182
C  C156  1  0.93790000  0.96890000  0.26920000  1.0 0.1388263289
C  C157  1  0.04300000  0.04760000  0.32640000  1.0 -0.1184630837
C  C158  1  0.07180000  0.09740000  0.32360000  1.0 0.0840067034
C  C159  1  0.17950000  0.15650000  0.40500000  1.0 0.0330685274
C  C160  1  0.13580000  0.14240000  0.35240000  1.0 0.0330685274
C  C161  1  0.71050000  0.30370000  0.12160000  1.0 0.5717948491
C  C162  1  0.69100000  0.29520000  0.16500000  1.0 0.0122796202
C  C163  1  0.72520000  0.27840000  0.20200000  1.0 -0.1971934746
C  C164  1  0.70710000  0.27130000  0.24180000  1.0 0.1485262216
C  C165  1  0.66450000  0.28310000  0.24920000  1.0 -0.1680936182
C  C166  1  0.75440000  0.10080000  0.26640000  1.0 0.0163547792
C  C167  1  0.81590000  0.07080000  0.30630000  1.0 0.0658646998
C  C168  1  0.86170000  0.13050000  0.34900000  1.0 0.0419875904
C  C169  1  0.84630000  0.17170000  0.34780000  1.0 -0.1184630837
C  C170  1  0.79290000  0.15840000  0.30870000  1.0 0.0163547792
C  C171  1  0.91820000  0.13800000  0.38840000  1.0 0.1094587994
C  C172  1  0.95790000  0.18290000  0.44640000  1.0 -0.1879016711
C  C173  1  0.09290000  0.25480000  0.67590000  1.0 0.5717948491
C  C174  1  0.09830000  0.24170000  0.62220000  1.0 0.003621482
C  C175  1  0.21790000  0.25300000  0.58110000  1.0 0.5717948491
C  C176  1  0.65360000  0.30850000  0.17430000  1.0 -0.0884280783
C  C177  1  0.63590000  0.30140000  0.21370000  1.0 -0.0194901015
C  C178  1  0.74570000  0.20470000  0.25420000  1.0 -0.2201606915
C  C179  1  0.77520000  0.20260000  0.30540000  1.0 0.1485262216
C  C180  1  0.15530000  0.23530000  0.57320000  1.0 0.0163547792
C  C181  1  0.04610000  0.21120000  0.56510000  1.0 -0.1777187932
C  C182  1  0.15360000  0.25410000  0.62850000  1.0 -0.1184630837
C  C183  1  0.59230000  0.31540000  0.22290000  1.0 0.5784102519
C  C184  1  0.10630000  0.20940000  0.52090000  1.0 -0.1777187932
C  C185  1  0.05270000  0.19870000  0.51800000  1.0 0.1308395043
C  C186  1  0.58090000  0.66666667  0.76380000  1.0 0.5580149879
C  C187  1  0.62570000  0.65520000  0.75890000  1.0 -0.049356775
C  C188  1  0.65570000  0.67920000  0.73430000  1.0 -0.1680936182
C  C189  1  0.64150000  0.61950000  0.77920000  1.0 -0.0828162172
C  C190  1  0.69770000  0.56720000  0.79430000  1.0 0.5883290832
C  C191  1  0.68510000  0.60870000  0.77720000  1.0 -0.0194901015
C  C192  1  0.71530000  0.63240000  0.75010000  1.0 -0.1680936182
C  C193  1  0.69970000  0.66870000  0.73080000  1.0 0.1388263289
C  C194  1  0.72120000  0.71660000  0.67360000  1.0 -0.1184630837
C  C195  1  0.77380000  0.74820000  0.67640000  1.0 0.0840067034
C  C196  1  0.75150000  0.77450000  0.59500000  1.0 0.0330685274
C  C197  1  0.79000000  0.78340000  0.64760000  1.0 0.0330685274
C  C198  1  0.18210000  0.58890000  0.87840000  1.0 0.5717948491
C  C199  1  0.13020000  0.52600000  0.83500000  1.0 0.0122796202
C  C200  1  0.07640000  0.52320000  0.79800000  1.0 -0.1971934746
C  C201  1  0.02950000  0.46530000  0.75820000  1.0 0.1388263289
C  C202  1  0.03390000  0.41530000  0.75080000  1.0 -0.1680936182
C  C203  1  0.83440000  0.48800000  0.73360000  1.0 0.0163547792
C  C204  1  0.76450000  0.50960000  0.69370000  1.0 0.0658646998
C  C205  1  0.78150000  0.51270000  0.65100000  1.0 0.0419875904
C  C206  1  0.82390000  0.49850000  0.65220000  1.0 -0.1184630837
C  C207  1  0.84970000  0.48420000  0.69130000  1.0 0.0163547792
C  C208  1  0.74960000  0.52980000  0.61160000  1.0 0.1094587994
C  C209  1  0.73650000  0.51150000  0.55360000  1.0 -0.1879016711
C  C210  1  0.57890000  0.41700000  0.32410000  1.0 0.5717948491
C  C211  1  0.61950000  0.47610000  0.37780000  1.0 0.003621482
C  C212  1  0.67190000  0.63680000  0.41890000  1.0 0.5717948491
C  C213  1  0.13420000  0.47930000  0.82570000  1.0 -0.0884280783
C  C214  1  0.08770000  0.42220000  0.78630000  1.0 -0.0194901015
C  C215  1  0.95050000  0.49150000  0.74580000  1.0 -0.2117532159
C  C216  1  0.89720000  0.46980000  0.69460000  1.0 0.1485262216
C  C217  1  0.66210000  0.58210000  0.42680000  1.0 0.0163547792
C  C218  1  0.64610000  0.48100000  0.43490000  1.0 -0.1777187932
C  C219  1  0.62560000  0.52510000  0.37150000  1.0 -0.1184630837
C  C220  1  0.09250000  0.36940000  0.77710000  1.0 0.5784102519
C  C221  1  0.68850000  0.58540000  0.47910000  1.0 -0.1777187932
C  C222  1  0.68070000  0.53470000  0.48200000  1.0 0.1308395043
C  C223  1  0.81710000  0.58090000  0.91420000  1.0 0.5580149879
C  C224  1  0.86680000  0.62570000  0.97050000  1.0 -0.049356775
C  C225  1  0.92140000  0.65570000  0.97650000  1.0 -0.1680936182
C  C226  1  0.86230000  0.64150000  0.02200000  1.0 -0.0828162172
C  C227  1  0.90340000  0.69770000  0.13050000  1.0 0.5883290832
C  C228  1  0.90790000  0.68510000  0.07640000  1.0 -0.0194901015
C  C229  1  0.96520000  0.71530000  0.08290000  1.0 -0.1680936182
C  C230  1  0.96890000  0.69970000  0.03100000  1.0 0.1388263289
C  C231  1  0.04760000  0.72120000  0.00460000  1.0 -0.1184630837
C  C232  1  0.09740000  0.77380000  0.02560000  1.0 0.0840067034
C  C233  1  0.15650000  0.75150000  0.97700000  1.0 0.0330685274
C  C234  1  0.14240000  0.79000000  0.00660000  1.0 0.0330685274
C  C235  1  0.30370000  0.18210000  0.59320000  1.0 0.5717948491
C  C236  1  0.29520000  0.13020000  0.60420000  1.0 0.0122796202
C  C237  1  0.27840000  0.07640000  0.55320000  1.0 -0.1971934746
C  C238  1  0.27130000  0.02950000  0.56420000  1.0 0.1388263289
C  C239  1  0.28310000  0.03390000  0.61860000  1.0 -0.1680936182
C  C240  1  0.10080000  0.83440000  0.34640000  1.0 0.0163547792
C  C241  1  0.07080000  0.76450000  0.25490000  1.0 0.0658646998
C  C242  1  0.13050000  0.78150000  0.26880000  1.0 0.0419875904
C  C243  1  0.17170000  0.82390000  0.32540000  1.0 -0.1184630837
C  C244  1  0.15840000  0.84970000  0.36550000  1.0 0.0163547792
C  C245  1  0.13800000  0.74960000  0.21980000  1.0 0.1094587994
C  C246  1  0.18290000  0.73650000  0.22500000  1.0 -0.1879016711
C  C247  1  0.25480000  0.57890000  0.16190000  1.0 0.5717948491
C  C248  1  0.24170000  0.61950000  0.14340000  1.0 0.003621482
C  C249  1  0.25300000  0.67190000  0.03510000  1.0 0.5717948491
C  C250  1  0.30850000  0.13420000  0.65490000  1.0 -0.0884280783
C  C251  1  0.30140000  0.08770000  0.66550000  1.0 -0.0194901015
C  C252  1  0.20470000  0.95050000  0.45900000  1.0 -0.2117532159
C  C253  1  0.20260000  0.89720000  0.42740000  1.0 0.1485262216
C  C254  1  0.23530000  0.66210000  0.08000000  1.0 0.0163547792
C  C255  1  0.21120000  0.64610000  0.16510000  1.0 -0.1777187932
C  C256  1  0.25410000  0.62560000  0.10050000  1.0 -0.1184630837
C  C257  1  0.31540000  0.09250000  0.72310000  1.0 0.5784102519
C  C258  1  0.20940000  0.68850000  0.10310000  1.0 -0.1777187932
C  C259  1  0.19870000  0.68070000  0.14600000  1.0 0.1308395043
C  C260  1  0.66666667  0.90290000  0.08580000  1.0 0.5580149879
C  C261  1  0.65520000  0.89630000  0.02950000  1.0 -0.049356775
C  C262  1  0.67920000  0.94490000  0.02350000  1.0 -0.1680936182
C  C263  1  0.61950000  0.84030000  0.97800000  1.0 -0.0828162172
C  C264  1  0.56720000  0.77290000  0.86950000  1.0 0.5883290832
C  C265  1  0.60870000  0.83150000  0.92360000  1.0 -0.0194901015
C  C266  1  0.63240000  0.88230000  0.91710000  1.0 -0.1680936182
C  C267  1  0.66870000  0.93790000  0.96900000  1.0 0.1388263289
C  C268  1  0.71660000  0.04300000  0.99540000  1.0 -0.1184630837
C  C269  1  0.74820000  0.07180000  0.97440000  1.0 0.0840067034
C  C270  1  0.77450000  0.17950000  0.02300000  1.0 0.0330685274
C  C271  1  0.78340000  0.13580000  0.99340000  1.0 0.0330685274
C  C272  1  0.58890000  0.71050000  0.40680000  1.0 0.5717948491
C  C273  1  0.52600000  0.69100000  0.39580000  1.0 0.0122796202
C  C274  1  0.52320000  0.72520000  0.44680000  1.0 -0.1971934746
C  C275  1  0.46530000  0.70710000  0.43580000  1.0 0.1388263289
C  C276  1  0.41530000  0.66450000  0.38140000  1.0 -0.1680936182
C  C277  1  0.48800000  0.75440000  0.65360000  1.0 0.0163547792
C  C278  1  0.50960000  0.81590000  0.74510000  1.0 0.0658646998
C  C279  1  0.51270000  0.86170000  0.73120000  1.0 0.0419875904
C  C280  1  0.49850000  0.84630000  0.67460000  1.0 -0.1184630837
C  C281  1  0.48420000  0.79290000  0.63450000  1.0 0.0163547792
C  C282  1  0.52980000  0.91820000  0.78020000  1.0 0.1094587994
C  C283  1  0.51150000  0.95790000  0.77500000  1.0 -0.1879016711
C  C284  1  0.41700000  0.09290000  0.83810000  1.0 0.5717948491
C  C285  1  0.47610000  0.09830000  0.85660000  1.0 0.003621482
C  C286  1  0.63680000  0.21790000  0.96490000  1.0 0.5717948491
C  C287  1  0.47930000  0.65360000  0.34510000  1.0 -0.0884280783
C  C288  1  0.42220000  0.63590000  0.33450000  1.0 -0.0194901015
C  C289  1  0.49150000  0.74570000  0.54100000  1.0 -0.2117532159
C  C290  1  0.46980000  0.77520000  0.57260000  1.0 0.1485262216
C  C291  1  0.58210000  0.15530000  0.92000000  1.0 0.0163547792
C  C292  1  0.48100000  0.04610000  0.83490000  1.0 -0.1777187932
C  C293  1  0.52510000  0.15360000  0.89950000  1.0 -0.1184630837
C  C294  1  0.36940000  0.59230000  0.27690000  1.0 0.5784102519
C  C295  1  0.58540000  0.10630000  0.89690000  1.0 -0.1777187932
C  C296  1  0.53470000  0.05270000  0.85400000  1.0 0.1308395043
C  C297  1  0.84880000  0.82330000  0.67210000  1.0 -0.1009047582
C  C298  1  0.15120000  0.17670000  0.32790000  1.0 -0.1009047582
C  C299  1  0.82330000  0.15120000  0.97450000  1.0 -0.1009047582
C  C300  1  0.17670000  0.84880000  0.02550000  1.0 -0.1009047582
N  N1  1  0.01090000  0.97410000  0.71120000  1.0 0.1388263289
N  N2  1  0.02240000  0.94460000  0.73820000  1.0 -0.0689385264
N  N3  1  0.97170000  0.89890000  0.71640000  1.0 -0.1971934746
N  N4  1  0.23460000  0.94340000  0.73860000  1.0 -0.226271007
N  N5  1  0.26190000  0.74900000  0.72230000  1.0 0.1817786109
N  N6  1  0.24040000  0.72260000  0.66700000  1.0 -0.1184630837
N  N7  1  0.21840000  0.75340000  0.64960000  1.0 -0.2437327514
N  N8  1  0.00040000  0.83360000  0.53940000  1.0 0.1617108126
N  N9  1  0.01260000  0.88080000  0.58380000  1.0 -0.1122248649
N  N10  1  0.06208000  0.89838000  0.62710000  1.0 -0.2201606915
N  N11  1  0.26290000  0.29970000  0.28880000  1.0 0.1388263289
N  N12  1  0.20640000  0.28420000  0.26180000  1.0 -0.0689385264
N  N13  1  0.18250000  0.25530000  0.28360000  1.0 -0.1971934746
N  N14  1  0.20480000  0.49600000  0.26140000  1.0 -0.226271007
N  N15  1  0.02670000  0.53960000  0.27770000  1.0 0.1817786109
N  N16  1  0.05560000  0.57340000  0.33300000  1.0 -0.1184630837
N  N17  1  0.10380000  0.56880000  0.35040000  1.0 -0.2460773151
N  N18  1  0.29420000  0.46100000  0.46060000  1.0 0.1617108126
N  N19  1  0.29700000  0.42880000  0.41620000  1.0 -0.1122248649
N  N20  1  0.27128000  0.43498000  0.37290000  1.0 -0.2201606915
N  N21  1  0.97410000  0.26290000  0.96320000  1.0 0.1388263289
N  N22  1  0.94460000  0.20640000  0.92220000  1.0 -0.0689385264
N  N23  1  0.89890000  0.18250000  0.92720000  1.0 -0.1971934746
N  N24  1  0.94340000  0.20480000  0.70880000  1.0 -0.226271007
N  N25  1  0.74900000  0.02670000  0.48710000  1.0 0.1817786109
N  N26  1  0.72260000  0.05560000  0.48220000  1.0 -0.1184630837
N  N27  1  0.75340000  0.10380000  0.53500000  1.0 -0.2437327514
N  N28  1  0.83360000  0.29420000  0.83320000  1.0 0.1617108126
N  N29  1  0.88080000  0.29700000  0.86820000  1.0 -0.1122248649
N  N30  1  0.89838000  0.27128000  0.83630000  1.0 -0.2201606915
N  N31  1  0.29970000  0.01090000  0.03680000  1.0 0.1388263289
N  N32  1  0.28420000  0.02240000  0.07780000  1.0 -0.0689385264
N  N33  1  0.25530000  0.97170000  0.07280000  1.0 -0.1971934746
N  N34  1  0.49600000  0.23460000  0.29120000  1.0 -0.2201606915
N  N35  1  0.53960000  0.26190000  0.51290000  1.0 0.1817786109
N  N36  1  0.57340000  0.24040000  0.51780000  1.0 -0.1184630837
N  N37  1  0.56880000  0.21840000  0.46500000  1.0 -0.2437327514
N  N38  1  0.46100000  0.00040000  0.16680000  1.0 0.1617108126
N  N39  1  0.42880000  0.01260000  0.13180000  1.0 -0.1122248649
N  N40  1  0.43498000  0.06208000  0.16370000  1.0 -0.2201606915
N  N41  1  0.98910000  0.02590000  0.28880000  1.0 0.1388263289
N  N42  1  0.97760000  0.05540000  0.26180000  1.0 -0.0689385264
N  N43  1  0.02830000  0.10110000  0.28360000  1.0 -0.1971934746
N  N44  1  0.76540000  0.05660000  0.26140000  1.0 -0.226271007
N  N45  1  0.73810000  0.25100000  0.27770000  1.0 0.1865632375
N  N46  1  0.75960000  0.27740000  0.33300000  1.0 -0.1184630837
N  N47  1  0.78160000  0.24660000  0.35040000  1.0 -0.2460773151
N  N48  1  0.99960000  0.16640000  0.46060000  1.0 0.1617108126
N  N49  1  0.98740000  0.11920000  0.41620000  1.0 -0.1122248649
N  N50  1  0.93792000  0.10162000  0.37290000  1.0 -0.2201606915
N  N51  1  0.73710000  0.70030000  0.71120000  1.0 0.1388263289
N  N52  1  0.79360000  0.71580000  0.73820000  1.0 -0.0689385264
N  N53  1  0.81750000  0.74470000  0.71640000  1.0 -0.1971934746
N  N54  1  0.79520000  0.50400000  0.73860000  1.0 -0.226271007
N  N55  1  0.97330000  0.46040000  0.72230000  1.0 0.1817786109
N  N56  1  0.94440000  0.42660000  0.66700000  1.0 -0.1184630837
N  N57  1  0.89620000  0.43120000  0.64960000  1.0 -0.2437327514
N  N58  1  0.70580000  0.53900000  0.53940000  1.0 0.1617108126
N  N59  1  0.70300000  0.57120000  0.58380000  1.0 -0.1122248649
N  N60  1  0.72872000  0.56502000  0.62710000  1.0 -0.2201606915
N  N61  1  0.02590000  0.73710000  0.03680000  1.0 0.1388263289
N  N62  1  0.05540000  0.79360000  0.07780000  1.0 -0.0689385264
N  N63  1  0.10110000  0.81750000  0.07280000  1.0 -0.1971934746
N  N64  1  0.05660000  0.79520000  0.29120000  1.0 -0.2201606915
N  N65  1  0.25100000  0.97330000  0.51290000  1.0 0.1817786109
N  N66  1  0.27740000  0.94440000  0.51780000  1.0 -0.1184630837
N  N67  1  0.24660000  0.89620000  0.46500000  1.0 -0.2437327514
N  N68  1  0.16640000  0.70580000  0.16680000  1.0 0.1617108126
N  N69  1  0.11920000  0.70300000  0.13180000  1.0 -0.1122248649
N  N70  1  0.10162000  0.72872000  0.16370000  1.0 -0.2201606915
N  N71  1  0.70030000  0.98910000  0.96320000  1.0 0.1388263289
N  N72  1  0.71580000  0.97760000  0.92220000  1.0 -0.0689385264
N  N73  1  0.74470000  0.02830000  0.92720000  1.0 -0.1971934746
N  N74  1  0.50400000  0.76540000  0.70880000  1.0 -0.226271007
N  N75  1  0.46040000  0.73810000  0.48710000  1.0 0.1817786109
N  N76  1  0.42660000  0.75960000  0.48220000  1.0 -0.1184630837
N  N77  1  0.43120000  0.78160000  0.53500000  1.0 -0.2437327514
N  N78  1  0.53900000  0.99960000  0.83320000  1.0 0.1617108126
N  N79  1  0.57120000  0.98740000  0.86820000  1.0 -0.1122248649
N  N80  1  0.56502000  0.93792000  0.83630000  1.0 -0.2201606915
N  N81  1  0.76700000  0.80130000  0.56830000  1.0 -0.2117532159
N  N82  1  0.23300000  0.19870000  0.43170000  1.0 -0.2117532159
N  N83  1  0.80130000  0.23300000  0.03430000  1.0 -0.2117532159
N  N84  1  0.19870000  0.76700000  0.96570000  1.0 -0.2117532159
O  O1  1  0.27120000  0.14660000  0.81960000  1.0 -0.5008131611
O  O2  1  0.22695000  0.04869000  0.78294000  1.0 -0.5363646122
O  O3  1  0.04815000  0.17599000  0.73644000  1.0 -0.4765708159
O  O4  1  0.14660000  0.23530000  0.79610000  1.0 -0.5569071705
O  O5  1  0.95652000  0.76543000  0.32855000  1.0 -0.5008131611
O  O6  1  0.85774000  0.71560000  0.27474000  1.0 -0.5486835549
O  O7  1  0.42835000  0.66281000  0.80552000  1.0 -0.5199802702
O  O8  1  0.43152000  0.70934000  0.75362000  1.0 -0.5321740816
O  O9  1  0.31645000  0.67510000  0.90495000  1.0 -0.5363646122
O  O10  1  0.25952000  0.71429000  0.88941000  1.0 -0.4509586628
O  O11  1  0.73750000  0.71260000  0.36650000  1.0 -0.5199802702
O  O12  1  0.78173000  0.76833000  0.46560000  1.0 -0.5199802702
O  O13  1  0.32700000  0.45160000  0.18040000  1.0 -0.5008131611
O  O14  1  0.26575000  0.44401000  0.21706000  1.0 -0.5363646122
O  O15  1  0.43955000  0.31171000  0.26356000  1.0 -0.4765708159
O  O16  1  0.43920000  0.35050000  0.20390000  1.0 -0.5569071705
O  O17  1  0.43688000  0.62797000  0.67145000  1.0 -0.5008131611
O  O18  1  0.44086000  0.58300000  0.72526000  1.0 -0.5486835549
O  O19  1  0.85729000  0.62283000  0.19448000  1.0 -0.5199802702
O  O20  1  0.95572000  0.67790000  0.24638000  1.0 -0.5321740816
O  O21  1  0.77015000  0.41150000  0.09505000  1.0 -0.5363646122
O  O22  1  0.82488000  0.37011000  0.11059000  1.0 -0.4509586628
O  O23  1  0.34610000  0.37100000  0.63350000  1.0 -0.5199802702
O  O24  1  0.30273000  0.31613000  0.53440000  1.0 -0.5199802702
O  O25  1  0.14660000  0.32700000  0.87540000  1.0 -0.5008131611
O  O26  1  0.04869000  0.26575000  0.82174000  1.0 -0.5363646122
O  O27  1  0.17599000  0.43955000  0.12784000  1.0 -0.4765708159
O  O28  1  0.23530000  0.43920000  0.08870000  1.0 -0.5569071705
O  O29  1  0.76543000  0.43688000  0.80891000  1.0 -0.5008131611
O  O30  1  0.71560000  0.44086000  0.85786000  1.0 -0.5486835549
O  O31  1  0.66281000  0.85729000  0.23446000  1.0 -0.5199802702
O  O32  1  0.70934000  0.95572000  0.27782000  1.0 -0.5321740816
O  O33  1  0.67510000  0.77015000  0.35865000  1.0 -0.5363646122
O  O34  1  0.71429000  0.82488000  0.45477000  1.0 -0.4509586628
O  O35  1  0.71260000  0.34610000  0.97510000  1.0 -0.5199802702
O  O36  1  0.76833000  0.30273000  0.98660000  1.0 -0.5199802702
O  O37  1  0.45160000  0.27120000  0.12460000  1.0 -0.5008131611
O  O38  1  0.44401000  0.22695000  0.17826000  1.0 -0.5363646122
O  O39  1  0.31171000  0.04815000  0.87216000  1.0 -0.4765708159
O  O40  1  0.35050000  0.14660000  0.91130000  1.0 -0.5569071705
O  O41  1  0.62797000  0.95652000  0.19109000  1.0 -0.5008131611
O  O42  1  0.58300000  0.85774000  0.14214000  1.0 -0.5486835549
O  O43  1  0.62283000  0.42835000  0.76554000  1.0 -0.5199802702
O  O44  1  0.67790000  0.43152000  0.72218000  1.0 -0.5321740816
O  O45  1  0.41150000  0.31645000  0.64135000  1.0 -0.5363646122
O  O46  1  0.37011000  0.25952000  0.54523000  1.0 -0.4509586628
O  O47  1  0.37100000  0.73750000  0.02490000  1.0 -0.5199802702
O  O48  1  0.31613000  0.78173000  0.01340000  1.0 -0.5199802702
O  O49  1  0.72880000  0.85340000  0.18040000  1.0 -0.5008131611
O  O50  1  0.77305000  0.95131000  0.21706000  1.0 -0.5363646122
O  O51  1  0.95185000  0.82401000  0.26356000  1.0 -0.4765708159
O  O52  1  0.85340000  0.76470000  0.20390000  1.0 -0.5569071705
O  O53  1  0.04348000  0.23457000  0.67145000  1.0 -0.5008131611
O  O54  1  0.14226000  0.28440000  0.72526000  1.0 -0.5486835549
O  O55  1  0.57165000  0.33719000  0.19448000  1.0 -0.5199802702
O  O56  1  0.56848000  0.29066000  0.24638000  1.0 -0.5321740816
O  O57  1  0.68355000  0.32490000  0.09505000  1.0 -0.5363646122
O  O58  1  0.74048000  0.28571000  0.11059000  1.0 -0.4509586628
O  O59  1  0.26250000  0.28740000  0.63350000  1.0 -0.5199802702
O  O60  1  0.21827000  0.23167000  0.53440000  1.0 -0.5199802702
O  O61  1  0.67300000  0.54840000  0.81960000  1.0 -0.5008131611
O  O62  1  0.73425000  0.55599000  0.78294000  1.0 -0.5363646122
O  O63  1  0.56045000  0.68829000  0.73644000  1.0 -0.4765708159
O  O64  1  0.56080000  0.64950000  0.79610000  1.0 -0.5569071705
O  O65  1  0.56312000  0.37203000  0.32855000  1.0 -0.5008131611
O  O66  1  0.55914000  0.41700000  0.27474000  1.0 -0.5486835549
O  O67  1  0.14271000  0.37717000  0.80552000  1.0 -0.5199802702
O  O68  1  0.04428000  0.32210000  0.75362000  1.0 -0.5321740816
O  O69  1  0.22985000  0.58850000  0.90495000  1.0 -0.5363646122
O  O70  1  0.17512000  0.62989000  0.88941000  1.0 -0.4509586628
O  O71  1  0.65390000  0.62900000  0.36650000  1.0 -0.5199802702
O  O72  1  0.69727000  0.68387000  0.46560000  1.0 -0.5199802702
O  O73  1  0.85340000  0.67300000  0.12460000  1.0 -0.5008131611
O  O74  1  0.95131000  0.73425000  0.17826000  1.0 -0.5363646122
O  O75  1  0.82401000  0.56045000  0.87216000  1.0 -0.4765708159
O  O76  1  0.76470000  0.56080000  0.91130000  1.0 -0.5569071705
O  O77  1  0.23457000  0.56312000  0.19109000  1.0 -0.5008131611
O  O78  1  0.28440000  0.55914000  0.14214000  1.0 -0.5486835549
O  O79  1  0.33719000  0.14271000  0.76554000  1.0 -0.5199802702
O  O80  1  0.29066000  0.04428000  0.72218000  1.0 -0.5321740816
O  O81  1  0.32490000  0.22985000  0.64135000  1.0 -0.5363646122
O  O82  1  0.28571000  0.17512000  0.54523000  1.0 -0.4509586628
O  O83  1  0.28740000  0.65390000  0.02490000  1.0 -0.5199802702
O  O84  1  0.23167000  0.69727000  0.01340000  1.0 -0.5199802702
O  O85  1  0.54840000  0.72880000  0.87540000  1.0 -0.5008131611
O  O86  1  0.55599000  0.77305000  0.82174000  1.0 -0.5363646122
O  O87  1  0.68829000  0.95185000  0.12784000  1.0 -0.4765708159
O  O88  1  0.64950000  0.85340000  0.08870000  1.0 -0.5569071705
O  O89  1  0.37203000  0.04348000  0.80891000  1.0 -0.5008131611
O  O90  1  0.41700000  0.14226000  0.85786000  1.0 -0.5486835549
O  O91  1  0.37717000  0.57165000  0.23446000  1.0 -0.5199802702
O  O92  1  0.32210000  0.56848000  0.27782000  1.0 -0.5321740816
O  O93  1  0.58850000  0.68355000  0.35865000  1.0 -0.5363646122
O  O94  1  0.62989000  0.74048000  0.45477000  1.0 -0.4509586628
O  O95  1  0.62900000  0.26250000  0.97510000  1.0 -0.5199802702
O  O96  1  0.68387000  0.21827000  0.98660000  1.0 -0.5199802702
