# DDEC6 charges by PACMAN v1.1 (https://github.com/mtap-research/PACMAN-charge/)
data_DAKZUN_ASR_pacman
_symmetry_space_group_name_H-M   'P 1'
_cell_length_a   7.25620000
_cell_length_b   19.35860000
_cell_length_c   25.93950000
_cell_angle_alpha   90.00000000
_cell_angle_beta   90.00000000
_cell_angle_gamma   90.00000000
_symmetry_Int_Tables_number   1
_chemical_formula_structural   TbH12(C9O2)3
_chemical_formula_sum   'Tb4 H48 C108 O24'
_cell_volume   3643.71827898
_cell_formula_units_Z   4
loop_
 _symmetry_equiv_pos_site_id
 _symmetry_equiv_pos_as_xyz
  1  'x, y, z'
loop_
 _atom_site_type_symbol
 _atom_site_label
 _atom_site_symmetry_multiplicity
 _atom_site_fract_x
 _atom_site_fract_y
 _atom_site_fract_z
 _atom_site_occupancy
 _atom_site_charge
Tb  Tb1  1  0.62977000  0.69257000  0.73851000  1.0 1.4905170154
Tb  Tb2  1  0.37023000  0.30743000  0.23851000  1.0 1.5310745191
Tb  Tb3  1  0.87023000  0.19257000  0.23851000  1.0 1.5310745191
Tb  Tb4  1  0.12977000  0.80743000  0.73851000  1.0 1.5310745191
H  H1  1  0.52780000  0.04120000  0.23060000  1.0 0.1305045976
H  H2  1  0.47220000  0.95880000  0.73060000  1.0 0.1305045976
H  H3  1  0.97220000  0.54120000  0.73060000  1.0 0.1305045976
H  H4  1  0.02780000  0.45880000  0.23060000  1.0 0.1305045976
H  H5  1  0.56190000  0.92820000  0.26110000  1.0 0.1197264978
H  H6  1  0.43810000  0.07180000  0.76110000  1.0 0.1197264978
H  H7  1  0.93810000  0.42820000  0.76110000  1.0 0.1197264978
H  H8  1  0.06190000  0.57180000  0.26110000  1.0 0.1197264978
H  H9  1  0.29250000  0.98240000  0.39150000  1.0 0.1197264978
H  H10  1  0.70750000  0.01760000  0.89150000  1.0 0.1197264978
H  H11  1  0.20750000  0.48240000  0.89150000  1.0 0.1197264978
H  H12  1  0.79250000  0.51760000  0.39150000  1.0 0.1197264978
H  H13  1  0.22670000  0.09080000  0.35600000  1.0 0.1197264978
H  H14  1  0.77330000  0.90920000  0.85600000  1.0 0.1197264978
H  H15  1  0.27330000  0.59080000  0.85600000  1.0 0.1197264978
H  H16  1  0.72670000  0.40920000  0.35600000  1.0 0.1197264978
H  H17  1  0.88490000  0.91420000  0.56310000  1.0 0.1305045976
H  H18  1  0.11510000  0.08580000  0.06310000  1.0 0.1305045976
H  H19  1  0.61510000  0.41420000  0.06310000  1.0 0.1305045976
H  H20  1  0.38490000  0.58580000  0.56310000  1.0 0.1305045976
H  H21  1  0.77550000  0.91090000  0.48000000  1.0 0.1197264978
H  H22  1  0.22450000  0.08910000  0.98000000  1.0 0.1305045976
H  H23  1  0.72450000  0.41090000  0.98000000  1.0 0.1197264978
H  H24  1  0.27550000  0.58910000  0.48000000  1.0 0.1197264978
H  H25  1  0.58410000  0.71660000  0.50330000  1.0 0.1197264978
H  H26  1  0.41590000  0.28340000  0.00330000  1.0 0.1197264978
H  H27  1  0.91590000  0.21660000  0.00330000  1.0 0.1120996308
H  H28  1  0.08410000  0.78340000  0.50330000  1.0 0.1197264978
H  H29  1  0.68640000  0.72010000  0.58740000  1.0 0.1197264978
H  H30  1  0.31360000  0.27990000  0.08740000  1.0 0.1197264978
H  H31  1  0.81360000  0.22010000  0.08740000  1.0 0.1197264978
H  H32  1  0.18640000  0.77990000  0.58740000  1.0 0.1197264978
H  H33  1  0.61060000  0.72970000  0.24780000  1.0 0.1120996308
H  H34  1  0.38940000  0.27030000  0.74780000  1.0 0.1197264978
H  H35  1  0.88940000  0.22970000  0.74780000  1.0 0.1197264978
H  H36  1  0.11060000  0.77030000  0.24780000  1.0 0.1197264978
H  H37  1  0.59550000  0.62730000  0.19970000  1.0 0.1305045976
H  H38  1  0.40450000  0.37270000  0.69970000  1.0 0.1305045976
H  H39  1  0.90450000  0.12730000  0.69970000  1.0 0.1305045976
H  H40  1  0.09550000  0.87270000  0.19970000  1.0 0.1305045976
H  H41  1  0.40820000  0.52770000  0.32730000  1.0 0.1120996308
H  H42  1  0.59180000  0.47230000  0.82730000  1.0 0.1120996308
H  H43  1  0.09180000  0.02770000  0.82730000  1.0 0.1120996308
H  H44  1  0.90820000  0.97230000  0.32730000  1.0 0.1120996308
H  H45  1  0.43930000  0.62850000  0.37500000  1.0 0.1120996308
H  H46  1  0.56070000  0.37150000  0.87500000  1.0 0.1120996308
H  H47  1  0.06070000  0.12850000  0.87500000  1.0 0.1120996308
H  H48  1  0.93930000  0.87150000  0.37500000  1.0 0.1120996308
C  C1  1  0.36280000  0.14960000  0.27200000  1.0 0.5976018261
C  C2  1  0.63720000  0.85040000  0.77200000  1.0 0.5976018261
C  C3  1  0.13720000  0.64960000  0.77200000  1.0 0.5976018261
C  C4  1  0.86280000  0.35040000  0.27200000  1.0 0.5976018261
C  C5  1  0.37870000  0.07730000  0.29040000  1.0 -0.0287469979
C  C6  1  0.62130000  0.92270000  0.79040000  1.0 -0.0287469979
C  C7  1  0.12130000  0.57730000  0.79040000  1.0 -0.0287469979
C  C8  1  0.87870000  0.42270000  0.29040000  1.0 -0.0287469979
C  C9  1  0.47650000  0.02890000  0.26300000  1.0 -0.0579419105
C  C10  1  0.52350000  0.97110000  0.76300000  1.0 -0.0579419105
C  C11  1  0.02350000  0.52890000  0.76300000  1.0 -0.0579419105
C  C12  1  0.97650000  0.47110000  0.26300000  1.0 -0.0579419105
C  C13  1  0.50210000  0.96210000  0.28170000  1.0 -0.1218949977
C  C14  1  0.49790000  0.03790000  0.78170000  1.0 -0.1218949977
C  C15  1  0.99790000  0.46210000  0.78170000  1.0 -0.1218949977
C  C16  1  0.00210000  0.53790000  0.28170000  1.0 -0.1218949977
C  C17  1  0.44000000  0.94570000  0.33030000  1.0 0.0813502006
C  C18  1  0.56000000  0.05430000  0.83030000  1.0 0.0813502006
C  C19  1  0.06000000  0.44570000  0.83030000  1.0 0.0813502006
C  C20  1  0.94000000  0.55430000  0.33030000  1.0 0.0813502006
C  C21  1  0.33800000  0.99400000  0.35820000  1.0 -0.137062532
C  C22  1  0.66200000  0.00600000  0.85820000  1.0 -0.137062532
C  C23  1  0.16200000  0.49400000  0.85820000  1.0 -0.137062532
C  C24  1  0.83800000  0.50600000  0.35820000  1.0 -0.137062532
C  C25  1  0.30240000  0.05910000  0.33780000  1.0 -0.0898044874
C  C26  1  0.69760000  0.94090000  0.83780000  1.0 -0.0898044874
C  C27  1  0.19760000  0.55910000  0.83780000  1.0 -0.0898044874
C  C28  1  0.80240000  0.44090000  0.33780000  1.0 -0.0898044874
C  C29  1  0.48710000  0.87680000  0.35360000  1.0 0.0126895633
C  C30  1  0.51290000  0.12320000  0.85360000  1.0 0.0126895633
C  C31  1  0.01290000  0.37680000  0.85360000  1.0 0.0126895633
C  C32  1  0.98710000  0.62320000  0.35360000  1.0 0.0126895633
C  C33  1  0.49150000  0.81710000  0.32390000  1.0 -0.0579419105
C  C34  1  0.50850000  0.18290000  0.82390000  1.0 -0.0579419105
C  C35  1  0.00850000  0.31710000  0.82390000  1.0 -0.0579419105
C  C36  1  0.99150000  0.68290000  0.32390000  1.0 -0.0499195335
C  C37  1  0.85780000  0.81890000  0.63940000  1.0 0.5597790133
C  C38  1  0.14220000  0.18110000  0.13940000  1.0 0.5597790133
C  C39  1  0.64220000  0.31890000  0.13940000  1.0 0.5597790133
C  C40  1  0.35780000  0.68110000  0.63940000  1.0 0.5597790133
C  C41  1  0.78810000  0.81780000  0.58510000  1.0 0.0020198522
C  C42  1  0.21190000  0.18220000  0.08510000  1.0 0.0020198522
C  C43  1  0.71190000  0.31780000  0.08510000  1.0 0.0020198522
C  C44  1  0.28810000  0.68220000  0.58510000  1.0 0.0020198522
C  C45  1  0.82000000  0.87470000  0.55120000  1.0 -0.0898044874
C  C46  1  0.18000000  0.12530000  0.05120000  1.0 -0.0898044874
C  C47  1  0.68000000  0.37470000  0.05120000  1.0 -0.0898044874
C  C48  1  0.32000000  0.62530000  0.55120000  1.0 -0.0898044874
C  C49  1  0.75730000  0.87220000  0.50180000  1.0 -0.1502919357
C  C50  1  0.24270000  0.12780000  0.00180000  1.0 -0.1502919357
C  C51  1  0.74270000  0.37220000  0.00180000  1.0 -0.1502919357
C  C52  1  0.25730000  0.62780000  0.50180000  1.0 -0.1502919357
C  C53  1  0.66550000  0.81320000  0.48220000  1.0 0.0896168974
C  C54  1  0.33450000  0.18680000  0.98220000  1.0 0.0896168974
C  C55  1  0.83450000  0.31320000  0.98220000  1.0 0.0896168974
C  C56  1  0.16550000  0.68680000  0.48220000  1.0 0.0896168974
C  C57  1  0.64290000  0.75730000  0.51560000  1.0 -0.137062532
C  C58  1  0.35710000  0.24270000  0.01560000  1.0 -0.137062532
C  C59  1  0.85710000  0.25730000  0.01560000  1.0 -0.137062532
C  C60  1  0.14290000  0.74270000  0.51560000  1.0 -0.137062532
C  C61  1  0.70310000  0.75920000  0.56580000  1.0 -0.0988647489
C  C62  1  0.29690000  0.24080000  0.06580000  1.0 -0.0988647489
C  C63  1  0.79690000  0.25920000  0.06580000  1.0 -0.0988647489
C  C64  1  0.20310000  0.74080000  0.56580000  1.0 -0.0988647489
C  C65  1  0.59670000  0.81240000  0.42860000  1.0 -0.01087788
C  C66  1  0.40330000  0.18760000  0.92860000  1.0 -0.01087788
C  C67  1  0.90330000  0.31240000  0.92860000  1.0 -0.01087788
C  C68  1  0.09670000  0.68760000  0.42860000  1.0 -0.01087788
C  C69  1  0.53800000  0.87540000  0.40620000  1.0 -0.0499195335
C  C70  1  0.46200000  0.12460000  0.90620000  1.0 -0.0499195335
C  C71  1  0.96200000  0.37540000  0.90620000  1.0 -0.0499195335
C  C72  1  0.03800000  0.62460000  0.40620000  1.0 -0.0499195335
C  C73  1  0.59510000  0.75300000  0.39890000  1.0 -0.0499195335
C  C74  1  0.40490000  0.24700000  0.89890000  1.0 -0.0499195335
C  C75  1  0.90490000  0.25300000  0.89890000  1.0 -0.0499195335
C  C76  1  0.09510000  0.74700000  0.39890000  1.0 -0.0499195335
C  C77  1  0.54160000  0.75430000  0.34680000  1.0 0.0126895633
C  C78  1  0.45840000  0.24570000  0.84680000  1.0 0.0126895633
C  C79  1  0.95840000  0.25430000  0.84680000  1.0 0.0126895633
C  C80  1  0.04160000  0.74570000  0.34680000  1.0 0.0126895633
C  C81  1  0.52790000  0.68980000  0.31630000  1.0 0.0813502006
C  C82  1  0.47210000  0.31020000  0.81630000  1.0 0.0813502006
C  C83  1  0.97210000  0.18980000  0.81630000  1.0 0.0813502006
C  C84  1  0.02790000  0.81020000  0.31630000  1.0 0.0813502006
C  C85  1  0.57270000  0.68820000  0.26420000  1.0 -0.1295679185
C  C86  1  0.42730000  0.31180000  0.76420000  1.0 -0.1295679185
C  C87  1  0.92730000  0.18820000  0.76420000  1.0 -0.1295679185
C  C88  1  0.07270000  0.81180000  0.26420000  1.0 -0.1295679185
C  C89  1  0.56380000  0.62740000  0.23530000  1.0 -0.0988647489
C  C90  1  0.43620000  0.37260000  0.73530000  1.0 -0.0988647489
C  C91  1  0.93620000  0.12740000  0.73530000  1.0 -0.0988647489
C  C92  1  0.06380000  0.87260000  0.23530000  1.0 -0.0988647489
C  C93  1  0.50740000  0.56690000  0.25970000  1.0 -0.0287469979
C  C94  1  0.49260000  0.43310000  0.75970000  1.0 -0.0287469979
C  C95  1  0.99260000  0.06690000  0.75970000  1.0 -0.0287469979
C  C96  1  0.00740000  0.93310000  0.25970000  1.0 -0.0287469979
C  C97  1  0.45450000  0.56830000  0.31140000  1.0 -0.0988647489
C  C98  1  0.54550000  0.43170000  0.81140000  1.0 -0.0988647489
C  C99  1  0.04550000  0.06830000  0.81140000  1.0 -0.0988647489
C  C100  1  0.95450000  0.93170000  0.31140000  1.0 -0.0988647489
C  C101  1  0.46940000  0.62870000  0.33940000  1.0 -0.137062532
C  C102  1  0.53060000  0.37130000  0.83940000  1.0 -0.137062532
C  C103  1  0.03060000  0.12870000  0.83940000  1.0 -0.137062532
C  C104  1  0.96940000  0.87130000  0.33940000  1.0 -0.137062532
C  C105  1  0.49500000  0.50000000  0.23210000  1.0 0.5469772171
C  C106  1  0.50500000  0.50000000  0.73210000  1.0 0.5469772171
C  C107  1  0.00500000  0.00000000  0.73210000  1.0 0.5469772171
C  C108  1  0.99500000  0.00000000  0.23210000  1.0 0.5469772171
O  O1  1  0.21950000  0.18350000  0.28160000  1.0 -0.5991339732
O  O2  1  0.78050000  0.81650000  0.78160000  1.0 -0.5991339732
O  O3  1  0.28050000  0.68350000  0.78160000  1.0 -0.5991339732
O  O4  1  0.71950000  0.31650000  0.28160000  1.0 -0.5991339732
O  O5  1  0.49600000  0.17210000  0.24460000  1.0 -0.6487564791
O  O6  1  0.50400000  0.82790000  0.74460000  1.0 -0.6487564791
O  O7  1  0.00400000  0.67210000  0.74460000  1.0 -0.6487564791
O  O8  1  0.99600000  0.32790000  0.24460000  1.0 -0.6487564791
O  O9  1  0.83160000  0.76680000  0.66666667  1.0 -0.5991339732
O  O10  1  0.16840000  0.23320000  0.16667000  1.0 -0.6058533836
O  O11  1  0.66840000  0.26680000  0.16667000  1.0 -0.6058533836
O  O12  1  0.33160000  0.73320000  0.66666667  1.0 -0.5991339732
O  O13  1  0.95310000  0.87080000  0.65380000  1.0 -0.525213902
O  O14  1  0.04690000  0.12920000  0.15380000  1.0 -0.525213902
O  O15  1  0.54690000  0.37080000  0.15380000  1.0 -0.525213902
O  O16  1  0.45310000  0.62920000  0.65380000  1.0 -0.5230335641
O  O17  1  0.41890000  0.45020000  0.24980000  1.0 -0.5438212503
O  O18  1  0.58110000  0.54980000  0.74980000  1.0 -0.5438212503
O  O19  1  0.08110000  0.95020000  0.74980000  1.0 -0.5438212503
O  O20  1  0.91890000  0.04980000  0.24980000  1.0 -0.5438212503
O  O21  1  0.57160000  0.49860000  0.18540000  1.0 -0.4684818336
O  O22  1  0.42840000  0.50140000  0.68540000  1.0 -0.4684818336
O  O23  1  0.92840000  0.99860000  0.68540000  1.0 -0.4684818336
O  O24  1  0.07160000  0.00140000  0.18540000  1.0 -0.464874779
