# DDEC6 charges by PACMAN v1.1 (https://github.com/mtap-research/PACMAN-charge/)
data_DALVIY_ASR_pacman
_symmetry_space_group_name_H-M   'P 1'
_cell_length_a   21.61250000
_cell_length_b   34.96700000
_cell_length_c   41.29600000
_cell_angle_alpha   90.00000000
_cell_angle_beta   90.00000000
_cell_angle_gamma   90.00000000
_symmetry_Int_Tables_number   1
_chemical_formula_structural   Gd3H13C37(N2O9)2
_chemical_formula_sum   'Gd48 H208 C592 N64 O288'
_cell_volume   31208.39017660
_cell_formula_units_Z   16
loop_
 _symmetry_equiv_pos_site_id
 _symmetry_equiv_pos_as_xyz
  1  'x, y, z'
loop_
 _atom_site_type_symbol
 _atom_site_label
 _atom_site_symmetry_multiplicity
 _atom_site_fract_x
 _atom_site_fract_y
 _atom_site_fract_z
 _atom_site_occupancy
 _atom_site_charge
Gd  Gd1  1  0.93752000  0.72340000  0.04341000  1.0 2.0289633646
Gd  Gd2  1  0.06248000  0.77660000  0.54341000  1.0 2.0289633646
Gd  Gd3  1  0.43752000  0.27660000  0.45659000  1.0 2.0289633646
Gd  Gd4  1  0.56248000  0.22340000  0.95659000  1.0 2.0289633646
Gd  Gd5  1  0.06248000  0.27660000  0.95659000  1.0 2.0289633646
Gd  Gd6  1  0.93752000  0.22340000  0.45659000  1.0 2.0289633646
Gd  Gd7  1  0.56248000  0.72340000  0.54341000  1.0 2.0289633646
Gd  Gd8  1  0.43752000  0.77660000  0.04341000  1.0 2.0289633646
Gd  Gd9  1  0.72427000  0.47767000  0.89407000  1.0 2.0581469312
Gd  Gd10  1  0.27573000  0.02233000  0.39407000  1.0 2.0581469312
Gd  Gd11  1  0.22427000  0.52233000  0.60593000  1.0 2.0581469312
Gd  Gd12  1  0.77573000  0.97767000  0.10593000  1.0 2.0581469312
Gd  Gd13  1  0.27573000  0.52233000  0.10593000  1.0 2.0581469312
Gd  Gd14  1  0.72427000  0.97767000  0.60593000  1.0 2.0581469312
Gd  Gd15  1  0.77573000  0.47767000  0.39407000  1.0 2.0581469312
Gd  Gd16  1  0.22427000  0.02233000  0.89407000  1.0 2.0581469312
Gd  Gd17  1  0.85458000  0.55109000  0.83986000  1.0 2.0421741678
Gd  Gd18  1  0.14542000  0.94891000  0.33986000  1.0 2.0421741678
Gd  Gd19  1  0.35458000  0.44891000  0.66014000  1.0 2.0421741678
Gd  Gd20  1  0.64542000  0.05109000  0.16014000  1.0 2.0421741678
Gd  Gd21  1  0.14542000  0.44891000  0.16014000  1.0 2.0421741678
Gd  Gd22  1  0.85458000  0.05109000  0.66014000  1.0 2.0421741678
Gd  Gd23  1  0.64542000  0.55109000  0.33986000  1.0 2.0421741678
Gd  Gd24  1  0.35458000  0.94891000  0.83986000  1.0 2.0421741678
Gd  Gd25  1  0.64699000  0.40696000  0.14623000  1.0 2.0145282223
Gd  Gd26  1  0.35301000  0.09304000  0.64623000  1.0 2.0145282223
Gd  Gd27  1  0.14699000  0.59304000  0.35377000  1.0 2.0145282223
Gd  Gd28  1  0.85301000  0.90696000  0.85377000  1.0 2.0145282223
Gd  Gd29  1  0.35301000  0.59304000  0.85377000  1.0 2.0145282223
Gd  Gd30  1  0.64699000  0.90696000  0.35377000  1.0 2.0145282223
Gd  Gd31  1  0.85301000  0.40696000  0.64623000  1.0 2.0145282223
Gd  Gd32  1  0.14699000  0.09304000  0.14623000  1.0 2.0145282223
Gd  Gd33  1  0.21973000  0.64633000  0.92994000  1.0 2.0145282223
Gd  Gd34  1  0.78027000  0.85367000  0.42994000  1.0 2.0169617607
Gd  Gd35  1  0.71973000  0.35367000  0.57006000  1.0 2.0145282223
Gd  Gd36  1  0.28027000  0.14633000  0.07006000  1.0 2.0145282223
Gd  Gd37  1  0.78027000  0.35367000  0.07006000  1.0 2.0145282223
Gd  Gd38  1  0.21973000  0.14633000  0.57006000  1.0 2.0145282223
Gd  Gd39  1  0.28027000  0.64633000  0.42994000  1.0 2.0145282223
Gd  Gd40  1  0.71973000  0.85367000  0.92994000  1.0 2.0169617607
Gd  Gd41  1  0.05993000  0.65430000  0.98324000  1.0 2.0421741678
Gd  Gd42  1  0.94007000  0.84570000  0.48324000  1.0 2.0421741678
Gd  Gd43  1  0.55993000  0.34570000  0.51676000  1.0 2.0421741678
Gd  Gd44  1  0.44007000  0.15430000  0.01676000  1.0 2.0421741678
Gd  Gd45  1  0.94007000  0.34570000  0.01676000  1.0 2.0421741678
Gd  Gd46  1  0.05993000  0.15430000  0.51676000  1.0 2.0421741678
Gd  Gd47  1  0.44007000  0.65430000  0.48324000  1.0 2.0421741678
Gd  Gd48  1  0.55993000  0.84570000  0.98324000  1.0 2.0421741678
H  H1  1  0.72250000  0.76880000  0.03150000  1.0 0.1317301281
H  H2  1  0.27750000  0.73120000  0.53150000  1.0 0.1317301281
H  H3  1  0.22250000  0.23120000  0.46850000  1.0 0.1317301281
H  H4  1  0.77750000  0.26880000  0.96850000  1.0 0.1317301281
H  H5  1  0.27750000  0.23120000  0.96850000  1.0 0.1317301281
H  H6  1  0.72250000  0.26880000  0.46850000  1.0 0.1317301281
H  H7  1  0.77750000  0.76880000  0.53150000  1.0 0.1317301281
H  H8  1  0.22250000  0.73120000  0.03150000  1.0 0.1317301281
H  H9  1  0.57100000  0.71880000  0.06750000  1.0 0.1224725786
H  H10  1  0.42900000  0.78120000  0.56750000  1.0 0.1224725786
H  H11  1  0.07100000  0.28120000  0.43250000  1.0 0.1224725786
H  H12  1  0.92900000  0.21880000  0.93250000  1.0 0.1224725786
H  H13  1  0.42900000  0.28120000  0.93250000  1.0 0.1224725786
H  H14  1  0.57100000  0.21880000  0.43250000  1.0 0.1224725786
H  H15  1  0.92900000  0.71880000  0.56750000  1.0 0.1224725786
H  H16  1  0.07100000  0.78120000  0.06750000  1.0 0.1224725786
H  H17  1  0.71160000  0.61790000  0.81620000  1.0 0.1317301281
H  H18  1  0.28840000  0.88210000  0.31620000  1.0 0.1317301281
H  H19  1  0.21160000  0.38210000  0.68380000  1.0 0.1317301281
H  H20  1  0.78840000  0.11790000  0.18380000  1.0 0.1317301281
H  H21  1  0.28840000  0.38210000  0.18380000  1.0 0.1317301281
H  H22  1  0.71160000  0.11790000  0.68380000  1.0 0.1317301281
H  H23  1  0.78840000  0.61790000  0.31620000  1.0 0.1317301281
H  H24  1  0.21160000  0.88210000  0.81620000  1.0 0.1317301281
H  H25  1  0.74070000  0.68210000  0.09260000  1.0 0.1401223323
H  H26  1  0.25930000  0.81790000  0.59260000  1.0 0.1401223323
H  H27  1  0.24070000  0.31790000  0.40740000  1.0 0.1401223323
H  H28  1  0.75930000  0.18210000  0.90740000  1.0 0.1401223323
H  H29  1  0.25930000  0.31790000  0.90740000  1.0 0.1401223323
H  H30  1  0.74070000  0.18210000  0.40740000  1.0 0.1401223323
H  H31  1  0.75930000  0.68210000  0.59260000  1.0 0.1401223323
H  H32  1  0.24070000  0.81790000  0.09260000  1.0 0.1401223323
H  H33  1  0.89320000  0.60380000  0.94650000  1.0 0.1401223323
H  H34  1  0.10680000  0.89620000  0.44650000  1.0 0.1401223323
H  H35  1  0.39320000  0.39620000  0.55350000  1.0 0.1401223323
H  H36  1  0.60680000  0.10380000  0.05350000  1.0 0.1401223323
H  H37  1  0.10680000  0.39620000  0.05350000  1.0 0.1401223323
H  H38  1  0.89320000  0.10380000  0.55350000  1.0 0.1401223323
H  H39  1  0.60680000  0.60380000  0.44650000  1.0 0.1401223323
H  H40  1  0.39320000  0.89620000  0.94650000  1.0 0.1401223323
H  H41  1  0.72600000  0.55790000  0.96320000  1.0 0.1317301281
H  H42  1  0.27400000  0.94210000  0.46320000  1.0 0.1317301281
H  H43  1  0.22600000  0.44210000  0.53680000  1.0 0.1317301281
H  H44  1  0.77400000  0.05790000  0.03680000  1.0 0.1317301281
H  H45  1  0.27400000  0.44210000  0.03680000  1.0 0.1317301281
H  H46  1  0.72600000  0.05790000  0.53680000  1.0 0.1317301281
H  H47  1  0.77400000  0.55790000  0.46320000  1.0 0.1317301281
H  H48  1  0.22600000  0.94210000  0.96320000  1.0 0.1317301281
H  H49  1  0.79990000  0.63140000  0.02760000  1.0 0.1317301281
H  H50  1  0.20010000  0.86860000  0.52760000  1.0 0.1317301281
H  H51  1  0.29990000  0.36860000  0.47240000  1.0 0.1317301281
H  H52  1  0.70010000  0.13140000  0.97240000  1.0 0.1317301281
H  H53  1  0.20010000  0.36860000  0.97240000  1.0 0.1317301281
H  H54  1  0.79990000  0.13140000  0.47240000  1.0 0.1317301281
H  H55  1  0.70010000  0.63140000  0.52760000  1.0 0.1317301281
H  H56  1  0.29990000  0.86860000  0.02760000  1.0 0.1317301281
H  H57  1  0.90280000  0.41170000  0.92570000  1.0 0.1317301281
H  H58  1  0.09720000  0.08830000  0.42570000  1.0 0.1317301281
H  H59  1  0.40280000  0.58830000  0.57430000  1.0 0.1317301281
H  H60  1  0.59720000  0.91170000  0.07430000  1.0 0.1317301281
H  H61  1  0.09720000  0.58830000  0.07430000  1.0 0.1317301281
H  H62  1  0.90280000  0.91170000  0.57430000  1.0 0.1317301281
H  H63  1  0.59720000  0.41170000  0.42570000  1.0 0.1317301281
H  H64  1  0.40280000  0.08830000  0.92570000  1.0 0.1317301281
H  H65  1  0.07450000  0.38310000  0.90180000  1.0 0.1317301281
H  H66  1  0.92550000  0.11690000  0.40180000  1.0 0.1317301281
H  H67  1  0.57450000  0.61690000  0.59820000  1.0 0.1317301281
H  H68  1  0.42550000  0.88310000  0.09820000  1.0 0.1317301281
H  H69  1  0.92550000  0.61690000  0.09820000  1.0 0.1317301281
H  H70  1  0.07450000  0.88310000  0.59820000  1.0 0.1317301281
H  H71  1  0.42550000  0.38310000  0.40180000  1.0 0.1317301281
H  H72  1  0.57450000  0.11690000  0.90180000  1.0 0.1317301281
H  H73  1  0.98210000  0.47050000  0.85450000  1.0 0.1317301281
H  H74  1  0.01790000  0.02950000  0.35450000  1.0 0.1317301281
H  H75  1  0.48210000  0.52950000  0.64550000  1.0 0.1317301281
H  H76  1  0.51790000  0.97050000  0.14550000  1.0 0.1317301281
H  H77  1  0.01790000  0.52950000  0.14550000  1.0 0.1317301281
H  H78  1  0.98210000  0.97050000  0.64550000  1.0 0.1317301281
H  H79  1  0.51790000  0.47050000  0.35450000  1.0 0.1317301281
H  H80  1  0.48210000  0.02950000  0.85450000  1.0 0.1317301281
H  H81  1  0.70040000  0.43670000  0.00800000  1.0 0.1317301281
H  H82  1  0.29960000  0.06330000  0.50800000  1.0 0.1317301281
H  H83  1  0.20040000  0.56330000  0.49200000  1.0 0.1317301281
H  H84  1  0.79960000  0.93670000  0.99200000  1.0 0.1317301281
H  H85  1  0.29960000  0.56330000  0.99200000  1.0 0.1317301281
H  H86  1  0.70040000  0.93670000  0.49200000  1.0 0.1317301281
H  H87  1  0.79960000  0.43670000  0.50800000  1.0 0.1317301281
H  H88  1  0.20040000  0.06330000  0.00800000  1.0 0.1317301281
H  H89  1  0.58130000  0.47580000  0.07300000  1.0 0.1401223323
H  H90  1  0.41870000  0.02420000  0.57300000  1.0 0.1401223323
H  H91  1  0.08130000  0.52420000  0.42700000  1.0 0.1401223323
H  H92  1  0.91870000  0.97580000  0.92700000  1.0 0.1401223323
H  H93  1  0.41870000  0.52420000  0.92700000  1.0 0.1401223323
H  H94  1  0.58130000  0.97580000  0.42700000  1.0 0.1401223323
H  H95  1  0.91870000  0.47580000  0.57300000  1.0 0.1401223323
H  H96  1  0.08130000  0.02420000  0.07300000  1.0 0.1401223323
H  H97  1  0.58490000  0.52220000  0.98440000  1.0 0.1224725786
H  H98  1  0.41510000  0.97780000  0.48440000  1.0 0.1224725786
H  H99  1  0.08490000  0.47780000  0.51560000  1.0 0.1224725786
H  H100  1  0.91510000  0.02220000  0.01560000  1.0 0.1224725786
H  H101  1  0.41510000  0.47780000  0.01560000  1.0 0.1224725786
H  H102  1  0.58490000  0.02220000  0.51560000  1.0 0.1224725786
H  H103  1  0.91510000  0.52220000  0.48440000  1.0 0.1224725786
H  H104  1  0.08490000  0.97780000  0.98440000  1.0 0.1224725786
H  H105  1  0.82370000  0.45760000  0.75480000  1.0 0.1401223323
H  H106  1  0.17630000  0.04240000  0.25480000  1.0 0.1401223323
H  H107  1  0.32370000  0.54240000  0.74520000  1.0 0.1401223323
H  H108  1  0.67630000  0.95760000  0.24520000  1.0 0.1401223323
H  H109  1  0.17630000  0.54240000  0.24520000  1.0 0.1401223323
H  H110  1  0.82370000  0.95760000  0.74520000  1.0 0.1401223323
H  H111  1  0.67630000  0.45760000  0.25480000  1.0 0.1401223323
H  H112  1  0.32370000  0.04240000  0.75480000  1.0 0.1401223323
H  H113  1  0.73350000  0.35850000  0.74010000  1.0 0.1401223323
H  H114  1  0.26650000  0.14150000  0.24010000  1.0 0.1401223323
H  H115  1  0.23350000  0.64150000  0.75990000  1.0 0.1401223323
H  H116  1  0.76650000  0.85850000  0.25990000  1.0 0.1401223323
H  H117  1  0.26650000  0.64150000  0.25990000  1.0 0.1401223323
H  H118  1  0.73350000  0.85850000  0.75990000  1.0 0.1401223323
H  H119  1  0.76650000  0.35850000  0.24010000  1.0 0.1401223323
H  H120  1  0.23350000  0.14150000  0.74010000  1.0 0.1401223323
H  H121  1  0.70990000  0.41530000  0.82380000  1.0 0.1317301281
H  H122  1  0.29010000  0.08470000  0.32380000  1.0 0.1317301281
H  H123  1  0.20990000  0.58470000  0.67620000  1.0 0.1317301281
H  H124  1  0.79010000  0.91530000  0.17620000  1.0 0.1317301281
H  H125  1  0.29010000  0.58470000  0.17620000  1.0 0.1317301281
H  H126  1  0.70990000  0.91530000  0.67620000  1.0 0.1317301281
H  H127  1  0.79010000  0.41530000  0.32380000  1.0 0.1317301281
H  H128  1  0.20990000  0.08470000  0.82380000  1.0 0.1317301281
H  H129  1  0.07100000  0.57840000  0.86770000  1.0 0.1224725786
H  H130  1  0.92900000  0.92160000  0.36770000  1.0 0.1224725786
H  H131  1  0.57100000  0.42160000  0.63230000  1.0 0.1224725786
H  H132  1  0.42900000  0.07840000  0.13230000  1.0 0.1224725786
H  H133  1  0.92900000  0.42160000  0.13230000  1.0 0.1224725786
H  H134  1  0.07100000  0.07840000  0.63230000  1.0 0.1224725786
H  H135  1  0.42900000  0.57840000  0.36770000  1.0 0.1224725786
H  H136  1  0.57100000  0.92160000  0.86770000  1.0 0.1224725786
H  H137  1  0.22120000  0.54460000  0.82020000  1.0 0.1317301281
H  H138  1  0.77880000  0.95540000  0.32020000  1.0 0.1317301281
H  H139  1  0.72120000  0.45540000  0.67980000  1.0 0.1317301281
H  H140  1  0.27880000  0.04460000  0.17980000  1.0 0.1317301281
H  H141  1  0.77880000  0.45540000  0.17980000  1.0 0.1317301281
H  H142  1  0.22120000  0.04460000  0.67980000  1.0 0.1317301281
H  H143  1  0.27880000  0.54460000  0.32020000  1.0 0.1317301281
H  H144  1  0.72120000  0.95540000  0.82020000  1.0 0.1317301281
H  H145  1  0.05400000  0.51750000  0.78790000  1.0 0.1317301281
H  H146  1  0.94600000  0.98250000  0.28790000  1.0 0.1317301281
H  H147  1  0.55400000  0.48250000  0.71210000  1.0 0.1317301281
H  H148  1  0.44600000  0.01750000  0.21210000  1.0 0.1317301281
H  H149  1  0.94600000  0.48250000  0.21210000  1.0 0.1317301281
H  H150  1  0.05400000  0.01750000  0.71210000  1.0 0.1317301281
H  H151  1  0.44600000  0.51750000  0.28790000  1.0 0.1317301281
H  H152  1  0.55400000  0.98250000  0.78790000  1.0 0.1317301281
H  H153  1  0.89480000  0.78460000  0.94880000  1.0 0.146160826
H  H154  1  0.10520000  0.71540000  0.44880000  1.0 0.146160826
H  H155  1  0.39480000  0.21540000  0.55120000  1.0 0.146160826
H  H156  1  0.60520000  0.28460000  0.05120000  1.0 0.146160826
H  H157  1  0.10520000  0.21540000  0.05120000  1.0 0.146160826
H  H158  1  0.89480000  0.28460000  0.55120000  1.0 0.146160826
H  H159  1  0.60520000  0.78460000  0.44880000  1.0 0.146160826
H  H160  1  0.39480000  0.71540000  0.94880000  1.0 0.146160826
H  H161  1  0.94060000  0.80720000  0.85570000  1.0 0.1401223323
H  H162  1  0.05940000  0.69280000  0.35570000  1.0 0.1401223323
H  H163  1  0.44060000  0.19280000  0.64430000  1.0 0.1401223323
H  H164  1  0.55940000  0.30720000  0.14430000  1.0 0.1401223323
H  H165  1  0.05940000  0.19280000  0.14430000  1.0 0.1401223323
H  H166  1  0.94060000  0.30720000  0.64430000  1.0 0.1401223323
H  H167  1  0.55940000  0.80720000  0.35570000  1.0 0.1401223323
H  H168  1  0.44060000  0.69280000  0.85570000  1.0 0.1401223323
H  H169  1  0.03850000  0.73400000  0.90860000  1.0 0.1224725786
H  H170  1  0.96150000  0.76600000  0.40860000  1.0 0.1224725786
H  H171  1  0.53850000  0.26600000  0.59140000  1.0 0.1224725786
H  H172  1  0.46150000  0.23400000  0.09140000  1.0 0.1224725786
H  H173  1  0.96150000  0.26600000  0.09140000  1.0 0.1224725786
H  H174  1  0.03850000  0.23400000  0.59140000  1.0 0.1224725786
H  H175  1  0.46150000  0.73400000  0.40860000  1.0 0.1224725786
H  H176  1  0.53850000  0.76600000  0.90860000  1.0 0.1224725786
H  H177  1  0.57160000  0.56030000  0.85420000  1.0 0.1401223323
H  H178  1  0.42840000  0.93970000  0.35420000  1.0 0.1401223323
H  H179  1  0.07160000  0.43970000  0.64580000  1.0 0.1401223323
H  H180  1  0.92840000  0.06030000  0.14580000  1.0 0.1401223323
H  H181  1  0.42840000  0.43970000  0.14580000  1.0 0.1401223323
H  H182  1  0.57160000  0.06030000  0.64580000  1.0 0.1401223323
H  H183  1  0.92840000  0.56030000  0.35420000  1.0 0.1401223323
H  H184  1  0.07160000  0.93970000  0.85420000  1.0 0.1401223323
H  H185  1  0.53650000  0.65140000  0.80100000  1.0 0.1317301281
H  H186  1  0.46350000  0.84860000  0.30100000  1.0 0.1317301281
H  H187  1  0.03650000  0.34860000  0.69900000  1.0 0.1317301281
H  H188  1  0.96350000  0.15140000  0.19900000  1.0 0.1317301281
H  H189  1  0.46350000  0.34860000  0.19900000  1.0 0.1317301281
H  H190  1  0.53650000  0.15140000  0.69900000  1.0 0.1317301281
H  H191  1  0.96350000  0.65140000  0.30100000  1.0 0.1317301281
H  H192  1  0.03650000  0.84860000  0.80100000  1.0 0.1317301281
H  H193  1  0.06480000  0.64880000  0.88930000  1.0 0.1317301281
H  H194  1  0.93520000  0.85120000  0.38930000  1.0 0.1317301281
H  H195  1  0.56480000  0.35120000  0.61070000  1.0 0.1317301281
H  H196  1  0.43520000  0.14880000  0.11070000  1.0 0.1317301281
H  H197  1  0.93520000  0.35120000  0.11070000  1.0 0.1317301281
H  H198  1  0.06480000  0.14880000  0.61070000  1.0 0.1317301281
H  H199  1  0.43520000  0.64880000  0.38930000  1.0 0.1317301281
H  H200  1  0.56480000  0.85120000  0.88930000  1.0 0.1317301281
H  H201  1  0.21080000  0.64060000  0.02190000  1.0 0.1317301281
H  H202  1  0.78920000  0.85940000  0.52190000  1.0 0.1317301281
H  H203  1  0.71080000  0.35940000  0.47810000  1.0 0.1317301281
H  H204  1  0.28920000  0.14060000  0.97810000  1.0 0.1317301281
H  H205  1  0.78920000  0.35940000  0.97810000  1.0 0.1317301281
H  H206  1  0.21080000  0.14060000  0.47810000  1.0 0.1317301281
H  H207  1  0.28920000  0.64060000  0.52190000  1.0 0.1317301281
H  H208  1  0.71080000  0.85940000  0.02190000  1.0 0.1317301281
C  C1  1  0.74320000  0.72580000  0.06170000  1.0 -0.0206217486
C  C2  1  0.25680000  0.77420000  0.56170000  1.0 -0.0206217486
C  C3  1  0.24320000  0.27420000  0.43830000  1.0 -0.0206217486
C  C4  1  0.75680000  0.22580000  0.93830000  1.0 -0.0206217486
C  C5  1  0.25680000  0.27420000  0.93830000  1.0 -0.0206217486
C  C6  1  0.74320000  0.22580000  0.43830000  1.0 -0.0206217486
C  C7  1  0.75680000  0.72580000  0.56170000  1.0 -0.0206217486
C  C8  1  0.24320000  0.77420000  0.06170000  1.0 -0.0206217486
C  C9  1  0.81190000  0.72700000  0.05700000  1.0 0.5694425887
C  C10  1  0.18810000  0.77300000  0.55700000  1.0 0.5694425887
C  C11  1  0.31190000  0.27300000  0.44300000  1.0 0.5694425887
C  C12  1  0.68810000  0.22700000  0.94300000  1.0 0.5694425887
C  C13  1  0.18810000  0.27300000  0.94300000  1.0 0.5694425887
C  C14  1  0.81190000  0.22700000  0.44300000  1.0 0.5694425887
C  C15  1  0.68810000  0.72700000  0.55700000  1.0 0.5694425887
C  C16  1  0.31190000  0.77300000  0.05700000  1.0 0.5694425887
C  C17  1  0.70510000  0.75050000  0.04510000  1.0 -0.0896806718
C  C18  1  0.29490000  0.74950000  0.54510000  1.0 -0.0896806718
C  C19  1  0.20510000  0.24950000  0.45490000  1.0 -0.0896806718
C  C20  1  0.79490000  0.25050000  0.95490000  1.0 -0.0896806718
C  C21  1  0.29490000  0.24950000  0.95490000  1.0 -0.0896806718
C  C22  1  0.70510000  0.25050000  0.45490000  1.0 -0.0896806718
C  C23  1  0.79490000  0.75050000  0.54510000  1.0 -0.0896806718
C  C24  1  0.20510000  0.74950000  0.04510000  1.0 -0.0896806718
C  C25  1  0.64070000  0.74880000  0.04830000  1.0 -0.050872764
C  C26  1  0.35930000  0.75120000  0.54830000  1.0 -0.050872764
C  C27  1  0.14070000  0.25120000  0.45170000  1.0 -0.050872764
C  C28  1  0.85930000  0.24880000  0.95170000  1.0 -0.050872764
C  C29  1  0.35930000  0.25120000  0.95170000  1.0 -0.050872764
C  C30  1  0.64070000  0.24880000  0.45170000  1.0 -0.050872764
C  C31  1  0.85930000  0.74880000  0.54830000  1.0 -0.050872764
C  C32  1  0.14070000  0.75120000  0.04830000  1.0 -0.050872764
C  C33  1  0.60020000  0.77660000  0.03040000  1.0 0.6578997805
C  C34  1  0.39980000  0.72340000  0.53040000  1.0 0.6578997805
C  C35  1  0.10020000  0.22340000  0.46960000  1.0 0.6578997805
C  C36  1  0.89980000  0.27660000  0.96960000  1.0 0.6578997805
C  C37  1  0.39980000  0.22340000  0.96960000  1.0 0.6578997805
C  C38  1  0.60020000  0.27660000  0.46960000  1.0 0.6578997805
C  C39  1  0.89980000  0.77660000  0.53040000  1.0 0.6578997805
C  C40  1  0.10020000  0.72340000  0.03040000  1.0 0.6578997805
C  C41  1  0.61390000  0.72100000  0.06640000  1.0 -0.0896806718
C  C42  1  0.38610000  0.77900000  0.56640000  1.0 -0.0896806718
C  C43  1  0.11390000  0.27900000  0.43360000  1.0 -0.0896806718
C  C44  1  0.88610000  0.22100000  0.93360000  1.0 -0.0896806718
C  C45  1  0.38610000  0.27900000  0.93360000  1.0 -0.0896806718
C  C46  1  0.61390000  0.22100000  0.43360000  1.0 -0.0896806718
C  C47  1  0.88610000  0.72100000  0.56640000  1.0 -0.0896806718
C  C48  1  0.11390000  0.77900000  0.06640000  1.0 -0.0896806718
C  C49  1  0.65270000  0.69540000  0.08360000  1.0 0.0274415136
C  C50  1  0.34730000  0.80460000  0.58360000  1.0 0.0274415136
C  C51  1  0.15270000  0.30460000  0.41640000  1.0 0.0274415136
C  C52  1  0.84730000  0.19540000  0.91640000  1.0 0.0274415136
C  C53  1  0.34730000  0.30460000  0.91640000  1.0 0.0274415136
C  C54  1  0.65270000  0.19540000  0.41640000  1.0 0.0274415136
C  C55  1  0.84730000  0.69540000  0.58360000  1.0 0.0274415136
C  C56  1  0.15270000  0.80460000  0.08360000  1.0 0.0274415136
C  C57  1  0.62610000  0.66840000  0.10290000  1.0 0.1776057574
C  C58  1  0.37390000  0.83160000  0.60290000  1.0 0.1776057574
C  C59  1  0.12610000  0.33160000  0.39710000  1.0 0.1776057574
C  C60  1  0.87390000  0.16840000  0.89710000  1.0 0.1776057574
C  C61  1  0.37390000  0.33160000  0.89710000  1.0 0.1776057574
C  C62  1  0.62610000  0.16840000  0.39710000  1.0 0.1776057574
C  C63  1  0.87390000  0.66840000  0.60290000  1.0 0.1776057574
C  C64  1  0.12610000  0.83160000  0.10290000  1.0 0.1776057574
C  C65  1  0.66920000  0.61400000  0.81840000  1.0 -0.1179351216
C  C66  1  0.33080000  0.88600000  0.31840000  1.0 -0.1179351216
C  C67  1  0.16920000  0.38600000  0.68160000  1.0 -0.1179351216
C  C68  1  0.83080000  0.11400000  0.18160000  1.0 -0.1179351216
C  C69  1  0.33080000  0.38600000  0.18160000  1.0 -0.1179351216
C  C70  1  0.66920000  0.11400000  0.68160000  1.0 -0.1179351216
C  C71  1  0.83080000  0.61400000  0.31840000  1.0 -0.1179351216
C  C72  1  0.16920000  0.88600000  0.81840000  1.0 -0.1179351216
C  C73  1  0.71570000  0.69880000  0.08090000  1.0 -0.0896806718
C  C74  1  0.28430000  0.80120000  0.58090000  1.0 -0.0896806718
C  C75  1  0.21570000  0.30120000  0.41910000  1.0 -0.0896806718
C  C76  1  0.78430000  0.19880000  0.91910000  1.0 -0.0896806718
C  C77  1  0.28430000  0.30120000  0.91910000  1.0 -0.0896806718
C  C78  1  0.71570000  0.19880000  0.41910000  1.0 -0.0896806718
C  C79  1  0.78430000  0.69880000  0.58090000  1.0 -0.0896806718
C  C80  1  0.21570000  0.80120000  0.08090000  1.0 -0.0896806718
C  C81  1  0.85040000  0.62290000  0.98610000  1.0 -0.0206217486
C  C82  1  0.14960000  0.87710000  0.48610000  1.0 -0.0206217486
C  C83  1  0.35040000  0.37710000  0.51390000  1.0 -0.0206217486
C  C84  1  0.64960000  0.12290000  0.01390000  1.0 -0.0206217486
C  C85  1  0.14960000  0.37710000  0.01390000  1.0 -0.0206217486
C  C86  1  0.85040000  0.12290000  0.51390000  1.0 -0.0206217486
C  C87  1  0.64960000  0.62290000  0.48610000  1.0 -0.0206217486
C  C88  1  0.35040000  0.87710000  0.98610000  1.0 -0.0206217486
C  C89  1  0.90000000  0.65120000  0.99720000  1.0 0.6488363548
C  C90  1  0.10000000  0.84880000  0.49720000  1.0 0.6488363548
C  C91  1  0.40000000  0.34880000  0.50280000  1.0 0.6488363548
C  C92  1  0.60000000  0.15120000  0.00280000  1.0 0.6488363548
C  C93  1  0.10000000  0.34880000  0.00280000  1.0 0.6488363548
C  C94  1  0.90000000  0.15120000  0.50280000  1.0 0.6488363548
C  C95  1  0.60000000  0.65120000  0.49720000  1.0 0.6488363548
C  C96  1  0.40000000  0.84880000  0.99720000  1.0 0.6488363548
C  C97  1  0.85710000  0.60210000  0.95870000  1.0 -0.0776712905
C  C98  1  0.14290000  0.89790000  0.45870000  1.0 -0.0776712905
C  C99  1  0.35710000  0.39790000  0.54130000  1.0 -0.0776712905
C  C100  1  0.64290000  0.10210000  0.04130000  1.0 -0.0776712905
C  C101  1  0.14290000  0.39790000  0.04130000  1.0 -0.0776712905
C  C102  1  0.85710000  0.10210000  0.54130000  1.0 -0.0776712905
C  C103  1  0.64290000  0.60210000  0.45870000  1.0 -0.0776712905
C  C104  1  0.35710000  0.89790000  0.95870000  1.0 -0.0776712905
C  C105  1  0.80870000  0.57760000  0.94890000  1.0 -0.0584625255
C  C106  1  0.19130000  0.92240000  0.44890000  1.0 -0.0584625255
C  C107  1  0.30870000  0.42240000  0.55110000  1.0 -0.0584625255
C  C108  1  0.69130000  0.07760000  0.05110000  1.0 -0.0584625255
C  C109  1  0.19130000  0.42240000  0.05110000  1.0 -0.050872764
C  C110  1  0.80870000  0.07760000  0.55110000  1.0 -0.0584625255
C  C111  1  0.69130000  0.57760000  0.44890000  1.0 -0.0584625255
C  C112  1  0.30870000  0.92240000  0.94890000  1.0 -0.0584625255
C  C113  1  0.80960000  0.55810000  0.91730000  1.0 0.6488363548
C  C114  1  0.19040000  0.94190000  0.41730000  1.0 0.6488363548
C  C115  1  0.30960000  0.44190000  0.58270000  1.0 0.6488363548
C  C116  1  0.69040000  0.05810000  0.08270000  1.0 0.6488363548
C  C117  1  0.19040000  0.44190000  0.08270000  1.0 0.6488363548
C  C118  1  0.80960000  0.05810000  0.58270000  1.0 0.6488363548
C  C119  1  0.69040000  0.55810000  0.41730000  1.0 0.6488363548
C  C120  1  0.30960000  0.94190000  0.91730000  1.0 0.6488363548
C  C121  1  0.75870000  0.57350000  0.96950000  1.0 -0.1179351216
C  C122  1  0.24130000  0.92650000  0.46950000  1.0 -0.1179351216
C  C123  1  0.25870000  0.42650000  0.53050000  1.0 -0.1179351216
C  C124  1  0.74130000  0.07350000  0.03050000  1.0 -0.107457166
C  C125  1  0.24130000  0.42650000  0.03050000  1.0 -0.1179351216
C  C126  1  0.75870000  0.07350000  0.53050000  1.0 -0.107457166
C  C127  1  0.74130000  0.57350000  0.46950000  1.0 -0.1179351216
C  C128  1  0.25870000  0.92650000  0.96950000  1.0 -0.1179351216
C  C129  1  0.75540000  0.59200000  0.99920000  1.0 0.0619864337
C  C130  1  0.24460000  0.90800000  0.49920000  1.0 0.0619864337
C  C131  1  0.25540000  0.40800000  0.50080000  1.0 0.0619864337
C  C132  1  0.74460000  0.09200000  0.00080000  1.0 0.0619864337
C  C133  1  0.24460000  0.40800000  0.00080000  1.0 0.0619864337
C  C134  1  0.75540000  0.09200000  0.50080000  1.0 0.0619864337
C  C135  1  0.74460000  0.59200000  0.49920000  1.0 0.0619864337
C  C136  1  0.25540000  0.90800000  0.99920000  1.0 0.0619864337
C  C137  1  0.69980000  0.59070000  0.01860000  1.0 0.2388994768
C  C138  1  0.30020000  0.90930000  0.51860000  1.0 0.2388994768
C  C139  1  0.19980000  0.40930000  0.48140000  1.0 0.2388994768
C  C140  1  0.80020000  0.09070000  0.98140000  1.0 0.2388994768
C  C141  1  0.30020000  0.40930000  0.98140000  1.0 0.2388994768
C  C142  1  0.69980000  0.09070000  0.48140000  1.0 0.2388994768
C  C143  1  0.80020000  0.59070000  0.51860000  1.0 0.2388994768
C  C144  1  0.19980000  0.90930000  0.01860000  1.0 0.2388994768
C  C145  1  0.80150000  0.61810000  0.00820000  1.0 -0.1322363094
C  C146  1  0.19850000  0.88190000  0.50820000  1.0 -0.1322363094
C  C147  1  0.30150000  0.38190000  0.49180000  1.0 -0.1322363094
C  C148  1  0.69850000  0.11810000  0.99180000  1.0 -0.1322363094
C  C149  1  0.19850000  0.38190000  0.99180000  1.0 -0.1322363094
C  C150  1  0.80150000  0.11810000  0.49180000  1.0 -0.1322363094
C  C151  1  0.69850000  0.61810000  0.50820000  1.0 -0.1322363094
C  C152  1  0.30150000  0.88190000  0.00820000  1.0 -0.1322363094
C  C153  1  0.93360000  0.44510000  0.88940000  1.0 -0.0363152221
C  C154  1  0.06640000  0.05490000  0.38940000  1.0 -0.0363152221
C  C155  1  0.43360000  0.55490000  0.61060000  1.0 -0.0363152221
C  C156  1  0.56640000  0.94510000  0.11060000  1.0 -0.0363152221
C  C157  1  0.06640000  0.55490000  0.11060000  1.0 -0.0363152221
C  C158  1  0.93360000  0.94510000  0.61060000  1.0 -0.0363152221
C  C159  1  0.56640000  0.44510000  0.38940000  1.0 -0.0363152221
C  C160  1  0.43360000  0.05490000  0.88940000  1.0 -0.0363152221
C  C161  1  0.87620000  0.46970000  0.88680000  1.0 0.6488363548
C  C162  1  0.12380000  0.03030000  0.38680000  1.0 0.6488363548
C  C163  1  0.37620000  0.53030000  0.61320000  1.0 0.6488363548
C  C164  1  0.62380000  0.96970000  0.11320000  1.0 0.6488363548
C  C165  1  0.12380000  0.53030000  0.11320000  1.0 0.6488363548
C  C166  1  0.87620000  0.96970000  0.61320000  1.0 0.6488363548
C  C167  1  0.62380000  0.46970000  0.38680000  1.0 0.6488363548
C  C168  1  0.37620000  0.03030000  0.88680000  1.0 0.6488363548
C  C169  1  0.93680000  0.41580000  0.91240000  1.0 -0.0692515745
C  C170  1  0.06320000  0.08420000  0.41240000  1.0 -0.0692515745
C  C171  1  0.43680000  0.58420000  0.58760000  1.0 -0.0692515745
C  C172  1  0.56320000  0.91580000  0.08760000  1.0 -0.0692515745
C  C173  1  0.06320000  0.58420000  0.08760000  1.0 -0.0692515745
C  C174  1  0.93680000  0.91580000  0.58760000  1.0 -0.0692515745
C  C175  1  0.56320000  0.41580000  0.41240000  1.0 -0.0692515745
C  C176  1  0.43680000  0.08420000  0.91240000  1.0 -0.0692515745
C  C177  1  0.98940000  0.39200000  0.91620000  1.0 -0.0692515745
C  C178  1  0.01060000  0.10800000  0.41620000  1.0 -0.0692515745
C  C179  1  0.48940000  0.60800000  0.58380000  1.0 -0.0692515745
C  C180  1  0.51060000  0.89200000  0.08380000  1.0 -0.0692515745
C  C181  1  0.01060000  0.60800000  0.08380000  1.0 -0.0692515745
C  C182  1  0.98940000  0.89200000  0.58380000  1.0 -0.0692515745
C  C183  1  0.51060000  0.39200000  0.41620000  1.0 -0.0692515745
C  C184  1  0.48940000  0.10800000  0.91620000  1.0 -0.0692515745
C  C185  1  0.99040000  0.36070000  0.93980000  1.0 0.6488363548
C  C186  1  0.00960000  0.13930000  0.43980000  1.0 0.6488363548
C  C187  1  0.49040000  0.63930000  0.56020000  1.0 0.6488363548
C  C188  1  0.50960000  0.86070000  0.06020000  1.0 0.6488363548
C  C189  1  0.00960000  0.63930000  0.06020000  1.0 0.6488363548
C  C190  1  0.99040000  0.86070000  0.56020000  1.0 0.6488363548
C  C191  1  0.50960000  0.36070000  0.43980000  1.0 0.6488363548
C  C192  1  0.49040000  0.13930000  0.93980000  1.0 0.6488363548
C  C193  1  0.03940000  0.39800000  0.89870000  1.0 -0.0896806718
C  C194  1  0.96060000  0.10200000  0.39870000  1.0 -0.0896806718
C  C195  1  0.53940000  0.60200000  0.60130000  1.0 -0.0896806718
C  C196  1  0.46060000  0.89800000  0.10130000  1.0 -0.0896806718
C  C197  1  0.96060000  0.60200000  0.10130000  1.0 -0.0896806718
C  C198  1  0.03940000  0.89800000  0.60130000  1.0 -0.0896806718
C  C199  1  0.46060000  0.39800000  0.39870000  1.0 -0.0896806718
C  C200  1  0.53940000  0.10200000  0.89870000  1.0 -0.0896806718
C  C201  1  0.03930000  0.42810000  0.87440000  1.0 0.013181687
C  C202  1  0.96070000  0.07190000  0.37440000  1.0 0.013181687
C  C203  1  0.53930000  0.57190000  0.62560000  1.0 0.013181687
C  C204  1  0.46070000  0.92810000  0.12560000  1.0 0.013181687
C  C205  1  0.96070000  0.57190000  0.12560000  1.0 0.013181687
C  C206  1  0.03930000  0.92810000  0.62560000  1.0 0.013181687
C  C207  1  0.46070000  0.42810000  0.37440000  1.0 0.013181687
C  C208  1  0.53930000  0.07190000  0.87440000  1.0 0.013181687
C  C209  1  0.09800000  0.43800000  0.86620000  1.0 0.2033091634
C  C210  1  0.90200000  0.06200000  0.36620000  1.0 0.2033091634
C  C211  1  0.59800000  0.56200000  0.63380000  1.0 0.2033091634
C  C212  1  0.40200000  0.93800000  0.13380000  1.0 0.2033091634
C  C213  1  0.90200000  0.56200000  0.13380000  1.0 0.2033091634
C  C214  1  0.09800000  0.93800000  0.63380000  1.0 0.2033091634
C  C215  1  0.40200000  0.43800000  0.36620000  1.0 0.2033091634
C  C216  1  0.59800000  0.06200000  0.86620000  1.0 0.2033091634
C  C217  1  0.98330000  0.45140000  0.87020000  1.0 -0.0896806718
C  C218  1  0.01670000  0.04860000  0.37020000  1.0 -0.0896806718
C  C219  1  0.48330000  0.54860000  0.62980000  1.0 -0.0896806718
C  C220  1  0.51670000  0.95140000  0.12980000  1.0 -0.0896806718
C  C221  1  0.01670000  0.54860000  0.12980000  1.0 -0.0896806718
C  C222  1  0.98330000  0.95140000  0.62980000  1.0 -0.0896806718
C  C223  1  0.51670000  0.45140000  0.37020000  1.0 -0.0896806718
C  C224  1  0.48330000  0.04860000  0.87020000  1.0 -0.0896806718
C  C225  1  0.64720000  0.47800000  0.99000000  1.0 -0.0363152221
C  C226  1  0.35280000  0.02200000  0.49000000  1.0 -0.0363152221
C  C227  1  0.14720000  0.52200000  0.51000000  1.0 -0.0363152221
C  C228  1  0.85280000  0.97800000  0.01000000  1.0 -0.0363152221
C  C229  1  0.35280000  0.52200000  0.01000000  1.0 -0.0363152221
C  C230  1  0.64720000  0.97800000  0.51000000  1.0 -0.0363152221
C  C231  1  0.85280000  0.47800000  0.49000000  1.0 -0.0363152221
C  C232  1  0.14720000  0.02200000  0.99000000  1.0 -0.0363152221
C  C233  1  0.67170000  0.47800000  0.95710000  1.0 0.5694425887
C  C234  1  0.32830000  0.02200000  0.45710000  1.0 0.5694425887
C  C235  1  0.17170000  0.52200000  0.54290000  1.0 0.5694425887
C  C236  1  0.82830000  0.97800000  0.04290000  1.0 0.5694425887
C  C237  1  0.32830000  0.52200000  0.04290000  1.0 0.5694425887
C  C238  1  0.67170000  0.97800000  0.54290000  1.0 0.5694425887
C  C239  1  0.82830000  0.47800000  0.45710000  1.0 0.5694425887
C  C240  1  0.17170000  0.02200000  0.95710000  1.0 0.5694425887
C  C241  1  0.66800000  0.45300000  0.01320000  1.0 -0.0584625255
C  C242  1  0.33200000  0.04700000  0.51320000  1.0 -0.0584625255
C  C243  1  0.16800000  0.54700000  0.48680000  1.0 -0.0584625255
C  C244  1  0.83200000  0.95300000  0.98680000  1.0 -0.0584625255
C  C245  1  0.33200000  0.54700000  0.98680000  1.0 -0.0584625255
C  C246  1  0.66800000  0.95300000  0.48680000  1.0 -0.0584625255
C  C247  1  0.83200000  0.45300000  0.51320000  1.0 -0.0584625255
C  C248  1  0.16800000  0.04700000  0.01320000  1.0 -0.0584625255
C  C249  1  0.64350000  0.45110000  0.04370000  1.0 -0.0776712905
C  C250  1  0.35650000  0.04890000  0.54370000  1.0 -0.0776712905
C  C251  1  0.14350000  0.54890000  0.45630000  1.0 -0.0776712905
C  C252  1  0.85650000  0.95110000  0.95630000  1.0 -0.0776712905
C  C253  1  0.35650000  0.54890000  0.95630000  1.0 -0.0776712905
C  C254  1  0.64350000  0.95110000  0.45630000  1.0 -0.0776712905
C  C255  1  0.85650000  0.45110000  0.54370000  1.0 -0.0776712905
C  C256  1  0.14350000  0.04890000  0.04370000  1.0 -0.0776712905
C  C257  1  0.66730000  0.42280000  0.06580000  1.0 0.6488363548
C  C258  1  0.33270000  0.07720000  0.56580000  1.0 0.6488363548
C  C259  1  0.16730000  0.57720000  0.43420000  1.0 0.6488363548
C  C260  1  0.83270000  0.92280000  0.93420000  1.0 0.6488363548
C  C261  1  0.33270000  0.57720000  0.93420000  1.0 0.6488363548
C  C262  1  0.66730000  0.92280000  0.43420000  1.0 0.6488363548
C  C263  1  0.83270000  0.42280000  0.56580000  1.0 0.6488363548
C  C264  1  0.16730000  0.07720000  0.06580000  1.0 0.6488363548
C  C265  1  0.59800000  0.47670000  0.05220000  1.0 -0.0986508405
C  C266  1  0.40200000  0.02330000  0.55220000  1.0 -0.0986508405
C  C267  1  0.09800000  0.52330000  0.44780000  1.0 -0.0986508405
C  C268  1  0.90200000  0.97670000  0.94780000  1.0 -0.0986508405
C  C269  1  0.40200000  0.52330000  0.94780000  1.0 -0.0986508405
C  C270  1  0.59800000  0.97670000  0.44780000  1.0 -0.0986508405
C  C271  1  0.90200000  0.47670000  0.55220000  1.0 -0.0986508405
C  C272  1  0.09800000  0.02330000  0.05220000  1.0 -0.0986508405
C  C273  1  0.57650000  0.50420000  0.03020000  1.0 0.0511967679
C  C274  1  0.42350000  0.99580000  0.53020000  1.0 0.0511967679
C  C275  1  0.07650000  0.49580000  0.46980000  1.0 0.0511967679
C  C276  1  0.92350000  0.00420000  0.96980000  1.0 0.0511967679
C  C277  1  0.42350000  0.49580000  0.96980000  1.0 0.0511967679
C  C278  1  0.57650000  0.00420000  0.46980000  1.0 0.0511967679
C  C279  1  0.92350000  0.50420000  0.53020000  1.0 0.0511967679
C  C280  1  0.07650000  0.99580000  0.03020000  1.0 0.0511967679
C  C281  1  0.52770000  0.53150000  0.04020000  1.0 0.2625174298
C  C282  1  0.47230000  0.96850000  0.54020000  1.0 0.2625174298
C  C283  1  0.02770000  0.46850000  0.45980000  1.0 0.2625174298
C  C284  1  0.97230000  0.03150000  0.95980000  1.0 0.2625174298
C  C285  1  0.47230000  0.46850000  0.95980000  1.0 0.2625174298
C  C286  1  0.52770000  0.03150000  0.45980000  1.0 0.2625174298
C  C287  1  0.97230000  0.53150000  0.54020000  1.0 0.2625174298
C  C288  1  0.02770000  0.96850000  0.04020000  1.0 0.2625174298
C  C289  1  0.59990000  0.50460000  0.99940000  1.0 -0.107457166
C  C290  1  0.40010000  0.99540000  0.49940000  1.0 -0.107457166
C  C291  1  0.09990000  0.49540000  0.50060000  1.0 -0.107457166
C  C292  1  0.90010000  0.00460000  0.00060000  1.0 -0.107457166
C  C293  1  0.40010000  0.49540000  0.00060000  1.0 -0.107457166
C  C294  1  0.59990000  0.00460000  0.50060000  1.0 -0.107457166
C  C295  1  0.90010000  0.50460000  0.49940000  1.0 -0.107457166
C  C296  1  0.09990000  0.99540000  0.99940000  1.0 -0.107457166
C  C297  1  0.76740000  0.44220000  0.79290000  1.0 -0.0584625255
C  C298  1  0.23260000  0.05780000  0.29290000  1.0 -0.0584625255
C  C299  1  0.26740000  0.55780000  0.70710000  1.0 -0.0584625255
C  C300  1  0.73260000  0.94220000  0.20710000  1.0 -0.0584625255
C  C301  1  0.23260000  0.55780000  0.20710000  1.0 -0.0584625255
C  C302  1  0.76740000  0.94220000  0.70710000  1.0 -0.0584625255
C  C303  1  0.73260000  0.44220000  0.29290000  1.0 -0.0584625255
C  C304  1  0.26740000  0.05780000  0.79290000  1.0 -0.0584625255
C  C305  1  0.78470000  0.47400000  0.81370000  1.0 0.636547245
C  C306  1  0.21530000  0.02600000  0.31370000  1.0 0.636547245
C  C307  1  0.28470000  0.52600000  0.68630000  1.0 0.636547245
C  C308  1  0.71530000  0.97400000  0.18630000  1.0 0.636547245
C  C309  1  0.21530000  0.52600000  0.18630000  1.0 0.636547245
C  C310  1  0.78470000  0.97400000  0.68630000  1.0 0.636547245
C  C311  1  0.71530000  0.47400000  0.31370000  1.0 0.636547245
C  C312  1  0.28470000  0.02600000  0.81370000  1.0 0.636547245
C  C313  1  0.79570000  0.43920000  0.76190000  1.0 -0.0584625255
C  C314  1  0.20430000  0.06080000  0.26190000  1.0 -0.0584625255
C  C315  1  0.29570000  0.56080000  0.73810000  1.0 -0.0584625255
C  C316  1  0.70430000  0.93920000  0.23810000  1.0 -0.0584625255
C  C317  1  0.20430000  0.56080000  0.23810000  1.0 -0.0584625255
C  C318  1  0.79570000  0.93920000  0.73810000  1.0 -0.0584625255
C  C319  1  0.70430000  0.43920000  0.26190000  1.0 -0.0584625255
C  C320  1  0.29570000  0.06080000  0.76190000  1.0 -0.0584625255
C  C321  1  0.78030000  0.40820000  0.74260000  1.0 -0.0206217486
C  C322  1  0.21970000  0.09180000  0.24260000  1.0 -0.0206217486
C  C323  1  0.28030000  0.59180000  0.75740000  1.0 -0.0206217486
C  C324  1  0.71970000  0.90820000  0.25740000  1.0 -0.0206217486
C  C325  1  0.21970000  0.59180000  0.25740000  1.0 -0.0206217486
C  C326  1  0.78030000  0.90820000  0.75740000  1.0 -0.0206217486
C  C327  1  0.71970000  0.40820000  0.24260000  1.0 -0.0206217486
C  C328  1  0.28030000  0.09180000  0.74260000  1.0 -0.0206217486
C  C329  1  0.80910000  0.40560000  0.70920000  1.0 0.5600617602
C  C330  1  0.19090000  0.09440000  0.20920000  1.0 0.5600617602
C  C331  1  0.30910000  0.59440000  0.79080000  1.0 0.5600617602
C  C332  1  0.69090000  0.90560000  0.29080000  1.0 0.5600617602
C  C333  1  0.19090000  0.59440000  0.29080000  1.0 0.5600617602
C  C334  1  0.80910000  0.90560000  0.79080000  1.0 0.5600617602
C  C335  1  0.69090000  0.40560000  0.20920000  1.0 0.5600617602
C  C336  1  0.30910000  0.09440000  0.70920000  1.0 0.5600617602
C  C337  1  0.74160000  0.38040000  0.75220000  1.0 -0.107457166
C  C338  1  0.25840000  0.11960000  0.25220000  1.0 -0.107457166
C  C339  1  0.24160000  0.61960000  0.74780000  1.0 -0.107457166
C  C340  1  0.75840000  0.88040000  0.24780000  1.0 -0.107457166
C  C341  1  0.25840000  0.61960000  0.24780000  1.0 -0.107457166
C  C342  1  0.74160000  0.88040000  0.74780000  1.0 -0.107457166
C  C343  1  0.75840000  0.38040000  0.25220000  1.0 -0.107457166
C  C344  1  0.24160000  0.11960000  0.75220000  1.0 -0.107457166
C  C345  1  0.71500000  0.38740000  0.78200000  1.0 -0.0116564354
C  C346  1  0.28500000  0.11260000  0.28200000  1.0 -0.0116564354
C  C347  1  0.21500000  0.61260000  0.71800000  1.0 -0.0116564354
C  C348  1  0.78500000  0.88740000  0.21800000  1.0 -0.0116564354
C  C349  1  0.28500000  0.61260000  0.21800000  1.0 -0.0116564354
C  C350  1  0.71500000  0.88740000  0.71800000  1.0 -0.0116564354
C  C351  1  0.78500000  0.38740000  0.28200000  1.0 -0.0116564354
C  C352  1  0.21500000  0.11260000  0.78200000  1.0 -0.0116564354
C  C353  1  0.67900000  0.35820000  0.79200000  1.0 0.1401223323
C  C354  1  0.32100000  0.14180000  0.29200000  1.0 0.1401223323
C  C355  1  0.17900000  0.64180000  0.70800000  1.0 0.1401223323
C  C356  1  0.82100000  0.85820000  0.20800000  1.0 0.1401223323
C  C357  1  0.32100000  0.64180000  0.20800000  1.0 0.1401223323
C  C358  1  0.67900000  0.85820000  0.70800000  1.0 0.1401223323
C  C359  1  0.82100000  0.35820000  0.29200000  1.0 0.1401223323
C  C360  1  0.17900000  0.14180000  0.79200000  1.0 0.1401223323
C  C361  1  0.72740000  0.41480000  0.80320000  1.0 -0.0986508405
C  C362  1  0.27260000  0.08520000  0.30320000  1.0 -0.0986508405
C  C363  1  0.22740000  0.58520000  0.69680000  1.0 -0.0986508405
C  C364  1  0.77260000  0.91480000  0.19680000  1.0 -0.0986508405
C  C365  1  0.27260000  0.58520000  0.19680000  1.0 -0.0986508405
C  C366  1  0.72740000  0.91480000  0.69680000  1.0 -0.0986508405
C  C367  1  0.77260000  0.41480000  0.30320000  1.0 -0.0986508405
C  C368  1  0.22740000  0.08520000  0.80320000  1.0 -0.0986508405
C  C369  1  0.05260000  0.54810000  0.82900000  1.0 -0.0206217486
C  C370  1  0.94740000  0.95190000  0.32900000  1.0 -0.0206217486
C  C371  1  0.55260000  0.45190000  0.67100000  1.0 -0.0206217486
C  C372  1  0.44740000  0.04810000  0.17100000  1.0 -0.0206217486
C  C373  1  0.94740000  0.45190000  0.17100000  1.0 -0.0206217486
C  C374  1  0.05260000  0.04810000  0.67100000  1.0 -0.0206217486
C  C375  1  0.44740000  0.54810000  0.32900000  1.0 -0.0206217486
C  C376  1  0.55260000  0.95190000  0.82900000  1.0 -0.0206217486
C  C377  1  0.98460000  0.55050000  0.83150000  1.0 0.5694425887
C  C378  1  0.01540000  0.94950000  0.33150000  1.0 0.5694425887
C  C379  1  0.48460000  0.44950000  0.66850000  1.0 0.5694425887
C  C380  1  0.51540000  0.05050000  0.16850000  1.0 0.5694425887
C  C381  1  0.01540000  0.44950000  0.16850000  1.0 0.5694425887
C  C382  1  0.98460000  0.05050000  0.66850000  1.0 0.5694425887
C  C383  1  0.51540000  0.55050000  0.33150000  1.0 0.5694425887
C  C384  1  0.48460000  0.94950000  0.83150000  1.0 0.5694425887
C  C385  1  0.08890000  0.56490000  0.85070000  1.0 -0.0986508405
C  C386  1  0.91110000  0.93510000  0.35070000  1.0 -0.0986508405
C  C387  1  0.58890000  0.43510000  0.64930000  1.0 -0.0986508405
C  C388  1  0.41110000  0.06490000  0.14930000  1.0 -0.0986508405
C  C389  1  0.91110000  0.43510000  0.14930000  1.0 -0.0986508405
C  C390  1  0.08890000  0.06490000  0.64930000  1.0 -0.0986508405
C  C391  1  0.41110000  0.56490000  0.35070000  1.0 -0.0986508405
C  C392  1  0.58890000  0.93510000  0.85070000  1.0 -0.0986508405
C  C393  1  0.15510000  0.56280000  0.84850000  1.0 -0.0363152221
C  C394  1  0.84490000  0.93720000  0.34850000  1.0 -0.0363152221
C  C395  1  0.65510000  0.43720000  0.65150000  1.0 -0.0363152221
C  C396  1  0.34490000  0.06280000  0.15150000  1.0 -0.0363152221
C  C397  1  0.84490000  0.43720000  0.15150000  1.0 -0.0363152221
C  C398  1  0.15510000  0.06280000  0.65150000  1.0 -0.0363152221
C  C399  1  0.34490000  0.56280000  0.34850000  1.0 -0.0363152221
C  C400  1  0.65510000  0.93720000  0.84850000  1.0 -0.0363152221
C  C401  1  0.19340000  0.58470000  0.87260000  1.0 0.6578997805
C  C402  1  0.80660000  0.91530000  0.37260000  1.0 0.6578997805
C  C403  1  0.69340000  0.41530000  0.62740000  1.0 0.6578997805
C  C404  1  0.30660000  0.08470000  0.12740000  1.0 0.6578997805
C  C405  1  0.80660000  0.41530000  0.12740000  1.0 0.6578997805
C  C406  1  0.19340000  0.08470000  0.62740000  1.0 0.6578997805
C  C407  1  0.30660000  0.58470000  0.37260000  1.0 0.6578997805
C  C408  1  0.69340000  0.91530000  0.87260000  1.0 0.6578997805
C  C409  1  0.17850000  0.54470000  0.82300000  1.0 -0.107457166
C  C410  1  0.82150000  0.95530000  0.32300000  1.0 -0.107457166
C  C411  1  0.67850000  0.45530000  0.67700000  1.0 -0.107457166
C  C412  1  0.32150000  0.04470000  0.17700000  1.0 -0.107457166
C  C413  1  0.82150000  0.45530000  0.17700000  1.0 -0.107457166
C  C414  1  0.17850000  0.04470000  0.67700000  1.0 -0.107457166
C  C415  1  0.32150000  0.54470000  0.32300000  1.0 -0.107457166
C  C416  1  0.67850000  0.95530000  0.82300000  1.0 -0.107457166
C  C417  1  0.14130000  0.52600000  0.80020000  1.0 0.0619864337
C  C418  1  0.85870000  0.97400000  0.30020000  1.0 0.0619864337
C  C419  1  0.64130000  0.47400000  0.69980000  1.0 0.0619864337
C  C420  1  0.35870000  0.02600000  0.19980000  1.0 0.0619864337
C  C421  1  0.85870000  0.47400000  0.19980000  1.0 0.0619864337
C  C422  1  0.14130000  0.02600000  0.69980000  1.0 0.0619864337
C  C423  1  0.35870000  0.52600000  0.30020000  1.0 0.0619864337
C  C424  1  0.64130000  0.97400000  0.80020000  1.0 0.0619864337
C  C425  1  0.16770000  0.50500000  0.77370000  1.0 0.2266400828
C  C426  1  0.83230000  0.99500000  0.27370000  1.0 0.2266400828
C  C427  1  0.66770000  0.49500000  0.72630000  1.0 0.2266400828
C  C428  1  0.33230000  0.00500000  0.22630000  1.0 0.2266400828
C  C429  1  0.83230000  0.49500000  0.22630000  1.0 0.2266400828
C  C430  1  0.16770000  0.00500000  0.72630000  1.0 0.2266400828
C  C431  1  0.33230000  0.50500000  0.27370000  1.0 0.2266400828
C  C432  1  0.66770000  0.99500000  0.77370000  1.0 0.2266400828
C  C433  1  0.07940000  0.52880000  0.80340000  1.0 -0.107457166
C  C434  1  0.92060000  0.97120000  0.30340000  1.0 -0.107457166
C  C435  1  0.57940000  0.47120000  0.69660000  1.0 -0.107457166
C  C436  1  0.42060000  0.02880000  0.19660000  1.0 -0.107457166
C  C437  1  0.92060000  0.47120000  0.19660000  1.0 -0.107457166
C  C438  1  0.07940000  0.02880000  0.69660000  1.0 -0.107457166
C  C439  1  0.42060000  0.52880000  0.30340000  1.0 -0.107457166
C  C440  1  0.57940000  0.97120000  0.80340000  1.0 -0.107457166
C  C441  1  0.97060000  0.75820000  0.93400000  1.0 -0.050872764
C  C442  1  0.02940000  0.74180000  0.43400000  1.0 -0.050872764
C  C443  1  0.47060000  0.24180000  0.56600000  1.0 -0.050872764
C  C444  1  0.52940000  0.25820000  0.06600000  1.0 -0.050872764
C  C445  1  0.02940000  0.24180000  0.06600000  1.0 -0.050872764
C  C446  1  0.97060000  0.25820000  0.56600000  1.0 -0.050872764
C  C447  1  0.52940000  0.75820000  0.43400000  1.0 -0.050872764
C  C448  1  0.47060000  0.74180000  0.93400000  1.0 -0.050872764
C  C449  1  0.97860000  0.73570000  0.96480000  1.0 0.6578997805
C  C450  1  0.02140000  0.76430000  0.46480000  1.0 0.6578997805
C  C451  1  0.47860000  0.26430000  0.53520000  1.0 0.6578997805
C  C452  1  0.52140000  0.23570000  0.03520000  1.0 0.6578997805
C  C453  1  0.02140000  0.26430000  0.03520000  1.0 0.6578997805
C  C454  1  0.97860000  0.23570000  0.53520000  1.0 0.6578997805
C  C455  1  0.52140000  0.73570000  0.46480000  1.0 0.6578997805
C  C456  1  0.47860000  0.76430000  0.96480000  1.0 0.6578997805
C  C457  1  0.92140000  0.78120000  0.93130000  1.0 -0.0692515745
C  C458  1  0.07860000  0.71880000  0.43130000  1.0 -0.0692515745
C  C459  1  0.42140000  0.21880000  0.56870000  1.0 -0.0692515745
C  C460  1  0.57860000  0.28120000  0.06870000  1.0 -0.0692515745
C  C461  1  0.07860000  0.21880000  0.06870000  1.0 -0.0692515745
C  C462  1  0.92140000  0.28120000  0.56870000  1.0 -0.0692515745
C  C463  1  0.57860000  0.78120000  0.43130000  1.0 -0.0692515745
C  C464  1  0.42140000  0.71880000  0.93130000  1.0 -0.0692515745
C  C465  1  0.91040000  0.79960000  0.90300000  1.0 -0.0311932914
C  C466  1  0.08960000  0.70040000  0.40300000  1.0 -0.0311932914
C  C467  1  0.41040000  0.20040000  0.59700000  1.0 -0.0311932914
C  C468  1  0.58960000  0.29960000  0.09700000  1.0 -0.0311932914
C  C469  1  0.08960000  0.20040000  0.09700000  1.0 -0.0311932914
C  C470  1  0.91040000  0.29960000  0.59700000  1.0 -0.0311932914
C  C471  1  0.58960000  0.79960000  0.40300000  1.0 -0.0311932914
C  C472  1  0.41040000  0.70040000  0.90300000  1.0 -0.0311932914
C  C473  1  0.85470000  0.82640000  0.89830000  1.0 0.6578997805
C  C474  1  0.14530000  0.67360000  0.39830000  1.0 0.6578997805
C  C475  1  0.35470000  0.17360000  0.60170000  1.0 0.6578997805
C  C476  1  0.64530000  0.32640000  0.10170000  1.0 0.6578997805
C  C477  1  0.14530000  0.17360000  0.10170000  1.0 0.6578997805
C  C478  1  0.85470000  0.32640000  0.60170000  1.0 0.6578997805
C  C479  1  0.64530000  0.82640000  0.39830000  1.0 0.6578997805
C  C480  1  0.35470000  0.67360000  0.89830000  1.0 0.6578997805
C  C481  1  0.94960000  0.79520000  0.87520000  1.0 -0.107457166
C  C482  1  0.05040000  0.70480000  0.37520000  1.0 -0.107457166
C  C483  1  0.44960000  0.20480000  0.62480000  1.0 -0.107457166
C  C484  1  0.55040000  0.29520000  0.12480000  1.0 -0.107457166
C  C485  1  0.05040000  0.20480000  0.12480000  1.0 -0.107457166
C  C486  1  0.94960000  0.29520000  0.62480000  1.0 -0.107457166
C  C487  1  0.55040000  0.79520000  0.37520000  1.0 -0.107457166
C  C488  1  0.44960000  0.70480000  0.87520000  1.0 -0.107457166
C  C489  1  0.00100000  0.77220000  0.87860000  1.0 0.0227865294
C  C490  1  0.99900000  0.72780000  0.37860000  1.0 0.0227865294
C  C491  1  0.50100000  0.22780000  0.62140000  1.0 0.0227865294
C  C492  1  0.49900000  0.27220000  0.12140000  1.0 0.0227865294
C  C493  1  0.99900000  0.22780000  0.12140000  1.0 0.0227865294
C  C494  1  0.00100000  0.27220000  0.62140000  1.0 0.0227865294
C  C495  1  0.49900000  0.77220000  0.37860000  1.0 0.0227865294
C  C496  1  0.50100000  0.72780000  0.87860000  1.0 0.0227865294
C  C497  1  0.04060000  0.76530000  0.85140000  1.0 0.2457112632
C  C498  1  0.95940000  0.73470000  0.35140000  1.0 0.2457112632
C  C499  1  0.54060000  0.23470000  0.64860000  1.0 0.2457112632
C  C500  1  0.45940000  0.26530000  0.14860000  1.0 0.2457112632
C  C501  1  0.95940000  0.23470000  0.14860000  1.0 0.2457112632
C  C502  1  0.04060000  0.26530000  0.64860000  1.0 0.2457112632
C  C503  1  0.45940000  0.76530000  0.35140000  1.0 0.2457112632
C  C504  1  0.54060000  0.73470000  0.85140000  1.0 0.2457112632
C  C505  1  0.00750000  0.75240000  0.90720000  1.0 -0.1179351216
C  C506  1  0.99250000  0.74760000  0.40720000  1.0 -0.1179351216
C  C507  1  0.50750000  0.24760000  0.59280000  1.0 -0.1179351216
C  C508  1  0.49250000  0.25240000  0.09280000  1.0 -0.1179351216
C  C509  1  0.99250000  0.24760000  0.09280000  1.0 -0.1179351216
C  C510  1  0.00750000  0.25240000  0.59280000  1.0 -0.1179351216
C  C511  1  0.49250000  0.75240000  0.40720000  1.0 -0.1179351216
C  C512  1  0.50750000  0.74760000  0.90720000  1.0 -0.1179351216
C  C513  1  0.64930000  0.58270000  0.83510000  1.0 -0.0206217486
C  C514  1  0.35070000  0.91730000  0.33510000  1.0 -0.0206217486
C  C515  1  0.14930000  0.41730000  0.66490000  1.0 -0.0206217486
C  C516  1  0.85070000  0.08270000  0.16490000  1.0 -0.0206217486
C  C517  1  0.35070000  0.41730000  0.16490000  1.0 -0.0206217486
C  C518  1  0.64930000  0.08270000  0.66490000  1.0 -0.0206217486
C  C519  1  0.85070000  0.58270000  0.33510000  1.0 -0.0206217486
C  C520  1  0.14930000  0.91730000  0.83510000  1.0 -0.0206217486
C  C521  1  0.69290000  0.55360000  0.85110000  1.0 0.6578997805
C  C522  1  0.30710000  0.94640000  0.35110000  1.0 0.6578997805
C  C523  1  0.19290000  0.44640000  0.64890000  1.0 0.6578997805
C  C524  1  0.80710000  0.05360000  0.14890000  1.0 0.6578997805
C  C525  1  0.30710000  0.44640000  0.14890000  1.0 0.6578997805
C  C526  1  0.69290000  0.05360000  0.64890000  1.0 0.6578997805
C  C527  1  0.80710000  0.55360000  0.35110000  1.0 0.6578997805
C  C528  1  0.19290000  0.94640000  0.85110000  1.0 0.6578997805
C  C529  1  0.58600000  0.58020000  0.84130000  1.0 -0.0776712905
C  C530  1  0.41400000  0.91980000  0.34130000  1.0 -0.0776712905
C  C531  1  0.08600000  0.41980000  0.65870000  1.0 -0.0776712905
C  C532  1  0.91400000  0.08020000  0.15870000  1.0 -0.0776712905
C  C533  1  0.41400000  0.41980000  0.15870000  1.0 -0.0776712905
C  C534  1  0.58600000  0.08020000  0.65870000  1.0 -0.0776712905
C  C535  1  0.91400000  0.58020000  0.34130000  1.0 -0.0776712905
C  C536  1  0.08600000  0.91980000  0.84130000  1.0 -0.0776712905
C  C537  1  0.54510000  0.60530000  0.82930000  1.0 -0.0206217486
C  C538  1  0.45490000  0.89470000  0.32930000  1.0 -0.0206217486
C  C539  1  0.04510000  0.39470000  0.67070000  1.0 -0.0206217486
C  C540  1  0.95490000  0.10530000  0.17070000  1.0 -0.0206217486
C  C541  1  0.45490000  0.39470000  0.17070000  1.0 -0.0206217486
C  C542  1  0.54510000  0.10530000  0.67070000  1.0 -0.0206217486
C  C543  1  0.95490000  0.60530000  0.32930000  1.0 -0.0206217486
C  C544  1  0.04510000  0.89470000  0.82930000  1.0 -0.0206217486
C  C545  1  0.47800000  0.60080000  0.83600000  1.0 0.5694425887
C  C546  1  0.52200000  0.89920000  0.33600000  1.0 0.5694425887
C  C547  1  0.97800000  0.39920000  0.66400000  1.0 0.5694425887
C  C548  1  0.02200000  0.10080000  0.16400000  1.0 0.5694425887
C  C549  1  0.52200000  0.39920000  0.16400000  1.0 0.5694425887
C  C550  1  0.47800000  0.10080000  0.66400000  1.0 0.5694425887
C  C551  1  0.02200000  0.60080000  0.33600000  1.0 0.5694425887
C  C552  1  0.97800000  0.89920000  0.83600000  1.0 0.5694425887
C  C553  1  0.56520000  0.63480000  0.81030000  1.0 -0.1179351216
C  C554  1  0.43480000  0.86520000  0.31030000  1.0 -0.1179351216
C  C555  1  0.06520000  0.36520000  0.68970000  1.0 -0.1179351216
C  C556  1  0.93480000  0.13480000  0.18970000  1.0 -0.1179351216
C  C557  1  0.43480000  0.36520000  0.18970000  1.0 -0.1179351216
C  C558  1  0.56520000  0.13480000  0.68970000  1.0 -0.1179351216
C  C559  1  0.93480000  0.63480000  0.31030000  1.0 -0.1179351216
C  C560  1  0.06520000  0.86520000  0.81030000  1.0 -0.1179351216
C  C561  1  0.62870000  0.64050000  0.80450000  1.0 0.0511967679
C  C562  1  0.37130000  0.85950000  0.30450000  1.0 0.0511967679
C  C563  1  0.12870000  0.35950000  0.69550000  1.0 0.0511967679
C  C564  1  0.87130000  0.14050000  0.19550000  1.0 0.0511967679
C  C565  1  0.37130000  0.35950000  0.19550000  1.0 0.0511967679
C  C566  1  0.62870000  0.14050000  0.69550000  1.0 0.0511967679
C  C567  1  0.87130000  0.64050000  0.30450000  1.0 0.0511967679
C  C568  1  0.12870000  0.85950000  0.80450000  1.0 0.0511967679
C  C569  1  0.65300000  0.67280000  0.78400000  1.0 0.2388994768
C  C570  1  0.34700000  0.82720000  0.28400000  1.0 0.2388994768
C  C571  1  0.15300000  0.32720000  0.71600000  1.0 0.2388994768
C  C572  1  0.84700000  0.17280000  0.21600000  1.0 0.2388994768
C  C573  1  0.34700000  0.32720000  0.21600000  1.0 0.2388994768
C  C574  1  0.65300000  0.17280000  0.71600000  1.0 0.2388994768
C  C575  1  0.84700000  0.67280000  0.28400000  1.0 0.2388994768
C  C576  1  0.15300000  0.82720000  0.78400000  1.0 0.2388994768
C  C577  1  0.06100000  0.65010000  0.91170000  1.0 0.4872684887
C  C578  1  0.93900000  0.84990000  0.41170000  1.0 0.4872684887
C  C579  1  0.56100000  0.34990000  0.58830000  1.0 0.4872684887
C  C580  1  0.43900000  0.15010000  0.08830000  1.0 0.4872684887
C  C581  1  0.93900000  0.34990000  0.08830000  1.0 0.4872684887
C  C582  1  0.06100000  0.15010000  0.58830000  1.0 0.4872684887
C  C583  1  0.43900000  0.65010000  0.41170000  1.0 0.4872684887
C  C584  1  0.56100000  0.84990000  0.91170000  1.0 0.4872684887
C  C585  1  0.21460000  0.64160000  0.99950000  1.0 0.5069831087
C  C586  1  0.78540000  0.85840000  0.49950000  1.0 0.5069831087
C  C587  1  0.71460000  0.35840000  0.50050000  1.0 0.5069831087
C  C588  1  0.28540000  0.14160000  0.00050000  1.0 0.5069831087
C  C589  1  0.78540000  0.35840000  0.00050000  1.0 0.5069831087
C  C590  1  0.21460000  0.14160000  0.50050000  1.0 0.5069831087
C  C591  1  0.28540000  0.64160000  0.49950000  1.0 0.5069831087
C  C592  1  0.71460000  0.85840000  0.99950000  1.0 0.5069831087
N  N1  1  0.60670000  0.64250000  0.11940000  1.0 -0.3165590808
N  N2  1  0.39330000  0.85750000  0.61940000  1.0 -0.3165590808
N  N3  1  0.10670000  0.35750000  0.38060000  1.0 -0.3165590808
N  N4  1  0.89330000  0.14250000  0.88060000  1.0 -0.3120903218
N  N5  1  0.39330000  0.35750000  0.88060000  1.0 -0.3165590808
N  N6  1  0.60670000  0.14250000  0.38060000  1.0 -0.3120903218
N  N7  1  0.89330000  0.64250000  0.61940000  1.0 -0.3120903218
N  N8  1  0.10670000  0.85750000  0.11940000  1.0 -0.3165590808
N  N9  1  0.65680000  0.58690000  0.03450000  1.0 -0.3582115131
N  N10  1  0.34320000  0.91310000  0.53450000  1.0 -0.3531446681
N  N11  1  0.15680000  0.41310000  0.46550000  1.0 -0.3582115131
N  N12  1  0.84320000  0.08690000  0.96550000  1.0 -0.3582115131
N  N13  1  0.34320000  0.41310000  0.96550000  1.0 -0.3582115131
N  N14  1  0.65680000  0.08690000  0.46550000  1.0 -0.3582115131
N  N15  1  0.84320000  0.58690000  0.53450000  1.0 -0.3582115131
N  N16  1  0.15680000  0.91310000  0.03450000  1.0 -0.3531446681
N  N17  1  0.12900000  0.44200000  0.84380000  1.0 -0.3582115131
N  N18  1  0.87100000  0.05800000  0.34380000  1.0 -0.3582115131
N  N19  1  0.62900000  0.55800000  0.65620000  1.0 -0.3582115131
N  N20  1  0.37100000  0.94200000  0.15620000  1.0 -0.3582115131
N  N21  1  0.87100000  0.55800000  0.15620000  1.0 -0.3582115131
N  N22  1  0.12900000  0.94200000  0.65620000  1.0 -0.3582115131
N  N23  1  0.37100000  0.44200000  0.34380000  1.0 -0.3582115131
N  N24  1  0.62900000  0.05800000  0.84380000  1.0 -0.3582115131
N  N25  1  0.49130000  0.55220000  0.04800000  1.0 -0.3120903218
N  N26  1  0.50870000  0.94780000  0.54800000  1.0 -0.3120903218
N  N27  1  0.99130000  0.44780000  0.45200000  1.0 -0.3120903218
N  N28  1  0.00870000  0.05220000  0.95200000  1.0 -0.3120903218
N  N29  1  0.50870000  0.44780000  0.95200000  1.0 -0.3120903218
N  N30  1  0.49130000  0.05220000  0.45200000  1.0 -0.3120903218
N  N31  1  0.00870000  0.55220000  0.54800000  1.0 -0.3120903218
N  N32  1  0.99130000  0.94780000  0.04800000  1.0 -0.3120903218
N  N33  1  0.64100000  0.33730000  0.80020000  1.0 -0.2488816716
N  N34  1  0.35900000  0.16270000  0.30020000  1.0 -0.2488816716
N  N35  1  0.14100000  0.66270000  0.69980000  1.0 -0.2488816716
N  N36  1  0.85900000  0.83730000  0.19980000  1.0 -0.2488816716
N  N37  1  0.35900000  0.66270000  0.19980000  1.0 -0.2488816716
N  N38  1  0.64100000  0.83730000  0.69980000  1.0 -0.2488816716
N  N39  1  0.85900000  0.33730000  0.30020000  1.0 -0.2488816716
N  N40  1  0.14100000  0.16270000  0.80020000  1.0 -0.2488816716
N  N41  1  0.18610000  0.48750000  0.75170000  1.0 -0.3269668036
N  N42  1  0.81390000  0.01250000  0.25170000  1.0 -0.3269668036
N  N43  1  0.68610000  0.51250000  0.74830000  1.0 -0.3269668036
N  N44  1  0.31390000  0.98750000  0.24830000  1.0 -0.3269668036
N  N45  1  0.81390000  0.51250000  0.24830000  1.0 -0.3269668036
N  N46  1  0.18610000  0.98750000  0.74830000  1.0 -0.3269668036
N  N47  1  0.31390000  0.48750000  0.25170000  1.0 -0.3269668036
N  N48  1  0.68610000  0.01250000  0.75170000  1.0 -0.3269668036
N  N49  1  0.07220000  0.76050000  0.83090000  1.0 -0.3582115131
N  N50  1  0.92780000  0.73950000  0.33090000  1.0 -0.3582115131
N  N51  1  0.57220000  0.23950000  0.66910000  1.0 -0.365077667
N  N52  1  0.42780000  0.26050000  0.16910000  1.0 -0.365077667
N  N53  1  0.92780000  0.23950000  0.16910000  1.0 -0.365077667
N  N54  1  0.07220000  0.26050000  0.66910000  1.0 -0.3582115131
N  N55  1  0.42780000  0.76050000  0.33090000  1.0 -0.3582115131
N  N56  1  0.57220000  0.73950000  0.83090000  1.0 -0.3582115131
N  N57  1  0.67070000  0.69620000  0.76740000  1.0 -0.2708161362
N  N58  1  0.32930000  0.80380000  0.26740000  1.0 -0.2708161362
N  N59  1  0.17070000  0.30380000  0.73260000  1.0 -0.2708161362
N  N60  1  0.82930000  0.19620000  0.23260000  1.0 -0.2708161362
N  N61  1  0.32930000  0.30380000  0.23260000  1.0 -0.2708161362
N  N62  1  0.67070000  0.19620000  0.73260000  1.0 -0.2708161362
N  N63  1  0.82930000  0.69620000  0.26740000  1.0 -0.2708161362
N  N64  1  0.17070000  0.80380000  0.76740000  1.0 -0.2708161362
O  O1  1  0.83290000  0.75060000  0.03740000  1.0 -0.6109129099
O  O2  1  0.16710000  0.74940000  0.53740000  1.0 -0.6109129099
O  O3  1  0.33290000  0.24940000  0.46260000  1.0 -0.6109129099
O  O4  1  0.66710000  0.25060000  0.96260000  1.0 -0.6109129099
O  O5  1  0.16710000  0.24940000  0.96260000  1.0 -0.6109129099
O  O6  1  0.83290000  0.25060000  0.46260000  1.0 -0.6109129099
O  O7  1  0.66710000  0.75060000  0.53740000  1.0 -0.6109129099
O  O8  1  0.33290000  0.74940000  0.03740000  1.0 -0.6109129099
O  O9  1  0.84470000  0.70730000  0.07500000  1.0 -0.6109129099
O  O10  1  0.15530000  0.79270000  0.57500000  1.0 -0.6109129099
O  O11  1  0.34470000  0.29270000  0.42500000  1.0 -0.6109129099
O  O12  1  0.65530000  0.20730000  0.92500000  1.0 -0.6109129099
O  O13  1  0.15530000  0.29270000  0.92500000  1.0 -0.6109129099
O  O14  1  0.84470000  0.20730000  0.42500000  1.0 -0.6109129099
O  O15  1  0.65530000  0.70730000  0.57500000  1.0 -0.6109129099
O  O16  1  0.34470000  0.79270000  0.07500000  1.0 -0.6109129099
O  O17  1  0.54210000  0.77460000  0.03610000  1.0 -0.7393617656
O  O18  1  0.45790000  0.72540000  0.53610000  1.0 -0.7393617656
O  O19  1  0.04210000  0.22540000  0.46390000  1.0 -0.7393617656
O  O20  1  0.95790000  0.27460000  0.96390000  1.0 -0.7393617656
O  O21  1  0.45790000  0.22540000  0.96390000  1.0 -0.7393617656
O  O22  1  0.54210000  0.27460000  0.46390000  1.0 -0.7393617656
O  O23  1  0.95790000  0.77460000  0.53610000  1.0 -0.7393617656
O  O24  1  0.04210000  0.72540000  0.03610000  1.0 -0.7393617656
O  O25  1  0.62520000  0.80020000  0.01060000  1.0 -0.6505241735
O  O26  1  0.37480000  0.69980000  0.51060000  1.0 -0.6505241735
O  O27  1  0.12520000  0.19980000  0.48940000  1.0 -0.6505241735
O  O28  1  0.87480000  0.30020000  0.98940000  1.0 -0.6505241735
O  O29  1  0.37480000  0.19980000  0.98940000  1.0 -0.6505241735
O  O30  1  0.62520000  0.30020000  0.48940000  1.0 -0.6505241735
O  O31  1  0.87480000  0.80020000  0.51060000  1.0 -0.6505241735
O  O32  1  0.12520000  0.69980000  0.01060000  1.0 -0.6505241735
O  O33  1  0.88480000  0.67790000  0.01460000  1.0 -0.6109129099
O  O34  1  0.11520000  0.82210000  0.51460000  1.0 -0.6109129099
O  O35  1  0.38480000  0.32210000  0.48540000  1.0 -0.6109129099
O  O36  1  0.61520000  0.17790000  0.98540000  1.0 -0.6109129099
O  O37  1  0.11520000  0.32210000  0.98540000  1.0 -0.6109129099
O  O38  1  0.88480000  0.17790000  0.48540000  1.0 -0.6109129099
O  O39  1  0.61520000  0.67790000  0.51460000  1.0 -0.6109129099
O  O40  1  0.38480000  0.82210000  0.01460000  1.0 -0.6109129099
O  O41  1  0.95410000  0.64430000  0.98770000  1.0 -0.6898390751
O  O42  1  0.04590000  0.85570000  0.48770000  1.0 -0.6898390751
O  O43  1  0.45410000  0.35570000  0.51230000  1.0 -0.6898390751
O  O44  1  0.54590000  0.14430000  0.01230000  1.0 -0.6898390751
O  O45  1  0.04590000  0.35570000  0.01230000  1.0 -0.6898390751
O  O46  1  0.95410000  0.14430000  0.51230000  1.0 -0.6898390751
O  O47  1  0.54590000  0.64430000  0.48770000  1.0 -0.6898390751
O  O48  1  0.45410000  0.85570000  0.98770000  1.0 -0.6898390751
O  O49  1  0.77110000  0.53040000  0.91350000  1.0 -0.7215940804
O  O50  1  0.22890000  0.96960000  0.41350000  1.0 -0.7215940804
O  O51  1  0.27110000  0.46960000  0.58650000  1.0 -0.7215940804
O  O52  1  0.72890000  0.03040000  0.08650000  1.0 -0.7215940804
O  O53  1  0.22890000  0.46960000  0.08650000  1.0 -0.7215940804
O  O54  1  0.77110000  0.03040000  0.58650000  1.0 -0.7215940804
O  O55  1  0.72890000  0.53040000  0.41350000  1.0 -0.7215940804
O  O56  1  0.27110000  0.96960000  0.91350000  1.0 -0.7215940804
O  O57  1  0.84600000  0.56900000  0.89600000  1.0 -0.6109129099
O  O58  1  0.15400000  0.93100000  0.39600000  1.0 -0.6109129099
O  O59  1  0.34600000  0.43100000  0.60400000  1.0 -0.6109129099
O  O60  1  0.65400000  0.06900000  0.10400000  1.0 -0.6109129099
O  O61  1  0.15400000  0.43100000  0.10400000  1.0 -0.6109129099
O  O62  1  0.84600000  0.06900000  0.60400000  1.0 -0.6109129099
O  O63  1  0.65400000  0.56900000  0.39600000  1.0 -0.6109129099
O  O64  1  0.34600000  0.93100000  0.89600000  1.0 -0.6109129099
O  O65  1  0.82970000  0.45910000  0.90170000  1.0 -0.6190637458
O  O66  1  0.17030000  0.04090000  0.40170000  1.0 -0.6190637458
O  O67  1  0.32970000  0.54090000  0.59830000  1.0 -0.6190637458
O  O68  1  0.67030000  0.95910000  0.09830000  1.0 -0.6190637458
O  O69  1  0.17030000  0.54090000  0.09830000  1.0 -0.6190637458
O  O70  1  0.82970000  0.95910000  0.59830000  1.0 -0.6190637458
O  O71  1  0.67030000  0.45910000  0.40170000  1.0 -0.6190637458
O  O72  1  0.32970000  0.04090000  0.90170000  1.0 -0.6190637458
O  O73  1  0.88150000  0.49650000  0.86740000  1.0 -0.6505241735
O  O74  1  0.11850000  0.00350000  0.36740000  1.0 -0.6505241735
O  O75  1  0.38150000  0.50350000  0.63260000  1.0 -0.6505241735
O  O76  1  0.61850000  0.99650000  0.13260000  1.0 -0.6505241735
O  O77  1  0.11850000  0.50350000  0.13260000  1.0 -0.6505241735
O  O78  1  0.88150000  0.99650000  0.63260000  1.0 -0.6505241735
O  O79  1  0.61850000  0.49650000  0.36740000  1.0 -0.6505241735
O  O80  1  0.38150000  0.00350000  0.86740000  1.0 -0.6505241735
O  O81  1  0.95070000  0.36290000  0.96290000  1.0 -0.6898390751
O  O82  1  0.04930000  0.13710000  0.46290000  1.0 -0.6898390751
O  O83  1  0.45070000  0.63710000  0.53710000  1.0 -0.6898390751
O  O84  1  0.54930000  0.86290000  0.03710000  1.0 -0.6898390751
O  O85  1  0.04930000  0.63710000  0.03710000  1.0 -0.6898390751
O  O86  1  0.95070000  0.86290000  0.53710000  1.0 -0.6898390751
O  O87  1  0.54930000  0.36290000  0.46290000  1.0 -0.6898390751
O  O88  1  0.45070000  0.13710000  0.96290000  1.0 -0.6898390751
O  O89  1  0.03070000  0.33600000  0.93670000  1.0 -0.6190637458
O  O90  1  0.96930000  0.16400000  0.43670000  1.0 -0.6190637458
O  O91  1  0.53070000  0.66400000  0.56330000  1.0 -0.6190637458
O  O92  1  0.46930000  0.83600000  0.06330000  1.0 -0.6190637458
O  O93  1  0.96930000  0.66400000  0.06330000  1.0 -0.6190637458
O  O94  1  0.03070000  0.83600000  0.56330000  1.0 -0.6190637458
O  O95  1  0.46930000  0.33600000  0.43670000  1.0 -0.6190637458
O  O96  1  0.53070000  0.16400000  0.93670000  1.0 -0.6190637458
O  O97  1  0.64920000  0.50100000  0.93560000  1.0 -0.6337382049
O  O98  1  0.35080000  0.99900000  0.43560000  1.0 -0.6337382049
O  O99  1  0.14920000  0.49900000  0.56440000  1.0 -0.6337382049
O  O100  1  0.85080000  0.00100000  0.06440000  1.0 -0.6337382049
O  O101  1  0.35080000  0.49900000  0.06440000  1.0 -0.6337382049
O  O102  1  0.64920000  0.00100000  0.56440000  1.0 -0.6337382049
O  O103  1  0.85080000  0.50100000  0.43560000  1.0 -0.6337382049
O  O104  1  0.14920000  0.99900000  0.93560000  1.0 -0.6337382049
O  O105  1  0.71610000  0.45650000  0.94960000  1.0 -0.6380418346
O  O106  1  0.28390000  0.04350000  0.44960000  1.0 -0.6380418346
O  O107  1  0.21610000  0.54350000  0.55040000  1.0 -0.6380418346
O  O108  1  0.78390000  0.95650000  0.05040000  1.0 -0.6380418346
O  O109  1  0.28390000  0.54350000  0.05040000  1.0 -0.6380418346
O  O110  1  0.71610000  0.95650000  0.55040000  1.0 -0.6380418346
O  O111  1  0.78390000  0.45650000  0.44960000  1.0 -0.6380418346
O  O112  1  0.21610000  0.04350000  0.94960000  1.0 -0.6380418346
O  O113  1  0.63330000  0.41510000  0.09040000  1.0 -0.6795290933
O  O114  1  0.36670000  0.08490000  0.59040000  1.0 -0.6795290933
O  O115  1  0.13330000  0.58490000  0.40960000  1.0 -0.6795290933
O  O116  1  0.86670000  0.91510000  0.90960000  1.0 -0.6795290933
O  O117  1  0.36670000  0.58490000  0.90960000  1.0 -0.6795290933
O  O118  1  0.63330000  0.91510000  0.40960000  1.0 -0.6795290933
O  O119  1  0.86670000  0.41510000  0.59040000  1.0 -0.6795290933
O  O120  1  0.13330000  0.08490000  0.09040000  1.0 -0.6795290933
O  O121  1  0.71940000  0.40720000  0.06160000  1.0 -0.6505241735
O  O122  1  0.28060000  0.09280000  0.56160000  1.0 -0.6505241735
O  O123  1  0.21940000  0.59280000  0.43840000  1.0 -0.6505241735
O  O124  1  0.78060000  0.90720000  0.93840000  1.0 -0.6505241735
O  O125  1  0.28060000  0.59280000  0.93840000  1.0 -0.6505241735
O  O126  1  0.71940000  0.90720000  0.43840000  1.0 -0.6505241735
O  O127  1  0.78060000  0.40720000  0.56160000  1.0 -0.6505241735
O  O128  1  0.21940000  0.09280000  0.06160000  1.0 -0.6505241735
O  O129  1  0.75650000  0.47370000  0.84190000  1.0 -0.7713693009
O  O130  1  0.24350000  0.02630000  0.34190000  1.0 -0.7713693009
O  O131  1  0.25650000  0.52630000  0.65810000  1.0 -0.7713693009
O  O132  1  0.74350000  0.97370000  0.15810000  1.0 -0.7713693009
O  O133  1  0.24350000  0.52630000  0.15810000  1.0 -0.7713693009
O  O134  1  0.75650000  0.97370000  0.65810000  1.0 -0.7713693009
O  O135  1  0.74350000  0.47370000  0.34190000  1.0 -0.7713693009
O  O136  1  0.25650000  0.02630000  0.84190000  1.0 -0.7713693009
O  O137  1  0.82050000  0.49890000  0.80520000  1.0 -0.5317251012
O  O138  1  0.17950000  0.00110000  0.30520000  1.0 -0.5317251012
O  O139  1  0.32050000  0.50110000  0.69480000  1.0 -0.5317251012
O  O140  1  0.67950000  0.99890000  0.19480000  1.0 -0.5317251012
O  O141  1  0.17950000  0.50110000  0.19480000  1.0 -0.5317251012
O  O142  1  0.82050000  0.99890000  0.69480000  1.0 -0.5317251012
O  O143  1  0.67950000  0.49890000  0.30520000  1.0 -0.5317251012
O  O144  1  0.32050000  0.00110000  0.80520000  1.0 -0.5317251012
O  O145  1  0.83680000  0.43540000  0.69870000  1.0 -0.6505241735
O  O146  1  0.16320000  0.06460000  0.19870000  1.0 -0.6505241735
O  O147  1  0.33680000  0.56460000  0.80130000  1.0 -0.6505241735
O  O148  1  0.66320000  0.93540000  0.30130000  1.0 -0.6505241735
O  O149  1  0.16320000  0.56460000  0.30130000  1.0 -0.6505241735
O  O150  1  0.83680000  0.93540000  0.80130000  1.0 -0.6505241735
O  O151  1  0.66320000  0.43540000  0.19870000  1.0 -0.6505241735
O  O152  1  0.33680000  0.06460000  0.69870000  1.0 -0.6505241735
O  O153  1  0.80160000  0.37550000  0.69270000  1.0 -0.5859964416
O  O154  1  0.19840000  0.12450000  0.19270000  1.0 -0.5801757159
O  O155  1  0.30160000  0.62450000  0.80730000  1.0 -0.5801757159
O  O156  1  0.69840000  0.87550000  0.30730000  1.0 -0.5801757159
O  O157  1  0.19840000  0.62450000  0.30730000  1.0 -0.5801757159
O  O158  1  0.80160000  0.87550000  0.80730000  1.0 -0.5801757159
O  O159  1  0.69840000  0.37550000  0.19270000  1.0 -0.5859964416
O  O160  1  0.30160000  0.12450000  0.69270000  1.0 -0.5801757159
O  O161  1  0.95060000  0.53360000  0.81150000  1.0 -0.6190637458
O  O162  1  0.04940000  0.96640000  0.31150000  1.0 -0.6109129099
O  O163  1  0.45060000  0.46640000  0.68850000  1.0 -0.6190637458
O  O164  1  0.54940000  0.03360000  0.18850000  1.0 -0.6190637458
O  O165  1  0.04940000  0.46640000  0.18850000  1.0 -0.6109129099
O  O166  1  0.95060000  0.03360000  0.68850000  1.0 -0.6190637458
O  O167  1  0.54940000  0.53360000  0.31150000  1.0 -0.6190637458
O  O168  1  0.45060000  0.96640000  0.81150000  1.0 -0.6190637458
O  O169  1  0.96210000  0.56960000  0.85440000  1.0 -0.6190637458
O  O170  1  0.03790000  0.93040000  0.35440000  1.0 -0.6190637458
O  O171  1  0.46210000  0.43040000  0.64560000  1.0 -0.6190637458
O  O172  1  0.53790000  0.06960000  0.14560000  1.0 -0.6190637458
O  O173  1  0.03790000  0.43040000  0.14560000  1.0 -0.6190637458
O  O174  1  0.96210000  0.06960000  0.64560000  1.0 -0.6190637458
O  O175  1  0.53790000  0.56960000  0.35440000  1.0 -0.6190637458
O  O176  1  0.46210000  0.93040000  0.85440000  1.0 -0.6190637458
O  O177  1  0.17040000  0.59890000  0.89770000  1.0 -0.6505241735
O  O178  1  0.82960000  0.90110000  0.39770000  1.0 -0.6505241735
O  O179  1  0.67040000  0.40110000  0.60230000  1.0 -0.6505241735
O  O180  1  0.32960000  0.09890000  0.10230000  1.0 -0.6505241735
O  O181  1  0.82960000  0.40110000  0.10230000  1.0 -0.6505241735
O  O182  1  0.17040000  0.09890000  0.60230000  1.0 -0.6505241735
O  O183  1  0.32960000  0.59890000  0.39770000  1.0 -0.6505241735
O  O184  1  0.67040000  0.90110000  0.89770000  1.0 -0.6505241735
O  O185  1  0.25000000  0.58610000  0.86600000  1.0 -0.6898390751
O  O186  1  0.75000000  0.91390000  0.36600000  1.0 -0.6898390751
O  O187  1  0.75000000  0.41390000  0.63400000  1.0 -0.6898390751
O  O188  1  0.25000000  0.08610000  0.13400000  1.0 -0.6898390751
O  O189  1  0.75000000  0.41390000  0.13400000  1.0 -0.6898390751
O  O190  1  0.25000000  0.08610000  0.63400000  1.0 -0.6898390751
O  O191  1  0.25000000  0.58610000  0.36600000  1.0 -0.6898390751
O  O192  1  0.75000000  0.91390000  0.86600000  1.0 -0.6898390751
O  O193  1  0.94510000  0.74340000  0.98850000  1.0 -0.6190637458
O  O194  1  0.05490000  0.75660000  0.48850000  1.0 -0.6190637458
O  O195  1  0.44510000  0.25660000  0.51150000  1.0 -0.6190637458
O  O196  1  0.55490000  0.24340000  0.01150000  1.0 -0.6190637458
O  O197  1  0.05490000  0.25660000  0.01150000  1.0 -0.6190637458
O  O198  1  0.94510000  0.24340000  0.51150000  1.0 -0.6190637458
O  O199  1  0.55490000  0.74340000  0.48850000  1.0 -0.6190637458
O  O200  1  0.44510000  0.75660000  0.98850000  1.0 -0.6190637458
O  O201  1  0.02550000  0.71160000  0.96580000  1.0 -0.7393617656
O  O202  1  0.97450000  0.78840000  0.46580000  1.0 -0.7393617656
O  O203  1  0.52550000  0.28840000  0.53420000  1.0 -0.7393617656
O  O204  1  0.47450000  0.21160000  0.03420000  1.0 -0.7393617656
O  O205  1  0.97450000  0.28840000  0.03420000  1.0 -0.7393617656
O  O206  1  0.02550000  0.21160000  0.53420000  1.0 -0.7393617656
O  O207  1  0.47450000  0.71160000  0.46580000  1.0 -0.7393617656
O  O208  1  0.52550000  0.78840000  0.96580000  1.0 -0.7393617656
O  O209  1  0.81820000  0.82730000  0.92110000  1.0 -0.6505241735
O  O210  1  0.18180000  0.67270000  0.42110000  1.0 -0.6380418346
O  O211  1  0.31820000  0.17270000  0.57890000  1.0 -0.6505241735
O  O212  1  0.68180000  0.32730000  0.07890000  1.0 -0.6505241735
O  O213  1  0.18180000  0.17270000  0.07890000  1.0 -0.6505241735
O  O214  1  0.81820000  0.32730000  0.57890000  1.0 -0.6505241735
O  O215  1  0.68180000  0.82730000  0.42110000  1.0 -0.6505241735
O  O216  1  0.31820000  0.67270000  0.92110000  1.0 -0.6380418346
O  O217  1  0.84840000  0.84570000  0.87260000  1.0 -0.6795290933
O  O218  1  0.15160000  0.65430000  0.37260000  1.0 -0.6795290933
O  O219  1  0.34840000  0.15430000  0.62740000  1.0 -0.6795290933
O  O220  1  0.65160000  0.34570000  0.12740000  1.0 -0.6795290933
O  O221  1  0.15160000  0.15430000  0.12740000  1.0 -0.6795290933
O  O222  1  0.84840000  0.34570000  0.62740000  1.0 -0.6795290933
O  O223  1  0.65160000  0.84570000  0.37260000  1.0 -0.6795290933
O  O224  1  0.34840000  0.65430000  0.87260000  1.0 -0.6795290933
O  O225  1  0.67200000  0.52820000  0.86820000  1.0 -0.5801757159
O  O226  1  0.32800000  0.97180000  0.36820000  1.0 -0.5801757159
O  O227  1  0.17200000  0.47180000  0.63180000  1.0 -0.5801757159
O  O228  1  0.82800000  0.02820000  0.13180000  1.0 -0.5801757159
O  O229  1  0.32800000  0.47180000  0.13180000  1.0 -0.5801757159
O  O230  1  0.67200000  0.02820000  0.63180000  1.0 -0.5801757159
O  O231  1  0.82800000  0.52820000  0.36820000  1.0 -0.5801757159
O  O232  1  0.17200000  0.97180000  0.86820000  1.0 -0.5801757159
O  O233  1  0.74950000  0.55960000  0.84290000  1.0 -0.7393617656
O  O234  1  0.25050000  0.94040000  0.34290000  1.0 -0.7393617656
O  O235  1  0.24950000  0.44040000  0.65710000  1.0 -0.7393617656
O  O236  1  0.75050000  0.05960000  0.15710000  1.0 -0.7393617656
O  O237  1  0.25050000  0.44040000  0.15710000  1.0 -0.7393617656
O  O238  1  0.74950000  0.05960000  0.65710000  1.0 -0.7393617656
O  O239  1  0.75050000  0.55960000  0.34290000  1.0 -0.7393617656
O  O240  1  0.24950000  0.94040000  0.84290000  1.0 -0.7393617656
O  O241  1  0.46000000  0.57490000  0.85430000  1.0 -0.6005112753
O  O242  1  0.54000000  0.92510000  0.35430000  1.0 -0.6005112753
O  O243  1  0.96000000  0.42510000  0.64570000  1.0 -0.6005112753
O  O244  1  0.04000000  0.07490000  0.14570000  1.0 -0.6005112753
O  O245  1  0.54000000  0.42510000  0.14570000  1.0 -0.6005112753
O  O246  1  0.46000000  0.07490000  0.64570000  1.0 -0.6005112753
O  O247  1  0.04000000  0.57490000  0.35430000  1.0 -0.6005112753
O  O248  1  0.96000000  0.92510000  0.85430000  1.0 -0.6005112753
O  O249  1  0.43860000  0.62460000  0.82370000  1.0 -0.6190637458
O  O250  1  0.56140000  0.87540000  0.32370000  1.0 -0.6190637458
O  O251  1  0.93860000  0.37540000  0.67630000  1.0 -0.6190637458
O  O252  1  0.06140000  0.12460000  0.17630000  1.0 -0.6190637458
O  O253  1  0.56140000  0.37540000  0.17630000  1.0 -0.6190637458
O  O254  1  0.43860000  0.12460000  0.67630000  1.0 -0.6190637458
O  O255  1  0.06140000  0.62460000  0.32370000  1.0 -0.6190637458
O  O256  1  0.93860000  0.87540000  0.82370000  1.0 -0.6190637458
O  O257  1  0.11000000  0.65830000  0.93010000  1.0 -0.7582043484
O  O258  1  0.89000000  0.84170000  0.43010000  1.0 -0.7582043484
O  O259  1  0.61000000  0.34170000  0.56990000  1.0 -0.7582043484
O  O260  1  0.39000000  0.15830000  0.06990000  1.0 -0.7582043484
O  O261  1  0.89000000  0.34170000  0.06990000  1.0 -0.7582043484
O  O262  1  0.11000000  0.15830000  0.56990000  1.0 -0.7582043484
O  O263  1  0.39000000  0.65830000  0.43010000  1.0 -0.7582043484
O  O264  1  0.61000000  0.84170000  0.93010000  1.0 -0.7582043484
O  O265  1  0.01390000  0.64460000  0.92380000  1.0 -0.4189224467
O  O266  1  0.98610000  0.85540000  0.42380000  1.0 -0.4189224467
O  O267  1  0.51390000  0.35540000  0.57620000  1.0 -0.4189224467
O  O268  1  0.48610000  0.14460000  0.07620000  1.0 -0.4189224467
O  O269  1  0.98610000  0.35540000  0.07620000  1.0 -0.4189224467
O  O270  1  0.01390000  0.14460000  0.57620000  1.0 -0.4189224467
O  O271  1  0.48610000  0.64460000  0.42380000  1.0 -0.4189224467
O  O272  1  0.51390000  0.85540000  0.92380000  1.0 -0.4189224467
O  O273  1  0.16650000  0.63210000  0.98140000  1.0 -0.7713693009
O  O274  1  0.83350000  0.86790000  0.48140000  1.0 -0.7713693009
O  O275  1  0.66650000  0.36790000  0.51860000  1.0 -0.7713693009
O  O276  1  0.33350000  0.13210000  0.01860000  1.0 -0.7713693009
O  O277  1  0.83350000  0.36790000  0.01860000  1.0 -0.7713693009
O  O278  1  0.16650000  0.13210000  0.51860000  1.0 -0.7713693009
O  O279  1  0.33350000  0.63210000  0.48140000  1.0 -0.7713693009
O  O280  1  0.66650000  0.86790000  0.98140000  1.0 -0.7713693009
O  O281  1  0.26400000  0.65170000  0.98770000  1.0 -0.4940980003
O  O282  1  0.73600000  0.84830000  0.48770000  1.0 -0.4953303263
O  O283  1  0.76400000  0.34830000  0.51230000  1.0 -0.4953303263
O  O284  1  0.23600000  0.15170000  0.01230000  1.0 -0.4940980003
O  O285  1  0.73600000  0.34830000  0.01230000  1.0 -0.4940980003
O  O286  1  0.26400000  0.15170000  0.51230000  1.0 -0.4940980003
O  O287  1  0.23600000  0.65170000  0.48770000  1.0 -0.4940980003
O  O288  1  0.76400000  0.84830000  0.98770000  1.0 -0.4953303263
