# DDEC6 charges by PACMAN v1.1 (https://github.com/mtap-research/PACMAN-charge/)
data_DALVIY_FSR_pacman
_symmetry_space_group_name_H-M   'P 1'
_cell_length_a   21.61250000
_cell_length_b   34.96700000
_cell_length_c   41.29600000
_cell_angle_alpha   90.00000000
_cell_angle_beta   90.00000000
_cell_angle_gamma   90.00000000
_symmetry_Int_Tables_number   1
_chemical_formula_structural   Gd6H89C101N17O46
_chemical_formula_sum   'Gd48 H712 C808 N136 O368'
_cell_volume   31208.39017660
_cell_formula_units_Z   8
loop_
 _symmetry_equiv_pos_site_id
 _symmetry_equiv_pos_as_xyz
  1  'x, y, z'
loop_
 _atom_site_type_symbol
 _atom_site_label
 _atom_site_symmetry_multiplicity
 _atom_site_fract_x
 _atom_site_fract_y
 _atom_site_fract_z
 _atom_site_occupancy
 _atom_site_charge
Gd  Gd1  1  0.93752000  0.72340000  0.04341000  1.0 2.0089840508
Gd  Gd2  1  0.06248000  0.77660000  0.54341000  1.0 2.0089840508
Gd  Gd3  1  0.43752000  0.27660000  0.45659000  1.0 2.0089840508
Gd  Gd4  1  0.56248000  0.22340000  0.95659000  1.0 2.0089840508
Gd  Gd5  1  0.06248000  0.27660000  0.95659000  1.0 2.0089840508
Gd  Gd6  1  0.93752000  0.22340000  0.45659000  1.0 2.0089840508
Gd  Gd7  1  0.56248000  0.72340000  0.54341000  1.0 2.0089840508
Gd  Gd8  1  0.43752000  0.77660000  0.04341000  1.0 2.0089840508
Gd  Gd9  1  0.72427000  0.47767000  0.89407000  1.0 2.0498254366
Gd  Gd10  1  0.27573000  0.02233000  0.39407000  1.0 2.0498254366
Gd  Gd11  1  0.22427000  0.52233000  0.60593000  1.0 2.0498254366
Gd  Gd12  1  0.77573000  0.97767000  0.10593000  1.0 2.0498254366
Gd  Gd13  1  0.27573000  0.52233000  0.10593000  1.0 2.0498254366
Gd  Gd14  1  0.72427000  0.97767000  0.60593000  1.0 2.0498254366
Gd  Gd15  1  0.77573000  0.47767000  0.39407000  1.0 2.0498254366
Gd  Gd16  1  0.22427000  0.02233000  0.89407000  1.0 2.0498254366
Gd  Gd17  1  0.85458000  0.55109000  0.83986000  1.0 2.0089840508
Gd  Gd18  1  0.14542000  0.94891000  0.33986000  1.0 2.0089840508
Gd  Gd19  1  0.35458000  0.44891000  0.66014000  1.0 2.0089840508
Gd  Gd20  1  0.64542000  0.05109000  0.16014000  1.0 2.0089840508
Gd  Gd21  1  0.14542000  0.44891000  0.16014000  1.0 2.0089840508
Gd  Gd22  1  0.85458000  0.05109000  0.66014000  1.0 2.0089840508
Gd  Gd23  1  0.64542000  0.55109000  0.33986000  1.0 2.0089840508
Gd  Gd24  1  0.35458000  0.94891000  0.83986000  1.0 2.0089840508
Gd  Gd25  1  0.64699000  0.40696000  0.14623000  1.0 1.9982675231
Gd  Gd26  1  0.35301000  0.09304000  0.64623000  1.0 1.9982675231
Gd  Gd27  1  0.14699000  0.59304000  0.35377000  1.0 1.9982675231
Gd  Gd28  1  0.85301000  0.90696000  0.85377000  1.0 1.9982675231
Gd  Gd29  1  0.35301000  0.59304000  0.85377000  1.0 1.9982675231
Gd  Gd30  1  0.64699000  0.90696000  0.35377000  1.0 1.9982675231
Gd  Gd31  1  0.85301000  0.40696000  0.64623000  1.0 1.9982675231
Gd  Gd32  1  0.14699000  0.09304000  0.14623000  1.0 1.9982675231
Gd  Gd33  1  0.21973000  0.64633000  0.92994000  1.0 2.0364248671
Gd  Gd34  1  0.78027000  0.85367000  0.42994000  1.0 2.0364248671
Gd  Gd35  1  0.71973000  0.35367000  0.57006000  1.0 2.0364248671
Gd  Gd36  1  0.28027000  0.14633000  0.07006000  1.0 2.0364248671
Gd  Gd37  1  0.78027000  0.35367000  0.07006000  1.0 2.0364248671
Gd  Gd38  1  0.21973000  0.14633000  0.57006000  1.0 2.0364248671
Gd  Gd39  1  0.28027000  0.64633000  0.42994000  1.0 2.0364248671
Gd  Gd40  1  0.71973000  0.85367000  0.92994000  1.0 2.0364248671
Gd  Gd41  1  0.05993000  0.65430000  0.98324000  1.0 2.0498254366
Gd  Gd42  1  0.94007000  0.84570000  0.48324000  1.0 2.0498254366
Gd  Gd43  1  0.55993000  0.34570000  0.51676000  1.0 2.0498254366
Gd  Gd44  1  0.44007000  0.15430000  0.01676000  1.0 2.0498254366
Gd  Gd45  1  0.94007000  0.34570000  0.01676000  1.0 2.0498254366
Gd  Gd46  1  0.05993000  0.15430000  0.51676000  1.0 2.0498254366
Gd  Gd47  1  0.44007000  0.65430000  0.48324000  1.0 2.0498254366
Gd  Gd48  1  0.55993000  0.84570000  0.98324000  1.0 2.0498254366
H  H1  1  0.72250000  0.76880000  0.03150000  1.0 0.1210280454
H  H2  1  0.27750000  0.73120000  0.53150000  1.0 0.1210280454
H  H3  1  0.22250000  0.23120000  0.46850000  1.0 0.1210280454
H  H4  1  0.77750000  0.26880000  0.96850000  1.0 0.1210280454
H  H5  1  0.27750000  0.23120000  0.96850000  1.0 0.1210280454
H  H6  1  0.72250000  0.26880000  0.46850000  1.0 0.1210280454
H  H7  1  0.77750000  0.76880000  0.53150000  1.0 0.1210280454
H  H8  1  0.22250000  0.73120000  0.03150000  1.0 0.1210280454
H  H9  1  0.57100000  0.71880000  0.06750000  1.0 0.13885529
H  H10  1  0.42900000  0.78120000  0.56750000  1.0 0.13885529
H  H11  1  0.07100000  0.28120000  0.43250000  1.0 0.13885529
H  H12  1  0.92900000  0.21880000  0.93250000  1.0 0.13885529
H  H13  1  0.42900000  0.28120000  0.93250000  1.0 0.13885529
H  H14  1  0.57100000  0.21880000  0.43250000  1.0 0.13885529
H  H15  1  0.92900000  0.71880000  0.56750000  1.0 0.13885529
H  H16  1  0.07100000  0.78120000  0.06750000  1.0 0.13885529
H  H17  1  0.71160000  0.61790000  0.81620000  1.0 0.1297244168
H  H18  1  0.28840000  0.88210000  0.31620000  1.0 0.1297244168
H  H19  1  0.21160000  0.38210000  0.68380000  1.0 0.1297244168
H  H20  1  0.78840000  0.11790000  0.18380000  1.0 0.1297244168
H  H21  1  0.28840000  0.38210000  0.18380000  1.0 0.1297244168
H  H22  1  0.71160000  0.11790000  0.68380000  1.0 0.1297244168
H  H23  1  0.78840000  0.61790000  0.31620000  1.0 0.1297244168
H  H24  1  0.21160000  0.88210000  0.81620000  1.0 0.1297244168
H  H25  1  0.74070000  0.68210000  0.09260000  1.0 0.13885529
H  H26  1  0.25930000  0.81790000  0.59260000  1.0 0.13885529
H  H27  1  0.24070000  0.31790000  0.40740000  1.0 0.13885529
H  H28  1  0.75930000  0.18210000  0.90740000  1.0 0.13885529
H  H29  1  0.25930000  0.31790000  0.90740000  1.0 0.13885529
H  H30  1  0.74070000  0.18210000  0.40740000  1.0 0.13885529
H  H31  1  0.75930000  0.68210000  0.59260000  1.0 0.13885529
H  H32  1  0.24070000  0.81790000  0.09260000  1.0 0.13885529
H  H33  1  0.89320000  0.60380000  0.94650000  1.0 0.1297244168
H  H34  1  0.10680000  0.89620000  0.44650000  1.0 0.1297244168
H  H35  1  0.39320000  0.39620000  0.55350000  1.0 0.1297244168
H  H36  1  0.60680000  0.10380000  0.05350000  1.0 0.1297244168
H  H37  1  0.10680000  0.39620000  0.05350000  1.0 0.1297244168
H  H38  1  0.89320000  0.10380000  0.55350000  1.0 0.1297244168
H  H39  1  0.60680000  0.60380000  0.44650000  1.0 0.1297244168
H  H40  1  0.39320000  0.89620000  0.94650000  1.0 0.1297244168
H  H41  1  0.72600000  0.55790000  0.96320000  1.0 0.13885529
H  H42  1  0.27400000  0.94210000  0.46320000  1.0 0.13885529
H  H43  1  0.22600000  0.44210000  0.53680000  1.0 0.13885529
H  H44  1  0.77400000  0.05790000  0.03680000  1.0 0.13885529
H  H45  1  0.27400000  0.44210000  0.03680000  1.0 0.13885529
H  H46  1  0.72600000  0.05790000  0.53680000  1.0 0.13885529
H  H47  1  0.77400000  0.55790000  0.46320000  1.0 0.13885529
H  H48  1  0.22600000  0.94210000  0.96320000  1.0 0.13885529
H  H49  1  0.79990000  0.63140000  0.02760000  1.0 0.13885529
H  H50  1  0.20010000  0.86860000  0.52760000  1.0 0.13885529
H  H51  1  0.29990000  0.36860000  0.47240000  1.0 0.13885529
H  H52  1  0.70010000  0.13140000  0.97240000  1.0 0.13885529
H  H53  1  0.20010000  0.36860000  0.97240000  1.0 0.13885529
H  H54  1  0.79990000  0.13140000  0.47240000  1.0 0.13885529
H  H55  1  0.70010000  0.63140000  0.52760000  1.0 0.13885529
H  H56  1  0.29990000  0.86860000  0.02760000  1.0 0.13885529
H  H57  1  0.90280000  0.41170000  0.92570000  1.0 0.1297244168
H  H58  1  0.09720000  0.08830000  0.42570000  1.0 0.1297244168
H  H59  1  0.40280000  0.58830000  0.57430000  1.0 0.1297244168
H  H60  1  0.59720000  0.91170000  0.07430000  1.0 0.1297244168
H  H61  1  0.09720000  0.58830000  0.07430000  1.0 0.1297244168
H  H62  1  0.90280000  0.91170000  0.57430000  1.0 0.1297244168
H  H63  1  0.59720000  0.41170000  0.42570000  1.0 0.1297244168
H  H64  1  0.40280000  0.08830000  0.92570000  1.0 0.1297244168
H  H65  1  0.07450000  0.38310000  0.90180000  1.0 0.13885529
H  H66  1  0.92550000  0.11690000  0.40180000  1.0 0.13885529
H  H67  1  0.57450000  0.61690000  0.59820000  1.0 0.13885529
H  H68  1  0.42550000  0.88310000  0.09820000  1.0 0.13885529
H  H69  1  0.92550000  0.61690000  0.09820000  1.0 0.13885529
H  H70  1  0.07450000  0.88310000  0.59820000  1.0 0.13885529
H  H71  1  0.42550000  0.38310000  0.40180000  1.0 0.13885529
H  H72  1  0.57450000  0.11690000  0.90180000  1.0 0.13885529
H  H73  1  0.98210000  0.47050000  0.85450000  1.0 0.13885529
H  H74  1  0.01790000  0.02950000  0.35450000  1.0 0.13885529
H  H75  1  0.48210000  0.52950000  0.64550000  1.0 0.13885529
H  H76  1  0.51790000  0.97050000  0.14550000  1.0 0.13885529
H  H77  1  0.01790000  0.52950000  0.14550000  1.0 0.13885529
H  H78  1  0.98210000  0.97050000  0.64550000  1.0 0.13885529
H  H79  1  0.51790000  0.47050000  0.35450000  1.0 0.13885529
H  H80  1  0.48210000  0.02950000  0.85450000  1.0 0.13885529
H  H81  1  0.70040000  0.43670000  0.00800000  1.0 0.13885529
H  H82  1  0.29960000  0.06330000  0.50800000  1.0 0.13885529
H  H83  1  0.20040000  0.56330000  0.49200000  1.0 0.13885529
H  H84  1  0.79960000  0.93670000  0.99200000  1.0 0.13885529
H  H85  1  0.29960000  0.56330000  0.99200000  1.0 0.13885529
H  H86  1  0.70040000  0.93670000  0.49200000  1.0 0.13885529
H  H87  1  0.79960000  0.43670000  0.50800000  1.0 0.13885529
H  H88  1  0.20040000  0.06330000  0.00800000  1.0 0.13885529
H  H89  1  0.58130000  0.47580000  0.07300000  1.0 0.1297244168
H  H90  1  0.41870000  0.02420000  0.57300000  1.0 0.1297244168
H  H91  1  0.08130000  0.52420000  0.42700000  1.0 0.1297244168
H  H92  1  0.91870000  0.97580000  0.92700000  1.0 0.1297244168
H  H93  1  0.41870000  0.52420000  0.92700000  1.0 0.1297244168
H  H94  1  0.58130000  0.97580000  0.42700000  1.0 0.1297244168
H  H95  1  0.91870000  0.47580000  0.57300000  1.0 0.1297244168
H  H96  1  0.08130000  0.02420000  0.07300000  1.0 0.1297244168
H  H97  1  0.58490000  0.52220000  0.98440000  1.0 0.1297244168
H  H98  1  0.41510000  0.97780000  0.48440000  1.0 0.1297244168
H  H99  1  0.08490000  0.47780000  0.51560000  1.0 0.1297244168
H  H100  1  0.91510000  0.02220000  0.01560000  1.0 0.1297244168
H  H101  1  0.41510000  0.47780000  0.01560000  1.0 0.1297244168
H  H102  1  0.58490000  0.02220000  0.51560000  1.0 0.1297244168
H  H103  1  0.91510000  0.52220000  0.48440000  1.0 0.1297244168
H  H104  1  0.08490000  0.97780000  0.98440000  1.0 0.1297244168
H  H105  1  0.82370000  0.45760000  0.75480000  1.0 0.13885529
H  H106  1  0.17630000  0.04240000  0.25480000  1.0 0.13885529
H  H107  1  0.32370000  0.54240000  0.74520000  1.0 0.13885529
H  H108  1  0.67630000  0.95760000  0.24520000  1.0 0.13885529
H  H109  1  0.17630000  0.54240000  0.24520000  1.0 0.13885529
H  H110  1  0.82370000  0.95760000  0.74520000  1.0 0.13885529
H  H111  1  0.67630000  0.45760000  0.25480000  1.0 0.13885529
H  H112  1  0.32370000  0.04240000  0.75480000  1.0 0.13885529
H  H113  1  0.73350000  0.35850000  0.74010000  1.0 0.1210280454
H  H114  1  0.26650000  0.14150000  0.24010000  1.0 0.1210280454
H  H115  1  0.23350000  0.64150000  0.75990000  1.0 0.1210280454
H  H116  1  0.76650000  0.85850000  0.25990000  1.0 0.1210280454
H  H117  1  0.26650000  0.64150000  0.25990000  1.0 0.1210280454
H  H118  1  0.73350000  0.85850000  0.75990000  1.0 0.1210280454
H  H119  1  0.76650000  0.35850000  0.24010000  1.0 0.1210280454
H  H120  1  0.23350000  0.14150000  0.74010000  1.0 0.1210280454
H  H121  1  0.70990000  0.41530000  0.82380000  1.0 0.13885529
H  H122  1  0.29010000  0.08470000  0.32380000  1.0 0.13885529
H  H123  1  0.20990000  0.58470000  0.67620000  1.0 0.13885529
H  H124  1  0.79010000  0.91530000  0.17620000  1.0 0.13885529
H  H125  1  0.29010000  0.58470000  0.17620000  1.0 0.13885529
H  H126  1  0.70990000  0.91530000  0.67620000  1.0 0.13885529
H  H127  1  0.79010000  0.41530000  0.32380000  1.0 0.13885529
H  H128  1  0.20990000  0.08470000  0.82380000  1.0 0.13885529
H  H129  1  0.07100000  0.57840000  0.86770000  1.0 0.1210280454
H  H130  1  0.92900000  0.92160000  0.36770000  1.0 0.1210280454
H  H131  1  0.57100000  0.42160000  0.63230000  1.0 0.1210280454
H  H132  1  0.42900000  0.07840000  0.13230000  1.0 0.1210280454
H  H133  1  0.92900000  0.42160000  0.13230000  1.0 0.1210280454
H  H134  1  0.07100000  0.07840000  0.63230000  1.0 0.1210280454
H  H135  1  0.42900000  0.57840000  0.36770000  1.0 0.1210280454
H  H136  1  0.57100000  0.92160000  0.86770000  1.0 0.1210280454
H  H137  1  0.22120000  0.54460000  0.82020000  1.0 0.1297244168
H  H138  1  0.77880000  0.95540000  0.32020000  1.0 0.1297244168
H  H139  1  0.72120000  0.45540000  0.67980000  1.0 0.1297244168
H  H140  1  0.27880000  0.04460000  0.17980000  1.0 0.1297244168
H  H141  1  0.77880000  0.45540000  0.17980000  1.0 0.1297244168
H  H142  1  0.22120000  0.04460000  0.67980000  1.0 0.1297244168
H  H143  1  0.27880000  0.54460000  0.32020000  1.0 0.1297244168
H  H144  1  0.72120000  0.95540000  0.82020000  1.0 0.1297244168
H  H145  1  0.05400000  0.51750000  0.78790000  1.0 0.1480466736
H  H146  1  0.94600000  0.98250000  0.28790000  1.0 0.1480466736
H  H147  1  0.55400000  0.48250000  0.71210000  1.0 0.1480466736
H  H148  1  0.44600000  0.01750000  0.21210000  1.0 0.1480466736
H  H149  1  0.94600000  0.48250000  0.21210000  1.0 0.1480466736
H  H150  1  0.05400000  0.01750000  0.71210000  1.0 0.1480466736
H  H151  1  0.44600000  0.51750000  0.28790000  1.0 0.1480466736
H  H152  1  0.55400000  0.98250000  0.78790000  1.0 0.1480466736
H  H153  1  0.89480000  0.78460000  0.94880000  1.0 0.1297244168
H  H154  1  0.10520000  0.71540000  0.44880000  1.0 0.1297244168
H  H155  1  0.39480000  0.21540000  0.55120000  1.0 0.1297244168
H  H156  1  0.60520000  0.28460000  0.05120000  1.0 0.1297244168
H  H157  1  0.10520000  0.21540000  0.05120000  1.0 0.1297244168
H  H158  1  0.89480000  0.28460000  0.55120000  1.0 0.1297244168
H  H159  1  0.60520000  0.78460000  0.44880000  1.0 0.1297244168
H  H160  1  0.39480000  0.71540000  0.94880000  1.0 0.1297244168
H  H161  1  0.94060000  0.80720000  0.85570000  1.0 0.1480466736
H  H162  1  0.05940000  0.69280000  0.35570000  1.0 0.1480466736
H  H163  1  0.44060000  0.19280000  0.64430000  1.0 0.1480466736
H  H164  1  0.55940000  0.30720000  0.14430000  1.0 0.1480466736
H  H165  1  0.05940000  0.19280000  0.14430000  1.0 0.1480466736
H  H166  1  0.94060000  0.30720000  0.64430000  1.0 0.1480466736
H  H167  1  0.55940000  0.80720000  0.35570000  1.0 0.1480466736
H  H168  1  0.44060000  0.69280000  0.85570000  1.0 0.1480466736
H  H169  1  0.03850000  0.73400000  0.90860000  1.0 0.1297244168
H  H170  1  0.96150000  0.76600000  0.40860000  1.0 0.1297244168
H  H171  1  0.53850000  0.26600000  0.59140000  1.0 0.1297244168
H  H172  1  0.46150000  0.23400000  0.09140000  1.0 0.1297244168
H  H173  1  0.96150000  0.26600000  0.09140000  1.0 0.1297244168
H  H174  1  0.03850000  0.23400000  0.59140000  1.0 0.1297244168
H  H175  1  0.46150000  0.73400000  0.40860000  1.0 0.1297244168
H  H176  1  0.53850000  0.76600000  0.90860000  1.0 0.1297244168
H  H177  1  0.57160000  0.56030000  0.85420000  1.0 0.1297244168
H  H178  1  0.42840000  0.93970000  0.35420000  1.0 0.1297244168
H  H179  1  0.07160000  0.43970000  0.64580000  1.0 0.1297244168
H  H180  1  0.92840000  0.06030000  0.14580000  1.0 0.1297244168
H  H181  1  0.42840000  0.43970000  0.14580000  1.0 0.1297244168
H  H182  1  0.57160000  0.06030000  0.64580000  1.0 0.1297244168
H  H183  1  0.92840000  0.56030000  0.35420000  1.0 0.1297244168
H  H184  1  0.07160000  0.93970000  0.85420000  1.0 0.1297244168
H  H185  1  0.53650000  0.65140000  0.80100000  1.0 0.1297244168
H  H186  1  0.46350000  0.84860000  0.30100000  1.0 0.1297244168
H  H187  1  0.03650000  0.34860000  0.69900000  1.0 0.1297244168
H  H188  1  0.96350000  0.15140000  0.19900000  1.0 0.1297244168
H  H189  1  0.46350000  0.34860000  0.19900000  1.0 0.1297244168
H  H190  1  0.53650000  0.15140000  0.69900000  1.0 0.1297244168
H  H191  1  0.96350000  0.65140000  0.30100000  1.0 0.1297244168
H  H192  1  0.03650000  0.84860000  0.80100000  1.0 0.1297244168
H  H193  1  0.27360000  0.73400000  0.96810000  1.0 0.1119190025
H  H194  1  0.72640000  0.76600000  0.46810000  1.0 0.1119190025
H  H195  1  0.77360000  0.26600000  0.53190000  1.0 0.1119190025
H  H196  1  0.22640000  0.23400000  0.03190000  1.0 0.1119190025
H  H197  1  0.72640000  0.26600000  0.03190000  1.0 0.1119190025
H  H198  1  0.27360000  0.23400000  0.53190000  1.0 0.1119190025
H  H199  1  0.22640000  0.73400000  0.46810000  1.0 0.1119190025
H  H200  1  0.77360000  0.76600000  0.96810000  1.0 0.1119190025
H  H201  1  0.13070000  0.79860000  0.97190000  1.0 0.1297244168
H  H202  1  0.86930000  0.70140000  0.47190000  1.0 0.1297244168
H  H203  1  0.63070000  0.20140000  0.52810000  1.0 0.1297244168
H  H204  1  0.36930000  0.29860000  0.02810000  1.0 0.1297244168
H  H205  1  0.86930000  0.20140000  0.02810000  1.0 0.1297244168
H  H206  1  0.13070000  0.29860000  0.52810000  1.0 0.1297244168
H  H207  1  0.36930000  0.79860000  0.47190000  1.0 0.1297244168
H  H208  1  0.63070000  0.70140000  0.97190000  1.0 0.1297244168
H  H209  1  0.14120000  0.79080000  0.93500000  1.0 0.13885529
H  H210  1  0.85880000  0.70920000  0.43500000  1.0 0.13885529
H  H211  1  0.64120000  0.20920000  0.56500000  1.0 0.13885529
H  H212  1  0.35880000  0.29080000  0.06500000  1.0 0.13885529
H  H213  1  0.85880000  0.20920000  0.06500000  1.0 0.13885529
H  H214  1  0.14120000  0.29080000  0.56500000  1.0 0.13885529
H  H215  1  0.35880000  0.79080000  0.43500000  1.0 0.13885529
H  H216  1  0.64120000  0.70920000  0.93500000  1.0 0.13885529
H  H217  1  0.11920000  0.75760000  0.95780000  1.0 0.1589423379
H  H218  1  0.88080000  0.74240000  0.45780000  1.0 0.1589423379
H  H219  1  0.61920000  0.24240000  0.54220000  1.0 0.1589423379
H  H220  1  0.38080000  0.25760000  0.04220000  1.0 0.1589423379
H  H221  1  0.88080000  0.24240000  0.04220000  1.0 0.1589423379
H  H222  1  0.11920000  0.25760000  0.54220000  1.0 0.1589423379
H  H223  1  0.38080000  0.75760000  0.45780000  1.0 0.1589423379
H  H224  1  0.61920000  0.74240000  0.95780000  1.0 0.1589423379
H  H225  1  0.27750000  0.79050000  0.99230000  1.0 0.13885529
H  H226  1  0.72250000  0.70950000  0.49230000  1.0 0.13885529
H  H227  1  0.77750000  0.20950000  0.50770000  1.0 0.13885529
H  H228  1  0.22250000  0.29050000  0.00770000  1.0 0.13885529
H  H229  1  0.72250000  0.20950000  0.00770000  1.0 0.13885529
H  H230  1  0.27750000  0.29050000  0.50770000  1.0 0.13885529
H  H231  1  0.22250000  0.79050000  0.49230000  1.0 0.13885529
H  H232  1  0.77750000  0.70950000  0.99230000  1.0 0.13885529
H  H233  1  0.26810000  0.81570000  0.96130000  1.0 0.1297244168
H  H234  1  0.73190000  0.68430000  0.46130000  1.0 0.1297244168
H  H235  1  0.76810000  0.18430000  0.53870000  1.0 0.1297244168
H  H236  1  0.23190000  0.31570000  0.03870000  1.0 0.1297244168
H  H237  1  0.73190000  0.18430000  0.03870000  1.0 0.1297244168
H  H238  1  0.26810000  0.31570000  0.53870000  1.0 0.1297244168
H  H239  1  0.23190000  0.81570000  0.46130000  1.0 0.1297244168
H  H240  1  0.76810000  0.68430000  0.96130000  1.0 0.1297244168
H  H241  1  0.22100000  0.81850000  0.99000000  1.0 0.13885529
H  H242  1  0.77900000  0.68150000  0.49000000  1.0 0.13885529
H  H243  1  0.72100000  0.18150000  0.51000000  1.0 0.13885529
H  H244  1  0.27900000  0.31850000  0.01000000  1.0 0.13885529
H  H245  1  0.77900000  0.18150000  0.01000000  1.0 0.13885529
H  H246  1  0.22100000  0.31850000  0.51000000  1.0 0.13885529
H  H247  1  0.27900000  0.81850000  0.49000000  1.0 0.13885529
H  H248  1  0.72100000  0.68150000  0.99000000  1.0 0.13885529
H  H249  1  0.99640000  0.56490000  0.99430000  1.0 0.1210280454
H  H250  1  0.00360000  0.93510000  0.49430000  1.0 0.1210280454
H  H251  1  0.49640000  0.43510000  0.50570000  1.0 0.1210280454
H  H252  1  0.50360000  0.06490000  0.00570000  1.0 0.1210280454
H  H253  1  0.00360000  0.43510000  0.00570000  1.0 0.1210280454
H  H254  1  0.99640000  0.06490000  0.50570000  1.0 0.1210280454
H  H255  1  0.50360000  0.56490000  0.49430000  1.0 0.1210280454
H  H256  1  0.49640000  0.93510000  0.99430000  1.0 0.1210280454
H  H257  1  0.91540000  0.51200000  0.94260000  1.0 0.1589423379
H  H258  1  0.08460000  0.98800000  0.44260000  1.0 0.1589423379
H  H259  1  0.41540000  0.48800000  0.55740000  1.0 0.1589423379
H  H260  1  0.58460000  0.01200000  0.05740000  1.0 0.1589423379
H  H261  1  0.08460000  0.48800000  0.05740000  1.0 0.1589423379
H  H262  1  0.91540000  0.01200000  0.55740000  1.0 0.1589423379
H  H263  1  0.58460000  0.51200000  0.44260000  1.0 0.1589423379
H  H264  1  0.41540000  0.98800000  0.94260000  1.0 0.1589423379
H  H265  1  0.96140000  0.48830000  0.96400000  1.0 0.1297244168
H  H266  1  0.03860000  0.01170000  0.46400000  1.0 0.1297244168
H  H267  1  0.46140000  0.51170000  0.53600000  1.0 0.1297244168
H  H268  1  0.53860000  0.98830000  0.03600000  1.0 0.1297244168
H  H269  1  0.03860000  0.51170000  0.03600000  1.0 0.1297244168
H  H270  1  0.96140000  0.98830000  0.53600000  1.0 0.1297244168
H  H271  1  0.53860000  0.48830000  0.46400000  1.0 0.1297244168
H  H272  1  0.46140000  0.01170000  0.96400000  1.0 0.1297244168
H  H273  1  0.91990000  0.51990000  0.97990000  1.0 0.13885529
H  H274  1  0.08010000  0.98010000  0.47990000  1.0 0.13885529
H  H275  1  0.41990000  0.48010000  0.52010000  1.0 0.13885529
H  H276  1  0.58010000  0.01990000  0.02010000  1.0 0.13885529
H  H277  1  0.08010000  0.48010000  0.02010000  1.0 0.13885529
H  H278  1  0.91990000  0.01990000  0.52010000  1.0 0.13885529
H  H279  1  0.58010000  0.51990000  0.47990000  1.0 0.13885529
H  H280  1  0.41990000  0.98010000  0.97990000  1.0 0.13885529
H  H281  1  0.04840000  0.55880000  0.92060000  1.0 0.1480466736
H  H282  1  0.95160000  0.94120000  0.42060000  1.0 0.1480466736
H  H283  1  0.54840000  0.44120000  0.57940000  1.0 0.1480466736
H  H284  1  0.45160000  0.05880000  0.07940000  1.0 0.1480466736
H  H285  1  0.95160000  0.44120000  0.07940000  1.0 0.1480466736
H  H286  1  0.04840000  0.05880000  0.57940000  1.0 0.1480466736
H  H287  1  0.45160000  0.55880000  0.42060000  1.0 0.1480466736
H  H288  1  0.54840000  0.94120000  0.92060000  1.0 0.1480466736
H  H289  1  0.03800000  0.51440000  0.92060000  1.0 0.13885529
H  H290  1  0.96200000  0.98560000  0.42060000  1.0 0.13885529
H  H291  1  0.53800000  0.48560000  0.57940000  1.0 0.13885529
H  H292  1  0.46200000  0.01440000  0.07940000  1.0 0.13885529
H  H293  1  0.96200000  0.48560000  0.07940000  1.0 0.13885529
H  H294  1  0.03800000  0.01440000  0.57940000  1.0 0.13885529
H  H295  1  0.46200000  0.51440000  0.42060000  1.0 0.13885529
H  H296  1  0.53800000  0.98560000  0.92060000  1.0 0.13885529
H  H297  1  0.98660000  0.54170000  0.90700000  1.0 0.1480466736
H  H298  1  0.01340000  0.95830000  0.40700000  1.0 0.1480466736
H  H299  1  0.48660000  0.45830000  0.59300000  1.0 0.1480466736
H  H300  1  0.51340000  0.04170000  0.09300000  1.0 0.1480466736
H  H301  1  0.01340000  0.45830000  0.09300000  1.0 0.1480466736
H  H302  1  0.98660000  0.04170000  0.59300000  1.0 0.1480466736
H  H303  1  0.51340000  0.54170000  0.40700000  1.0 0.1480466736
H  H304  1  0.48660000  0.95830000  0.90700000  1.0 0.1480466736
H  H305  1  0.88610000  0.81200000  0.02310000  1.0 0.1027965016
H  H306  1  0.11390000  0.68800000  0.52310000  1.0 0.1027965016
H  H307  1  0.38610000  0.18800000  0.47690000  1.0 0.1027965016
H  H308  1  0.61390000  0.31200000  0.97690000  1.0 0.1027965016
H  H309  1  0.11390000  0.18800000  0.97690000  1.0 0.1027965016
H  H310  1  0.88610000  0.31200000  0.47690000  1.0 0.1027965016
H  H311  1  0.61390000  0.81200000  0.52310000  1.0 0.1027965016
H  H312  1  0.38610000  0.68800000  0.02310000  1.0 0.1027965016
H  H313  1  0.91540000  0.89360000  0.00150000  1.0 0.1297244168
H  H314  1  0.08460000  0.60640000  0.50150000  1.0 0.1297244168
H  H315  1  0.41540000  0.10640000  0.49850000  1.0 0.1297244168
H  H316  1  0.58460000  0.39360000  0.99850000  1.0 0.1297244168
H  H317  1  0.08460000  0.10640000  0.99850000  1.0 0.1297244168
H  H318  1  0.91540000  0.39360000  0.49850000  1.0 0.1297244168
H  H319  1  0.58460000  0.89360000  0.50150000  1.0 0.1297244168
H  H320  1  0.41540000  0.60640000  0.00150000  1.0 0.1297244168
H  H321  1  0.94330000  0.87730000  0.96920000  1.0 0.13885529
H  H322  1  0.05670000  0.62270000  0.46920000  1.0 0.13885529
H  H323  1  0.44330000  0.12270000  0.53080000  1.0 0.13885529
H  H324  1  0.55670000  0.37730000  0.03080000  1.0 0.13885529
H  H325  1  0.05670000  0.12270000  0.03080000  1.0 0.13885529
H  H326  1  0.94330000  0.37730000  0.53080000  1.0 0.13885529
H  H327  1  0.55670000  0.87730000  0.46920000  1.0 0.13885529
H  H328  1  0.44330000  0.62270000  0.96920000  1.0 0.13885529
H  H329  1  0.88170000  0.86030000  0.98310000  1.0 0.13885529
H  H330  1  0.11830000  0.63970000  0.48310000  1.0 0.13885529
H  H331  1  0.38170000  0.13970000  0.51690000  1.0 0.13885529
H  H332  1  0.61830000  0.36030000  0.01690000  1.0 0.13885529
H  H333  1  0.11830000  0.13970000  0.01690000  1.0 0.13885529
H  H334  1  0.88170000  0.36030000  0.51690000  1.0 0.13885529
H  H335  1  0.61830000  0.86030000  0.48310000  1.0 0.13885529
H  H336  1  0.38170000  0.63970000  0.98310000  1.0 0.13885529
H  H337  1  0.05180000  0.82910000  0.01040000  1.0 0.1210280454
H  H338  1  0.94820000  0.67090000  0.51040000  1.0 0.1210280454
H  H339  1  0.55180000  0.17090000  0.48960000  1.0 0.1210280454
H  H340  1  0.44820000  0.32910000  0.98960000  1.0 0.1210280454
H  H341  1  0.94820000  0.17090000  0.98960000  1.0 0.1210280454
H  H342  1  0.05180000  0.32910000  0.48960000  1.0 0.1210280454
H  H343  1  0.44820000  0.82910000  0.51040000  1.0 0.1210280454
H  H344  1  0.55180000  0.67090000  0.01040000  1.0 0.1210280454
H  H345  1  0.04050000  0.86930000  0.99460000  1.0 0.1210280454
H  H346  1  0.95950000  0.63070000  0.49460000  1.0 0.1210280454
H  H347  1  0.54050000  0.13070000  0.50540000  1.0 0.1210280454
H  H348  1  0.45950000  0.36930000  0.00540000  1.0 0.1210280454
H  H349  1  0.95950000  0.13070000  0.00540000  1.0 0.1210280454
H  H350  1  0.04050000  0.36930000  0.50540000  1.0 0.1210280454
H  H351  1  0.45950000  0.86930000  0.49460000  1.0 0.1210280454
H  H352  1  0.54050000  0.63070000  0.99460000  1.0 0.1210280454
H  H353  1  0.03450000  0.86420000  0.03220000  1.0 0.13885529
H  H354  1  0.96550000  0.63580000  0.53220000  1.0 0.13885529
H  H355  1  0.53450000  0.13580000  0.46780000  1.0 0.13885529
H  H356  1  0.46550000  0.36420000  0.96780000  1.0 0.13885529
H  H357  1  0.96550000  0.13580000  0.96780000  1.0 0.13885529
H  H358  1  0.03450000  0.36420000  0.46780000  1.0 0.13885529
H  H359  1  0.46550000  0.86420000  0.53220000  1.0 0.13885529
H  H360  1  0.53450000  0.63580000  0.03220000  1.0 0.13885529
H  H361  1  0.57670000  0.49190000  0.88290000  1.0 0.1119190025
H  H362  1  0.42330000  0.00810000  0.38290000  1.0 0.1119190025
H  H363  1  0.07670000  0.50810000  0.61710000  1.0 0.1119190025
H  H364  1  0.92330000  0.99190000  0.11710000  1.0 0.1119190025
H  H365  1  0.42330000  0.50810000  0.11710000  1.0 0.1119190025
H  H366  1  0.57670000  0.99190000  0.61710000  1.0 0.1119190025
H  H367  1  0.92330000  0.49190000  0.38290000  1.0 0.1119190025
H  H368  1  0.07670000  0.00810000  0.88290000  1.0 0.1119190025
H  H369  1  0.46840000  0.48630000  0.84430000  1.0 0.1480466736
H  H370  1  0.53160000  0.01370000  0.34430000  1.0 0.1480466736
H  H371  1  0.96840000  0.51370000  0.65570000  1.0 0.1480466736
H  H372  1  0.03160000  0.98630000  0.15570000  1.0 0.1480466736
H  H373  1  0.53160000  0.51370000  0.15570000  1.0 0.1480466736
H  H374  1  0.46840000  0.98630000  0.65570000  1.0 0.1480466736
H  H375  1  0.03160000  0.48630000  0.34430000  1.0 0.1480466736
H  H376  1  0.96840000  0.01370000  0.84430000  1.0 0.1480466736
H  H377  1  0.43880000  0.45350000  0.86500000  1.0 0.1297244168
H  H378  1  0.56120000  0.04650000  0.36500000  1.0 0.1297244168
H  H379  1  0.93880000  0.54650000  0.63500000  1.0 0.1297244168
H  H380  1  0.06120000  0.95350000  0.13500000  1.0 0.1297244168
H  H381  1  0.56120000  0.54650000  0.13500000  1.0 0.1297244168
H  H382  1  0.43880000  0.95350000  0.63500000  1.0 0.1297244168
H  H383  1  0.06120000  0.45350000  0.36500000  1.0 0.1297244168
H  H384  1  0.93880000  0.04650000  0.86500000  1.0 0.1297244168
H  H385  1  0.47170000  0.48790000  0.88220000  1.0 0.13885529
H  H386  1  0.52830000  0.01210000  0.38220000  1.0 0.13885529
H  H387  1  0.97170000  0.51210000  0.61780000  1.0 0.13885529
H  H388  1  0.02830000  0.98790000  0.11780000  1.0 0.13885529
H  H389  1  0.52830000  0.51210000  0.11780000  1.0 0.13885529
H  H390  1  0.47170000  0.98790000  0.61780000  1.0 0.13885529
H  H391  1  0.02830000  0.48790000  0.38220000  1.0 0.13885529
H  H392  1  0.97170000  0.01210000  0.88220000  1.0 0.13885529
H  H393  1  0.53650000  0.41030000  0.82890000  1.0 0.1480466736
H  H394  1  0.46350000  0.08970000  0.32890000  1.0 0.1480466736
H  H395  1  0.03650000  0.58970000  0.67110000  1.0 0.1480466736
H  H396  1  0.96350000  0.91030000  0.17110000  1.0 0.1480466736
H  H397  1  0.46350000  0.58970000  0.17110000  1.0 0.1480466736
H  H398  1  0.53650000  0.91030000  0.67110000  1.0 0.1480466736
H  H399  1  0.96350000  0.41030000  0.32890000  1.0 0.1480466736
H  H400  1  0.03650000  0.08970000  0.82890000  1.0 0.1480466736
H  H401  1  0.57320000  0.40010000  0.86050000  1.0 0.13885529
H  H402  1  0.42680000  0.09990000  0.36050000  1.0 0.13885529
H  H403  1  0.07320000  0.59990000  0.63950000  1.0 0.13885529
H  H404  1  0.92680000  0.90010000  0.13950000  1.0 0.13885529
H  H405  1  0.42680000  0.59990000  0.13950000  1.0 0.13885529
H  H406  1  0.57320000  0.90010000  0.63950000  1.0 0.13885529
H  H407  1  0.92680000  0.40010000  0.36050000  1.0 0.13885529
H  H408  1  0.07320000  0.09990000  0.86050000  1.0 0.13885529
H  H409  1  0.50090000  0.39670000  0.85990000  1.0 0.1480466736
H  H410  1  0.49910000  0.10330000  0.35990000  1.0 0.1480466736
H  H411  1  0.00090000  0.60330000  0.64010000  1.0 0.1480466736
H  H412  1  0.99910000  0.89670000  0.14010000  1.0 0.1480466736
H  H413  1  0.49910000  0.60330000  0.14010000  1.0 0.1480466736
H  H414  1  0.50090000  0.89670000  0.64010000  1.0 0.1480466736
H  H415  1  0.99910000  0.39670000  0.35990000  1.0 0.1480466736
H  H416  1  0.00090000  0.10330000  0.85990000  1.0 0.1480466736
H  H417  1  0.77450000  0.55790000  0.76690000  1.0 0.1297244168
H  H418  1  0.22550000  0.94210000  0.26690000  1.0 0.1297244168
H  H419  1  0.27450000  0.44210000  0.73310000  1.0 0.1297244168
H  H420  1  0.72550000  0.05790000  0.23310000  1.0 0.1297244168
H  H421  1  0.22550000  0.44210000  0.23310000  1.0 0.1297244168
H  H422  1  0.77450000  0.05790000  0.73310000  1.0 0.1297244168
H  H423  1  0.72550000  0.55790000  0.26690000  1.0 0.1297244168
H  H424  1  0.27450000  0.94210000  0.76690000  1.0 0.1297244168
H  H425  1  0.69270000  0.58510000  0.73780000  1.0 0.1297244168
H  H426  1  0.30730000  0.91490000  0.23780000  1.0 0.1297244168
H  H427  1  0.19270000  0.41490000  0.76220000  1.0 0.1297244168
H  H428  1  0.80730000  0.08510000  0.26220000  1.0 0.1297244168
H  H429  1  0.30730000  0.41490000  0.26220000  1.0 0.1297244168
H  H430  1  0.69270000  0.08510000  0.76220000  1.0 0.13885529
H  H431  1  0.80730000  0.58510000  0.23780000  1.0 0.1297244168
H  H432  1  0.19270000  0.91490000  0.73780000  1.0 0.1297244168
H  H433  1  0.69780000  0.62960000  0.73440000  1.0 0.1297244168
H  H434  1  0.30220000  0.87040000  0.23440000  1.0 0.1297244168
H  H435  1  0.19780000  0.37040000  0.76560000  1.0 0.1297244168
H  H436  1  0.80220000  0.12960000  0.26560000  1.0 0.1297244168
H  H437  1  0.30220000  0.37040000  0.26560000  1.0 0.1297244168
H  H438  1  0.69780000  0.12960000  0.76560000  1.0 0.1297244168
H  H439  1  0.80220000  0.62960000  0.23440000  1.0 0.1297244168
H  H440  1  0.19780000  0.87040000  0.73440000  1.0 0.1297244168
H  H441  1  0.72540000  0.60290000  0.70750000  1.0 0.1297244168
H  H442  1  0.27460000  0.89710000  0.20750000  1.0 0.1297244168
H  H443  1  0.22540000  0.39710000  0.79250000  1.0 0.1297244168
H  H444  1  0.77460000  0.10290000  0.29250000  1.0 0.1297244168
H  H445  1  0.27460000  0.39710000  0.29250000  1.0 0.1297244168
H  H446  1  0.72540000  0.10290000  0.79250000  1.0 0.1297244168
H  H447  1  0.77460000  0.60290000  0.20750000  1.0 0.1297244168
H  H448  1  0.22540000  0.89710000  0.70750000  1.0 0.1297244168
H  H449  1  0.78690000  0.66130000  0.74290000  1.0 0.1210280454
H  H450  1  0.21310000  0.83870000  0.24290000  1.0 0.1210280454
H  H451  1  0.28690000  0.33870000  0.75710000  1.0 0.1210280454
H  H452  1  0.71310000  0.16130000  0.25710000  1.0 0.1210280454
H  H453  1  0.21310000  0.33870000  0.25710000  1.0 0.1210280454
H  H454  1  0.78690000  0.16130000  0.75710000  1.0 0.1210280454
H  H455  1  0.71310000  0.66130000  0.24290000  1.0 0.1210280454
H  H456  1  0.28690000  0.83870000  0.74290000  1.0 0.1210280454
H  H457  1  0.83820000  0.64250000  0.76450000  1.0 0.13885529
H  H458  1  0.16180000  0.85750000  0.26450000  1.0 0.13885529
H  H459  1  0.33820000  0.35750000  0.73550000  1.0 0.13885529
H  H460  1  0.66180000  0.14250000  0.23550000  1.0 0.13885529
H  H461  1  0.16180000  0.35750000  0.23550000  1.0 0.13885529
H  H462  1  0.83820000  0.14250000  0.73550000  1.0 0.13885529
H  H463  1  0.66180000  0.64250000  0.26450000  1.0 0.13885529
H  H464  1  0.33820000  0.85750000  0.76450000  1.0 0.13885529
H  H465  1  0.84070000  0.63810000  0.72670000  1.0 0.13885529
H  H466  1  0.15930000  0.86190000  0.22670000  1.0 0.13885529
H  H467  1  0.34070000  0.36190000  0.77330000  1.0 0.13885529
H  H468  1  0.65930000  0.13810000  0.27330000  1.0 0.13885529
H  H469  1  0.15930000  0.36190000  0.27330000  1.0 0.13885529
H  H470  1  0.84070000  0.13810000  0.77330000  1.0 0.13885529
H  H471  1  0.65930000  0.63810000  0.22670000  1.0 0.13885529
H  H472  1  0.34070000  0.86190000  0.72670000  1.0 0.13885529
H  H473  1  0.91880000  0.63370000  0.86690000  1.0 0.1119190025
H  H474  1  0.08120000  0.86630000  0.36690000  1.0 0.1119190025
H  H475  1  0.41880000  0.36630000  0.63310000  1.0 0.1119190025
H  H476  1  0.58120000  0.13370000  0.13310000  1.0 0.1119190025
H  H477  1  0.08120000  0.36630000  0.13310000  1.0 0.1119190025
H  H478  1  0.91880000  0.13370000  0.63310000  1.0 0.1119190025
H  H479  1  0.58120000  0.63370000  0.36690000  1.0 0.1119190025
H  H480  1  0.41880000  0.86630000  0.86690000  1.0 0.1119190025
H  H481  1  0.88890000  0.71080000  0.89510000  1.0 0.1297244168
H  H482  1  0.11110000  0.78920000  0.39510000  1.0 0.1297244168
H  H483  1  0.38890000  0.28920000  0.60490000  1.0 0.1297244168
H  H484  1  0.61110000  0.21080000  0.10490000  1.0 0.1297244168
H  H485  1  0.11110000  0.28920000  0.10490000  1.0 0.1297244168
H  H486  1  0.88890000  0.21080000  0.60490000  1.0 0.1297244168
H  H487  1  0.61110000  0.71080000  0.39510000  1.0 0.1297244168
H  H488  1  0.38890000  0.78920000  0.89510000  1.0 0.1297244168
H  H489  1  0.83720000  0.69650000  0.91880000  1.0 0.1297244168
H  H490  1  0.16280000  0.80350000  0.41880000  1.0 0.1297244168
H  H491  1  0.33720000  0.30350000  0.58120000  1.0 0.1297244168
H  H492  1  0.66280000  0.19650000  0.08120000  1.0 0.1297244168
H  H493  1  0.16280000  0.30350000  0.08120000  1.0 0.1297244168
H  H494  1  0.83720000  0.19650000  0.58120000  1.0 0.1297244168
H  H495  1  0.66280000  0.69650000  0.41880000  1.0 0.1297244168
H  H496  1  0.33720000  0.80350000  0.91880000  1.0 0.1297244168
H  H497  1  0.90140000  0.67570000  0.91780000  1.0 0.13885529
H  H498  1  0.09860000  0.82430000  0.41780000  1.0 0.13885529
H  H499  1  0.40140000  0.32430000  0.58220000  1.0 0.13885529
H  H500  1  0.59860000  0.17570000  0.08220000  1.0 0.13885529
H  H501  1  0.09860000  0.32430000  0.08220000  1.0 0.13885529
H  H502  1  0.90140000  0.17570000  0.58220000  1.0 0.13885529
H  H503  1  0.59860000  0.67570000  0.41780000  1.0 0.13885529
H  H504  1  0.40140000  0.82430000  0.91780000  1.0 0.13885529
H  H505  1  0.77100000  0.63420000  0.87910000  1.0 0.1589423379
H  H506  1  0.22900000  0.86580000  0.37910000  1.0 0.1589423379
H  H507  1  0.27100000  0.36580000  0.62090000  1.0 0.1589423379
H  H508  1  0.72900000  0.13420000  0.12090000  1.0 0.1589423379
H  H509  1  0.22900000  0.36580000  0.12090000  1.0 0.1589423379
H  H510  1  0.77100000  0.13420000  0.62090000  1.0 0.1589423379
H  H511  1  0.72900000  0.63420000  0.37910000  1.0 0.1589423379
H  H512  1  0.27100000  0.86580000  0.87910000  1.0 0.1589423379
H  H513  1  0.76030000  0.67690000  0.88930000  1.0 0.1297244168
H  H514  1  0.23970000  0.82310000  0.38930000  1.0 0.1297244168
H  H515  1  0.26030000  0.32310000  0.61070000  1.0 0.1297244168
H  H516  1  0.73970000  0.17690000  0.11070000  1.0 0.1297244168
H  H517  1  0.23970000  0.32310000  0.11070000  1.0 0.1297244168
H  H518  1  0.76030000  0.17690000  0.61070000  1.0 0.1297244168
H  H519  1  0.73970000  0.67690000  0.38930000  1.0 0.1297244168
H  H520  1  0.26030000  0.82310000  0.88930000  1.0 0.1297244168
H  H521  1  0.77460000  0.66680000  0.85310000  1.0 0.13885529
H  H522  1  0.22540000  0.83320000  0.35310000  1.0 0.13885529
H  H523  1  0.27460000  0.33320000  0.64690000  1.0 0.13885529
H  H524  1  0.72540000  0.16680000  0.14690000  1.0 0.13885529
H  H525  1  0.22540000  0.33320000  0.14690000  1.0 0.13885529
H  H526  1  0.77460000  0.16680000  0.64690000  1.0 0.13885529
H  H527  1  0.72540000  0.66680000  0.35310000  1.0 0.13885529
H  H528  1  0.27460000  0.83320000  0.85310000  1.0 0.13885529
H  H529  1  0.66230000  0.49740000  0.17430000  1.0 0.1297244168
H  H530  1  0.33770000  0.00260000  0.67430000  1.0 0.1297244168
H  H531  1  0.16230000  0.50260000  0.32570000  1.0 0.1297244168
H  H532  1  0.83770000  0.99740000  0.82570000  1.0 0.1297244168
H  H533  1  0.33770000  0.50260000  0.82570000  1.0 0.1297244168
H  H534  1  0.66230000  0.99740000  0.32570000  1.0 0.1297244168
H  H535  1  0.83770000  0.49740000  0.67430000  1.0 0.1297244168
H  H536  1  0.16230000  0.00260000  0.17430000  1.0 0.1297244168
H  H537  1  0.71640000  0.56480000  0.10720000  1.0 0.13885529
H  H538  1  0.28360000  0.93520000  0.60720000  1.0 0.13885529
H  H539  1  0.21640000  0.43520000  0.39280000  1.0 0.13885529
H  H540  1  0.78360000  0.06480000  0.89280000  1.0 0.13885529
H  H541  1  0.28360000  0.43520000  0.89280000  1.0 0.13885529
H  H542  1  0.71640000  0.06480000  0.39280000  1.0 0.13885529
H  H543  1  0.78360000  0.56480000  0.60720000  1.0 0.13885529
H  H544  1  0.21640000  0.93520000  0.10720000  1.0 0.13885529
H  H545  1  0.70960000  0.52120000  0.09900000  1.0 0.13885529
H  H546  1  0.29040000  0.97880000  0.59900000  1.0 0.13885529
H  H547  1  0.20960000  0.47880000  0.40100000  1.0 0.13885529
H  H548  1  0.79040000  0.02120000  0.90100000  1.0 0.13885529
H  H549  1  0.29040000  0.47880000  0.90100000  1.0 0.13885529
H  H550  1  0.70960000  0.02120000  0.40100000  1.0 0.13885529
H  H551  1  0.79040000  0.52120000  0.59900000  1.0 0.13885529
H  H552  1  0.20960000  0.97880000  0.09900000  1.0 0.13885529
H  H553  1  0.65080000  0.54750000  0.10020000  1.0 0.1297244168
H  H554  1  0.34920000  0.95250000  0.60020000  1.0 0.1297244168
H  H555  1  0.15080000  0.45250000  0.39980000  1.0 0.1297244168
H  H556  1  0.84920000  0.04750000  0.89980000  1.0 0.1297244168
H  H557  1  0.34920000  0.45250000  0.89980000  1.0 0.1297244168
H  H558  1  0.65080000  0.04750000  0.39980000  1.0 0.1297244168
H  H559  1  0.84920000  0.54750000  0.60020000  1.0 0.1297244168
H  H560  1  0.15080000  0.95250000  0.10020000  1.0 0.1297244168
H  H561  1  0.66020000  0.56180000  0.18410000  1.0 0.1210280454
H  H562  1  0.33980000  0.93820000  0.68410000  1.0 0.1210280454
H  H563  1  0.16020000  0.43820000  0.31590000  1.0 0.1210280454
H  H564  1  0.83980000  0.06180000  0.81590000  1.0 0.1210280454
H  H565  1  0.33980000  0.43820000  0.81590000  1.0 0.1210280454
H  H566  1  0.66020000  0.06180000  0.31590000  1.0 0.1210280454
H  H567  1  0.83980000  0.56180000  0.68410000  1.0 0.1210280454
H  H568  1  0.16020000  0.93820000  0.18410000  1.0 0.1210280454
H  H569  1  0.73010000  0.56650000  0.17490000  1.0 0.1297244168
H  H570  1  0.26990000  0.93350000  0.67490000  1.0 0.1297244168
H  H571  1  0.23010000  0.43350000  0.32510000  1.0 0.1297244168
H  H572  1  0.76990000  0.06650000  0.82510000  1.0 0.1297244168
H  H573  1  0.26990000  0.43350000  0.82510000  1.0 0.1297244168
H  H574  1  0.73010000  0.06650000  0.32510000  1.0 0.1297244168
H  H575  1  0.76990000  0.56650000  0.67490000  1.0 0.1297244168
H  H576  1  0.23010000  0.93350000  0.17490000  1.0 0.1297244168
H  H577  1  0.67950000  0.58930000  0.15580000  1.0 0.13885529
H  H578  1  0.32050000  0.91070000  0.65580000  1.0 0.1480466736
H  H579  1  0.17950000  0.41070000  0.34420000  1.0 0.13885529
H  H580  1  0.82050000  0.08930000  0.84420000  1.0 0.13885529
H  H581  1  0.32050000  0.41070000  0.84420000  1.0 0.13885529
H  H582  1  0.67950000  0.08930000  0.34420000  1.0 0.13885529
H  H583  1  0.82050000  0.58930000  0.65580000  1.0 0.13885529
H  H584  1  0.17950000  0.91070000  0.15580000  1.0 0.1480466736
H  H585  1  0.77630000  0.36220000  0.88920000  1.0 0.1297244168
H  H586  1  0.22370000  0.13780000  0.38920000  1.0 0.1297244168
H  H587  1  0.27630000  0.63780000  0.61080000  1.0 0.1297244168
H  H588  1  0.72370000  0.86220000  0.11080000  1.0 0.1297244168
H  H589  1  0.22370000  0.63780000  0.11080000  1.0 0.1297244168
H  H590  1  0.77630000  0.86220000  0.61080000  1.0 0.1297244168
H  H591  1  0.72370000  0.36220000  0.38920000  1.0 0.1297244168
H  H592  1  0.27630000  0.13780000  0.88920000  1.0 0.1297244168
H  H593  1  0.68560000  0.29950000  0.88850000  1.0 0.1480466736
H  H594  1  0.31440000  0.20050000  0.38850000  1.0 0.1480466736
H  H595  1  0.18560000  0.70050000  0.61150000  1.0 0.1480466736
H  H596  1  0.81440000  0.79950000  0.11150000  1.0 0.1480466736
H  H597  1  0.31440000  0.70050000  0.11150000  1.0 0.1480466736
H  H598  1  0.68560000  0.79950000  0.61150000  1.0 0.1480466736
H  H599  1  0.81440000  0.29950000  0.38850000  1.0 0.1480466736
H  H600  1  0.18560000  0.20050000  0.88850000  1.0 0.1480466736
H  H601  1  0.73330000  0.30390000  0.91690000  1.0 0.1210280454
H  H602  1  0.26670000  0.19610000  0.41690000  1.0 0.1210280454
H  H603  1  0.23330000  0.69610000  0.58310000  1.0 0.1210280454
H  H604  1  0.76670000  0.80390000  0.08310000  1.0 0.1210280454
H  H605  1  0.26670000  0.69610000  0.08310000  1.0 0.1210280454
H  H606  1  0.73330000  0.80390000  0.58310000  1.0 0.1210280454
H  H607  1  0.76670000  0.30390000  0.41690000  1.0 0.1210280454
H  H608  1  0.23330000  0.19610000  0.91690000  1.0 0.1210280454
H  H609  1  0.66210000  0.30390000  0.92420000  1.0 0.1297244168
H  H610  1  0.33790000  0.19610000  0.42420000  1.0 0.1297244168
H  H611  1  0.16210000  0.69610000  0.57580000  1.0 0.1297244168
H  H612  1  0.83790000  0.80390000  0.07580000  1.0 0.1297244168
H  H613  1  0.33790000  0.69610000  0.07580000  1.0 0.1297244168
H  H614  1  0.66210000  0.80390000  0.57580000  1.0 0.1297244168
H  H615  1  0.83790000  0.30390000  0.42420000  1.0 0.1297244168
H  H616  1  0.16210000  0.19610000  0.92420000  1.0 0.1297244168
H  H617  1  0.63140000  0.37650000  0.93710000  1.0 0.13885529
H  H618  1  0.36860000  0.12350000  0.43710000  1.0 0.13885529
H  H619  1  0.13140000  0.62350000  0.56290000  1.0 0.13885529
H  H620  1  0.86860000  0.87650000  0.06290000  1.0 0.13885529
H  H621  1  0.36860000  0.62350000  0.06290000  1.0 0.13885529
H  H622  1  0.63140000  0.87650000  0.56290000  1.0 0.13885529
H  H623  1  0.86860000  0.37650000  0.43710000  1.0 0.13885529
H  H624  1  0.13140000  0.12350000  0.93710000  1.0 0.13885529
H  H625  1  0.62420000  0.39370000  0.90220000  1.0 0.1297244168
H  H626  1  0.37580000  0.10630000  0.40220000  1.0 0.1297244168
H  H627  1  0.12420000  0.60630000  0.59780000  1.0 0.1297244168
H  H628  1  0.87580000  0.89370000  0.09780000  1.0 0.1297244168
H  H629  1  0.37580000  0.60630000  0.09780000  1.0 0.1297244168
H  H630  1  0.62420000  0.89370000  0.59780000  1.0 0.1297244168
H  H631  1  0.87580000  0.39370000  0.40220000  1.0 0.1297244168
H  H632  1  0.12420000  0.10630000  0.90220000  1.0 0.1297244168
H  H633  1  0.59870000  0.35270000  0.90980000  1.0 0.13885529
H  H634  1  0.40130000  0.14730000  0.40980000  1.0 0.13885529
H  H635  1  0.09870000  0.64730000  0.59020000  1.0 0.13885529
H  H636  1  0.90130000  0.85270000  0.09020000  1.0 0.13885529
H  H637  1  0.40130000  0.64730000  0.09020000  1.0 0.13885529
H  H638  1  0.59870000  0.85270000  0.59020000  1.0 0.13885529
H  H639  1  0.90130000  0.35270000  0.40980000  1.0 0.13885529
H  H640  1  0.09870000  0.14730000  0.90980000  1.0 0.13885529
H  H641  1  0.21560000  0.66220000  0.83900000  1.0 0.1210280454
H  H642  1  0.78440000  0.83780000  0.33900000  1.0 0.1210280454
H  H643  1  0.71560000  0.33780000  0.66100000  1.0 0.1210280454
H  H644  1  0.28440000  0.16220000  0.16100000  1.0 0.1210280454
H  H645  1  0.78440000  0.33780000  0.16100000  1.0 0.1210280454
H  H646  1  0.21560000  0.16220000  0.66100000  1.0 0.1210280454
H  H647  1  0.28440000  0.66220000  0.33900000  1.0 0.1210280454
H  H648  1  0.71560000  0.83780000  0.83900000  1.0 0.1210280454
H  H649  1  0.20930000  0.69210000  0.79540000  1.0 0.1480466736
H  H650  1  0.79070000  0.80790000  0.29540000  1.0 0.1480466736
H  H651  1  0.70930000  0.30790000  0.70460000  1.0 0.1480466736
H  H652  1  0.29070000  0.19210000  0.20460000  1.0 0.1480466736
H  H653  1  0.79070000  0.30790000  0.20460000  1.0 0.1480466736
H  H654  1  0.20930000  0.19210000  0.70460000  1.0 0.1480466736
H  H655  1  0.29070000  0.69210000  0.29540000  1.0 0.1480466736
H  H656  1  0.70930000  0.80790000  0.79540000  1.0 0.1480466736
H  H657  1  0.19170000  0.73550000  0.79690000  1.0 0.1480466736
H  H658  1  0.80830000  0.76450000  0.29690000  1.0 0.1480466736
H  H659  1  0.69170000  0.26450000  0.70310000  1.0 0.1480466736
H  H660  1  0.30830000  0.23550000  0.20310000  1.0 0.1480466736
H  H661  1  0.80830000  0.26450000  0.20310000  1.0 0.1480466736
H  H662  1  0.19170000  0.23550000  0.70310000  1.0 0.1480466736
H  H663  1  0.30830000  0.73550000  0.29690000  1.0 0.1480466736
H  H664  1  0.69170000  0.76450000  0.79690000  1.0 0.1480466736
H  H665  1  0.26140000  0.72330000  0.79540000  1.0 0.1480466736
H  H666  1  0.73860000  0.77670000  0.29540000  1.0 0.1480466736
H  H667  1  0.76140000  0.27670000  0.70460000  1.0 0.1480466736
H  H668  1  0.23860000  0.22330000  0.20460000  1.0 0.1480466736
H  H669  1  0.73860000  0.27670000  0.20460000  1.0 0.1480466736
H  H670  1  0.26140000  0.22330000  0.70460000  1.0 0.1480466736
H  H671  1  0.23860000  0.72330000  0.29540000  1.0 0.1480466736
H  H672  1  0.76140000  0.77670000  0.79540000  1.0 0.1480466736
H  H673  1  0.26070000  0.76240000  0.85750000  1.0 0.1297244168
H  H674  1  0.73930000  0.73760000  0.35750000  1.0 0.1297244168
H  H675  1  0.76070000  0.23760000  0.64250000  1.0 0.1297244168
H  H676  1  0.23930000  0.26240000  0.14250000  1.0 0.1297244168
H  H677  1  0.73930000  0.23760000  0.14250000  1.0 0.1297244168
H  H678  1  0.26070000  0.26240000  0.64250000  1.0 0.1297244168
H  H679  1  0.23930000  0.76240000  0.35750000  1.0 0.1297244168
H  H680  1  0.76070000  0.73760000  0.85750000  1.0 0.1297244168
H  H681  1  0.18950000  0.76620000  0.85120000  1.0 0.1297244168
H  H682  1  0.81050000  0.73380000  0.35120000  1.0 0.1297244168
H  H683  1  0.68950000  0.23380000  0.64880000  1.0 0.1297244168
H  H684  1  0.31050000  0.26620000  0.14880000  1.0 0.1297244168
H  H685  1  0.81050000  0.23380000  0.14880000  1.0 0.1297244168
H  H686  1  0.18950000  0.26620000  0.64880000  1.0 0.1297244168
H  H687  1  0.31050000  0.76620000  0.35120000  1.0 0.1297244168
H  H688  1  0.68950000  0.73380000  0.85120000  1.0 0.1297244168
H  H689  1  0.21350000  0.74230000  0.88080000  1.0 0.13885529
H  H690  1  0.78650000  0.75770000  0.38080000  1.0 0.13885529
H  H691  1  0.71350000  0.25770000  0.61920000  1.0 0.13885529
H  H692  1  0.28650000  0.24230000  0.11920000  1.0 0.13885529
H  H693  1  0.78650000  0.25770000  0.11920000  1.0 0.13885529
H  H694  1  0.21350000  0.24230000  0.61920000  1.0 0.13885529
H  H695  1  0.28650000  0.74230000  0.38080000  1.0 0.13885529
H  H696  1  0.71350000  0.75770000  0.88080000  1.0 0.13885529
H  H697  1  0.06480000  0.64880000  0.88930000  1.0 0.1297244168
H  H698  1  0.93520000  0.85120000  0.38930000  1.0 0.1297244168
H  H699  1  0.56480000  0.35120000  0.61070000  1.0 0.1297244168
H  H700  1  0.43520000  0.14880000  0.11070000  1.0 0.1297244168
H  H701  1  0.93520000  0.35120000  0.11070000  1.0 0.1297244168
H  H702  1  0.06480000  0.14880000  0.61070000  1.0 0.1297244168
H  H703  1  0.43520000  0.64880000  0.38930000  1.0 0.1297244168
H  H704  1  0.56480000  0.85120000  0.88930000  1.0 0.1297244168
H  H705  1  0.21080000  0.64060000  0.02190000  1.0 0.1297244168
H  H706  1  0.78920000  0.85940000  0.52190000  1.0 0.1297244168
H  H707  1  0.71080000  0.35940000  0.47810000  1.0 0.1297244168
H  H708  1  0.28920000  0.14060000  0.97810000  1.0 0.1297244168
H  H709  1  0.78920000  0.35940000  0.97810000  1.0 0.1297244168
H  H710  1  0.21080000  0.14060000  0.47810000  1.0 0.1297244168
H  H711  1  0.28920000  0.64060000  0.52190000  1.0 0.1297244168
H  H712  1  0.71080000  0.85940000  0.02190000  1.0 0.1297244168
C  C1  1  0.74320000  0.72580000  0.06170000  1.0 -0.0299301258
C  C2  1  0.25680000  0.77420000  0.56170000  1.0 -0.0299301258
C  C3  1  0.24320000  0.27420000  0.43830000  1.0 -0.0299301258
C  C4  1  0.75680000  0.22580000  0.93830000  1.0 -0.0299301258
C  C5  1  0.25680000  0.27420000  0.93830000  1.0 -0.0299301258
C  C6  1  0.74320000  0.22580000  0.43830000  1.0 -0.0299301258
C  C7  1  0.75680000  0.72580000  0.56170000  1.0 -0.0299301258
C  C8  1  0.24320000  0.77420000  0.06170000  1.0 -0.0299301258
C  C9  1  0.81190000  0.72700000  0.05700000  1.0 0.537360362
C  C10  1  0.18810000  0.77300000  0.55700000  1.0 0.537360362
C  C11  1  0.31190000  0.27300000  0.44300000  1.0 0.537360362
C  C12  1  0.68810000  0.22700000  0.94300000  1.0 0.537360362
C  C13  1  0.18810000  0.27300000  0.94300000  1.0 0.537360362
C  C14  1  0.81190000  0.22700000  0.44300000  1.0 0.537360362
C  C15  1  0.68810000  0.72700000  0.55700000  1.0 0.537360362
C  C16  1  0.31190000  0.77300000  0.05700000  1.0 0.537360362
C  C17  1  0.70510000  0.75050000  0.04510000  1.0 -0.1219530113
C  C18  1  0.29490000  0.74950000  0.54510000  1.0 -0.1219530113
C  C19  1  0.20510000  0.24950000  0.45490000  1.0 -0.1219530113
C  C20  1  0.79490000  0.25050000  0.95490000  1.0 -0.1219530113
C  C21  1  0.29490000  0.24950000  0.95490000  1.0 -0.1219530113
C  C22  1  0.70510000  0.25050000  0.45490000  1.0 -0.1219530113
C  C23  1  0.79490000  0.75050000  0.54510000  1.0 -0.1219530113
C  C24  1  0.20510000  0.74950000  0.04510000  1.0 -0.1219530113
C  C25  1  0.64070000  0.74880000  0.04830000  1.0 -0.0428472681
C  C26  1  0.35930000  0.75120000  0.54830000  1.0 -0.0428472681
C  C27  1  0.14070000  0.25120000  0.45170000  1.0 -0.0428472681
C  C28  1  0.85930000  0.24880000  0.95170000  1.0 -0.0428472681
C  C29  1  0.35930000  0.25120000  0.95170000  1.0 -0.0428472681
C  C30  1  0.64070000  0.24880000  0.45170000  1.0 -0.0428472681
C  C31  1  0.85930000  0.74880000  0.54830000  1.0 -0.0428472681
C  C32  1  0.14070000  0.75120000  0.04830000  1.0 -0.0428472681
C  C33  1  0.60020000  0.77660000  0.03040000  1.0 0.6482672013
C  C34  1  0.39980000  0.72340000  0.53040000  1.0 0.6482672013
C  C35  1  0.10020000  0.22340000  0.46960000  1.0 0.6482672013
C  C36  1  0.89980000  0.27660000  0.96960000  1.0 0.6482672013
C  C37  1  0.39980000  0.22340000  0.96960000  1.0 0.6482672013
C  C38  1  0.60020000  0.27660000  0.46960000  1.0 0.6482672013
C  C39  1  0.89980000  0.77660000  0.53040000  1.0 0.6482672013
C  C40  1  0.10020000  0.72340000  0.03040000  1.0 0.6482672013
C  C41  1  0.61390000  0.72100000  0.06640000  1.0 -0.1012051348
C  C42  1  0.38610000  0.77900000  0.56640000  1.0 -0.1012051348
C  C43  1  0.11390000  0.27900000  0.43360000  1.0 -0.1012051348
C  C44  1  0.88610000  0.22100000  0.93360000  1.0 -0.1012051348
C  C45  1  0.38610000  0.27900000  0.93360000  1.0 -0.1012051348
C  C46  1  0.61390000  0.22100000  0.43360000  1.0 -0.1012051348
C  C47  1  0.88610000  0.72100000  0.56640000  1.0 -0.1012051348
C  C48  1  0.11390000  0.77900000  0.06640000  1.0 -0.1012051348
C  C49  1  0.65270000  0.69540000  0.08360000  1.0 0.0177334316
C  C50  1  0.34730000  0.80460000  0.58360000  1.0 0.0177334316
C  C51  1  0.15270000  0.30460000  0.41640000  1.0 0.0177334316
C  C52  1  0.84730000  0.19540000  0.91640000  1.0 0.0177334316
C  C53  1  0.34730000  0.30460000  0.91640000  1.0 0.0177334316
C  C54  1  0.65270000  0.19540000  0.41640000  1.0 0.0177334316
C  C55  1  0.84730000  0.69540000  0.58360000  1.0 0.0177334316
C  C56  1  0.15270000  0.80460000  0.08360000  1.0 0.0177334316
C  C57  1  0.62610000  0.66840000  0.10290000  1.0 0.2128033705
C  C58  1  0.37390000  0.83160000  0.60290000  1.0 0.2128033705
C  C59  1  0.12610000  0.33160000  0.39710000  1.0 0.2128033705
C  C60  1  0.87390000  0.16840000  0.89710000  1.0 0.2128033705
C  C61  1  0.37390000  0.33160000  0.89710000  1.0 0.2128033705
C  C62  1  0.62610000  0.16840000  0.39710000  1.0 0.2128033705
C  C63  1  0.87390000  0.66840000  0.60290000  1.0 0.2128033705
C  C64  1  0.12610000  0.83160000  0.10290000  1.0 0.2128033705
C  C65  1  0.66920000  0.61400000  0.81840000  1.0 -0.1503784323
C  C66  1  0.33080000  0.88600000  0.31840000  1.0 -0.1503784323
C  C67  1  0.16920000  0.38600000  0.68160000  1.0 -0.1503784323
C  C68  1  0.83080000  0.11400000  0.18160000  1.0 -0.1503784323
C  C69  1  0.33080000  0.38600000  0.18160000  1.0 -0.1503784323
C  C70  1  0.66920000  0.11400000  0.68160000  1.0 -0.1503784323
C  C71  1  0.83080000  0.61400000  0.31840000  1.0 -0.1503784323
C  C72  1  0.16920000  0.88600000  0.81840000  1.0 -0.1503784323
C  C73  1  0.71570000  0.69880000  0.08090000  1.0 -0.1120535998
C  C74  1  0.28430000  0.80120000  0.58090000  1.0 -0.1120535998
C  C75  1  0.21570000  0.30120000  0.41910000  1.0 -0.1120535998
C  C76  1  0.78430000  0.19880000  0.91910000  1.0 -0.1120535998
C  C77  1  0.28430000  0.30120000  0.91910000  1.0 -0.1120535998
C  C78  1  0.71570000  0.19880000  0.41910000  1.0 -0.1120535998
C  C79  1  0.78430000  0.69880000  0.58090000  1.0 -0.1120535998
C  C80  1  0.21570000  0.80120000  0.08090000  1.0 -0.1120535998
C  C81  1  0.85040000  0.62290000  0.98610000  1.0 -0.0299301258
C  C82  1  0.14960000  0.87710000  0.48610000  1.0 -0.0299301258
C  C83  1  0.35040000  0.37710000  0.51390000  1.0 -0.0299301258
C  C84  1  0.64960000  0.12290000  0.01390000  1.0 -0.0299301258
C  C85  1  0.14960000  0.37710000  0.01390000  1.0 -0.0299301258
C  C86  1  0.85040000  0.12290000  0.51390000  1.0 -0.0299301258
C  C87  1  0.64960000  0.62290000  0.48610000  1.0 -0.0299301258
C  C88  1  0.35040000  0.87710000  0.98610000  1.0 -0.0299301258
C  C89  1  0.90000000  0.65120000  0.99720000  1.0 0.6304012976
C  C90  1  0.10000000  0.84880000  0.49720000  1.0 0.6304012976
C  C91  1  0.40000000  0.34880000  0.50280000  1.0 0.6304012976
C  C92  1  0.60000000  0.15120000  0.00280000  1.0 0.6304012976
C  C93  1  0.10000000  0.34880000  0.00280000  1.0 0.6304012976
C  C94  1  0.90000000  0.15120000  0.50280000  1.0 0.6304012976
C  C95  1  0.60000000  0.65120000  0.49720000  1.0 0.6304012976
C  C96  1  0.40000000  0.84880000  0.99720000  1.0 0.6304012976
C  C97  1  0.85710000  0.60210000  0.95870000  1.0 -0.1120535998
C  C98  1  0.14290000  0.89790000  0.45870000  1.0 -0.1120535998
C  C99  1  0.35710000  0.39790000  0.54130000  1.0 -0.1120535998
C  C100  1  0.64290000  0.10210000  0.04130000  1.0 -0.1120535998
C  C101  1  0.14290000  0.39790000  0.04130000  1.0 -0.1120535998
C  C102  1  0.85710000  0.10210000  0.54130000  1.0 -0.1120535998
C  C103  1  0.64290000  0.60210000  0.45870000  1.0 -0.1120535998
C  C104  1  0.35710000  0.89790000  0.95870000  1.0 -0.1120535998
C  C105  1  0.80870000  0.57760000  0.94890000  1.0 -0.0428472681
C  C106  1  0.19130000  0.92240000  0.44890000  1.0 -0.0428472681
C  C107  1  0.30870000  0.42240000  0.55110000  1.0 -0.0428472681
C  C108  1  0.69130000  0.07760000  0.05110000  1.0 -0.0428472681
C  C109  1  0.19130000  0.42240000  0.05110000  1.0 -0.0428472681
C  C110  1  0.80870000  0.07760000  0.55110000  1.0 -0.0428472681
C  C111  1  0.69130000  0.57760000  0.44890000  1.0 -0.0428472681
C  C112  1  0.30870000  0.92240000  0.94890000  1.0 -0.0428472681
C  C113  1  0.80960000  0.55810000  0.91730000  1.0 0.6304012976
C  C114  1  0.19040000  0.94190000  0.41730000  1.0 0.6304012976
C  C115  1  0.30960000  0.44190000  0.58270000  1.0 0.6304012976
C  C116  1  0.69040000  0.05810000  0.08270000  1.0 0.6304012976
C  C117  1  0.19040000  0.44190000  0.08270000  1.0 0.6304012976
C  C118  1  0.80960000  0.05810000  0.58270000  1.0 0.6304012976
C  C119  1  0.69040000  0.55810000  0.41730000  1.0 0.6304012976
C  C120  1  0.30960000  0.94190000  0.91730000  1.0 0.6304012976
C  C121  1  0.75870000  0.57350000  0.96950000  1.0 -0.1264296362
C  C122  1  0.24130000  0.92650000  0.46950000  1.0 -0.1264296362
C  C123  1  0.25870000  0.42650000  0.53050000  1.0 -0.1264296362
C  C124  1  0.74130000  0.07350000  0.03050000  1.0 -0.1264296362
C  C125  1  0.24130000  0.42650000  0.03050000  1.0 -0.1264296362
C  C126  1  0.75870000  0.07350000  0.53050000  1.0 -0.1264296362
C  C127  1  0.74130000  0.57350000  0.46950000  1.0 -0.1264296362
C  C128  1  0.25870000  0.92650000  0.96950000  1.0 -0.1264296362
C  C129  1  0.75540000  0.59200000  0.99920000  1.0 0.049080801
C  C130  1  0.24460000  0.90800000  0.49920000  1.0 0.049080801
C  C131  1  0.25540000  0.40800000  0.50080000  1.0 0.049080801
C  C132  1  0.74460000  0.09200000  0.00080000  1.0 0.049080801
C  C133  1  0.24460000  0.40800000  0.00080000  1.0 0.049080801
C  C134  1  0.75540000  0.09200000  0.50080000  1.0 0.049080801
C  C135  1  0.74460000  0.59200000  0.49920000  1.0 0.049080801
C  C136  1  0.25540000  0.90800000  0.99920000  1.0 0.049080801
C  C137  1  0.69980000  0.59070000  0.01860000  1.0 0.2405125193
C  C138  1  0.30020000  0.90930000  0.51860000  1.0 0.2405125193
C  C139  1  0.19980000  0.40930000  0.48140000  1.0 0.2405125193
C  C140  1  0.80020000  0.09070000  0.98140000  1.0 0.2405125193
C  C141  1  0.30020000  0.40930000  0.98140000  1.0 0.2405125193
C  C142  1  0.69980000  0.09070000  0.48140000  1.0 0.2405125193
C  C143  1  0.80020000  0.59070000  0.51860000  1.0 0.2405125193
C  C144  1  0.19980000  0.90930000  0.01860000  1.0 0.2405125193
C  C145  1  0.80150000  0.61810000  0.00820000  1.0 -0.1503784323
C  C146  1  0.19850000  0.88190000  0.50820000  1.0 -0.1503784323
C  C147  1  0.30150000  0.38190000  0.49180000  1.0 -0.1503784323
C  C148  1  0.69850000  0.11810000  0.99180000  1.0 -0.1503784323
C  C149  1  0.19850000  0.38190000  0.99180000  1.0 -0.1503784323
C  C150  1  0.80150000  0.11810000  0.49180000  1.0 -0.1503784323
C  C151  1  0.69850000  0.61810000  0.50820000  1.0 -0.1503784323
C  C152  1  0.30150000  0.88190000  0.00820000  1.0 -0.1503784323
C  C153  1  0.93360000  0.44510000  0.88940000  1.0 -0.0299301258
C  C154  1  0.06640000  0.05490000  0.38940000  1.0 -0.0299301258
C  C155  1  0.43360000  0.55490000  0.61060000  1.0 -0.0299301258
C  C156  1  0.56640000  0.94510000  0.11060000  1.0 -0.0299301258
C  C157  1  0.06640000  0.55490000  0.11060000  1.0 -0.0299301258
C  C158  1  0.93360000  0.94510000  0.61060000  1.0 -0.0299301258
C  C159  1  0.56640000  0.44510000  0.38940000  1.0 -0.0299301258
C  C160  1  0.43360000  0.05490000  0.88940000  1.0 -0.0299301258
C  C161  1  0.87620000  0.46970000  0.88680000  1.0 0.6304012976
C  C162  1  0.12380000  0.03030000  0.38680000  1.0 0.6304012976
C  C163  1  0.37620000  0.53030000  0.61320000  1.0 0.6304012976
C  C164  1  0.62380000  0.96970000  0.11320000  1.0 0.6304012976
C  C165  1  0.12380000  0.53030000  0.11320000  1.0 0.6304012976
C  C166  1  0.87620000  0.96970000  0.61320000  1.0 0.6304012976
C  C167  1  0.62380000  0.46970000  0.38680000  1.0 0.6304012976
C  C168  1  0.37620000  0.03030000  0.88680000  1.0 0.6304012976
C  C169  1  0.93680000  0.41580000  0.91240000  1.0 -0.1012051348
C  C170  1  0.06320000  0.08420000  0.41240000  1.0 -0.1012051348
C  C171  1  0.43680000  0.58420000  0.58760000  1.0 -0.1012051348
C  C172  1  0.56320000  0.91580000  0.08760000  1.0 -0.1012051348
C  C173  1  0.06320000  0.58420000  0.08760000  1.0 -0.1012051348
C  C174  1  0.93680000  0.91580000  0.58760000  1.0 -0.1012051348
C  C175  1  0.56320000  0.41580000  0.41240000  1.0 -0.1012051348
C  C176  1  0.43680000  0.08420000  0.91240000  1.0 -0.1012051348
C  C177  1  0.98940000  0.39200000  0.91620000  1.0 -0.059234538
C  C178  1  0.01060000  0.10800000  0.41620000  1.0 -0.059234538
C  C179  1  0.48940000  0.60800000  0.58380000  1.0 -0.059234538
C  C180  1  0.51060000  0.89200000  0.08380000  1.0 -0.059234538
C  C181  1  0.01060000  0.60800000  0.08380000  1.0 -0.059234538
C  C182  1  0.98940000  0.89200000  0.58380000  1.0 -0.059234538
C  C183  1  0.51060000  0.39200000  0.41620000  1.0 -0.059234538
C  C184  1  0.48940000  0.10800000  0.91620000  1.0 -0.059234538
C  C185  1  0.99040000  0.36070000  0.93980000  1.0 0.6482672013
C  C186  1  0.00960000  0.13930000  0.43980000  1.0 0.6482672013
C  C187  1  0.49040000  0.63930000  0.56020000  1.0 0.6482672013
C  C188  1  0.50960000  0.86070000  0.06020000  1.0 0.6482672013
C  C189  1  0.00960000  0.63930000  0.06020000  1.0 0.6482672013
C  C190  1  0.99040000  0.86070000  0.56020000  1.0 0.6482672013
C  C191  1  0.50960000  0.36070000  0.43980000  1.0 0.6482672013
C  C192  1  0.49040000  0.13930000  0.93980000  1.0 0.6482672013
C  C193  1  0.03940000  0.39800000  0.89870000  1.0 -0.1012051348
C  C194  1  0.96060000  0.10200000  0.39870000  1.0 -0.1012051348
C  C195  1  0.53940000  0.60200000  0.60130000  1.0 -0.1012051348
C  C196  1  0.46060000  0.89800000  0.10130000  1.0 -0.1012051348
C  C197  1  0.96060000  0.60200000  0.10130000  1.0 -0.1012051348
C  C198  1  0.03940000  0.89800000  0.60130000  1.0 -0.1012051348
C  C199  1  0.46060000  0.39800000  0.39870000  1.0 -0.1012051348
C  C200  1  0.53940000  0.10200000  0.89870000  1.0 -0.1012051348
C  C201  1  0.03930000  0.42810000  0.87440000  1.0 0.0098908553
C  C202  1  0.96070000  0.07190000  0.37440000  1.0 0.0098908553
C  C203  1  0.53930000  0.57190000  0.62560000  1.0 0.0098908553
C  C204  1  0.46070000  0.92810000  0.12560000  1.0 0.0098908553
C  C205  1  0.96070000  0.57190000  0.12560000  1.0 0.0098908553
C  C206  1  0.03930000  0.92810000  0.62560000  1.0 0.0098908553
C  C207  1  0.46070000  0.42810000  0.37440000  1.0 0.0098908553
C  C208  1  0.53930000  0.07190000  0.87440000  1.0 0.0098908553
C  C209  1  0.09800000  0.43800000  0.86620000  1.0 0.2013142045
C  C210  1  0.90200000  0.06200000  0.36620000  1.0 0.2013142045
C  C211  1  0.59800000  0.56200000  0.63380000  1.0 0.2013142045
C  C212  1  0.40200000  0.93800000  0.13380000  1.0 0.2013142045
C  C213  1  0.90200000  0.56200000  0.13380000  1.0 0.2013142045
C  C214  1  0.09800000  0.93800000  0.63380000  1.0 0.2013142045
C  C215  1  0.40200000  0.43800000  0.36620000  1.0 0.2013142045
C  C216  1  0.59800000  0.06200000  0.86620000  1.0 0.2013142045
C  C217  1  0.98330000  0.45140000  0.87020000  1.0 -0.1012051348
C  C218  1  0.01670000  0.04860000  0.37020000  1.0 -0.1012051348
C  C219  1  0.48330000  0.54860000  0.62980000  1.0 -0.1012051348
C  C220  1  0.51670000  0.95140000  0.12980000  1.0 -0.1012051348
C  C221  1  0.01670000  0.54860000  0.12980000  1.0 -0.1012051348
C  C222  1  0.98330000  0.95140000  0.62980000  1.0 -0.1012051348
C  C223  1  0.51670000  0.45140000  0.37020000  1.0 -0.1012051348
C  C224  1  0.48330000  0.04860000  0.87020000  1.0 -0.1012051348
C  C225  1  0.64720000  0.47800000  0.99000000  1.0 -0.0299301258
C  C226  1  0.35280000  0.02200000  0.49000000  1.0 -0.0299301258
C  C227  1  0.14720000  0.52200000  0.51000000  1.0 -0.0299301258
C  C228  1  0.85280000  0.97800000  0.01000000  1.0 -0.0299301258
C  C229  1  0.35280000  0.52200000  0.01000000  1.0 -0.0299301258
C  C230  1  0.64720000  0.97800000  0.51000000  1.0 -0.0299301258
C  C231  1  0.85280000  0.47800000  0.49000000  1.0 -0.0299301258
C  C232  1  0.14720000  0.02200000  0.99000000  1.0 -0.0299301258
C  C233  1  0.67170000  0.47800000  0.95710000  1.0 0.5543377317
C  C234  1  0.32830000  0.02200000  0.45710000  1.0 0.5543377317
C  C235  1  0.17170000  0.52200000  0.54290000  1.0 0.5543377317
C  C236  1  0.82830000  0.97800000  0.04290000  1.0 0.5543377317
C  C237  1  0.32830000  0.52200000  0.04290000  1.0 0.5543377317
C  C238  1  0.67170000  0.97800000  0.54290000  1.0 0.5543377317
C  C239  1  0.82830000  0.47800000  0.45710000  1.0 0.5543377317
C  C240  1  0.17170000  0.02200000  0.95710000  1.0 0.5543377317
C  C241  1  0.66800000  0.45300000  0.01320000  1.0 -0.081981082
C  C242  1  0.33200000  0.04700000  0.51320000  1.0 -0.081981082
C  C243  1  0.16800000  0.54700000  0.48680000  1.0 -0.081981082
C  C244  1  0.83200000  0.95300000  0.98680000  1.0 -0.081981082
C  C245  1  0.33200000  0.54700000  0.98680000  1.0 -0.081981082
C  C246  1  0.66800000  0.95300000  0.48680000  1.0 -0.081981082
C  C247  1  0.83200000  0.45300000  0.51320000  1.0 -0.081981082
C  C248  1  0.16800000  0.04700000  0.01320000  1.0 -0.081981082
C  C249  1  0.64350000  0.45110000  0.04370000  1.0 -0.069243417
C  C250  1  0.35650000  0.04890000  0.54370000  1.0 -0.069243417
C  C251  1  0.14350000  0.54890000  0.45630000  1.0 -0.069243417
C  C252  1  0.85650000  0.95110000  0.95630000  1.0 -0.069243417
C  C253  1  0.35650000  0.54890000  0.95630000  1.0 -0.069243417
C  C254  1  0.64350000  0.95110000  0.45630000  1.0 -0.069243417
C  C255  1  0.85650000  0.45110000  0.54370000  1.0 -0.069243417
C  C256  1  0.14350000  0.04890000  0.04370000  1.0 -0.069243417
C  C257  1  0.66730000  0.42280000  0.06580000  1.0 0.6482672013
C  C258  1  0.33270000  0.07720000  0.56580000  1.0 0.6482672013
C  C259  1  0.16730000  0.57720000  0.43420000  1.0 0.6482672013
C  C260  1  0.83270000  0.92280000  0.93420000  1.0 0.6482672013
C  C261  1  0.33270000  0.57720000  0.93420000  1.0 0.6482672013
C  C262  1  0.66730000  0.92280000  0.43420000  1.0 0.6482672013
C  C263  1  0.83270000  0.42280000  0.56580000  1.0 0.6482672013
C  C264  1  0.16730000  0.07720000  0.06580000  1.0 0.6482672013
C  C265  1  0.59800000  0.47670000  0.05220000  1.0 -0.1264296362
C  C266  1  0.40200000  0.02330000  0.55220000  1.0 -0.1264296362
C  C267  1  0.09800000  0.52330000  0.44780000  1.0 -0.1264296362
C  C268  1  0.90200000  0.97670000  0.94780000  1.0 -0.1264296362
C  C269  1  0.40200000  0.52330000  0.94780000  1.0 -0.1264296362
C  C270  1  0.59800000  0.97670000  0.44780000  1.0 -0.1264296362
C  C271  1  0.90200000  0.47670000  0.55220000  1.0 -0.1264296362
C  C272  1  0.09800000  0.02330000  0.05220000  1.0 -0.1264296362
C  C273  1  0.57650000  0.50420000  0.03020000  1.0 0.0621300145
C  C274  1  0.42350000  0.99580000  0.53020000  1.0 0.0621300145
C  C275  1  0.07650000  0.49580000  0.46980000  1.0 0.0621300145
C  C276  1  0.92350000  0.00420000  0.96980000  1.0 0.0621300145
C  C277  1  0.42350000  0.49580000  0.96980000  1.0 0.0621300145
C  C278  1  0.57650000  0.00420000  0.46980000  1.0 0.0621300145
C  C279  1  0.92350000  0.50420000  0.53020000  1.0 0.0621300145
C  C280  1  0.07650000  0.99580000  0.03020000  1.0 0.0621300145
C  C281  1  0.52770000  0.53150000  0.04020000  1.0 0.265001557
C  C282  1  0.47230000  0.96850000  0.54020000  1.0 0.265001557
C  C283  1  0.02770000  0.46850000  0.45980000  1.0 0.265001557
C  C284  1  0.97230000  0.03150000  0.95980000  1.0 0.265001557
C  C285  1  0.47230000  0.46850000  0.95980000  1.0 0.265001557
C  C286  1  0.52770000  0.03150000  0.45980000  1.0 0.265001557
C  C287  1  0.97230000  0.53150000  0.54020000  1.0 0.265001557
C  C288  1  0.02770000  0.96850000  0.04020000  1.0 0.265001557
C  C289  1  0.59990000  0.50460000  0.99940000  1.0 -0.1264296362
C  C290  1  0.40010000  0.99540000  0.49940000  1.0 -0.1264296362
C  C291  1  0.09990000  0.49540000  0.50060000  1.0 -0.1264296362
C  C292  1  0.90010000  0.00460000  0.00060000  1.0 -0.1264296362
C  C293  1  0.40010000  0.49540000  0.00060000  1.0 -0.1264296362
C  C294  1  0.59990000  0.00460000  0.50060000  1.0 -0.1264296362
C  C295  1  0.90010000  0.50460000  0.49940000  1.0 -0.1264296362
C  C296  1  0.09990000  0.99540000  0.99940000  1.0 -0.1264296362
C  C297  1  0.76740000  0.44220000  0.79290000  1.0 -0.0459473551
C  C298  1  0.23260000  0.05780000  0.29290000  1.0 -0.0459473551
C  C299  1  0.26740000  0.55780000  0.70710000  1.0 -0.0459473551
C  C300  1  0.73260000  0.94220000  0.20710000  1.0 -0.0459473551
C  C301  1  0.23260000  0.55780000  0.20710000  1.0 -0.0459473551
C  C302  1  0.76740000  0.94220000  0.70710000  1.0 -0.0459473551
C  C303  1  0.73260000  0.44220000  0.29290000  1.0 -0.0459473551
C  C304  1  0.26740000  0.05780000  0.79290000  1.0 -0.0459473551
C  C305  1  0.78470000  0.47400000  0.81370000  1.0 0.6396941878
C  C306  1  0.21530000  0.02600000  0.31370000  1.0 0.6396941878
C  C307  1  0.28470000  0.52600000  0.68630000  1.0 0.6396941878
C  C308  1  0.71530000  0.97400000  0.18630000  1.0 0.6396941878
C  C309  1  0.21530000  0.52600000  0.18630000  1.0 0.6396941878
C  C310  1  0.78470000  0.97400000  0.68630000  1.0 0.6396941878
C  C311  1  0.71530000  0.47400000  0.31370000  1.0 0.6396941878
C  C312  1  0.28470000  0.02600000  0.81370000  1.0 0.6396941878
C  C313  1  0.79570000  0.43920000  0.76190000  1.0 -0.081981082
C  C314  1  0.20430000  0.06080000  0.26190000  1.0 -0.081981082
C  C315  1  0.29570000  0.56080000  0.73810000  1.0 -0.081981082
C  C316  1  0.70430000  0.93920000  0.23810000  1.0 -0.081981082
C  C317  1  0.20430000  0.56080000  0.23810000  1.0 -0.081981082
C  C318  1  0.79570000  0.93920000  0.73810000  1.0 -0.081981082
C  C319  1  0.70430000  0.43920000  0.26190000  1.0 -0.081981082
C  C320  1  0.29570000  0.06080000  0.76190000  1.0 -0.081981082
C  C321  1  0.78030000  0.40820000  0.74260000  1.0 -0.0178884148
C  C322  1  0.21970000  0.09180000  0.24260000  1.0 -0.0178884148
C  C323  1  0.28030000  0.59180000  0.75740000  1.0 -0.0178884148
C  C324  1  0.71970000  0.90820000  0.25740000  1.0 -0.0178884148
C  C325  1  0.21970000  0.59180000  0.25740000  1.0 -0.0178884148
C  C326  1  0.78030000  0.90820000  0.75740000  1.0 -0.0178884148
C  C327  1  0.71970000  0.40820000  0.24260000  1.0 -0.0178884148
C  C328  1  0.28030000  0.09180000  0.74260000  1.0 -0.0178884148
C  C329  1  0.80910000  0.40560000  0.70920000  1.0 0.567512355
C  C330  1  0.19090000  0.09440000  0.20920000  1.0 0.567512355
C  C331  1  0.30910000  0.59440000  0.79080000  1.0 0.567512355
C  C332  1  0.69090000  0.90560000  0.29080000  1.0 0.567512355
C  C333  1  0.19090000  0.59440000  0.29080000  1.0 0.567512355
C  C334  1  0.80910000  0.90560000  0.79080000  1.0 0.567512355
C  C335  1  0.69090000  0.40560000  0.20920000  1.0 0.567512355
C  C336  1  0.30910000  0.09440000  0.70920000  1.0 0.567512355
C  C337  1  0.74160000  0.38040000  0.75220000  1.0 -0.1120535998
C  C338  1  0.25840000  0.11960000  0.25220000  1.0 -0.1120535998
C  C339  1  0.24160000  0.61960000  0.74780000  1.0 -0.1120535998
C  C340  1  0.75840000  0.88040000  0.24780000  1.0 -0.1120535998
C  C341  1  0.25840000  0.61960000  0.24780000  1.0 -0.1120535998
C  C342  1  0.74160000  0.88040000  0.74780000  1.0 -0.1120535998
C  C343  1  0.75840000  0.38040000  0.25220000  1.0 -0.1120535998
C  C344  1  0.24160000  0.11960000  0.75220000  1.0 -0.1120535998
C  C345  1  0.71500000  0.38740000  0.78200000  1.0 -0.0117562059
C  C346  1  0.28500000  0.11260000  0.28200000  1.0 -0.0117562059
C  C347  1  0.21500000  0.61260000  0.71800000  1.0 -0.0117562059
C  C348  1  0.78500000  0.88740000  0.21800000  1.0 -0.0117562059
C  C349  1  0.28500000  0.61260000  0.21800000  1.0 -0.0117562059
C  C350  1  0.71500000  0.88740000  0.71800000  1.0 -0.0117562059
C  C351  1  0.78500000  0.38740000  0.28200000  1.0 -0.0117562059
C  C352  1  0.21500000  0.11260000  0.78200000  1.0 -0.0117562059
C  C353  1  0.67900000  0.35820000  0.79200000  1.0 0.1589423379
C  C354  1  0.32100000  0.14180000  0.29200000  1.0 0.1589423379
C  C355  1  0.17900000  0.64180000  0.70800000  1.0 0.1589423379
C  C356  1  0.82100000  0.85820000  0.20800000  1.0 0.1589423379
C  C357  1  0.32100000  0.64180000  0.20800000  1.0 0.1589423379
C  C358  1  0.67900000  0.85820000  0.70800000  1.0 0.165541581
C  C359  1  0.82100000  0.35820000  0.29200000  1.0 0.1589423379
C  C360  1  0.17900000  0.14180000  0.79200000  1.0 0.1589423379
C  C361  1  0.72740000  0.41480000  0.80320000  1.0 -0.081981082
C  C362  1  0.27260000  0.08520000  0.30320000  1.0 -0.081981082
C  C363  1  0.22740000  0.58520000  0.69680000  1.0 -0.081981082
C  C364  1  0.77260000  0.91480000  0.19680000  1.0 -0.081981082
C  C365  1  0.27260000  0.58520000  0.19680000  1.0 -0.081981082
C  C366  1  0.72740000  0.91480000  0.69680000  1.0 -0.081981082
C  C367  1  0.77260000  0.41480000  0.30320000  1.0 -0.081981082
C  C368  1  0.22740000  0.08520000  0.80320000  1.0 -0.081981082
C  C369  1  0.05260000  0.54810000  0.82900000  1.0 -0.0178884148
C  C370  1  0.94740000  0.95190000  0.32900000  1.0 -0.0178884148
C  C371  1  0.55260000  0.45190000  0.67100000  1.0 -0.0178884148
C  C372  1  0.44740000  0.04810000  0.17100000  1.0 -0.0178884148
C  C373  1  0.94740000  0.45190000  0.17100000  1.0 -0.0178884148
C  C374  1  0.05260000  0.04810000  0.67100000  1.0 -0.0178884148
C  C375  1  0.44740000  0.54810000  0.32900000  1.0 -0.0178884148
C  C376  1  0.55260000  0.95190000  0.82900000  1.0 -0.0178884148
C  C377  1  0.98460000  0.55050000  0.83150000  1.0 0.5543377317
C  C378  1  0.01540000  0.94950000  0.33150000  1.0 0.5543377317
C  C379  1  0.48460000  0.44950000  0.66850000  1.0 0.5543377317
C  C380  1  0.51540000  0.05050000  0.16850000  1.0 0.5543377317
C  C381  1  0.01540000  0.44950000  0.16850000  1.0 0.5543377317
C  C382  1  0.98460000  0.05050000  0.66850000  1.0 0.5543377317
C  C383  1  0.51540000  0.55050000  0.33150000  1.0 0.5543377317
C  C384  1  0.48460000  0.94950000  0.83150000  1.0 0.5543377317
C  C385  1  0.08890000  0.56490000  0.85070000  1.0 -0.1120535998
C  C386  1  0.91110000  0.93510000  0.35070000  1.0 -0.1120535998
C  C387  1  0.58890000  0.43510000  0.64930000  1.0 -0.1120535998
C  C388  1  0.41110000  0.06490000  0.14930000  1.0 -0.1120535998
C  C389  1  0.91110000  0.43510000  0.14930000  1.0 -0.1120535998
C  C390  1  0.08890000  0.06490000  0.64930000  1.0 -0.1120535998
C  C391  1  0.41110000  0.56490000  0.35070000  1.0 -0.1120535998
C  C392  1  0.58890000  0.93510000  0.85070000  1.0 -0.1120535998
C  C393  1  0.15510000  0.56280000  0.84850000  1.0 -0.0299301258
C  C394  1  0.84490000  0.93720000  0.34850000  1.0 -0.0299301258
C  C395  1  0.65510000  0.43720000  0.65150000  1.0 -0.0299301258
C  C396  1  0.34490000  0.06280000  0.15150000  1.0 -0.0299301258
C  C397  1  0.84490000  0.43720000  0.15150000  1.0 -0.0299301258
C  C398  1  0.15510000  0.06280000  0.65150000  1.0 -0.0299301258
C  C399  1  0.34490000  0.56280000  0.34850000  1.0 -0.0299301258
C  C400  1  0.65510000  0.93720000  0.84850000  1.0 -0.0299301258
C  C401  1  0.19340000  0.58470000  0.87260000  1.0 0.6396941878
C  C402  1  0.80660000  0.91530000  0.37260000  1.0 0.6396941878
C  C403  1  0.69340000  0.41530000  0.62740000  1.0 0.6396941878
C  C404  1  0.30660000  0.08470000  0.12740000  1.0 0.6396941878
C  C405  1  0.80660000  0.41530000  0.12740000  1.0 0.6396941878
C  C406  1  0.19340000  0.08470000  0.62740000  1.0 0.6396941878
C  C407  1  0.30660000  0.58470000  0.37260000  1.0 0.6396941878
C  C408  1  0.69340000  0.91530000  0.87260000  1.0 0.6396941878
C  C409  1  0.17850000  0.54470000  0.82300000  1.0 -0.1264296362
C  C410  1  0.82150000  0.95530000  0.32300000  1.0 -0.1264296362
C  C411  1  0.67850000  0.45530000  0.67700000  1.0 -0.1264296362
C  C412  1  0.32150000  0.04470000  0.17700000  1.0 -0.1264296362
C  C413  1  0.82150000  0.45530000  0.17700000  1.0 -0.1264296362
C  C414  1  0.17850000  0.04470000  0.67700000  1.0 -0.1264296362
C  C415  1  0.32150000  0.54470000  0.32300000  1.0 -0.1264296362
C  C416  1  0.67850000  0.95530000  0.82300000  1.0 -0.1264296362
C  C417  1  0.14130000  0.52600000  0.80020000  1.0 0.0621300145
C  C418  1  0.85870000  0.97400000  0.30020000  1.0 0.0621300145
C  C419  1  0.64130000  0.47400000  0.69980000  1.0 0.0621300145
C  C420  1  0.35870000  0.02600000  0.19980000  1.0 0.0621300145
C  C421  1  0.85870000  0.47400000  0.19980000  1.0 0.0621300145
C  C422  1  0.14130000  0.02600000  0.69980000  1.0 0.0621300145
C  C423  1  0.35870000  0.52600000  0.30020000  1.0 0.0621300145
C  C424  1  0.64130000  0.97400000  0.80020000  1.0 0.0621300145
C  C425  1  0.16770000  0.50500000  0.77370000  1.0 0.2405125193
C  C426  1  0.83230000  0.99500000  0.27370000  1.0 0.2405125193
C  C427  1  0.66770000  0.49500000  0.72630000  1.0 0.2405125193
C  C428  1  0.33230000  0.00500000  0.22630000  1.0 0.2405125193
C  C429  1  0.83230000  0.49500000  0.22630000  1.0 0.2405125193
C  C430  1  0.16770000  0.00500000  0.72630000  1.0 0.2405125193
C  C431  1  0.33230000  0.50500000  0.27370000  1.0 0.2405125193
C  C432  1  0.66770000  0.99500000  0.77370000  1.0 0.2405125193
C  C433  1  0.07940000  0.52880000  0.80340000  1.0 -0.1264296362
C  C434  1  0.92060000  0.97120000  0.30340000  1.0 -0.1264296362
C  C435  1  0.57940000  0.47120000  0.69660000  1.0 -0.1264296362
C  C436  1  0.42060000  0.02880000  0.19660000  1.0 -0.1264296362
C  C437  1  0.92060000  0.47120000  0.19660000  1.0 -0.1264296362
C  C438  1  0.07940000  0.02880000  0.69660000  1.0 -0.1264296362
C  C439  1  0.42060000  0.52880000  0.30340000  1.0 -0.1264296362
C  C440  1  0.57940000  0.97120000  0.80340000  1.0 -0.1264296362
C  C441  1  0.97060000  0.75820000  0.93400000  1.0 -0.0299301258
C  C442  1  0.02940000  0.74180000  0.43400000  1.0 -0.0299301258
C  C443  1  0.47060000  0.24180000  0.56600000  1.0 -0.0299301258
C  C444  1  0.52940000  0.25820000  0.06600000  1.0 -0.0299301258
C  C445  1  0.02940000  0.24180000  0.06600000  1.0 -0.0299301258
C  C446  1  0.97060000  0.25820000  0.56600000  1.0 -0.0299301258
C  C447  1  0.52940000  0.75820000  0.43400000  1.0 -0.0299301258
C  C448  1  0.47060000  0.74180000  0.93400000  1.0 -0.0299301258
C  C449  1  0.97860000  0.73570000  0.96480000  1.0 0.6396941878
C  C450  1  0.02140000  0.76430000  0.46480000  1.0 0.6396941878
C  C451  1  0.47860000  0.26430000  0.53520000  1.0 0.6396941878
C  C452  1  0.52140000  0.23570000  0.03520000  1.0 0.6396941878
C  C453  1  0.02140000  0.26430000  0.03520000  1.0 0.6396941878
C  C454  1  0.97860000  0.23570000  0.53520000  1.0 0.6396941878
C  C455  1  0.52140000  0.73570000  0.46480000  1.0 0.6396941878
C  C456  1  0.47860000  0.76430000  0.96480000  1.0 0.6396941878
C  C457  1  0.92140000  0.78120000  0.93130000  1.0 -0.1012051348
C  C458  1  0.07860000  0.71880000  0.43130000  1.0 -0.1012051348
C  C459  1  0.42140000  0.21880000  0.56870000  1.0 -0.1012051348
C  C460  1  0.57860000  0.28120000  0.06870000  1.0 -0.1012051348
C  C461  1  0.07860000  0.21880000  0.06870000  1.0 -0.1012051348
C  C462  1  0.92140000  0.28120000  0.56870000  1.0 -0.1012051348
C  C463  1  0.57860000  0.78120000  0.43130000  1.0 -0.1012051348
C  C464  1  0.42140000  0.71880000  0.93130000  1.0 -0.1012051348
C  C465  1  0.91040000  0.79960000  0.90300000  1.0 -0.0178884148
C  C466  1  0.08960000  0.70040000  0.40300000  1.0 -0.0178884148
C  C467  1  0.41040000  0.20040000  0.59700000  1.0 -0.0178884148
C  C468  1  0.58960000  0.29960000  0.09700000  1.0 -0.0178884148
C  C469  1  0.08960000  0.20040000  0.09700000  1.0 -0.0178884148
C  C470  1  0.91040000  0.29960000  0.59700000  1.0 -0.0178884148
C  C471  1  0.58960000  0.79960000  0.40300000  1.0 -0.0178884148
C  C472  1  0.41040000  0.70040000  0.90300000  1.0 -0.0178884148
C  C473  1  0.85470000  0.82640000  0.89830000  1.0 0.6396941878
C  C474  1  0.14530000  0.67360000  0.39830000  1.0 0.6396941878
C  C475  1  0.35470000  0.17360000  0.60170000  1.0 0.6396941878
C  C476  1  0.64530000  0.32640000  0.10170000  1.0 0.6396941878
C  C477  1  0.14530000  0.17360000  0.10170000  1.0 0.6396941878
C  C478  1  0.85470000  0.32640000  0.60170000  1.0 0.6396941878
C  C479  1  0.64530000  0.82640000  0.39830000  1.0 0.6396941878
C  C480  1  0.35470000  0.67360000  0.89830000  1.0 0.6396941878
C  C481  1  0.94960000  0.79520000  0.87520000  1.0 -0.1423833909
C  C482  1  0.05040000  0.70480000  0.37520000  1.0 -0.1423833909
C  C483  1  0.44960000  0.20480000  0.62480000  1.0 -0.1423833909
C  C484  1  0.55040000  0.29520000  0.12480000  1.0 -0.1423833909
C  C485  1  0.05040000  0.20480000  0.12480000  1.0 -0.1423833909
C  C486  1  0.94960000  0.29520000  0.62480000  1.0 -0.1423833909
C  C487  1  0.55040000  0.79520000  0.37520000  1.0 -0.1423833909
C  C488  1  0.44960000  0.70480000  0.87520000  1.0 -0.1423833909
C  C489  1  0.00100000  0.77220000  0.87860000  1.0 0.0412651095
C  C490  1  0.99900000  0.72780000  0.37860000  1.0 0.0412651095
C  C491  1  0.50100000  0.22780000  0.62140000  1.0 0.0412651095
C  C492  1  0.49900000  0.27220000  0.12140000  1.0 0.0412651095
C  C493  1  0.99900000  0.22780000  0.12140000  1.0 0.0412651095
C  C494  1  0.00100000  0.27220000  0.62140000  1.0 0.0412651095
C  C495  1  0.49900000  0.77220000  0.37860000  1.0 0.0412651095
C  C496  1  0.50100000  0.72780000  0.87860000  1.0 0.0412651095
C  C497  1  0.04060000  0.76530000  0.85140000  1.0 0.2508422203
C  C498  1  0.95940000  0.73470000  0.35140000  1.0 0.2508422203
C  C499  1  0.54060000  0.23470000  0.64860000  1.0 0.2508422203
C  C500  1  0.45940000  0.26530000  0.14860000  1.0 0.2508422203
C  C501  1  0.95940000  0.23470000  0.14860000  1.0 0.2508422203
C  C502  1  0.04060000  0.26530000  0.64860000  1.0 0.2508422203
C  C503  1  0.45940000  0.76530000  0.35140000  1.0 0.2508422203
C  C504  1  0.54060000  0.73470000  0.85140000  1.0 0.2508422203
C  C505  1  0.00750000  0.75240000  0.90720000  1.0 -0.1503784323
C  C506  1  0.99250000  0.74760000  0.40720000  1.0 -0.1503784323
C  C507  1  0.50750000  0.24760000  0.59280000  1.0 -0.1503784323
C  C508  1  0.49250000  0.25240000  0.09280000  1.0 -0.1503784323
C  C509  1  0.99250000  0.24760000  0.09280000  1.0 -0.1503784323
C  C510  1  0.00750000  0.25240000  0.59280000  1.0 -0.1503784323
C  C511  1  0.49250000  0.75240000  0.40720000  1.0 -0.1503784323
C  C512  1  0.50750000  0.74760000  0.90720000  1.0 -0.1503784323
C  C513  1  0.64930000  0.58270000  0.83510000  1.0 -0.0117562059
C  C514  1  0.35070000  0.91730000  0.33510000  1.0 -0.0117562059
C  C515  1  0.14930000  0.41730000  0.66490000  1.0 -0.0117562059
C  C516  1  0.85070000  0.08270000  0.16490000  1.0 -0.0117562059
C  C517  1  0.35070000  0.41730000  0.16490000  1.0 -0.0117562059
C  C518  1  0.64930000  0.08270000  0.66490000  1.0 -0.0117562059
C  C519  1  0.85070000  0.58270000  0.33510000  1.0 -0.0117562059
C  C520  1  0.14930000  0.91730000  0.83510000  1.0 -0.0117562059
C  C521  1  0.69290000  0.55360000  0.85110000  1.0 0.6396941878
C  C522  1  0.30710000  0.94640000  0.35110000  1.0 0.6396941878
C  C523  1  0.19290000  0.44640000  0.64890000  1.0 0.6396941878
C  C524  1  0.80710000  0.05360000  0.14890000  1.0 0.6396941878
C  C525  1  0.30710000  0.44640000  0.14890000  1.0 0.6396941878
C  C526  1  0.69290000  0.05360000  0.64890000  1.0 0.6396941878
C  C527  1  0.80710000  0.55360000  0.35110000  1.0 0.6396941878
C  C528  1  0.19290000  0.94640000  0.85110000  1.0 0.6396941878
C  C529  1  0.58600000  0.58020000  0.84130000  1.0 -0.1012051348
C  C530  1  0.41400000  0.91980000  0.34130000  1.0 -0.1012051348
C  C531  1  0.08600000  0.41980000  0.65870000  1.0 -0.1012051348
C  C532  1  0.91400000  0.08020000  0.15870000  1.0 -0.1012051348
C  C533  1  0.41400000  0.41980000  0.15870000  1.0 -0.1012051348
C  C534  1  0.58600000  0.08020000  0.65870000  1.0 -0.1012051348
C  C535  1  0.91400000  0.58020000  0.34130000  1.0 -0.1012051348
C  C536  1  0.08600000  0.91980000  0.84130000  1.0 -0.1012051348
C  C537  1  0.54510000  0.60530000  0.82930000  1.0 -0.0117562059
C  C538  1  0.45490000  0.89470000  0.32930000  1.0 -0.0117562059
C  C539  1  0.04510000  0.39470000  0.67070000  1.0 -0.0117562059
C  C540  1  0.95490000  0.10530000  0.17070000  1.0 -0.0117562059
C  C541  1  0.45490000  0.39470000  0.17070000  1.0 -0.0117562059
C  C542  1  0.54510000  0.10530000  0.67070000  1.0 -0.0117562059
C  C543  1  0.95490000  0.60530000  0.32930000  1.0 -0.0117562059
C  C544  1  0.04510000  0.89470000  0.82930000  1.0 -0.0117562059
C  C545  1  0.47800000  0.60080000  0.83600000  1.0 0.567512355
C  C546  1  0.52200000  0.89920000  0.33600000  1.0 0.567512355
C  C547  1  0.97800000  0.39920000  0.66400000  1.0 0.567512355
C  C548  1  0.02200000  0.10080000  0.16400000  1.0 0.567512355
C  C549  1  0.52200000  0.39920000  0.16400000  1.0 0.567512355
C  C550  1  0.47800000  0.10080000  0.66400000  1.0 0.567512355
C  C551  1  0.02200000  0.60080000  0.33600000  1.0 0.567512355
C  C552  1  0.97800000  0.89920000  0.83600000  1.0 0.567512355
C  C553  1  0.56520000  0.63480000  0.81030000  1.0 -0.1423833909
C  C554  1  0.43480000  0.86520000  0.31030000  1.0 -0.1423833909
C  C555  1  0.06520000  0.36520000  0.68970000  1.0 -0.1423833909
C  C556  1  0.93480000  0.13480000  0.18970000  1.0 -0.1423833909
C  C557  1  0.43480000  0.36520000  0.18970000  1.0 -0.1423833909
C  C558  1  0.56520000  0.13480000  0.68970000  1.0 -0.1423833909
C  C559  1  0.93480000  0.63480000  0.31030000  1.0 -0.1423833909
C  C560  1  0.06520000  0.86520000  0.81030000  1.0 -0.1423833909
C  C561  1  0.62870000  0.64050000  0.80450000  1.0 0.074978999
C  C562  1  0.37130000  0.85950000  0.30450000  1.0 0.074978999
C  C563  1  0.12870000  0.35950000  0.69550000  1.0 0.074978999
C  C564  1  0.87130000  0.14050000  0.19550000  1.0 0.074978999
C  C565  1  0.37130000  0.35950000  0.19550000  1.0 0.074978999
C  C566  1  0.62870000  0.14050000  0.69550000  1.0 0.074978999
C  C567  1  0.87130000  0.64050000  0.30450000  1.0 0.074978999
C  C568  1  0.12870000  0.85950000  0.80450000  1.0 0.074978999
C  C569  1  0.65300000  0.67280000  0.78400000  1.0 0.2508422203
C  C570  1  0.34700000  0.82720000  0.28400000  1.0 0.2508422203
C  C571  1  0.15300000  0.32720000  0.71600000  1.0 0.2508422203
C  C572  1  0.84700000  0.17280000  0.21600000  1.0 0.2508422203
C  C573  1  0.34700000  0.32720000  0.21600000  1.0 0.2508422203
C  C574  1  0.65300000  0.17280000  0.71600000  1.0 0.2508422203
C  C575  1  0.84700000  0.67280000  0.28400000  1.0 0.2508422203
C  C576  1  0.15300000  0.82720000  0.78400000  1.0 0.2508422203
C  C577  1  0.23390000  0.73780000  0.96010000  1.0 0.317413898
C  C578  1  0.76610000  0.76220000  0.46010000  1.0 0.317413898
C  C579  1  0.73390000  0.26220000  0.53990000  1.0 0.317413898
C  C580  1  0.26610000  0.23780000  0.03990000  1.0 0.317413898
C  C581  1  0.76610000  0.26220000  0.03990000  1.0 0.317413898
C  C582  1  0.23390000  0.23780000  0.53990000  1.0 0.317413898
C  C583  1  0.26610000  0.73780000  0.46010000  1.0 0.317413898
C  C584  1  0.73390000  0.76220000  0.96010000  1.0 0.317413898
C  C585  1  0.14450000  0.78020000  0.95630000  1.0 -0.3305763619
C  C586  1  0.85550000  0.71980000  0.45630000  1.0 -0.3305763619
C  C587  1  0.64450000  0.21980000  0.54370000  1.0 -0.3305763619
C  C588  1  0.35550000  0.28020000  0.04370000  1.0 -0.3305763619
C  C589  1  0.85550000  0.21980000  0.04370000  1.0 -0.3305763619
C  C590  1  0.14450000  0.28020000  0.54370000  1.0 -0.3305763619
C  C591  1  0.35550000  0.78020000  0.45630000  1.0 -0.3305763619
C  C592  1  0.64450000  0.71980000  0.95630000  1.0 -0.3305763619
C  C593  1  0.24740000  0.80160000  0.97800000  1.0 -0.3669731699
C  C594  1  0.75260000  0.69840000  0.47800000  1.0 -0.3669731699
C  C595  1  0.74740000  0.19840000  0.52200000  1.0 -0.3669731699
C  C596  1  0.25260000  0.30160000  0.02200000  1.0 -0.3669731699
C  C597  1  0.75260000  0.19840000  0.02200000  1.0 -0.3669731699
C  C598  1  0.24740000  0.30160000  0.52200000  1.0 -0.3669731699
C  C599  1  0.25260000  0.80160000  0.47800000  1.0 -0.3669731699
C  C600  1  0.74740000  0.69840000  0.97800000  1.0 -0.3669731699
C  C601  1  0.01500000  0.56580000  0.97410000  1.0 0.2896642398
C  C602  1  0.98500000  0.93420000  0.47410000  1.0 0.2896642398
C  C603  1  0.51500000  0.43420000  0.52590000  1.0 0.2896642398
C  C604  1  0.48500000  0.06580000  0.02590000  1.0 0.2896642398
C  C605  1  0.98500000  0.43420000  0.02590000  1.0 0.2896642398
C  C606  1  0.01500000  0.06580000  0.52590000  1.0 0.2896642398
C  C607  1  0.48500000  0.56580000  0.47410000  1.0 0.2896642398
C  C608  1  0.51500000  0.93420000  0.97410000  1.0 0.2896642398
C  C609  1  0.94280000  0.51300000  0.96080000  1.0 -0.34167435
C  C610  1  0.05720000  0.98700000  0.46080000  1.0 -0.34167435
C  C611  1  0.44280000  0.48700000  0.53920000  1.0 -0.34167435
C  C612  1  0.55720000  0.01300000  0.03920000  1.0 -0.34167435
C  C613  1  0.05720000  0.48700000  0.03920000  1.0 -0.34167435
C  C614  1  0.94280000  0.01300000  0.53920000  1.0 -0.34167435
C  C615  1  0.55720000  0.51300000  0.46080000  1.0 -0.34167435
C  C616  1  0.44280000  0.98700000  0.96080000  1.0 -0.34167435
C  C617  1  0.01830000  0.53880000  0.92310000  1.0 -0.3202756192
C  C618  1  0.98170000  0.96120000  0.42310000  1.0 -0.3202756192
C  C619  1  0.51830000  0.46120000  0.57690000  1.0 -0.3202756192
C  C620  1  0.48170000  0.03880000  0.07690000  1.0 -0.3202756192
C  C621  1  0.98170000  0.46120000  0.07690000  1.0 -0.3202756192
C  C622  1  0.01830000  0.03880000  0.57690000  1.0 -0.3202756192
C  C623  1  0.48170000  0.53880000  0.42310000  1.0 -0.3202756192
C  C624  1  0.51830000  0.96120000  0.92310000  1.0 -0.3202756192
C  C625  1  0.92880000  0.81390000  0.02520000  1.0 0.3322938971
C  C626  1  0.07120000  0.68610000  0.52520000  1.0 0.3322938971
C  C627  1  0.42880000  0.18610000  0.47480000  1.0 0.3322938971
C  C628  1  0.57120000  0.31390000  0.97480000  1.0 0.3322938971
C  C629  1  0.07120000  0.18610000  0.97480000  1.0 0.3322938971
C  C630  1  0.92880000  0.31390000  0.47480000  1.0 0.3322938971
C  C631  1  0.57120000  0.81390000  0.52520000  1.0 0.3322938971
C  C632  1  0.42880000  0.68610000  0.02520000  1.0 0.3322938971
C  C633  1  0.92120000  0.87100000  0.98870000  1.0 -0.3487161462
C  C634  1  0.07880000  0.62900000  0.48870000  1.0 -0.3487161462
C  C635  1  0.42120000  0.12900000  0.51130000  1.0 -0.3487161462
C  C636  1  0.57880000  0.37100000  0.01130000  1.0 -0.3487161462
C  C637  1  0.07880000  0.12900000  0.01130000  1.0 -0.3487161462
C  C638  1  0.92120000  0.37100000  0.51130000  1.0 -0.3487161462
C  C639  1  0.57880000  0.87100000  0.48870000  1.0 -0.3487161462
C  C640  1  0.42120000  0.62900000  0.98870000  1.0 -0.3487161462
C  C641  1  0.02790000  0.85220000  0.01160000  1.0 -0.3487161462
C  C642  1  0.97210000  0.64780000  0.51160000  1.0 -0.34167435
C  C643  1  0.52790000  0.14780000  0.48840000  1.0 -0.34167435
C  C644  1  0.47210000  0.35220000  0.98840000  1.0 -0.34167435
C  C645  1  0.97210000  0.14780000  0.98840000  1.0 -0.34167435
C  C646  1  0.02790000  0.35220000  0.48840000  1.0 -0.34167435
C  C647  1  0.47210000  0.85220000  0.51160000  1.0 -0.34167435
C  C648  1  0.52790000  0.64780000  0.01160000  1.0 -0.34167435
C  C649  1  0.57980000  0.46700000  0.87520000  1.0 0.317413898
C  C650  1  0.42020000  0.03300000  0.37520000  1.0 0.317413898
C  C651  1  0.07980000  0.53300000  0.62480000  1.0 0.317413898
C  C652  1  0.92020000  0.96700000  0.12480000  1.0 0.317413898
C  C653  1  0.42020000  0.53300000  0.12480000  1.0 0.317413898
C  C654  1  0.57980000  0.96700000  0.62480000  1.0 0.317413898
C  C655  1  0.92020000  0.46700000  0.37520000  1.0 0.317413898
C  C656  1  0.07980000  0.03300000  0.87520000  1.0 0.317413898
C  C657  1  0.47240000  0.47130000  0.86370000  1.0 -0.3487161462
C  C658  1  0.52760000  0.02870000  0.36370000  1.0 -0.3487161462
C  C659  1  0.97240000  0.52870000  0.63630000  1.0 -0.3487161462
C  C660  1  0.02760000  0.97130000  0.13630000  1.0 -0.3487161462
C  C661  1  0.52760000  0.52870000  0.13630000  1.0 -0.3487161462
C  C662  1  0.47240000  0.97130000  0.63630000  1.0 -0.3487161462
C  C663  1  0.02760000  0.47130000  0.36370000  1.0 -0.3487161462
C  C664  1  0.97240000  0.02870000  0.86370000  1.0 -0.3487161462
C  C665  1  0.53600000  0.41100000  0.85210000  1.0 -0.3202756192
C  C666  1  0.46400000  0.08900000  0.35210000  1.0 -0.3202756192
C  C667  1  0.03600000  0.58900000  0.64790000  1.0 -0.3202756192
C  C668  1  0.96400000  0.91100000  0.14790000  1.0 -0.3202756192
C  C669  1  0.46400000  0.58900000  0.14790000  1.0 -0.3202756192
C  C670  1  0.53600000  0.91100000  0.64790000  1.0 -0.3202756192
C  C671  1  0.96400000  0.41100000  0.35210000  1.0 -0.3202756192
C  C672  1  0.03600000  0.08900000  0.85210000  1.0 -0.3202756192
C  C673  1  0.79820000  0.58010000  0.76730000  1.0 0.3018748492
C  C674  1  0.20180000  0.91990000  0.26730000  1.0 0.3018748492
C  C675  1  0.29820000  0.41990000  0.73270000  1.0 0.3018748492
C  C676  1  0.70180000  0.08010000  0.23270000  1.0 0.3018748492
C  C677  1  0.20180000  0.41990000  0.23270000  1.0 0.3018748492
C  C678  1  0.79820000  0.08010000  0.73270000  1.0 0.3018748492
C  C679  1  0.70180000  0.58010000  0.26730000  1.0 0.3018748492
C  C680  1  0.29820000  0.91990000  0.76730000  1.0 0.3018748492
C  C681  1  0.71830000  0.60570000  0.73030000  1.0 -0.3305763619
C  C682  1  0.28170000  0.89430000  0.23030000  1.0 -0.3305763619
C  C683  1  0.21830000  0.39430000  0.76970000  1.0 -0.3305763619
C  C684  1  0.78170000  0.10570000  0.26970000  1.0 -0.3305763619
C  C685  1  0.28170000  0.39430000  0.26970000  1.0 -0.3305763619
C  C686  1  0.71830000  0.10570000  0.76970000  1.0 -0.3305763619
C  C687  1  0.78170000  0.60570000  0.23030000  1.0 -0.3305763619
C  C688  1  0.21830000  0.89430000  0.73030000  1.0 -0.3305763619
C  C689  1  0.81400000  0.63970000  0.74520000  1.0 -0.2987937227
C  C690  1  0.18600000  0.86030000  0.24520000  1.0 -0.2987937227
C  C691  1  0.31400000  0.36030000  0.75480000  1.0 -0.2987937227
C  C692  1  0.68600000  0.13970000  0.25480000  1.0 -0.2987937227
C  C693  1  0.18600000  0.36030000  0.25480000  1.0 -0.2987937227
C  C694  1  0.81400000  0.13970000  0.75480000  1.0 -0.2987937227
C  C695  1  0.68600000  0.63970000  0.24520000  1.0 -0.2987937227
C  C696  1  0.31400000  0.86030000  0.74520000  1.0 -0.2987937227
C  C697  1  0.87680000  0.63800000  0.86360000  1.0 0.2896642398
C  C698  1  0.12320000  0.86200000  0.36360000  1.0 0.2896642398
C  C699  1  0.37680000  0.36200000  0.63640000  1.0 0.2896642398
C  C700  1  0.62320000  0.13800000  0.13640000  1.0 0.2896642398
C  C701  1  0.12320000  0.36200000  0.13640000  1.0 0.2896642398
C  C702  1  0.87680000  0.13800000  0.63640000  1.0 0.2896642398
C  C703  1  0.62320000  0.63800000  0.36360000  1.0 0.2896642398
C  C704  1  0.37680000  0.86200000  0.86360000  1.0 0.2896642398
C  C705  1  0.87080000  0.68870000  0.90510000  1.0 -0.3080313325
C  C706  1  0.12920000  0.81130000  0.40510000  1.0 -0.3080313325
C  C707  1  0.37080000  0.31130000  0.59490000  1.0 -0.3080313325
C  C708  1  0.62920000  0.18870000  0.09490000  1.0 -0.3080313325
C  C709  1  0.12920000  0.31130000  0.09490000  1.0 -0.3080313325
C  C710  1  0.87080000  0.18870000  0.59490000  1.0 -0.3080313325
C  C711  1  0.62920000  0.68870000  0.40510000  1.0 -0.3080313325
C  C712  1  0.37080000  0.81130000  0.90510000  1.0 -0.3080313325
C  C713  1  0.78300000  0.66020000  0.87520000  1.0 -0.3796970889
C  C714  1  0.21700000  0.83980000  0.37520000  1.0 -0.3796970889
C  C715  1  0.28300000  0.33980000  0.62480000  1.0 -0.3796970889
C  C716  1  0.71700000  0.16020000  0.12480000  1.0 -0.3796970889
C  C717  1  0.21700000  0.33980000  0.12480000  1.0 -0.3796970889
C  C718  1  0.78300000  0.16020000  0.62480000  1.0 -0.3796970889
C  C719  1  0.71700000  0.66020000  0.37520000  1.0 -0.3796970889
C  C720  1  0.28300000  0.83980000  0.87520000  1.0 -0.3796970889
C  C721  1  0.66690000  0.50090000  0.15210000  1.0 0.3018748492
C  C722  1  0.33310000  0.99910000  0.65210000  1.0 0.3018748492
C  C723  1  0.16690000  0.49910000  0.34790000  1.0 0.3018748492
C  C724  1  0.83310000  0.00090000  0.84790000  1.0 0.3018748492
C  C725  1  0.33310000  0.49910000  0.84790000  1.0 0.3018748492
C  C726  1  0.66690000  0.00090000  0.34790000  1.0 0.3018748492
C  C727  1  0.83310000  0.50090000  0.65210000  1.0 0.3018748492
C  C728  1  0.16690000  0.99910000  0.15210000  1.0 0.3018748492
C  C729  1  0.69100000  0.54260000  0.10970000  1.0 -0.3080313325
C  C730  1  0.30900000  0.95740000  0.60970000  1.0 -0.3080313325
C  C731  1  0.19100000  0.45740000  0.39030000  1.0 -0.3080313325
C  C732  1  0.80900000  0.04260000  0.89030000  1.0 -0.3080313325
C  C733  1  0.30900000  0.45740000  0.89030000  1.0 -0.3080313325
C  C734  1  0.69100000  0.04260000  0.39030000  1.0 -0.3080313325
C  C735  1  0.80900000  0.54260000  0.60970000  1.0 -0.3080313325
C  C736  1  0.19100000  0.95740000  0.10970000  1.0 -0.3080313325
C  C737  1  0.68900000  0.56560000  0.16660000  1.0 -0.34167435
C  C738  1  0.31100000  0.93440000  0.66666667  1.0 -0.34167435
C  C739  1  0.18900000  0.43440000  0.33340000  1.0 -0.34167435
C  C740  1  0.81100000  0.06560000  0.83340000  1.0 -0.34167435
C  C741  1  0.31100000  0.43440000  0.83340000  1.0 -0.34167435
C  C742  1  0.68900000  0.06560000  0.33340000  1.0 -0.34167435
C  C743  1  0.81100000  0.56560000  0.66666667  1.0 -0.34167435
C  C744  1  0.18900000  0.93440000  0.16660000  1.0 -0.34167435
C  C745  1  0.73900000  0.37400000  0.89410000  1.0 0.3392623879
C  C746  1  0.26100000  0.12600000  0.39410000  1.0 0.3392623879
C  C747  1  0.23900000  0.62600000  0.60590000  1.0 0.3392623879
C  C748  1  0.76100000  0.87400000  0.10590000  1.0 0.3392623879
C  C749  1  0.26100000  0.62600000  0.10590000  1.0 0.3392623879
C  C750  1  0.73900000  0.87400000  0.60590000  1.0 0.3392623879
C  C751  1  0.76100000  0.37400000  0.39410000  1.0 0.3392623879
C  C752  1  0.23900000  0.12600000  0.89410000  1.0 0.3392623879
C  C753  1  0.69300000  0.31150000  0.90900000  1.0 -0.3487161462
C  C754  1  0.30700000  0.18850000  0.40900000  1.0 -0.3487161462
C  C755  1  0.19300000  0.68850000  0.59100000  1.0 -0.3487161462
C  C756  1  0.80700000  0.81150000  0.09100000  1.0 -0.3487161462
C  C757  1  0.30700000  0.68850000  0.09100000  1.0 -0.3487161462
C  C758  1  0.69300000  0.81150000  0.59100000  1.0 -0.3487161462
C  C759  1  0.80700000  0.31150000  0.40900000  1.0 -0.3487161462
C  C760  1  0.19300000  0.18850000  0.90900000  1.0 -0.3487161462
C  C761  1  0.63100000  0.37100000  0.91400000  1.0 -0.34167435
C  C762  1  0.36900000  0.12900000  0.41400000  1.0 -0.34167435
C  C763  1  0.13100000  0.62900000  0.58600000  1.0 -0.34167435
C  C764  1  0.86900000  0.87100000  0.08600000  1.0 -0.34167435
C  C765  1  0.36900000  0.62900000  0.08600000  1.0 -0.34167435
C  C766  1  0.63100000  0.87100000  0.58600000  1.0 -0.34167435
C  C767  1  0.86900000  0.37100000  0.41400000  1.0 -0.34167435
C  C768  1  0.13100000  0.12900000  0.91400000  1.0 -0.34167435
C  C769  1  0.21470000  0.68350000  0.85250000  1.0 0.317413898
C  C770  1  0.78530000  0.81650000  0.35250000  1.0 0.317413898
C  C771  1  0.71470000  0.31650000  0.64750000  1.0 0.317413898
C  C772  1  0.28530000  0.18350000  0.14750000  1.0 0.317413898
C  C773  1  0.78530000  0.31650000  0.14750000  1.0 0.317413898
C  C774  1  0.21470000  0.18350000  0.64750000  1.0 0.317413898
C  C775  1  0.28530000  0.68350000  0.35250000  1.0 0.317413898
C  C776  1  0.71470000  0.81650000  0.85250000  1.0 0.317413898
C  C777  1  0.22100000  0.71670000  0.80360000  1.0 -0.3202756192
C  C778  1  0.77900000  0.78330000  0.30360000  1.0 -0.3202756192
C  C779  1  0.72100000  0.28330000  0.69640000  1.0 -0.3202756192
C  C780  1  0.27900000  0.21670000  0.19640000  1.0 -0.3202756192
C  C781  1  0.77900000  0.28330000  0.19640000  1.0 -0.3202756192
C  C782  1  0.22100000  0.21670000  0.69640000  1.0 -0.3202756192
C  C783  1  0.27900000  0.71670000  0.30360000  1.0 -0.3202756192
C  C784  1  0.72100000  0.78330000  0.80360000  1.0 -0.3202756192
C  C785  1  0.22200000  0.74940000  0.85870000  1.0 -0.3305763619
C  C786  1  0.77800000  0.75060000  0.35870000  1.0 -0.3305763619
C  C787  1  0.72200000  0.25060000  0.64130000  1.0 -0.3305763619
C  C788  1  0.27800000  0.24940000  0.14130000  1.0 -0.3305763619
C  C789  1  0.77800000  0.25060000  0.14130000  1.0 -0.3305763619
C  C790  1  0.22200000  0.24940000  0.64130000  1.0 -0.3305763619
C  C791  1  0.27800000  0.74940000  0.35870000  1.0 -0.3305763619
C  C792  1  0.72200000  0.75060000  0.85870000  1.0 -0.3305763619
C  C793  1  0.06100000  0.65010000  0.91170000  1.0 0.4789900101
C  C794  1  0.93900000  0.84990000  0.41170000  1.0 0.4789900101
C  C795  1  0.56100000  0.34990000  0.58830000  1.0 0.4789900101
C  C796  1  0.43900000  0.15010000  0.08830000  1.0 0.4789900101
C  C797  1  0.93900000  0.34990000  0.08830000  1.0 0.4789900101
C  C798  1  0.06100000  0.15010000  0.58830000  1.0 0.4789900101
C  C799  1  0.43900000  0.65010000  0.41170000  1.0 0.4789900101
C  C800  1  0.56100000  0.84990000  0.91170000  1.0 0.4789900101
C  C801  1  0.21460000  0.64160000  0.99950000  1.0 0.5103874124
C  C802  1  0.78540000  0.85840000  0.49950000  1.0 0.5103874124
C  C803  1  0.71460000  0.35840000  0.50050000  1.0 0.5103874124
C  C804  1  0.28540000  0.14160000  0.00050000  1.0 0.5103874124
C  C805  1  0.78540000  0.35840000  0.00050000  1.0 0.5103874124
C  C806  1  0.21460000  0.14160000  0.50050000  1.0 0.5103874124
C  C807  1  0.28540000  0.64160000  0.49950000  1.0 0.5103874124
C  C808  1  0.71460000  0.85840000  0.99950000  1.0 0.5103874124
N  N1  1  0.60670000  0.64250000  0.11940000  1.0 -0.3796970889
N  N2  1  0.39330000  0.85750000  0.61940000  1.0 -0.3796970889
N  N3  1  0.10670000  0.35750000  0.38060000  1.0 -0.3796970889
N  N4  1  0.89330000  0.14250000  0.88060000  1.0 -0.3796970889
N  N5  1  0.39330000  0.35750000  0.88060000  1.0 -0.3796970889
N  N6  1  0.60670000  0.14250000  0.38060000  1.0 -0.3796970889
N  N7  1  0.89330000  0.64250000  0.61940000  1.0 -0.3796970889
N  N8  1  0.10670000  0.85750000  0.11940000  1.0 -0.3796970889
N  N9  1  0.65680000  0.58690000  0.03450000  1.0 -0.3487161462
N  N10  1  0.34320000  0.91310000  0.53450000  1.0 -0.3487161462
N  N11  1  0.15680000  0.41310000  0.46550000  1.0 -0.3487161462
N  N12  1  0.84320000  0.08690000  0.96550000  1.0 -0.3487161462
N  N13  1  0.34320000  0.41310000  0.96550000  1.0 -0.3487161462
N  N14  1  0.65680000  0.08690000  0.46550000  1.0 -0.3487161462
N  N15  1  0.84320000  0.58690000  0.53450000  1.0 -0.3487161462
N  N16  1  0.15680000  0.91310000  0.03450000  1.0 -0.3487161462
N  N17  1  0.12900000  0.44200000  0.84380000  1.0 -0.3305763619
N  N18  1  0.87100000  0.05800000  0.34380000  1.0 -0.3305763619
N  N19  1  0.62900000  0.55800000  0.65620000  1.0 -0.3305763619
N  N20  1  0.37100000  0.94200000  0.15620000  1.0 -0.3305763619
N  N21  1  0.87100000  0.55800000  0.15620000  1.0 -0.3305763619
N  N22  1  0.12900000  0.94200000  0.65620000  1.0 -0.3305763619
N  N23  1  0.37100000  0.44200000  0.34380000  1.0 -0.3305763619
N  N24  1  0.62900000  0.05800000  0.84380000  1.0 -0.3305763619
N  N25  1  0.49130000  0.55220000  0.04800000  1.0 -0.34167435
N  N26  1  0.50870000  0.94780000  0.54800000  1.0 -0.34167435
N  N27  1  0.99130000  0.44780000  0.45200000  1.0 -0.34167435
N  N28  1  0.00870000  0.05220000  0.95200000  1.0 -0.34167435
N  N29  1  0.50870000  0.44780000  0.95200000  1.0 -0.34167435
N  N30  1  0.49130000  0.05220000  0.45200000  1.0 -0.34167435
N  N31  1  0.00870000  0.55220000  0.54800000  1.0 -0.34167435
N  N32  1  0.99130000  0.94780000  0.04800000  1.0 -0.34167435
N  N33  1  0.64100000  0.33730000  0.80020000  1.0 -0.34167435
N  N34  1  0.35900000  0.16270000  0.30020000  1.0 -0.34167435
N  N35  1  0.14100000  0.66270000  0.69980000  1.0 -0.34167435
N  N36  1  0.85900000  0.83730000  0.19980000  1.0 -0.34167435
N  N37  1  0.35900000  0.66270000  0.19980000  1.0 -0.34167435
N  N38  1  0.64100000  0.83730000  0.69980000  1.0 -0.34167435
N  N39  1  0.85900000  0.33730000  0.30020000  1.0 -0.34167435
N  N40  1  0.14100000  0.16270000  0.80020000  1.0 -0.34167435
N  N41  1  0.18610000  0.48750000  0.75170000  1.0 -0.3669731699
N  N42  1  0.81390000  0.01250000  0.25170000  1.0 -0.3669731699
N  N43  1  0.68610000  0.51250000  0.74830000  1.0 -0.3669731699
N  N44  1  0.31390000  0.98750000  0.24830000  1.0 -0.3669731699
N  N45  1  0.81390000  0.51250000  0.24830000  1.0 -0.3669731699
N  N46  1  0.18610000  0.98750000  0.74830000  1.0 -0.3669731699
N  N47  1  0.31390000  0.48750000  0.25170000  1.0 -0.3669731699
N  N48  1  0.68610000  0.01250000  0.75170000  1.0 -0.3669731699
N  N49  1  0.07220000  0.76050000  0.83090000  1.0 -0.3487161462
N  N50  1  0.92780000  0.73950000  0.33090000  1.0 -0.3487161462
N  N51  1  0.57220000  0.23950000  0.66910000  1.0 -0.3487161462
N  N52  1  0.42780000  0.26050000  0.16910000  1.0 -0.3487161462
N  N53  1  0.92780000  0.23950000  0.16910000  1.0 -0.3487161462
N  N54  1  0.07220000  0.26050000  0.66910000  1.0 -0.3487161462
N  N55  1  0.42780000  0.76050000  0.33090000  1.0 -0.3487161462
N  N56  1  0.57220000  0.73950000  0.83090000  1.0 -0.3487161462
N  N57  1  0.67070000  0.69620000  0.76740000  1.0 -0.3487161462
N  N58  1  0.32930000  0.80380000  0.26740000  1.0 -0.3487161462
N  N59  1  0.17070000  0.30380000  0.73260000  1.0 -0.3487161462
N  N60  1  0.82930000  0.19620000  0.23260000  1.0 -0.3487161462
N  N61  1  0.32930000  0.30380000  0.23260000  1.0 -0.3487161462
N  N62  1  0.67070000  0.19620000  0.73260000  1.0 -0.3487161462
N  N63  1  0.82930000  0.69620000  0.26740000  1.0 -0.3487161462
N  N64  1  0.17070000  0.80380000  0.76740000  1.0 -0.3487161462
N  N65  1  0.20890000  0.77010000  0.96280000  1.0 0.0412651095
N  N66  1  0.79110000  0.72990000  0.46280000  1.0 0.0412651095
N  N67  1  0.70890000  0.22990000  0.53720000  1.0 0.0412651095
N  N68  1  0.29110000  0.27010000  0.03720000  1.0 0.0412651095
N  N69  1  0.79110000  0.22990000  0.03720000  1.0 0.0412651095
N  N70  1  0.20890000  0.27010000  0.53720000  1.0 0.0412651095
N  N71  1  0.29110000  0.77010000  0.46280000  1.0 0.0412651095
N  N72  1  0.70890000  0.72990000  0.96280000  1.0 0.0412651095
N  N73  1  0.99110000  0.54120000  0.95490000  1.0 0.0412651095
N  N74  1  0.00890000  0.95880000  0.45490000  1.0 0.0412651095
N  N75  1  0.49110000  0.45880000  0.54510000  1.0 0.0412651095
N  N76  1  0.50890000  0.04120000  0.04510000  1.0 0.0412651095
N  N77  1  0.00890000  0.45880000  0.04510000  1.0 0.0412651095
N  N78  1  0.99110000  0.04120000  0.54510000  1.0 0.0412651095
N  N79  1  0.50890000  0.54120000  0.45490000  1.0 0.0412651095
N  N80  1  0.49110000  0.95880000  0.95490000  1.0 0.0412651095
N  N81  1  0.95740000  0.84240000  0.00760000  1.0 0.0257343743
N  N82  1  0.04260000  0.65760000  0.50760000  1.0 0.0257343743
N  N83  1  0.45740000  0.15760000  0.49240000  1.0 0.0257343743
N  N84  1  0.54260000  0.34240000  0.99240000  1.0 0.0257343743
N  N85  1  0.04260000  0.15760000  0.99240000  1.0 0.0257343743
N  N86  1  0.95740000  0.34240000  0.49240000  1.0 0.0257343743
N  N87  1  0.54260000  0.84240000  0.50760000  1.0 0.0257343743
N  N88  1  0.45740000  0.65760000  0.00760000  1.0 0.0257343743
N  N89  1  0.53060000  0.45060000  0.86290000  1.0 0.0412651095
N  N90  1  0.46940000  0.04940000  0.36290000  1.0 0.0412651095
N  N91  1  0.03060000  0.54940000  0.63710000  1.0 0.0412651095
N  N92  1  0.96940000  0.95060000  0.13710000  1.0 0.0412651095
N  N93  1  0.46940000  0.54940000  0.13710000  1.0 0.0412651095
N  N94  1  0.53060000  0.95060000  0.63710000  1.0 0.0412651095
N  N95  1  0.96940000  0.45060000  0.36290000  1.0 0.0412651095
N  N96  1  0.03060000  0.04940000  0.86290000  1.0 0.0412651095
N  N97  1  0.77710000  0.60490000  0.74740000  1.0 0.0098908553
N  N98  1  0.22290000  0.89510000  0.24740000  1.0 0.0098908553
N  N99  1  0.27710000  0.39510000  0.75260000  1.0 0.0098908553
N  N100  1  0.72290000  0.10490000  0.25260000  1.0 0.0098908553
N  N101  1  0.22290000  0.39510000  0.25260000  1.0 0.0098908553
N  N102  1  0.77710000  0.10490000  0.75260000  1.0 0.0098908553
N  N103  1  0.72290000  0.60490000  0.24740000  1.0 0.0098908553
N  N104  1  0.27710000  0.89510000  0.74740000  1.0 0.0098908553
N  N105  1  0.84890000  0.66440000  0.88150000  1.0 0.049080801
N  N106  1  0.15110000  0.83560000  0.38150000  1.0 0.049080801
N  N107  1  0.34890000  0.33560000  0.61850000  1.0 0.049080801
N  N108  1  0.65110000  0.16440000  0.11850000  1.0 0.049080801
N  N109  1  0.15110000  0.33560000  0.11850000  1.0 0.049080801
N  N110  1  0.84890000  0.16440000  0.61850000  1.0 0.049080801
N  N111  1  0.65110000  0.66440000  0.38150000  1.0 0.049080801
N  N112  1  0.34890000  0.83560000  0.88150000  1.0 0.049080801
N  N113  1  0.68330000  0.53420000  0.14370000  1.0 0.0257343743
N  N114  1  0.31670000  0.96580000  0.64370000  1.0 0.0257343743
N  N115  1  0.18330000  0.46580000  0.35630000  1.0 0.0257343743
N  N116  1  0.81670000  0.03420000  0.85630000  1.0 0.0257343743
N  N117  1  0.31670000  0.46580000  0.85630000  1.0 0.0257343743
N  N118  1  0.68330000  0.03420000  0.35630000  1.0 0.0257343743
N  N119  1  0.81670000  0.53420000  0.64370000  1.0 0.0257343743
N  N120  1  0.18330000  0.96580000  0.14370000  1.0 0.0257343743
N  N121  1  0.69200000  0.35380000  0.90500000  1.0 0.049080801
N  N122  1  0.30800000  0.14620000  0.40500000  1.0 0.049080801
N  N123  1  0.19200000  0.64620000  0.59500000  1.0 0.049080801
N  N124  1  0.80800000  0.85380000  0.09500000  1.0 0.049080801
N  N125  1  0.30800000  0.64620000  0.09500000  1.0 0.049080801
N  N126  1  0.69200000  0.85380000  0.59500000  1.0 0.049080801
N  N127  1  0.80800000  0.35380000  0.40500000  1.0 0.049080801
N  N128  1  0.19200000  0.14620000  0.90500000  1.0 0.049080801
N  N129  1  0.22330000  0.71530000  0.83860000  1.0 0.0412651095
N  N130  1  0.77670000  0.78470000  0.33860000  1.0 0.0412651095
N  N131  1  0.72330000  0.28470000  0.66140000  1.0 0.0412651095
N  N132  1  0.27670000  0.21530000  0.16140000  1.0 0.0412651095
N  N133  1  0.77670000  0.28470000  0.16140000  1.0 0.0412651095
N  N134  1  0.22330000  0.21530000  0.66140000  1.0 0.0412651095
N  N135  1  0.27670000  0.71530000  0.33860000  1.0 0.0412651095
N  N136  1  0.72330000  0.78470000  0.83860000  1.0 0.0412651095
O  O1  1  0.83290000  0.75060000  0.03740000  1.0 -0.618969933
O  O2  1  0.16710000  0.74940000  0.53740000  1.0 -0.618969933
O  O3  1  0.33290000  0.24940000  0.46260000  1.0 -0.618969933
O  O4  1  0.66710000  0.25060000  0.96260000  1.0 -0.618969933
O  O5  1  0.16710000  0.24940000  0.96260000  1.0 -0.618969933
O  O6  1  0.83290000  0.25060000  0.46260000  1.0 -0.618969933
O  O7  1  0.66710000  0.75060000  0.53740000  1.0 -0.618969933
O  O8  1  0.33290000  0.74940000  0.03740000  1.0 -0.618969933
O  O9  1  0.84470000  0.70730000  0.07500000  1.0 -0.540739768
O  O10  1  0.15530000  0.79270000  0.57500000  1.0 -0.540739768
O  O11  1  0.34470000  0.29270000  0.42500000  1.0 -0.540739768
O  O12  1  0.65530000  0.20730000  0.92500000  1.0 -0.540739768
O  O13  1  0.15530000  0.29270000  0.92500000  1.0 -0.540739768
O  O14  1  0.84470000  0.20730000  0.42500000  1.0 -0.540739768
O  O15  1  0.65530000  0.70730000  0.57500000  1.0 -0.540739768
O  O16  1  0.34470000  0.79270000  0.07500000  1.0 -0.540739768
O  O17  1  0.54210000  0.77460000  0.03610000  1.0 -0.6773112839
O  O18  1  0.45790000  0.72540000  0.53610000  1.0 -0.6773112839
O  O19  1  0.04210000  0.22540000  0.46390000  1.0 -0.6773112839
O  O20  1  0.95790000  0.27460000  0.96390000  1.0 -0.6773112839
O  O21  1  0.45790000  0.22540000  0.96390000  1.0 -0.6773112839
O  O22  1  0.54210000  0.27460000  0.46390000  1.0 -0.6773112839
O  O23  1  0.95790000  0.77460000  0.53610000  1.0 -0.6773112839
O  O24  1  0.04210000  0.72540000  0.03610000  1.0 -0.6773112839
O  O25  1  0.62520000  0.80020000  0.01060000  1.0 -0.6609822992
O  O26  1  0.37480000  0.69980000  0.51060000  1.0 -0.6609822992
O  O27  1  0.12520000  0.19980000  0.48940000  1.0 -0.6609822992
O  O28  1  0.87480000  0.30020000  0.98940000  1.0 -0.6609822992
O  O29  1  0.37480000  0.19980000  0.98940000  1.0 -0.6609822992
O  O30  1  0.62520000  0.30020000  0.48940000  1.0 -0.6609822992
O  O31  1  0.87480000  0.80020000  0.51060000  1.0 -0.6609822992
O  O32  1  0.12520000  0.69980000  0.01060000  1.0 -0.6609822992
O  O33  1  0.88480000  0.67790000  0.01460000  1.0 -0.6053121371
O  O34  1  0.11520000  0.82210000  0.51460000  1.0 -0.6053121371
O  O35  1  0.38480000  0.32210000  0.48540000  1.0 -0.6053121371
O  O36  1  0.61520000  0.17790000  0.98540000  1.0 -0.6053121371
O  O37  1  0.11520000  0.32210000  0.98540000  1.0 -0.6053121371
O  O38  1  0.88480000  0.17790000  0.48540000  1.0 -0.6053121371
O  O39  1  0.61520000  0.67790000  0.51460000  1.0 -0.6053121371
O  O40  1  0.38480000  0.82210000  0.01460000  1.0 -0.6053121371
O  O41  1  0.95410000  0.64430000  0.98770000  1.0 -0.6773112839
O  O42  1  0.04590000  0.85570000  0.48770000  1.0 -0.6773112839
O  O43  1  0.45410000  0.35570000  0.51230000  1.0 -0.6773112839
O  O44  1  0.54590000  0.14430000  0.01230000  1.0 -0.6773112839
O  O45  1  0.04590000  0.35570000  0.01230000  1.0 -0.6773112839
O  O46  1  0.95410000  0.14430000  0.51230000  1.0 -0.6773112839
O  O47  1  0.54590000  0.64430000  0.48770000  1.0 -0.6773112839
O  O48  1  0.45410000  0.85570000  0.98770000  1.0 -0.6773112839
O  O49  1  0.77110000  0.53040000  0.91350000  1.0 -0.7113520846
O  O50  1  0.22890000  0.96960000  0.41350000  1.0 -0.7113520846
O  O51  1  0.27110000  0.46960000  0.58650000  1.0 -0.7113520846
O  O52  1  0.72890000  0.03040000  0.08650000  1.0 -0.7113520846
O  O53  1  0.22890000  0.46960000  0.08650000  1.0 -0.7113520846
O  O54  1  0.77110000  0.03040000  0.58650000  1.0 -0.7113520846
O  O55  1  0.72890000  0.53040000  0.41350000  1.0 -0.7113520846
O  O56  1  0.27110000  0.96960000  0.91350000  1.0 -0.7113520846
O  O57  1  0.84600000  0.56900000  0.89600000  1.0 -0.618969933
O  O58  1  0.15400000  0.93100000  0.39600000  1.0 -0.618969933
O  O59  1  0.34600000  0.43100000  0.60400000  1.0 -0.618969933
O  O60  1  0.65400000  0.06900000  0.10400000  1.0 -0.618969933
O  O61  1  0.15400000  0.43100000  0.10400000  1.0 -0.618969933
O  O62  1  0.84600000  0.06900000  0.60400000  1.0 -0.618969933
O  O63  1  0.65400000  0.56900000  0.39600000  1.0 -0.618969933
O  O64  1  0.34600000  0.93100000  0.89600000  1.0 -0.618969933
O  O65  1  0.82970000  0.45910000  0.90170000  1.0 -0.6053121371
O  O66  1  0.17030000  0.04090000  0.40170000  1.0 -0.6053121371
O  O67  1  0.32970000  0.54090000  0.59830000  1.0 -0.6053121371
O  O68  1  0.67030000  0.95910000  0.09830000  1.0 -0.6053121371
O  O69  1  0.17030000  0.54090000  0.09830000  1.0 -0.6053121371
O  O70  1  0.82970000  0.95910000  0.59830000  1.0 -0.6053121371
O  O71  1  0.67030000  0.45910000  0.40170000  1.0 -0.6053121371
O  O72  1  0.32970000  0.04090000  0.90170000  1.0 -0.6053121371
O  O73  1  0.88150000  0.49650000  0.86740000  1.0 -0.6508102797
O  O74  1  0.11850000  0.00350000  0.36740000  1.0 -0.6508102797
O  O75  1  0.38150000  0.50350000  0.63260000  1.0 -0.6508102797
O  O76  1  0.61850000  0.99650000  0.13260000  1.0 -0.6508102797
O  O77  1  0.11850000  0.50350000  0.13260000  1.0 -0.6508102797
O  O78  1  0.88150000  0.99650000  0.63260000  1.0 -0.6508102797
O  O79  1  0.61850000  0.49650000  0.36740000  1.0 -0.6508102797
O  O80  1  0.38150000  0.00350000  0.86740000  1.0 -0.6508102797
O  O81  1  0.95070000  0.36290000  0.96290000  1.0 -0.6926920944
O  O82  1  0.04930000  0.13710000  0.46290000  1.0 -0.6926920944
O  O83  1  0.45070000  0.63710000  0.53710000  1.0 -0.6926920944
O  O84  1  0.54930000  0.86290000  0.03710000  1.0 -0.6926920944
O  O85  1  0.04930000  0.63710000  0.03710000  1.0 -0.6926920944
O  O86  1  0.95070000  0.86290000  0.53710000  1.0 -0.6926920944
O  O87  1  0.54930000  0.36290000  0.46290000  1.0 -0.6926920944
O  O88  1  0.45070000  0.13710000  0.96290000  1.0 -0.6926920944
O  O89  1  0.03070000  0.33600000  0.93670000  1.0 -0.5765187456
O  O90  1  0.96930000  0.16400000  0.43670000  1.0 -0.5765187456
O  O91  1  0.53070000  0.66400000  0.56330000  1.0 -0.5765187456
O  O92  1  0.46930000  0.83600000  0.06330000  1.0 -0.5765187456
O  O93  1  0.96930000  0.66400000  0.06330000  1.0 -0.5765187456
O  O94  1  0.03070000  0.83600000  0.56330000  1.0 -0.5765187456
O  O95  1  0.46930000  0.33600000  0.43670000  1.0 -0.5765187456
O  O96  1  0.53070000  0.16400000  0.93670000  1.0 -0.5765187456
O  O97  1  0.64920000  0.50100000  0.93560000  1.0 -0.6508102797
O  O98  1  0.35080000  0.99900000  0.43560000  1.0 -0.6508102797
O  O99  1  0.14920000  0.49900000  0.56440000  1.0 -0.6508102797
O  O100  1  0.85080000  0.00100000  0.06440000  1.0 -0.6508102797
O  O101  1  0.35080000  0.49900000  0.06440000  1.0 -0.6508102797
O  O102  1  0.64920000  0.00100000  0.56440000  1.0 -0.6508102797
O  O103  1  0.85080000  0.50100000  0.43560000  1.0 -0.6508102797
O  O104  1  0.14920000  0.99900000  0.93560000  1.0 -0.6508102797
O  O105  1  0.71610000  0.45650000  0.94960000  1.0 -0.618969933
O  O106  1  0.28390000  0.04350000  0.44960000  1.0 -0.618969933
O  O107  1  0.21610000  0.54350000  0.55040000  1.0 -0.618969933
O  O108  1  0.78390000  0.95650000  0.05040000  1.0 -0.618969933
O  O109  1  0.28390000  0.54350000  0.05040000  1.0 -0.618969933
O  O110  1  0.71610000  0.95650000  0.55040000  1.0 -0.618969933
O  O111  1  0.78390000  0.45650000  0.44960000  1.0 -0.618969933
O  O112  1  0.21610000  0.04350000  0.94960000  1.0 -0.618969933
O  O113  1  0.63330000  0.41510000  0.09040000  1.0 -0.6609822992
O  O114  1  0.36670000  0.08490000  0.59040000  1.0 -0.6609822992
O  O115  1  0.13330000  0.58490000  0.40960000  1.0 -0.6609822992
O  O116  1  0.86670000  0.91510000  0.90960000  1.0 -0.6609822992
O  O117  1  0.36670000  0.58490000  0.90960000  1.0 -0.6609822992
O  O118  1  0.63330000  0.91510000  0.40960000  1.0 -0.6609822992
O  O119  1  0.86670000  0.41510000  0.59040000  1.0 -0.6609822992
O  O120  1  0.13330000  0.08490000  0.09040000  1.0 -0.6609822992
O  O121  1  0.71940000  0.40720000  0.06160000  1.0 -0.6609822992
O  O122  1  0.28060000  0.09280000  0.56160000  1.0 -0.6609822992
O  O123  1  0.21940000  0.59280000  0.43840000  1.0 -0.6609822992
O  O124  1  0.78060000  0.90720000  0.93840000  1.0 -0.6609822992
O  O125  1  0.28060000  0.59280000  0.93840000  1.0 -0.6609822992
O  O126  1  0.71940000  0.90720000  0.43840000  1.0 -0.6609822992
O  O127  1  0.78060000  0.40720000  0.56160000  1.0 -0.6609822992
O  O128  1  0.21940000  0.09280000  0.06160000  1.0 -0.6609822992
O  O129  1  0.75650000  0.47370000  0.84190000  1.0 -0.7456050151
O  O130  1  0.24350000  0.02630000  0.34190000  1.0 -0.7456050151
O  O131  1  0.25650000  0.52630000  0.65810000  1.0 -0.7456050151
O  O132  1  0.74350000  0.97370000  0.15810000  1.0 -0.7456050151
O  O133  1  0.24350000  0.52630000  0.15810000  1.0 -0.7456050151
O  O134  1  0.75650000  0.97370000  0.65810000  1.0 -0.7456050151
O  O135  1  0.74350000  0.47370000  0.34190000  1.0 -0.7456050151
O  O136  1  0.25650000  0.02630000  0.84190000  1.0 -0.7456050151
O  O137  1  0.82050000  0.49890000  0.80520000  1.0 -0.574202963
O  O138  1  0.17950000  0.00110000  0.30520000  1.0 -0.574202963
O  O139  1  0.32050000  0.50110000  0.69480000  1.0 -0.574202963
O  O140  1  0.67950000  0.99890000  0.19480000  1.0 -0.5765187456
O  O141  1  0.17950000  0.50110000  0.19480000  1.0 -0.574202963
O  O142  1  0.82050000  0.99890000  0.69480000  1.0 -0.5765187456
O  O143  1  0.67950000  0.49890000  0.30520000  1.0 -0.574202963
O  O144  1  0.32050000  0.00110000  0.80520000  1.0 -0.574202963
O  O145  1  0.83680000  0.43540000  0.69870000  1.0 -0.6773112839
O  O146  1  0.16320000  0.06460000  0.19870000  1.0 -0.6743109905
O  O147  1  0.33680000  0.56460000  0.80130000  1.0 -0.6743109905
O  O148  1  0.66320000  0.93540000  0.30130000  1.0 -0.6743109905
O  O149  1  0.16320000  0.56460000  0.30130000  1.0 -0.6743109905
O  O150  1  0.83680000  0.93540000  0.80130000  1.0 -0.6743109905
O  O151  1  0.66320000  0.43540000  0.19870000  1.0 -0.6773112839
O  O152  1  0.33680000  0.06460000  0.69870000  1.0 -0.6773112839
O  O153  1  0.80160000  0.37550000  0.69270000  1.0 -0.618969933
O  O154  1  0.19840000  0.12450000  0.19270000  1.0 -0.618969933
O  O155  1  0.30160000  0.62450000  0.80730000  1.0 -0.618969933
O  O156  1  0.69840000  0.87550000  0.30730000  1.0 -0.618969933
O  O157  1  0.19840000  0.62450000  0.30730000  1.0 -0.618969933
O  O158  1  0.80160000  0.87550000  0.80730000  1.0 -0.618969933
O  O159  1  0.69840000  0.37550000  0.19270000  1.0 -0.618969933
O  O160  1  0.30160000  0.12450000  0.69270000  1.0 -0.618969933
O  O161  1  0.95060000  0.53360000  0.81150000  1.0 -0.5765187456
O  O162  1  0.04940000  0.96640000  0.31150000  1.0 -0.5765187456
O  O163  1  0.45060000  0.46640000  0.68850000  1.0 -0.5765187456
O  O164  1  0.54940000  0.03360000  0.18850000  1.0 -0.5765187456
O  O165  1  0.04940000  0.46640000  0.18850000  1.0 -0.5765187456
O  O166  1  0.95060000  0.03360000  0.68850000  1.0 -0.5765187456
O  O167  1  0.54940000  0.53360000  0.31150000  1.0 -0.5765187456
O  O168  1  0.45060000  0.96640000  0.81150000  1.0 -0.5765187456
O  O169  1  0.96210000  0.56960000  0.85440000  1.0 -0.6267310463
O  O170  1  0.03790000  0.93040000  0.35440000  1.0 -0.6267310463
O  O171  1  0.46210000  0.43040000  0.64560000  1.0 -0.6267310463
O  O172  1  0.53790000  0.06960000  0.14560000  1.0 -0.6267310463
O  O173  1  0.03790000  0.43040000  0.14560000  1.0 -0.6267310463
O  O174  1  0.96210000  0.06960000  0.64560000  1.0 -0.6267310463
O  O175  1  0.53790000  0.56960000  0.35440000  1.0 -0.6267310463
O  O176  1  0.46210000  0.93040000  0.85440000  1.0 -0.6267310463
O  O177  1  0.17040000  0.59890000  0.89770000  1.0 -0.6359044992
O  O178  1  0.82960000  0.90110000  0.39770000  1.0 -0.6359044992
O  O179  1  0.67040000  0.40110000  0.60230000  1.0 -0.6359044992
O  O180  1  0.32960000  0.09890000  0.10230000  1.0 -0.6359044992
O  O181  1  0.82960000  0.40110000  0.10230000  1.0 -0.6359044992
O  O182  1  0.17040000  0.09890000  0.60230000  1.0 -0.6359044992
O  O183  1  0.32960000  0.59890000  0.39770000  1.0 -0.6359044992
O  O184  1  0.67040000  0.90110000  0.89770000  1.0 -0.6359044992
O  O185  1  0.25000000  0.58610000  0.86600000  1.0 -0.6773112839
O  O186  1  0.75000000  0.91390000  0.36600000  1.0 -0.6773112839
O  O187  1  0.75000000  0.41390000  0.63400000  1.0 -0.6773112839
O  O188  1  0.25000000  0.08610000  0.13400000  1.0 -0.6773112839
O  O189  1  0.75000000  0.41390000  0.13400000  1.0 -0.6773112839
O  O190  1  0.25000000  0.08610000  0.63400000  1.0 -0.6773112839
O  O191  1  0.25000000  0.58610000  0.36600000  1.0 -0.6773112839
O  O192  1  0.75000000  0.91390000  0.86600000  1.0 -0.6773112839
O  O193  1  0.94510000  0.74340000  0.98850000  1.0 -0.618969933
O  O194  1  0.05490000  0.75660000  0.48850000  1.0 -0.618969933
O  O195  1  0.44510000  0.25660000  0.51150000  1.0 -0.618969933
O  O196  1  0.55490000  0.24340000  0.01150000  1.0 -0.618969933
O  O197  1  0.05490000  0.25660000  0.01150000  1.0 -0.618969933
O  O198  1  0.94510000  0.24340000  0.51150000  1.0 -0.618969933
O  O199  1  0.55490000  0.74340000  0.48850000  1.0 -0.618969933
O  O200  1  0.44510000  0.75660000  0.98850000  1.0 -0.618969933
O  O201  1  0.02550000  0.71160000  0.96580000  1.0 -0.7316864931
O  O202  1  0.97450000  0.78840000  0.46580000  1.0 -0.7316864931
O  O203  1  0.52550000  0.28840000  0.53420000  1.0 -0.7316864931
O  O204  1  0.47450000  0.21160000  0.03420000  1.0 -0.7316864931
O  O205  1  0.97450000  0.28840000  0.03420000  1.0 -0.7316864931
O  O206  1  0.02550000  0.21160000  0.53420000  1.0 -0.7316864931
O  O207  1  0.47450000  0.71160000  0.46580000  1.0 -0.7316864931
O  O208  1  0.52550000  0.78840000  0.96580000  1.0 -0.7316864931
O  O209  1  0.81820000  0.82730000  0.92110000  1.0 -0.618969933
O  O210  1  0.18180000  0.67270000  0.42110000  1.0 -0.618969933
O  O211  1  0.31820000  0.17270000  0.57890000  1.0 -0.618969933
O  O212  1  0.68180000  0.32730000  0.07890000  1.0 -0.618969933
O  O213  1  0.18180000  0.17270000  0.07890000  1.0 -0.618969933
O  O214  1  0.81820000  0.32730000  0.57890000  1.0 -0.618969933
O  O215  1  0.68180000  0.82730000  0.42110000  1.0 -0.618969933
O  O216  1  0.31820000  0.67270000  0.92110000  1.0 -0.618969933
O  O217  1  0.84840000  0.84570000  0.87260000  1.0 -0.6773112839
O  O218  1  0.15160000  0.65430000  0.37260000  1.0 -0.6773112839
O  O219  1  0.34840000  0.15430000  0.62740000  1.0 -0.6773112839
O  O220  1  0.65160000  0.34570000  0.12740000  1.0 -0.6773112839
O  O221  1  0.15160000  0.15430000  0.12740000  1.0 -0.6773112839
O  O222  1  0.84840000  0.34570000  0.62740000  1.0 -0.6773112839
O  O223  1  0.65160000  0.84570000  0.37260000  1.0 -0.6773112839
O  O224  1  0.34840000  0.65430000  0.87260000  1.0 -0.6773112839
O  O225  1  0.67200000  0.52820000  0.86820000  1.0 -0.6053121371
O  O226  1  0.32800000  0.97180000  0.36820000  1.0 -0.6053121371
O  O227  1  0.17200000  0.47180000  0.63180000  1.0 -0.6053121371
O  O228  1  0.82800000  0.02820000  0.13180000  1.0 -0.6053121371
O  O229  1  0.32800000  0.47180000  0.13180000  1.0 -0.6053121371
O  O230  1  0.67200000  0.02820000  0.63180000  1.0 -0.6053121371
O  O231  1  0.82800000  0.52820000  0.36820000  1.0 -0.6053121371
O  O232  1  0.17200000  0.97180000  0.86820000  1.0 -0.6053121371
O  O233  1  0.74950000  0.55960000  0.84290000  1.0 -0.7113520846
O  O234  1  0.25050000  0.94040000  0.34290000  1.0 -0.7113520846
O  O235  1  0.24950000  0.44040000  0.65710000  1.0 -0.7113520846
O  O236  1  0.75050000  0.05960000  0.15710000  1.0 -0.7113520846
O  O237  1  0.25050000  0.44040000  0.15710000  1.0 -0.7113520846
O  O238  1  0.74950000  0.05960000  0.65710000  1.0 -0.7113520846
O  O239  1  0.75050000  0.55960000  0.34290000  1.0 -0.7113520846
O  O240  1  0.24950000  0.94040000  0.84290000  1.0 -0.7113520846
O  O241  1  0.46000000  0.57490000  0.85430000  1.0 -0.5950315081
O  O242  1  0.54000000  0.92510000  0.35430000  1.0 -0.5950315081
O  O243  1  0.96000000  0.42510000  0.64570000  1.0 -0.5950315081
O  O244  1  0.04000000  0.07490000  0.14570000  1.0 -0.5950315081
O  O245  1  0.54000000  0.42510000  0.14570000  1.0 -0.5950315081
O  O246  1  0.46000000  0.07490000  0.64570000  1.0 -0.5950315081
O  O247  1  0.04000000  0.57490000  0.35430000  1.0 -0.5950315081
O  O248  1  0.96000000  0.92510000  0.85430000  1.0 -0.5950315081
O  O249  1  0.43860000  0.62460000  0.82370000  1.0 -0.618969933
O  O250  1  0.56140000  0.87540000  0.32370000  1.0 -0.618969933
O  O251  1  0.93860000  0.37540000  0.67630000  1.0 -0.618969933
O  O252  1  0.06140000  0.12460000  0.17630000  1.0 -0.618969933
O  O253  1  0.56140000  0.37540000  0.17630000  1.0 -0.618969933
O  O254  1  0.43860000  0.12460000  0.67630000  1.0 -0.618969933
O  O255  1  0.06140000  0.62460000  0.32370000  1.0 -0.618969933
O  O256  1  0.93860000  0.87540000  0.82370000  1.0 -0.618969933
O  O257  1  0.20530000  0.71030000  0.94630000  1.0 -0.5765187456
O  O258  1  0.79470000  0.78970000  0.44630000  1.0 -0.5765187456
O  O259  1  0.70530000  0.28970000  0.55370000  1.0 -0.5765187456
O  O260  1  0.29470000  0.21030000  0.05370000  1.0 -0.5765187456
O  O261  1  0.79470000  0.28970000  0.05370000  1.0 -0.5765187456
O  O262  1  0.20530000  0.21030000  0.55370000  1.0 -0.5765187456
O  O263  1  0.29470000  0.71030000  0.44630000  1.0 -0.5765187456
O  O264  1  0.70530000  0.78970000  0.94630000  1.0 -0.5765187456
O  O265  1  0.05490000  0.58970000  0.97330000  1.0 -0.500913658
O  O266  1  0.94510000  0.91030000  0.47330000  1.0 -0.500913658
O  O267  1  0.55490000  0.41030000  0.52670000  1.0 -0.500913658
O  O268  1  0.44510000  0.08970000  0.02670000  1.0 -0.500913658
O  O269  1  0.94510000  0.41030000  0.02670000  1.0 -0.500913658
O  O270  1  0.05490000  0.08970000  0.52670000  1.0 -0.500913658
O  O271  1  0.44510000  0.58970000  0.47330000  1.0 -0.500913658
O  O272  1  0.55490000  0.91030000  0.97330000  1.0 -0.500913658
O  O273  1  0.95430000  0.79050000  0.04350000  1.0 -0.500913658
O  O274  1  0.04570000  0.70950000  0.54350000  1.0 -0.500913658
O  O275  1  0.45430000  0.20950000  0.45650000  1.0 -0.500913658
O  O276  1  0.54570000  0.29050000  0.95650000  1.0 -0.500913658
O  O277  1  0.04570000  0.20950000  0.95650000  1.0 -0.500913658
O  O278  1  0.95430000  0.29050000  0.45650000  1.0 -0.500913658
O  O279  1  0.54570000  0.79050000  0.54350000  1.0 -0.500913658
O  O280  1  0.45430000  0.70950000  0.04350000  1.0 -0.500913658
O  O281  1  0.63000000  0.45050000  0.87700000  1.0 -0.5288286329
O  O282  1  0.37000000  0.04950000  0.37700000  1.0 -0.5288286329
O  O283  1  0.13000000  0.54950000  0.62300000  1.0 -0.5288286329
O  O284  1  0.87000000  0.95050000  0.12300000  1.0 -0.5288286329
O  O285  1  0.37000000  0.54950000  0.12300000  1.0 -0.5288286329
O  O286  1  0.63000000  0.95050000  0.62300000  1.0 -0.5288286329
O  O287  1  0.87000000  0.45050000  0.37700000  1.0 -0.5288286329
O  O288  1  0.13000000  0.04950000  0.87700000  1.0 -0.5288286329
O  O289  1  0.84020000  0.57740000  0.78630000  1.0 -0.4700709068
O  O290  1  0.15980000  0.92260000  0.28630000  1.0 -0.4700709068
O  O291  1  0.34020000  0.42260000  0.71370000  1.0 -0.4700709068
O  O292  1  0.65980000  0.07740000  0.21370000  1.0 -0.4700709068
O  O293  1  0.15980000  0.42260000  0.21370000  1.0 -0.4700709068
O  O294  1  0.84020000  0.07740000  0.71370000  1.0 -0.4700709068
O  O295  1  0.65980000  0.57740000  0.28630000  1.0 -0.4700709068
O  O296  1  0.34020000  0.92260000  0.78630000  1.0 -0.4700709068
O  O297  1  0.84990000  0.61870000  0.84270000  1.0 -0.5288286329
O  O298  1  0.15010000  0.88130000  0.34270000  1.0 -0.5288286329
O  O299  1  0.34990000  0.38130000  0.65730000  1.0 -0.5288286329
O  O300  1  0.65010000  0.11870000  0.15730000  1.0 -0.5288286329
O  O301  1  0.15010000  0.38130000  0.15730000  1.0 -0.5288286329
O  O302  1  0.84990000  0.11870000  0.65730000  1.0 -0.5288286329
O  O303  1  0.65010000  0.61870000  0.34270000  1.0 -0.5288286329
O  O304  1  0.34990000  0.88130000  0.84270000  1.0 -0.5288286329
O  O305  1  0.65640000  0.47330000  0.13610000  1.0 -0.4832967602
O  O306  1  0.34360000  0.02670000  0.63610000  1.0 -0.4832967602
O  O307  1  0.15640000  0.52670000  0.36390000  1.0 -0.4832967602
O  O308  1  0.84360000  0.97330000  0.86390000  1.0 -0.4832967602
O  O309  1  0.34360000  0.52670000  0.86390000  1.0 -0.4832967602
O  O310  1  0.65640000  0.97330000  0.36390000  1.0 -0.4832967602
O  O311  1  0.84360000  0.47330000  0.63610000  1.0 -0.4832967602
O  O312  1  0.15640000  0.02670000  0.13610000  1.0 -0.4832967602
O  O313  1  0.73280000  0.40790000  0.89050000  1.0 -0.4596173361
O  O314  1  0.26720000  0.09210000  0.39050000  1.0 -0.4596173361
O  O315  1  0.23280000  0.59210000  0.60950000  1.0 -0.4596173361
O  O316  1  0.76720000  0.90790000  0.10950000  1.0 -0.4596173361
O  O317  1  0.26720000  0.59210000  0.10950000  1.0 -0.4596173361
O  O318  1  0.73280000  0.90790000  0.60950000  1.0 -0.4596173361
O  O319  1  0.76720000  0.40790000  0.39050000  1.0 -0.4596173361
O  O320  1  0.23280000  0.09210000  0.89050000  1.0 -0.4596173361
O  O321  1  0.20550000  0.67690000  0.88070000  1.0 -0.5288286329
O  O322  1  0.79450000  0.82310000  0.38070000  1.0 -0.5288286329
O  O323  1  0.70550000  0.32310000  0.61930000  1.0 -0.5288286329
O  O324  1  0.29450000  0.17690000  0.11930000  1.0 -0.5288286329
O  O325  1  0.79450000  0.32310000  0.11930000  1.0 -0.5288286329
O  O326  1  0.20550000  0.17690000  0.61930000  1.0 -0.5288286329
O  O327  1  0.29450000  0.67690000  0.38070000  1.0 -0.5288286329
O  O328  1  0.70550000  0.82310000  0.88070000  1.0 -0.5288286329
O  O329  1  0.96540000  0.73900000  0.09870000  1.0 -0.5110916205
O  O330  1  0.03460000  0.76100000  0.59870000  1.0 -0.5110916205
O  O331  1  0.46540000  0.26100000  0.40130000  1.0 -0.5110916205
O  O332  1  0.53460000  0.23900000  0.90130000  1.0 -0.5110916205
O  O333  1  0.03460000  0.26100000  0.90130000  1.0 -0.5110916205
O  O334  1  0.96540000  0.23900000  0.40130000  1.0 -0.5110916205
O  O335  1  0.53460000  0.73900000  0.59870000  1.0 -0.5110916205
O  O336  1  0.46540000  0.76100000  0.09870000  1.0 -0.5110916205
O  O337  1  0.11000000  0.65830000  0.93010000  1.0 -0.6926920944
O  O338  1  0.89000000  0.84170000  0.43010000  1.0 -0.6926920944
O  O339  1  0.61000000  0.34170000  0.56990000  1.0 -0.6926920944
O  O340  1  0.39000000  0.15830000  0.06990000  1.0 -0.6926920944
O  O341  1  0.89000000  0.34170000  0.06990000  1.0 -0.6926920944
O  O342  1  0.11000000  0.15830000  0.56990000  1.0 -0.6926920944
O  O343  1  0.39000000  0.65830000  0.43010000  1.0 -0.6926920944
O  O344  1  0.61000000  0.84170000  0.93010000  1.0 -0.6926920944
O  O345  1  0.01390000  0.64460000  0.92380000  1.0 -0.4346388214
O  O346  1  0.98610000  0.85540000  0.42380000  1.0 -0.4346388214
O  O347  1  0.51390000  0.35540000  0.57620000  1.0 -0.4346388214
O  O348  1  0.48610000  0.14460000  0.07620000  1.0 -0.4346388214
O  O349  1  0.98610000  0.35540000  0.07620000  1.0 -0.4346388214
O  O350  1  0.01390000  0.14460000  0.57620000  1.0 -0.4346388214
O  O351  1  0.48610000  0.64460000  0.42380000  1.0 -0.4346388214
O  O352  1  0.51390000  0.85540000  0.92380000  1.0 -0.4346388214
O  O353  1  0.16650000  0.63210000  0.98140000  1.0 -0.7248399936
O  O354  1  0.83350000  0.86790000  0.48140000  1.0 -0.7316864931
O  O355  1  0.66650000  0.36790000  0.51860000  1.0 -0.7248399936
O  O356  1  0.33350000  0.13210000  0.01860000  1.0 -0.7248399936
O  O357  1  0.83350000  0.36790000  0.01860000  1.0 -0.7248399936
O  O358  1  0.16650000  0.13210000  0.51860000  1.0 -0.7248399936
O  O359  1  0.33350000  0.63210000  0.48140000  1.0 -0.7248399936
O  O360  1  0.66650000  0.86790000  0.98140000  1.0 -0.7316864931
O  O361  1  0.26400000  0.65170000  0.98770000  1.0 -0.5288286329
O  O362  1  0.73600000  0.84830000  0.48770000  1.0 -0.5288286329
O  O363  1  0.76400000  0.34830000  0.51230000  1.0 -0.5288286329
O  O364  1  0.23600000  0.15170000  0.01230000  1.0 -0.5288286329
O  O365  1  0.73600000  0.34830000  0.01230000  1.0 -0.5288286329
O  O366  1  0.26400000  0.15170000  0.51230000  1.0 -0.5288286329
O  O367  1  0.23600000  0.65170000  0.48770000  1.0 -0.5288286329
O  O368  1  0.76400000  0.84830000  0.98770000  1.0 -0.5288286329
