# DDEC6 charges by PACMAN v1.1 (https://github.com/mtap-research/PACMAN-charge/)
data_DAMZEZ_FSR_pacman
_symmetry_space_group_name_H-M   'P 1'
_cell_length_a   10.34200000
_cell_length_b   15.07900000
_cell_length_c   25.11700000
_cell_angle_alpha   90.00000000
_cell_angle_beta   90.00000000
_cell_angle_gamma   90.00000000
_symmetry_Int_Tables_number   1
_chemical_formula_structural   CdH14C17N3O4
_chemical_formula_sum   'Cd8 H112 C136 N24 O32'
_cell_volume   3916.92125111
_cell_formula_units_Z   8
loop_
 _symmetry_equiv_pos_site_id
 _symmetry_equiv_pos_as_xyz
  1  'x, y, z'
loop_
 _atom_site_type_symbol
 _atom_site_label
 _atom_site_symmetry_multiplicity
 _atom_site_fract_x
 _atom_site_fract_y
 _atom_site_fract_z
 _atom_site_occupancy
 _atom_site_charge
Cd  Cd1  1  0.91212000  0.49974000  0.53666000  1.0 0.9330107866
Cd  Cd2  1  0.67163000  0.50591000  0.45596000  1.0 0.9330107866
Cd  Cd3  1  0.58788000  0.50026000  0.03666000  1.0 0.9330107866
Cd  Cd4  1  0.82837000  0.49409000  0.95596000  1.0 0.9351852435
Cd  Cd5  1  0.08788000  0.99974000  0.96334000  1.0 0.9330107866
Cd  Cd6  1  0.32837000  0.00591000  0.04404000  1.0 0.9351852435
Cd  Cd7  1  0.41212000  0.00026000  0.46334000  1.0 0.9330107866
Cd  Cd8  1  0.17163000  0.99409000  0.54404000  1.0 0.9330107866
H  H1  1  0.79890000  0.34270000  0.17110000  1.0 0.135931293
H  H2  1  0.09340000  0.16660000  0.17370000  1.0 0.128865323
H  H3  1  0.09310000  0.50050000  0.38630000  1.0 0.128865323
H  H4  1  0.15900000  0.40680000  0.38450000  1.0 0.1214765168
H  H5  1  0.94180000  0.24590000  0.03550000  1.0 0.135931293
H  H6  1  0.88360000  0.32870000  0.32620000  1.0 0.128865323
H  H7  1  0.96510000  0.50940000  0.30860000  1.0 0.1214765168
H  H8  1  0.32360000  0.41400000  0.29310000  1.0 0.1214765168
H  H9  1  0.15890000  0.14150000  0.33050000  1.0 0.128865323
H  H10  1  0.02200000  0.24580000  0.46710000  1.0 0.128865323
H  H11  1  0.27750000  0.63510000  0.35350000  1.0 0.128865323
H  H12  1  0.49350000  0.65390000  0.39130000  1.0 0.135931293
H  H13  1  0.93630000  0.49930000  0.21760000  1.0 0.1214765168
H  H14  1  0.09280000  0.40040000  0.12730000  1.0 0.1214765168
H  H15  1  0.02460000  0.49320000  0.13070000  1.0 0.128865323
H  H16  1  0.34970000  0.33640000  0.40390000  1.0 0.1090426046
H  H17  1  0.47030000  0.35530000  0.44000000  1.0 0.128865323
H  H18  1  0.29860000  0.40740000  0.20130000  1.0 0.1214765168
H  H19  1  0.32650000  0.40460000  0.50720000  1.0 0.1214765168
H  H20  1  0.31190000  0.30340000  0.49430000  1.0 0.1214765168
H  H21  1  0.21180000  0.37160000  0.47150000  1.0 0.1214765168
H  H22  1  0.13450000  0.37340000  0.02740000  1.0 0.1214765168
H  H23  1  0.22110000  0.29350000  0.00930000  1.0 0.128865323
H  H24  1  0.25390000  0.38990000  0.99020000  1.0 0.1214765168
H  H25  1  0.27560000  0.33080000  0.09660000  1.0 0.1090426046
H  H26  1  0.39420000  0.34980000  0.05940000  1.0 0.128865323
H  H27  1  0.19770000  0.63320000  0.13910000  1.0 0.1214765168
H  H28  1  0.40470000  0.65520000  0.09300000  1.0 0.128865323
H  H29  1  0.70110000  0.65730000  0.67110000  1.0 0.135931293
H  H30  1  0.40660000  0.83340000  0.67370000  1.0 0.128865323
H  H31  1  0.40690000  0.49950000  0.88630000  1.0 0.128865323
H  H32  1  0.34100000  0.59320000  0.88450000  1.0 0.1214765168
H  H33  1  0.55820000  0.75410000  0.53550000  1.0 0.135931293
H  H34  1  0.61640000  0.67130000  0.82620000  1.0 0.128865323
H  H35  1  0.53490000  0.49060000  0.80860000  1.0 0.1214765168
H  H36  1  0.17640000  0.58600000  0.79310000  1.0 0.1214765168
H  H37  1  0.34110000  0.85850000  0.83050000  1.0 0.128865323
H  H38  1  0.47800000  0.75420000  0.96710000  1.0 0.128865323
H  H39  1  0.22250000  0.36490000  0.85350000  1.0 0.128865323
H  H40  1  0.00650000  0.34610000  0.89130000  1.0 0.135931293
H  H41  1  0.56370000  0.50070000  0.71760000  1.0 0.1214765168
H  H42  1  0.40720000  0.59960000  0.62730000  1.0 0.1214765168
H  H43  1  0.47540000  0.50680000  0.63070000  1.0 0.128865323
H  H44  1  0.15030000  0.66360000  0.90390000  1.0 0.1090426046
H  H45  1  0.02970000  0.64470000  0.94000000  1.0 0.128865323
H  H46  1  0.20140000  0.59260000  0.70130000  1.0 0.1214765168
H  H47  1  0.17350000  0.59540000  0.00720000  1.0 0.1214765168
H  H48  1  0.18810000  0.69660000  0.99430000  1.0 0.1214765168
H  H49  1  0.28820000  0.62840000  0.97150000  1.0 0.1214765168
H  H50  1  0.36550000  0.62660000  0.52740000  1.0 0.1214765168
H  H51  1  0.27890000  0.70650000  0.50930000  1.0 0.128865323
H  H52  1  0.24610000  0.61010000  0.49020000  1.0 0.1214765168
H  H53  1  0.22440000  0.66920000  0.59660000  1.0 0.1090426046
H  H54  1  0.10580000  0.65020000  0.55940000  1.0 0.128865323
H  H55  1  0.30230000  0.36680000  0.63910000  1.0 0.1214765168
H  H56  1  0.09530000  0.34480000  0.59300000  1.0 0.128865323
H  H57  1  0.20110000  0.84270000  0.32890000  1.0 0.135931293
H  H58  1  0.90660000  0.66666667  0.32630000  1.0 0.128865323
H  H59  1  0.90690000  0.00050000  0.11370000  1.0 0.128865323
H  H60  1  0.84100000  0.90680000  0.11550000  1.0 0.1214765168
H  H61  1  0.05820000  0.74590000  0.46450000  1.0 0.135931293
H  H62  1  0.11640000  0.82870000  0.17380000  1.0 0.128865323
H  H63  1  0.03490000  0.00940000  0.19140000  1.0 0.1214765168
H  H64  1  0.67640000  0.91400000  0.20690000  1.0 0.1214765168
H  H65  1  0.84110000  0.64150000  0.16950000  1.0 0.128865323
H  H66  1  0.97800000  0.74580000  0.03290000  1.0 0.128865323
H  H67  1  0.72250000  0.13510000  0.14650000  1.0 0.128865323
H  H68  1  0.50650000  0.15390000  0.10870000  1.0 0.135931293
H  H69  1  0.06370000  0.99930000  0.28240000  1.0 0.1214765168
H  H70  1  0.90720000  0.90040000  0.37270000  1.0 0.1214765168
H  H71  1  0.97540000  0.99320000  0.36930000  1.0 0.128865323
H  H72  1  0.65030000  0.83640000  0.09610000  1.0 0.1090426046
H  H73  1  0.52970000  0.85530000  0.06000000  1.0 0.128865323
H  H74  1  0.70140000  0.90740000  0.29870000  1.0 0.1214765168
H  H75  1  0.67350000  0.90460000  0.99280000  1.0 0.1214765168
H  H76  1  0.68810000  0.80340000  0.00570000  1.0 0.1214765168
H  H77  1  0.78820000  0.87160000  0.02850000  1.0 0.1214765168
H  H78  1  0.86550000  0.87340000  0.47260000  1.0 0.1214765168
H  H79  1  0.77890000  0.79350000  0.49070000  1.0 0.128865323
H  H80  1  0.74610000  0.88990000  0.50980000  1.0 0.1214765168
H  H81  1  0.72440000  0.83080000  0.40340000  1.0 0.1090426046
H  H82  1  0.60580000  0.84980000  0.44060000  1.0 0.128865323
H  H83  1  0.80230000  0.13320000  0.36090000  1.0 0.1214765168
H  H84  1  0.59530000  0.15520000  0.40700000  1.0 0.128865323
H  H85  1  0.29890000  0.15730000  0.82890000  1.0 0.135931293
H  H86  1  0.59340000  0.33340000  0.82630000  1.0 0.128865323
H  H87  1  0.59310000  0.99950000  0.61370000  1.0 0.128865323
H  H88  1  0.65900000  0.09320000  0.61550000  1.0 0.1214765168
H  H89  1  0.44180000  0.25410000  0.96450000  1.0 0.135931293
H  H90  1  0.38360000  0.17130000  0.67380000  1.0 0.128865323
H  H91  1  0.46510000  0.99060000  0.69140000  1.0 0.1214765168
H  H92  1  0.82360000  0.08600000  0.70690000  1.0 0.1214765168
H  H93  1  0.65890000  0.35850000  0.66950000  1.0 0.128865323
H  H94  1  0.52200000  0.25420000  0.53290000  1.0 0.128865323
H  H95  1  0.77750000  0.86490000  0.64650000  1.0 0.128865323
H  H96  1  0.99350000  0.84610000  0.60870000  1.0 0.135931293
H  H97  1  0.43630000  0.00070000  0.78240000  1.0 0.1214765168
H  H98  1  0.59280000  0.09960000  0.87270000  1.0 0.1214765168
H  H99  1  0.52460000  0.00680000  0.86930000  1.0 0.128865323
H  H100  1  0.84970000  0.16360000  0.59610000  1.0 0.1090426046
H  H101  1  0.97030000  0.14470000  0.56000000  1.0 0.128865323
H  H102  1  0.79860000  0.09260000  0.79870000  1.0 0.1214765168
H  H103  1  0.82650000  0.09540000  0.49280000  1.0 0.1214765168
H  H104  1  0.81190000  0.19660000  0.50570000  1.0 0.128865323
H  H105  1  0.71180000  0.12840000  0.52850000  1.0 0.1214765168
H  H106  1  0.63450000  0.12660000  0.97260000  1.0 0.1214765168
H  H107  1  0.72110000  0.20650000  0.99070000  1.0 0.128865323
H  H108  1  0.75390000  0.11010000  0.00980000  1.0 0.1214765168
H  H109  1  0.77560000  0.16920000  0.90340000  1.0 0.1090426046
H  H110  1  0.89420000  0.15020000  0.94060000  1.0 0.128865323
H  H111  1  0.69770000  0.86680000  0.86090000  1.0 0.1214765168
H  H112  1  0.90470000  0.84480000  0.90700000  1.0 0.128865323
C  C1  1  0.17800000  0.11700000  0.43710000  1.0 0.5758427877
C  C2  1  0.02500000  0.19500000  0.10020000  1.0 -0.0087832222
C  C3  1  0.86000000  0.30600000  0.09930000  1.0 -0.0087832222
C  C4  1  0.87100000  0.37000000  0.42960000  1.0 0.5716582535
C  C5  1  0.94600000  0.30000000  0.40120000  1.0 -0.0314166209
C  C6  1  0.10200000  0.18100000  0.40480000  1.0 -0.0243351635
C  C7  1  0.02100000  0.23400000  0.32090000  1.0 0.1542419578
C  C8  1  0.85800000  0.30700000  0.15330000  1.0 -0.1774634397
C  C9  1  0.94600000  0.25500000  0.18270000  1.0 0.1570447135
C  C10  1  0.03200000  0.20000000  0.15520000  1.0 -0.1774634397
C  C11  1  0.16300000  0.46700000  0.37060000  1.0 -0.1600888547
C  C12  1  0.94300000  0.24800000  0.07250000  1.0 -0.1116291884
C  C13  1  0.94000000  0.29400000  0.34580000  1.0 -0.1774634397
C  C14  1  0.14600000  0.46400000  0.31000000  1.0 0.0884883629
C  C15  1  0.03200000  0.48900000  0.28730000  1.0 -0.1424373824
C  C16  1  0.24700000  0.43300000  0.27760000  1.0 -0.1424373824
C  C17  1  0.10300000  0.17900000  0.34870000  1.0 -0.1749433082
C  C18  1  0.38400000  0.46900000  0.41340000  1.0 0.2930162448
C  C19  1  0.11500000  0.45900000  0.19930000  1.0 0.0884883629
C  C20  1  0.02300000  0.24300000  0.43020000  1.0 -0.1116291884
C  C21  1  0.32500000  0.59300000  0.37260000  1.0 -0.1186805739
C  C22  1  0.44300000  0.60300000  0.39370000  1.0 -0.0314166209
C  C23  1  0.01600000  0.48500000  0.23230000  1.0 -0.1424373824
C  C24  1  0.10200000  0.46100000  0.14020000  1.0 -0.1600888547
C  C25  1  0.38300000  0.37400000  0.43220000  1.0 -0.2393045725
C  C26  1  0.23200000  0.42900000  0.22260000  1.0 -0.1424373824
C  C27  1  0.30100000  0.36200000  0.48060000  1.0 -0.348896968
C  C28  1  0.10500000  0.12600000  0.07020000  1.0 0.5716582535
C  C29  1  0.77700000  0.36900000  0.06740000  1.0 0.5716582535
C  C30  1  0.30800000  0.46300000  0.08600000  1.0 0.2845412094
C  C31  1  0.22100000  0.35500000  0.01920000  1.0 -0.348896968
C  C32  1  0.30700000  0.36800000  0.06790000  1.0 -0.2393045725
C  C33  1  0.24500000  0.59000000  0.12090000  1.0 -0.1116291884
C  C34  1  0.36000000  0.60200000  0.09540000  1.0 -0.0314166209
C  C35  1  0.32200000  0.88300000  0.93710000  1.0 0.5758427877
C  C36  1  0.47500000  0.80500000  0.60020000  1.0 -0.0087832222
C  C37  1  0.64000000  0.69400000  0.59930000  1.0 -0.0087832222
C  C38  1  0.62900000  0.63000000  0.92960000  1.0 0.5716582535
C  C39  1  0.55400000  0.70000000  0.90120000  1.0 -0.0314166209
C  C40  1  0.39800000  0.81900000  0.90480000  1.0 -0.0243351635
C  C41  1  0.47900000  0.76600000  0.82090000  1.0 0.1542419578
C  C42  1  0.64200000  0.69300000  0.65330000  1.0 -0.1774634397
C  C43  1  0.55400000  0.74500000  0.68270000  1.0 0.1570447135
C  C44  1  0.46800000  0.80000000  0.65520000  1.0 -0.1774634397
C  C45  1  0.33700000  0.53300000  0.87060000  1.0 -0.1600888547
C  C46  1  0.55700000  0.75200000  0.57250000  1.0 -0.1116291884
C  C47  1  0.56000000  0.70600000  0.84580000  1.0 -0.1774634397
C  C48  1  0.35400000  0.53600000  0.81000000  1.0 0.0884883629
C  C49  1  0.46800000  0.51100000  0.78730000  1.0 -0.1424373824
C  C50  1  0.25300000  0.56700000  0.77760000  1.0 -0.1424373824
C  C51  1  0.39700000  0.82100000  0.84870000  1.0 -0.1749433082
C  C52  1  0.11600000  0.53100000  0.91340000  1.0 0.2930162448
C  C53  1  0.38500000  0.54100000  0.69930000  1.0 0.0884883629
C  C54  1  0.47700000  0.75700000  0.93020000  1.0 -0.1116291884
C  C55  1  0.17500000  0.40700000  0.87260000  1.0 -0.1186805739
C  C56  1  0.05700000  0.39700000  0.89370000  1.0 -0.0314166209
C  C57  1  0.48400000  0.51500000  0.73230000  1.0 -0.1424373824
C  C58  1  0.39800000  0.53900000  0.64020000  1.0 -0.1600888547
C  C59  1  0.11700000  0.62600000  0.93220000  1.0 -0.2393045725
C  C60  1  0.26800000  0.57100000  0.72260000  1.0 -0.1424373824
C  C61  1  0.19900000  0.63800000  0.98060000  1.0 -0.348896968
C  C62  1  0.39500000  0.87400000  0.57020000  1.0 0.5716582535
C  C63  1  0.72300000  0.63100000  0.56740000  1.0 0.5716582535
C  C64  1  0.19200000  0.53700000  0.58600000  1.0 0.2845412094
C  C65  1  0.27900000  0.64500000  0.51920000  1.0 -0.348896968
C  C66  1  0.19300000  0.63200000  0.56790000  1.0 -0.2393045725
C  C67  1  0.25500000  0.41000000  0.62090000  1.0 -0.1116291884
C  C68  1  0.14000000  0.39800000  0.59540000  1.0 -0.0314166209
C  C69  1  0.82200000  0.61700000  0.06290000  1.0 0.5758427877
C  C70  1  0.97500000  0.69500000  0.39980000  1.0 -0.0087832222
C  C71  1  0.14000000  0.80600000  0.40070000  1.0 -0.0087832222
C  C72  1  0.12900000  0.87000000  0.07040000  1.0 0.5716582535
C  C73  1  0.05400000  0.80000000  0.09880000  1.0 -0.0314166209
C  C74  1  0.89800000  0.68100000  0.09520000  1.0 -0.0243351635
C  C75  1  0.97900000  0.73400000  0.17910000  1.0 0.1542419578
C  C76  1  0.14200000  0.80700000  0.34670000  1.0 -0.1774634397
C  C77  1  0.05400000  0.75500000  0.31730000  1.0 0.1570447135
C  C78  1  0.96800000  0.70000000  0.34480000  1.0 -0.1774634397
C  C79  1  0.83700000  0.96700000  0.12940000  1.0 -0.1600888547
C  C80  1  0.05700000  0.74800000  0.42750000  1.0 -0.1116291884
C  C81  1  0.06000000  0.79400000  0.15420000  1.0 -0.1774634397
C  C82  1  0.85400000  0.96400000  0.19000000  1.0 0.0884883629
C  C83  1  0.96800000  0.98900000  0.21270000  1.0 -0.1424373824
C  C84  1  0.75300000  0.93300000  0.22240000  1.0 -0.1424373824
C  C85  1  0.89700000  0.67900000  0.15130000  1.0 -0.1749433082
C  C86  1  0.61600000  0.96900000  0.08660000  1.0 0.2930162448
C  C87  1  0.88500000  0.95900000  0.30070000  1.0 0.0884883629
C  C88  1  0.97700000  0.74300000  0.06980000  1.0 -0.1116291884
C  C89  1  0.67500000  0.09300000  0.12740000  1.0 -0.1186805739
C  C90  1  0.55700000  0.10300000  0.10630000  1.0 -0.0314166209
C  C91  1  0.98400000  0.98500000  0.26770000  1.0 -0.1424373824
C  C92  1  0.89800000  0.96100000  0.35980000  1.0 -0.1600888547
C  C93  1  0.61700000  0.87400000  0.06780000  1.0 -0.2348594468
C  C94  1  0.76800000  0.92900000  0.27740000  1.0 -0.1424373824
C  C95  1  0.69900000  0.86200000  0.01940000  1.0 -0.348896968
C  C96  1  0.89500000  0.62600000  0.42980000  1.0 0.5716582535
C  C97  1  0.22300000  0.86900000  0.43260000  1.0 0.5716582535
C  C98  1  0.69200000  0.96300000  0.41400000  1.0 0.2845412094
C  C99  1  0.77900000  0.85500000  0.48080000  1.0 -0.348896968
C  C100  1  0.69300000  0.86800000  0.43210000  1.0 -0.2393045725
C  C101  1  0.75500000  0.09000000  0.37910000  1.0 -0.1116291884
C  C102  1  0.64000000  0.10200000  0.40460000  1.0 -0.0314166209
C  C103  1  0.67800000  0.38300000  0.56290000  1.0 0.5758427877
C  C104  1  0.52500000  0.30500000  0.89980000  1.0 -0.0087832222
C  C105  1  0.36000000  0.19400000  0.90070000  1.0 -0.0087832222
C  C106  1  0.37100000  0.13000000  0.57040000  1.0 0.5716582535
C  C107  1  0.44600000  0.20000000  0.59880000  1.0 -0.0314166209
C  C108  1  0.60200000  0.31900000  0.59520000  1.0 -0.0243351635
C  C109  1  0.52100000  0.26600000  0.67910000  1.0 0.1542419578
C  C110  1  0.35800000  0.19300000  0.84670000  1.0 -0.1774634397
C  C111  1  0.44600000  0.24500000  0.81730000  1.0 0.1570447135
C  C112  1  0.53200000  0.30000000  0.84480000  1.0 -0.1774634397
C  C113  1  0.66300000  0.03300000  0.62940000  1.0 -0.1600888547
C  C114  1  0.44300000  0.25200000  0.92750000  1.0 -0.1116291884
C  C115  1  0.44000000  0.20600000  0.65420000  1.0 -0.1774634397
C  C116  1  0.64600000  0.03600000  0.69000000  1.0 0.0884883629
C  C117  1  0.53200000  0.01100000  0.71270000  1.0 -0.1424373824
C  C118  1  0.74700000  0.06700000  0.72240000  1.0 -0.1424373824
C  C119  1  0.60300000  0.32100000  0.65130000  1.0 -0.1749433082
C  C120  1  0.88400000  0.03100000  0.58660000  1.0 0.2930162448
C  C121  1  0.61500000  0.04100000  0.80070000  1.0 0.0884883629
C  C122  1  0.52300000  0.25700000  0.56980000  1.0 -0.1116291884
C  C123  1  0.82500000  0.90700000  0.62740000  1.0 -0.1186805739
C  C124  1  0.94300000  0.89700000  0.60630000  1.0 -0.0314166209
C  C125  1  0.51600000  0.01500000  0.76770000  1.0 -0.1424373824
C  C126  1  0.60200000  0.03900000  0.85980000  1.0 -0.1600888547
C  C127  1  0.88300000  0.12600000  0.56780000  1.0 -0.2348594468
C  C128  1  0.73200000  0.07100000  0.77740000  1.0 -0.1424373824
C  C129  1  0.80100000  0.13800000  0.51940000  1.0 -0.348896968
C  C130  1  0.60500000  0.37400000  0.92980000  1.0 0.5716582535
C  C131  1  0.27700000  0.13100000  0.93260000  1.0 0.5716582535
C  C132  1  0.80800000  0.03700000  0.91400000  1.0 0.2845412094
C  C133  1  0.72100000  0.14500000  0.98080000  1.0 -0.348896968
C  C134  1  0.80700000  0.13200000  0.93210000  1.0 -0.2393045725
C  C135  1  0.74500000  0.91000000  0.87910000  1.0 -0.1116291884
C  C136  1  0.86000000  0.89800000  0.90460000  1.0 -0.0314166209
N  N1  1  0.28700000  0.50700000  0.38580000  1.0 -0.0030596305
N  N2  1  0.93800000  0.26160000  0.23910000  1.0 -0.1186805739
N  N3  1  0.48000000  0.52650000  0.41930000  1.0 -0.3594116446
N  N4  1  0.02800000  0.22480000  0.26340000  1.0 -0.1116291884
N  N5  1  0.21400000  0.50200000  0.11420000  1.0 -0.0030596305
N  N6  1  0.39900000  0.52280000  0.07380000  1.0 -0.3594116446
N  N7  1  0.21300000  0.49300000  0.88580000  1.0 -0.0030596305
N  N8  1  0.56200000  0.73840000  0.73910000  1.0 -0.1186805739
N  N9  1  0.02000000  0.47350000  0.91930000  1.0 -0.3594116446
N  N10  1  0.47200000  0.77520000  0.76340000  1.0 -0.1116291884
N  N11  1  0.28600000  0.49800000  0.61420000  1.0 -0.0030596305
N  N12  1  0.10100000  0.47720000  0.57380000  1.0 -0.3594116446
N  N13  1  0.71300000  0.00700000  0.11420000  1.0 -0.0030596305
N  N14  1  0.06200000  0.76160000  0.26090000  1.0 -0.1186805739
N  N15  1  0.52000000  0.02650000  0.08070000  1.0 -0.3594116446
N  N16  1  0.97200000  0.72480000  0.23660000  1.0 -0.1116291884
N  N17  1  0.78600000  0.00200000  0.38580000  1.0 -0.0030596305
N  N18  1  0.60100000  0.02280000  0.42620000  1.0 -0.3594116446
N  N19  1  0.78700000  0.99300000  0.61420000  1.0 -0.0030596305
N  N20  1  0.43800000  0.23840000  0.76090000  1.0 -0.1186805739
N  N21  1  0.98000000  0.97350000  0.58070000  1.0 -0.3594116446
N  N22  1  0.52800000  0.27520000  0.73660000  1.0 -0.1116291884
N  N23  1  0.71400000  0.99800000  0.88580000  1.0 -0.0030596305
N  N24  1  0.89900000  0.97720000  0.92620000  1.0 -0.3594116446
O  O1  1  0.13300000  0.09720000  0.48220000  1.0 -0.5652061206
O  O2  1  0.28100000  0.08800000  0.41720000  1.0 -0.539333294
O  O3  1  0.77300000  0.40140000  0.40800000  1.0 -0.5180500847
O  O4  1  0.91700000  0.39400000  0.47410000  1.0 -0.5798425328
O  O5  1  0.05400000  0.09740000  0.02870000  1.0 -0.5610032779
O  O6  1  0.21100000  0.10480000  0.09020000  1.0 -0.5276858014
O  O7  1  0.82800000  0.39670000  0.02460000  1.0 -0.5798425328
O  O8  1  0.66700000  0.38680000  0.08690000  1.0 -0.539333294
O  O9  1  0.36700000  0.90280000  0.98220000  1.0 -0.5652061206
O  O10  1  0.21900000  0.91200000  0.91720000  1.0 -0.539333294
O  O11  1  0.72700000  0.59860000  0.90800000  1.0 -0.5180500847
O  O12  1  0.58300000  0.60600000  0.97410000  1.0 -0.5798425328
O  O13  1  0.44600000  0.90260000  0.52870000  1.0 -0.5610032779
O  O14  1  0.28900000  0.89520000  0.59020000  1.0 -0.5276858014
O  O15  1  0.67200000  0.60330000  0.52460000  1.0 -0.5798425328
O  O16  1  0.83300000  0.61320000  0.58690000  1.0 -0.539333294
O  O17  1  0.86700000  0.59720000  0.01780000  1.0 -0.5652061206
O  O18  1  0.71900000  0.58800000  0.08280000  1.0 -0.539333294
O  O19  1  0.22700000  0.90140000  0.09200000  1.0 -0.5180500847
O  O20  1  0.08300000  0.89400000  0.02590000  1.0 -0.5798425328
O  O21  1  0.94600000  0.59740000  0.47130000  1.0 -0.5610032779
O  O22  1  0.78900000  0.60480000  0.40980000  1.0 -0.5276858014
O  O23  1  0.17200000  0.89670000  0.47540000  1.0 -0.5798425328
O  O24  1  0.33300000  0.88680000  0.41310000  1.0 -0.539333294
O  O25  1  0.63300000  0.40280000  0.51780000  1.0 -0.5652061206
O  O26  1  0.78100000  0.41200000  0.58280000  1.0 -0.539333294
O  O27  1  0.27300000  0.09860000  0.59200000  1.0 -0.5180500847
O  O28  1  0.41700000  0.10600000  0.52590000  1.0 -0.5798425328
O  O29  1  0.55400000  0.40260000  0.97130000  1.0 -0.5610032779
O  O30  1  0.71100000  0.39520000  0.90980000  1.0 -0.5276858014
O  O31  1  0.32800000  0.10330000  0.97540000  1.0 -0.5798425328
O  O32  1  0.16700000  0.11320000  0.91310000  1.0 -0.539333294
