# DDEC6 charges by PACMAN v1.1 (https://github.com/mtap-research/PACMAN-charge/)
data_DANLOW_ASR_pacman
_symmetry_space_group_name_H-M   'P 1'
_cell_length_a   17.34100000
_cell_length_b   19.52380000
_cell_length_c   23.13690000
_cell_angle_alpha   90.00000000
_cell_angle_beta   106.08900000
_cell_angle_gamma   90.00000000
_symmetry_Int_Tables_number   1
_chemical_formula_structural   Na2Cu4P5H40W30C32(N6O29)3
_chemical_formula_sum   'Na4 Cu8 P10 H80 W60 C64 N36 O174'
_cell_volume   7526.46916806
_cell_formula_units_Z   2
loop_
 _symmetry_equiv_pos_site_id
 _symmetry_equiv_pos_as_xyz
  1  'x, y, z'
loop_
 _atom_site_type_symbol
 _atom_site_label
 _atom_site_symmetry_multiplicity
 _atom_site_fract_x
 _atom_site_fract_y
 _atom_site_fract_z
 _atom_site_occupancy
 _atom_site_charge
Na  Na1  1  0.17140000  0.69590000  0.68030000  1.0 0.6602025363
Na  Na2  1  0.22390000  0.67560000  0.81850000  1.0 0.6679924163
Na  Na3  1  0.82860000  0.19590000  0.31970000  1.0 0.6602025363
Na  Na4  1  0.77610000  0.17560000  0.18150000  1.0 0.6679924163
Cu  Cu1  1  0.76070000  0.50990000  0.91223000  1.0 0.6096276822
Cu  Cu2  1  0.79070000  0.80949000  0.95207000  1.0 0.459330562
Cu  Cu3  1  0.70110000  0.80340000  0.76020000  1.0 0.7700501117
Cu  Cu4  1  0.69200000  0.57220000  0.73440000  1.0 0.6096276822
Cu  Cu5  1  0.23930000  0.00990000  0.08777000  1.0 0.6096276822
Cu  Cu6  1  0.20930000  0.30949000  0.04793000  1.0 0.4664028618
Cu  Cu7  1  0.29890000  0.30340000  0.23980000  1.0 0.7700501117
Cu  Cu8  1  0.30800000  0.07220000  0.26560000  1.0 0.6096276822
P  P1  1  0.35530000  0.58280000  0.73900000  1.0 1.3575412664
P  P2  1  0.36420000  0.78980000  0.76210000  1.0 1.399568859
P  P3  1  0.12770000  0.51980000  0.72970000  1.0 1.424594942
P  P4  1  0.99670000  0.68700000  0.75020000  1.0 1.4123435351
P  P5  1  0.14180000  0.85490000  0.76920000  1.0 1.4123435351
P  P6  1  0.64470000  0.08280000  0.26100000  1.0 1.3660828504
P  P7  1  0.63580000  0.28980000  0.23790000  1.0 1.399568859
P  P8  1  0.87230000  0.01980000  0.27030000  1.0 1.4285771283
P  P9  1  0.00330000  0.18700000  0.24980000  1.0 1.4123435351
P  P10  1  0.85820000  0.35490000  0.23080000  1.0 1.4123435351
H  H1  1  0.62360000  0.39610000  0.86520000  1.0 0.0977583899
H  H2  1  0.83320000  0.40700000  0.83610000  1.0 0.0891648324
H  H3  1  0.57400000  0.30010000  0.79750000  1.0 0.0977583899
H  H4  1  0.63210000  0.26440000  0.76630000  1.0 0.0977583899
H  H5  1  0.59850000  0.04320000  0.87710000  1.0 0.0977583899
H  H6  1  0.66070000  0.08660000  0.85470000  1.0 0.0777002421
H  H7  1  0.87190000  0.93670000  0.91180000  1.0 0.0891648324
H  H8  1  0.65150000  0.91900000  0.92620000  1.0 0.1107232812
H  H9  1  0.82200000  0.93080000  0.76060000  1.0 0.0977583899
H  H10  1  0.58310000  0.93790000  0.74310000  1.0 0.1107232812
H  H11  1  0.85300000  0.05690000  0.76350000  1.0 0.0891648324
H  H12  1  0.80090000  0.09490000  0.79960000  1.0 0.0891648324
H  H13  1  0.78420000  0.10480000  0.67450000  1.0 0.0777002421
H  H14  1  0.70610000  0.11530000  0.69570000  1.0 0.0696046696
H  H15  1  0.79250000  0.19750000  0.77080000  1.0 0.0696046696
H  H16  1  0.84520000  0.19960000  0.72520000  1.0 0.0696046696
H  H17  1  0.70520000  0.26920000  0.71110000  1.0 0.0501142438
H  H18  1  0.68800000  0.21350000  0.65970000  1.0 0.0696046696
H  H19  1  0.82250000  0.30440000  0.68150000  1.0 0.0891648324
H  H20  1  0.79760000  0.25300000  0.62700000  1.0 0.0777002421
H  H21  1  0.74510000  0.36300000  0.59250000  1.0 0.0891648324
H  H22  1  0.67220000  0.31390000  0.59050000  1.0 0.0891648324
H  H23  1  0.56950000  0.44160000  0.70210000  1.0 0.127818187
H  H24  1  0.78190000  0.44850000  0.68210000  1.0 0.1107232812
H  H25  1  0.85880000  0.57460000  0.04000000  1.0 0.0891648324
H  H26  1  0.74450000  0.66900000  0.89020000  1.0 0.127818187
H  H27  1  0.86790000  0.75210000  0.08250000  1.0 0.0891648324
H  H28  1  0.94510000  0.71540000  0.07510000  1.0 0.0977583899
H  H29  1  0.84190000  0.66460000  0.13430000  1.0 0.0777002421
H  H30  1  0.91480000  0.62370000  0.12380000  1.0 0.0891648324
H  H31  1  0.00650000  0.69230000  0.18720000  1.0 0.0777002421
H  H32  1  0.94410000  0.75170000  0.18340000  1.0 0.0696046696
H  H33  1  0.93850000  0.62230000  0.25020000  1.0 0.0777002421
H  H34  1  0.87340000  0.68000000  0.24480000  1.0 0.0696046696
H  H35  1  0.03690000  0.70000000  0.29800000  1.0 0.0777002421
H  H36  1  0.97020000  0.75500000  0.29500000  1.0 0.0977583899
H  H37  1  0.97540000  0.63210000  0.35920000  1.0 0.0891648324
H  H38  1  0.92080000  0.69520000  0.36190000  1.0 0.0891648324
H  H39  1  0.97400000  0.77790000  0.44820000  1.0 0.0891648324
H  H40  1  0.20820000  0.71870000  0.49200000  1.0 0.0501142438
H  H41  1  0.37640000  0.89610000  0.13480000  1.0 0.0977583899
H  H42  1  0.16680000  0.90700000  0.16390000  1.0 0.0891648324
H  H43  1  0.42600000  0.80010000  0.20250000  1.0 0.0977583899
H  H44  1  0.36790000  0.76440000  0.23370000  1.0 0.0977583899
H  H45  1  0.40150000  0.54320000  0.12290000  1.0 0.0977583899
H  H46  1  0.33930000  0.58660000  0.14530000  1.0 0.0777002421
H  H47  1  0.12810000  0.43670000  0.08820000  1.0 0.0891648324
H  H48  1  0.34850000  0.41900000  0.07380000  1.0 0.1107232812
H  H49  1  0.17800000  0.43080000  0.23940000  1.0 0.0977583899
H  H50  1  0.41690000  0.43790000  0.25690000  1.0 0.1217824365
H  H51  1  0.14700000  0.55690000  0.23650000  1.0 0.0891648324
H  H52  1  0.19910000  0.59490000  0.20040000  1.0 0.0891648324
H  H53  1  0.21580000  0.60480000  0.32550000  1.0 0.0777002421
H  H54  1  0.29390000  0.61530000  0.30430000  1.0 0.0777002421
H  H55  1  0.20750000  0.69750000  0.22920000  1.0 0.0696046696
H  H56  1  0.15480000  0.69960000  0.27480000  1.0 0.0696046696
H  H57  1  0.29480000  0.76920000  0.28890000  1.0 0.0501142438
H  H58  1  0.31200000  0.71350000  0.34030000  1.0 0.0645913365
H  H59  1  0.17750000  0.80440000  0.31850000  1.0 0.0891648324
H  H60  1  0.20240000  0.75300000  0.37300000  1.0 0.0777002421
H  H61  1  0.25490000  0.86300000  0.40750000  1.0 0.0891648324
H  H62  1  0.32780000  0.81390000  0.40950000  1.0 0.0891648324
H  H63  1  0.43050000  0.94160000  0.29790000  1.0 0.1217824365
H  H64  1  0.21810000  0.94850000  0.31790000  1.0 0.1107232812
H  H65  1  0.14120000  0.07460000  0.96000000  1.0 0.0891648324
H  H66  1  0.25550000  0.16900000  0.10980000  1.0 0.127818187
H  H67  1  0.13210000  0.25210000  0.91750000  1.0 0.0891648324
H  H68  1  0.05490000  0.21540000  0.92490000  1.0 0.0977583899
H  H69  1  0.15810000  0.16460000  0.86570000  1.0 0.0777002421
H  H70  1  0.08520000  0.12370000  0.87620000  1.0 0.0891648324
H  H71  1  0.99350000  0.19230000  0.81280000  1.0 0.0777002421
H  H72  1  0.05590000  0.25170000  0.81660000  1.0 0.0696046696
H  H73  1  0.06150000  0.12230000  0.74980000  1.0 0.0777002421
H  H74  1  0.12660000  0.18000000  0.75520000  1.0 0.0696046696
H  H75  1  0.96310000  0.20000000  0.70200000  1.0 0.0777002421
H  H76  1  0.02980000  0.25500000  0.70500000  1.0 0.0977583899
H  H77  1  0.02460000  0.13210000  0.64080000  1.0 0.0891648324
H  H78  1  0.07920000  0.19520000  0.63810000  1.0 0.0891648324
H  H79  1  0.02600000  0.27790000  0.55180000  1.0 0.0891648324
H  H80  1  0.79180000  0.21870000  0.50800000  1.0 0.0501142438
W  W1  1  0.18541000  0.00946000  0.71093000  1.0 2.4009327325
W  W2  1  0.15872000  0.38705000  0.64098000  1.0 2.4187920211
W  W3  1  0.50069000  0.60138000  0.66478000  1.0 2.4399642977
W  W4  1  0.23620000  0.98702000  0.85791000  1.0 2.3898299607
W  W5  1  0.88712000  0.57952000  0.81174000  1.0 2.4106003674
W  W6  1  0.56300000  0.77231000  0.83647000  1.0 2.4399642977
W  W7  1  0.89509000  0.77107000  0.83513000  1.0 2.3898299607
W  W8  1  0.84241000  0.79589000  0.68554000  1.0 2.4399642977
W  W9  1  0.42123000  0.42346000  0.79536000  1.0 2.4187920211
W  W10  1  0.97671000  0.95335000  0.70581000  1.0 2.2547959718
W  W11  1  0.44180000  0.92618000  0.85255000  1.0 2.4284741554
W  W12  1  0.55402000  0.57886000  0.81471000  1.0 2.4284741554
W  W13  1  0.02877000  0.92852000  0.85300000  1.0 2.290729228
W  W14  1  0.83220000  0.60232000  0.66246000  1.0 2.4009327325
W  W15  1  0.00655000  0.42187000  0.79341000  1.0 2.268801156
W  W16  1  0.21088000  0.36391000  0.78830000  1.0 2.4009327325
W  W17  1  0.20358000  0.81920000  0.91948000  1.0 2.4009327325
W  W18  1  0.40467000  0.75838000  0.91342000  1.0 2.4462150964
W  W19  1  0.36867000  0.44612000  0.64786000  1.0 2.492627167
W  W20  1  0.50668000  0.79344000  0.68556000  1.0 2.4399642977
W  W21  1  0.96000000  0.70929000  0.59685000  1.0 2.4106003674
W  W22  1  0.38951000  0.94845000  0.70482000  1.0 2.4845003518
W  W23  1  0.29189000  0.80378000  0.60957000  1.0 2.4106003674
W  W24  1  0.18733000  0.50798000  0.88383000  1.0 2.3812153571
W  W25  1  0.39326000  0.56768000  0.89062000  1.0 2.4399642977
W  W26  1  0.95359000  0.44501000  0.64592000  1.0 2.3226034078
W  W27  1  0.07763000  0.55465000  0.57949000  1.0 2.4187920211
W  W28  1  0.28586000  0.61365000  0.58784000  1.0 2.4284741554
W  W29  1  0.08954000  0.86508000  0.61654000  1.0 2.4187920211
W  W30  1  0.07254000  0.66388000  0.90226000  1.0 2.3745493326
W  W31  1  0.81459000  0.50946000  0.28907000  1.0 2.4106003674
W  W32  1  0.84128000  0.88705000  0.35902000  1.0 2.4284741554
W  W33  1  0.49931000  0.10138000  0.33522000  1.0 2.4284741554
W  W34  1  0.76380000  0.48702000  0.14209000  1.0 2.3898299607
W  W35  1  0.11288000  0.07952000  0.18826000  1.0 2.4106003674
W  W36  1  0.43700000  0.27231000  0.16353000  1.0 2.4399642977
W  W37  1  0.10491000  0.27107000  0.16487000  1.0 2.3898299607
W  W38  1  0.15759000  0.29589000  0.31446000  1.0 2.4399642977
W  W39  1  0.57877000  0.92346000  0.20464000  1.0 2.4187920211
W  W40  1  0.02329000  0.45335000  0.29419000  1.0 2.2547959718
W  W41  1  0.55820000  0.42618000  0.14745000  1.0 2.4284741554
W  W42  1  0.44598000  0.07886000  0.18529000  1.0 2.4284741554
W  W43  1  0.97123000  0.42852000  0.14700000  1.0 2.3065149221
W  W44  1  0.16780000  0.10232000  0.33754000  1.0 2.4009327325
W  W45  1  0.99345000  0.92187000  0.20659000  1.0 2.2816149625
W  W46  1  0.78912000  0.86391000  0.21170000  1.0 2.3898299607
W  W47  1  0.79642000  0.31920000  0.08052000  1.0 2.4009327325
W  W48  1  0.59533000  0.25838000  0.08658000  1.0 2.4462150964
W  W49  1  0.63133000  0.94612000  0.35214000  1.0 2.492627167
W  W50  1  0.49332000  0.29344000  0.31444000  1.0 2.4284741554
W  W51  1  0.04000000  0.20929000  0.40315000  1.0 2.4009327325
W  W52  1  0.61049000  0.44845000  0.29518000  1.0 2.492627167
W  W53  1  0.70811000  0.30378000  0.39043000  1.0 2.4187920211
W  W54  1  0.81267000  0.00798000  0.11617000  1.0 2.3812153571
W  W55  1  0.60674000  0.06768000  0.10938000  1.0 2.4399642977
W  W56  1  0.04641000  0.94501000  0.35408000  1.0 2.3065149221
W  W57  1  0.92237000  0.05465000  0.42051000  1.0 2.4284741554
W  W58  1  0.71414000  0.11365000  0.41216000  1.0 2.4284741554
W  W59  1  0.91046000  0.36508000  0.38346000  1.0 2.4187920211
W  W60  1  0.92746000  0.16388000  0.09774000  1.0 2.3812153571
C  C1  1  0.66900000  0.38740000  0.85260000  1.0 0.0105983722
C  C2  1  0.78300000  0.39140000  0.83720000  1.0 0.1217824365
C  C3  1  0.62800000  0.28180000  0.80460000  1.0 -0.1919461555
C  C4  1  0.63400000  0.21970000  0.84670000  1.0 -0.0515088695
C  C5  1  0.65200000  0.23700000  0.91400000  1.0 -0.0266309199
C  C6  1  0.62100000  0.17800000  0.94600000  1.0 -0.1798661617
C  C7  1  0.66300000  0.10940000  0.94260000  1.0 0.0777002421
C  C8  1  0.65300000  0.06090000  0.88850000  1.0 -0.2120963451
C  C9  1  0.81900000  0.94640000  0.91060000  1.0 0.0891648324
C  C10  1  0.69800000  0.93580000  0.91900000  1.0 0.0105983722
C  C11  1  0.77000000  0.94530000  0.75930000  1.0 0.0696046696
C  C12  1  0.63700000  0.95060000  0.75030000  1.0 0.0977583899
C  C13  1  0.79900000  0.07090000  0.76250000  1.0 -0.1919461555
C  C14  1  0.76400000  0.11800000  0.70810000  1.0 -0.2205877756
C  C15  1  0.79200000  0.19100000  0.72910000  1.0 -0.2120963451
C  C16  1  0.73000000  0.23970000  0.68750000  1.0 -0.2205877756
C  C17  1  0.77700000  0.28200000  0.65340000  1.0 -0.2389301327
C  C18  1  0.71900000  0.33580000  0.61680000  1.0 -0.1632512253
C  C19  1  0.61500000  0.42890000  0.69130000  1.0 0.0977583899
C  C20  1  0.73000000  0.43600000  0.68310000  1.0 0.0777002421
C  C21  1  0.83500000  0.60900000  0.01300000  1.0 0.0213014442
C  C22  1  0.77200000  0.66040000  0.93010000  1.0 0.1544182333
C  C23  1  0.89100000  0.70780000  0.07840000  1.0 -0.1919461555
C  C24  1  0.89500000  0.66920000  0.12900000  1.0 -0.2205877756
C  C25  1  0.95100000  0.70230000  0.18530000  1.0 -0.2295525041
C  C26  1  0.92900000  0.67130000  0.24700000  1.0 -0.2504476708
C  C27  1  0.98200000  0.70630000  0.29870000  1.0 -0.2504476708
C  C28  1  0.97300000  0.68170000  0.35850000  1.0 -0.1343177412
C  C29  1  0.02100000  0.75650000  0.44640000  1.0 -0.0206379732
C  C30  1  0.15400000  0.72280000  0.47170000  1.0 0.0777002421
C  C31  1  0.70700000  0.20400000  0.89700000  1.0 -0.0759950843
C  C32  1  0.73300000  0.16000000  0.95400000  1.0 -0.1980552641
C  C33  1  0.33100000  0.88740000  0.14740000  1.0 0.0105983722
C  C34  1  0.21700000  0.89140000  0.16280000  1.0 0.1217824365
C  C35  1  0.37200000  0.78180000  0.19540000  1.0 -0.1919461555
C  C36  1  0.36600000  0.71970000  0.15330000  1.0 -0.0515088695
C  C37  1  0.34800000  0.73700000  0.08600000  1.0 -0.0266309199
C  C38  1  0.37900000  0.67800000  0.05400000  1.0 -0.1798661617
C  C39  1  0.33700000  0.60940000  0.05740000  1.0 0.0777002421
C  C40  1  0.34700000  0.56090000  0.11150000  1.0 -0.2120963451
C  C41  1  0.18100000  0.44640000  0.08940000  1.0 0.0891648324
C  C42  1  0.30200000  0.43580000  0.08100000  1.0 0.0105983722
C  C43  1  0.23000000  0.44530000  0.24070000  1.0 0.0696046696
C  C44  1  0.36300000  0.45060000  0.24970000  1.0 0.0977583899
C  C45  1  0.20100000  0.57090000  0.23750000  1.0 -0.1919461555
C  C46  1  0.23600000  0.61800000  0.29190000  1.0 -0.2205877756
C  C47  1  0.20800000  0.69100000  0.27090000  1.0 -0.2120963451
C  C48  1  0.27000000  0.73970000  0.31250000  1.0 -0.2205877756
C  C49  1  0.22300000  0.78200000  0.34660000  1.0 -0.2389301327
C  C50  1  0.28100000  0.83580000  0.38320000  1.0 -0.1632512253
C  C51  1  0.38500000  0.92890000  0.30870000  1.0 0.0977583899
C  C52  1  0.27000000  0.93600000  0.31690000  1.0 0.0777002421
C  C53  1  0.16500000  0.10900000  0.98700000  1.0 0.0213014442
C  C54  1  0.22800000  0.16040000  0.06990000  1.0 0.1544182333
C  C55  1  0.10900000  0.20780000  0.92160000  1.0 -0.1919461555
C  C56  1  0.10500000  0.16920000  0.87100000  1.0 -0.2205877756
C  C57  1  0.04900000  0.20230000  0.81470000  1.0 -0.2295525041
C  C58  1  0.07100000  0.17130000  0.75300000  1.0 -0.2504476708
C  C59  1  0.01800000  0.20630000  0.70130000  1.0 -0.2504476708
C  C60  1  0.02700000  0.18170000  0.64150000  1.0 -0.1343177412
C  C61  1  0.97900000  0.25650000  0.55360000  1.0 -0.0206379732
C  C62  1  0.84600000  0.22280000  0.52830000  1.0 0.0777002421
C  C63  1  0.29300000  0.70400000  0.10300000  1.0 -0.0759950843
C  C64  1  0.26700000  0.66000000  0.04600000  1.0 -0.1980552641
N  N1  1  0.73740000  0.42650000  0.86510000  1.0 -0.3506183144
N  N2  1  0.68000000  0.33570000  0.81970000  1.0 0.1443100455
N  N3  1  0.75300000  0.33390000  0.81140000  1.0 -0.2900880244
N  N4  1  0.76850000  0.90070000  0.92290000  1.0 -0.3339797822
N  N5  1  0.78400000  0.00800000  0.89640000  1.0 -0.257512052
N  N6  1  0.71200000  0.00040000  0.90240000  1.0 0.170237619
N  N7  1  0.70600000  0.90630000  0.76080000  1.0 -0.3848969308
N  N8  1  0.74300000  0.00740000  0.75550000  1.0 0.1572183254
N  N9  1  0.66700000  0.01390000  0.75340000  1.0 -0.2504476708
N  N10  1  0.68600000  0.47170000  0.70330000  1.0 -0.3356182244
N  N11  1  0.69600000  0.38070000  0.66380000  1.0 0.127818187
N  N12  1  0.62100000  0.37210000  0.66480000  1.0 -0.2504476708
N  N13  1  0.78730000  0.59850000  0.95570000  1.0 -0.3217539158
N  N14  1  0.80400000  0.70970000  0.97330000  1.0 -0.2701421049
N  N15  1  0.84340000  0.67450000  0.02380000  1.0 0.127818187
N  N16  1  0.03000000  0.70600000  0.40710000  1.0 0.127818187
N  N17  1  0.09800000  0.76820000  0.48250000  1.0 -0.3217539158
N  N18  1  0.10900000  0.68530000  0.42340000  1.0 -0.3217539158
N  N19  1  0.26260000  0.92650000  0.13490000  1.0 -0.3506183144
N  N20  1  0.32000000  0.83570000  0.18030000  1.0 0.1443100455
N  N21  1  0.24700000  0.83390000  0.18860000  1.0 -0.2900880244
N  N22  1  0.23150000  0.40070000  0.07710000  1.0 -0.3339797822
N  N23  1  0.21600000  0.50800000  0.10360000  1.0 -0.257512052
N  N24  1  0.28800000  0.50040000  0.09760000  1.0 0.170237619
N  N25  1  0.29400000  0.40630000  0.23920000  1.0 -0.3853888777
N  N26  1  0.25700000  0.50740000  0.24450000  1.0 0.1572183254
N  N27  1  0.33300000  0.51390000  0.24660000  1.0 -0.2504476708
N  N28  1  0.31400000  0.97170000  0.29670000  1.0 -0.3356182244
N  N29  1  0.30400000  0.88070000  0.33620000  1.0 0.127818187
N  N30  1  0.37900000  0.87210000  0.33520000  1.0 -0.2504476708
N  N31  1  0.21270000  0.09850000  0.04430000  1.0 -0.3217539158
N  N32  1  0.19600000  0.20970000  0.02670000  1.0 -0.2701421049
N  N33  1  0.15660000  0.17450000  0.97620000  1.0 0.127818187
N  N34  1  0.97000000  0.20600000  0.59290000  1.0 0.127818187
N  N35  1  0.90200000  0.26820000  0.51750000  1.0 -0.3217539158
N  N36  1  0.89100000  0.18530000  0.57660000  1.0 -0.3217539158
O  O1  1  0.52480000  0.69690000  0.68290000  1.0 -0.9598777353
O  O2  1  0.09660000  0.37010000  0.78610000  1.0 -1.0106291813
O  O3  1  0.58980000  0.79640000  0.76250000  1.0 -0.9802637663
O  O4  1  0.31790000  0.38020000  0.78360000  1.0 -0.9994692707
O  O5  1  0.58100000  0.57820000  0.73430000  1.0 -0.9598777353
O  O6  1  0.57160000  0.67500000  0.81550000  1.0 -0.8770768014
O  O7  1  0.88220000  0.51440000  0.66160000  1.0 -1.0106291813
O  O8  1  0.65830000  0.78020000  0.88710000  1.0 -0.8212440686
O  O9  1  0.47130000  0.88500000  0.70080000  1.0 -1.0470284787
O  O10  1  0.17530000  0.59690000  0.58130000  1.0 -0.9598777353
O  O11  1  0.94530000  0.85840000  0.83740000  1.0 -0.9712027055
O  O12  1  0.12400000  0.98470000  0.85620000  1.0 -1.0386026469
O  O13  1  0.31970000  0.88960000  0.64460000  1.0 -0.9994692707
O  O14  1  0.94480000  0.39630000  0.71610000  1.0 -0.9398184758
O  O15  1  0.80600000  0.69770000  0.67820000  1.0 -1.0106291813
O  O16  1  0.07370000  0.00490000  0.71390000  1.0 -1.020642317
O  O17  1  0.81250000  0.79730000  0.76190000  1.0 -0.9712027055
O  O18  1  0.08160000  0.47310000  0.85340000  1.0 -0.9886796707
O  O19  1  0.02960000  0.63920000  0.58560000  1.0 -0.9598777353
O  O20  1  0.34460000  0.97050000  0.85010000  1.0 -0.9886796707
O  O21  1  0.06290000  0.67800000  0.80600000  1.0 -0.8212440686
O  O22  1  0.29770000  0.77540000  0.91800000  1.0 -0.9518683818
O  O23  1  0.18500000  0.32880000  0.70790000  1.0 -0.9518683818
O  O24  1  0.09730000  0.86300000  0.89790000  1.0 -0.9802637663
O  O25  1  0.45900000  0.50850000  0.65890000  1.0 -1.0386026469
O  O26  1  0.92810000  0.49460000  0.79640000  1.0 -0.9518683818
O  O27  1  0.00800000  0.89940000  0.64660000  1.0 -0.9802637663
O  O28  1  0.14940000  0.73340000  0.91610000  1.0 -0.9518683818
O  O29  1  0.21370000  0.04720000  0.79180000  1.0 -0.9598777353
O  O30  1  0.83610000  0.78840000  0.88210000  1.0 -0.7500866618
O  O31  1  0.96820000  0.97720000  0.78280000  1.0 -0.9518683818
O  O32  1  0.89200000  0.63860000  0.61410000  1.0 -0.9994692707
O  O33  1  0.80490000  0.57800000  0.73680000  1.0 -0.9598777353
O  O34  1  0.29380000  0.99010000  0.71630000  1.0 -1.0106291813
O  O35  1  0.26990000  0.40290000  0.64740000  1.0 -1.0256279078
O  O36  1  0.39750000  0.47930000  0.85470000  1.0 -1.020642317
O  O37  1  0.82750000  0.54810000  0.85560000  1.0 -0.8212440686
O  O38  1  0.42450000  0.39720000  0.71760000  1.0 -0.9886796707
O  O39  1  0.89550000  0.88020000  0.70180000  1.0 -0.9886796707
O  O40  1  0.29810000  0.61740000  0.68570000  1.0 -0.8212440686
O  O41  1  0.50790000  0.48500000  0.79990000  1.0 -0.9994692707
O  O42  1  0.44790000  0.97570000  0.78320000  1.0 -0.9712027055
O  O43  1  0.99280000  0.51070000  0.60200000  1.0 -0.9802637663
O  O44  1  0.85550000  0.67620000  0.81830000  1.0 -0.904271659
O  O45  1  0.49600000  0.58890000  0.87140000  1.0 -0.9802637663
O  O46  1  0.16590000  0.55310000  0.79020000  1.0 -0.8413656619
O  O47  1  0.24810000  0.90310000  0.90150000  1.0 -0.9994692707
O  O48  1  0.03640000  0.78050000  0.60240000  1.0 -0.9598777353
O  O49  1  0.18520000  0.82000000  0.60610000  1.0 -0.9598777353
O  O50  1  0.28860000  0.55590000  0.89390000  1.0 -0.9598777353
O  O51  1  0.13220000  0.46640000  0.59640000  1.0 -0.9886796707
O  O52  1  0.98980000  0.73610000  0.88420000  1.0 -0.9598777353
O  O53  1  0.41450000  0.85410000  0.89870000  1.0 -1.020642317
O  O54  1  0.22880000  0.43220000  0.84820000  1.0 -0.9994692707
O  O55  1  0.49900000  0.74440000  0.88540000  1.0 -0.9802637663
O  O56  1  0.40680000  0.78230000  0.63050000  1.0 -0.9886796707
O  O57  1  0.17690000  0.80450000  0.81990000  1.0 -0.8295008507
O  O58  1  0.89740000  0.77370000  0.63130000  1.0 -0.9802637663
O  O59  1  0.98440000  0.60020000  0.86600000  1.0 -0.9598777353
O  O60  1  0.52540000  0.86800000  0.84160000  1.0 -0.9994692707
O  O61  1  0.03960000  0.49610000  0.72660000  1.0 -0.9518683818
O  O62  1  0.64770000  0.55890000  0.86080000  1.0 -0.8112467495
O  O63  1  0.40080000  0.62490000  0.61420000  1.0 -0.9994692707
O  O64  1  0.04640000  0.39080000  0.64410000  1.0 -1.020642317
O  O65  1  0.36650000  0.86840000  0.77040000  1.0 -0.9518683818
O  O66  1  0.15410000  0.94080000  0.65050000  1.0 -0.9994692707
O  O67  1  0.12520000  0.56920000  0.67950000  1.0 -0.8212440686
O  O68  1  0.02460000  0.69600000  0.69460000  1.0 -0.8295008507
O  O69  1  0.30560000  0.51880000  0.60110000  1.0 -1.020642317
O  O70  1  0.33860000  0.60010000  0.79770000  1.0 -0.8212440686
O  O71  1  0.13420000  0.82280000  0.70980000  1.0 -0.8112467495
O  O72  1  0.34280000  0.75590000  0.81460000  1.0 -0.8475291696
O  O73  1  0.39130000  0.66150000  0.90720000  1.0 -0.9598777353
O  O74  1  0.27160000  0.70980000  0.59730000  1.0 -0.9802637663
O  O75  1  0.05610000  0.87960000  0.77180000  1.0 -0.9518683818
O  O76  1  0.14250000  0.59400000  0.89840000  1.0 -0.9325006571
O  O77  1  0.19790000  0.91860000  0.77690000  1.0 -0.9598777353
O  O78  1  0.17770000  0.45380000  0.72350000  1.0 -0.9598777353
O  O79  1  0.94340000  0.74830000  0.75700000  1.0 -0.9398184758
O  O80  1  0.35400000  0.50190000  0.73000000  1.0 -0.9398184758
O  O81  1  0.30300000  0.77220000  0.70400000  1.0 -0.8212440686
O  O82  1  0.44480000  0.60630000  0.74320000  1.0 -0.9325006571
O  O83  1  0.94050000  0.62490000  0.74470000  1.0 -0.9398184758
O  O84  1  0.44910000  0.76640000  0.76130000  1.0 -0.9518683818
O  O85  1  0.69660000  0.69260000  0.75160000  1.0 -0.5981829134
O  O86  1  0.20800000  0.68000000  0.78600000  1.0 -0.2504476708
O  O87  1  0.18200000  0.69100000  0.71200000  1.0 -0.2205877756
O  O88  1  0.47520000  0.19690000  0.31710000  1.0 -0.9598777353
O  O89  1  0.90340000  0.87010000  0.21390000  1.0 -1.0106291813
O  O90  1  0.41020000  0.29640000  0.23750000  1.0 -0.9802637663
O  O91  1  0.68210000  0.88020000  0.21640000  1.0 -1.0106291813
O  O92  1  0.41900000  0.07820000  0.26570000  1.0 -0.9598777353
O  O93  1  0.42840000  0.17500000  0.18450000  1.0 -0.8770768014
O  O94  1  0.11780000  0.01440000  0.33840000  1.0 -1.0106291813
O  O95  1  0.34170000  0.28020000  0.11290000  1.0 -0.8212440686
O  O96  1  0.52870000  0.38500000  0.29920000  1.0 -1.0470284787
O  O97  1  0.82470000  0.09690000  0.41870000  1.0 -0.9598777353
O  O98  1  0.05470000  0.35840000  0.16260000  1.0 -0.9712027055
O  O99  1  0.87600000  0.48470000  0.14380000  1.0 -1.0386026469
O  O100  1  0.68030000  0.38960000  0.35540000  1.0 -0.9994692707
O  O101  1  0.05520000  0.89630000  0.28390000  1.0 -0.9398184758
O  O102  1  0.19400000  0.19770000  0.32180000  1.0 -1.0106291813
O  O103  1  0.92630000  0.50490000  0.28610000  1.0 -1.0256279078
O  O104  1  0.18750000  0.29730000  0.23810000  1.0 -0.9712027055
O  O105  1  0.91840000  0.97310000  0.14660000  1.0 -0.9802637663
O  O106  1  0.97040000  0.13920000  0.41440000  1.0 -0.9598777353
O  O107  1  0.65540000  0.47050000  0.14990000  1.0 -0.9994692707
O  O108  1  0.93710000  0.17800000  0.19400000  1.0 -0.8295008507
O  O109  1  0.70230000  0.27540000  0.08200000  1.0 -0.9518683818
O  O110  1  0.81500000  0.82880000  0.29210000  1.0 -0.9518683818
O  O111  1  0.90270000  0.36300000  0.10210000  1.0 -0.9802637663
O  O112  1  0.54100000  0.00850000  0.34110000  1.0 -1.0386026469
O  O113  1  0.07190000  0.99460000  0.20360000  1.0 -0.9518683818
O  O114  1  0.99200000  0.39940000  0.35340000  1.0 -0.9802637663
O  O115  1  0.85060000  0.23340000  0.08390000  1.0 -0.9518683818
O  O116  1  0.78630000  0.54720000  0.20820000  1.0 -0.9712027055
O  O117  1  0.16390000  0.28840000  0.11790000  1.0 -0.7500866618
O  O118  1  0.03180000  0.47720000  0.21720000  1.0 -0.9518683818
O  O119  1  0.10800000  0.13860000  0.38590000  1.0 -0.9994692707
O  O120  1  0.19510000  0.07800000  0.26320000  1.0 -0.9712027055
O  O121  1  0.70620000  0.49010000  0.28370000  1.0 -1.020642317
O  O122  1  0.73010000  0.90290000  0.35260000  1.0 -1.0256279078
O  O123  1  0.60250000  0.97930000  0.14530000  1.0 -1.020642317
O  O124  1  0.17250000  0.04810000  0.14440000  1.0 -0.8212440686
O  O125  1  0.57550000  0.89720000  0.28240000  1.0 -0.9886796707
O  O126  1  0.10450000  0.38020000  0.29820000  1.0 -0.9886796707
O  O127  1  0.70190000  0.11740000  0.31430000  1.0 -0.8212440686
O  O128  1  0.49210000  0.98500000  0.20010000  1.0 -0.9994692707
O  O129  1  0.55210000  0.47570000  0.21680000  1.0 -0.9712027055
O  O130  1  0.00720000  0.01070000  0.39800000  1.0 -0.9802637663
O  O131  1  0.14450000  0.17620000  0.18170000  1.0 -0.904271659
O  O132  1  0.50400000  0.08890000  0.12860000  1.0 -0.9802637663
O  O133  1  0.83410000  0.05310000  0.20980000  1.0 -0.8413656619
O  O134  1  0.75190000  0.40310000  0.09850000  1.0 -0.9994692707
O  O135  1  0.96360000  0.28050000  0.39760000  1.0 -0.9598777353
O  O136  1  0.81480000  0.32000000  0.39390000  1.0 -0.9598777353
O  O137  1  0.71140000  0.05590000  0.10610000  1.0 -0.9598777353
O  O138  1  0.86780000  0.96640000  0.40360000  1.0 -0.9886796707
O  O139  1  0.01020000  0.23610000  0.11580000  1.0 -0.9518683818
O  O140  1  0.58550000  0.35410000  0.10130000  1.0 -1.020642317
O  O141  1  0.77120000  0.93220000  0.15180000  1.0 -0.9994692707
O  O142  1  0.50100000  0.24440000  0.11460000  1.0 -0.9802637663
O  O143  1  0.59320000  0.28230000  0.36950000  1.0 -0.9994692707
O  O144  1  0.82310000  0.30450000  0.18010000  1.0 -0.8295008507
O  O145  1  0.10260000  0.27370000  0.36870000  1.0 -0.9802637663
O  O146  1  0.01560000  0.10020000  0.13400000  1.0 -0.9598777353
O  O147  1  0.47460000  0.36800000  0.15840000  1.0 -0.9994692707
O  O148  1  0.96040000  0.99610000  0.27340000  1.0 -0.9598777353
O  O149  1  0.35230000  0.05890000  0.13920000  1.0 -0.8112467495
O  O150  1  0.59920000  0.12490000  0.38580000  1.0 -0.9994692707
O  O151  1  0.95360000  0.89080000  0.35590000  1.0 -1.0256279078
O  O152  1  0.63350000  0.36840000  0.22960000  1.0 -0.9518683818
O  O153  1  0.84590000  0.44080000  0.34950000  1.0 -0.9994692707
O  O154  1  0.87480000  0.06920000  0.32050000  1.0 -0.8295008507
O  O155  1  0.97540000  0.19600000  0.30540000  1.0 -0.8295008507
O  O156  1  0.69440000  0.01880000  0.39890000  1.0 -1.020642317
O  O157  1  0.66140000  0.10010000  0.20230000  1.0 -0.8295008507
O  O158  1  0.86580000  0.32280000  0.29020000  1.0 -0.8212440686
O  O159  1  0.65720000  0.25590000  0.18540000  1.0 -0.8475291696
O  O160  1  0.60870000  0.16150000  0.09280000  1.0 -0.9598777353
O  O161  1  0.72840000  0.20980000  0.40270000  1.0 -0.9802637663
O  O162  1  0.94390000  0.37960000  0.22820000  1.0 -0.9518683818
O  O163  1  0.85750000  0.09400000  0.10160000  1.0 -0.9325006571
O  O164  1  0.80210000  0.41860000  0.22310000  1.0 -0.9598777353
O  O165  1  0.82230000  0.95380000  0.27650000  1.0 -0.9598777353
O  O166  1  0.05660000  0.24830000  0.24300000  1.0 -0.9398184758
O  O167  1  0.64600000  0.00190000  0.27000000  1.0 -0.9398184758
O  O168  1  0.69700000  0.27220000  0.29600000  1.0 -0.8295008507
O  O169  1  0.55520000  0.10630000  0.25680000  1.0 -0.9325006571
O  O170  1  0.05950000  0.12490000  0.25530000  1.0 -0.9398184758
O  O171  1  0.55090000  0.26640000  0.23870000  1.0 -0.9518683818
O  O172  1  0.30340000  0.19260000  0.24840000  1.0 -0.5981829134
O  O173  1  0.79200000  0.18000000  0.21400000  1.0 -0.2504476708
O  O174  1  0.81800000  0.19100000  0.28800000  1.0 -0.2205877756
