# DDEC6 charges by PACMAN v1.1 (https://github.com/mtap-research/PACMAN-charge/)
data_DANVEU_ion_pacman
_symmetry_space_group_name_H-M   'P 1'
_cell_length_a   20.36610000
_cell_length_b   20.36610000
_cell_length_c   20.36610000
_cell_angle_alpha   90.00000000
_cell_angle_beta   90.00000000
_cell_angle_gamma   90.00000000
_symmetry_Int_Tables_number   1
_chemical_formula_structural   La3H9C21(NO6)5
_chemical_formula_sum   'La24 H72 C168 N40 O240'
_cell_volume   8447.41082069
_cell_formula_units_Z   8
loop_
 _symmetry_equiv_pos_site_id
 _symmetry_equiv_pos_as_xyz
  1  'x, y, z'
loop_
 _atom_site_type_symbol
 _atom_site_label
 _atom_site_symmetry_multiplicity
 _atom_site_fract_x
 _atom_site_fract_y
 _atom_site_fract_z
 _atom_site_occupancy
 _atom_site_charge
La  La1  1  0.74276000  0.14555000  0.01269000  1.0 1.8354175145
La  La2  1  0.01269000  0.74276000  0.14555000  1.0 1.8354175145
La  La3  1  0.14555000  0.01269000  0.74276000  1.0 1.8354175145
La  La4  1  0.75724000  0.85445000  0.51269000  1.0 1.8349478299
La  La5  1  0.25724000  0.64555000  0.48731000  1.0 1.8354175145
La  La6  1  0.24276000  0.35445000  0.98731000  1.0 1.8354175145
La  La7  1  0.51269000  0.75724000  0.85445000  1.0 1.8349478299
La  La8  1  0.48731000  0.25724000  0.64555000  1.0 1.8354175145
La  La9  1  0.98731000  0.24276000  0.35445000  1.0 1.8349478299
La  La10  1  0.85445000  0.51269000  0.75724000  1.0 1.8349478299
La  La11  1  0.64555000  0.48731000  0.25724000  1.0 1.8354175145
La  La12  1  0.35445000  0.98731000  0.24276000  1.0 1.8354175145
La  La13  1  0.25724000  0.85445000  0.98731000  1.0 1.8354175145
La  La14  1  0.98731000  0.25724000  0.85445000  1.0 1.8349478299
La  La15  1  0.85445000  0.98731000  0.25724000  1.0 1.8349478299
La  La16  1  0.24276000  0.14555000  0.48731000  1.0 1.8354175145
La  La17  1  0.74276000  0.35445000  0.51269000  1.0 1.8349478299
La  La18  1  0.75724000  0.64555000  0.01269000  1.0 1.8349478299
La  La19  1  0.48731000  0.24276000  0.14555000  1.0 1.8354175145
La  La20  1  0.51269000  0.74276000  0.35445000  1.0 1.8354175145
La  La21  1  0.01269000  0.75724000  0.64555000  1.0 1.8354175145
La  La22  1  0.14555000  0.48731000  0.24276000  1.0 1.8354175145
La  La23  1  0.35445000  0.51269000  0.74276000  1.0 1.8354175145
La  La24  1  0.64555000  0.01269000  0.75724000  1.0 1.8349478299
H  H1  1  0.81630000  0.40180000  0.95060000  1.0 0.1713828002
H  H2  1  0.95060000  0.81630000  0.40180000  1.0 0.1713828002
H  H3  1  0.40180000  0.95060000  0.81630000  1.0 0.1713828002
H  H4  1  0.68370000  0.59820000  0.45060000  1.0 0.1713828002
H  H5  1  0.18370000  0.90180000  0.54940000  1.0 0.1713828002
H  H6  1  0.31630000  0.09820000  0.04940000  1.0 0.1713828002
H  H7  1  0.45060000  0.68370000  0.59820000  1.0 0.1713828002
H  H8  1  0.54940000  0.18370000  0.90180000  1.0 0.1713828002
H  H9  1  0.04940000  0.31630000  0.09820000  1.0 0.1713828002
H  H10  1  0.59820000  0.45060000  0.68370000  1.0 0.1713828002
H  H11  1  0.90180000  0.54940000  0.18370000  1.0 0.1713828002
H  H12  1  0.09820000  0.04940000  0.31630000  1.0 0.1713828002
H  H13  1  0.18370000  0.59820000  0.04940000  1.0 0.1713828002
H  H14  1  0.04940000  0.18370000  0.59820000  1.0 0.1713828002
H  H15  1  0.59820000  0.04940000  0.18370000  1.0 0.1713828002
H  H16  1  0.31630000  0.40180000  0.54940000  1.0 0.1713828002
H  H17  1  0.81630000  0.09820000  0.45060000  1.0 0.1713828002
H  H18  1  0.68370000  0.90180000  0.95060000  1.0 0.1713828002
H  H19  1  0.54940000  0.31630000  0.40180000  1.0 0.1713828002
H  H20  1  0.45060000  0.81630000  0.09820000  1.0 0.1713828002
H  H21  1  0.95060000  0.68370000  0.90180000  1.0 0.1713828002
H  H22  1  0.40180000  0.54940000  0.31630000  1.0 0.1713828002
H  H23  1  0.09820000  0.45060000  0.81630000  1.0 0.1713828002
H  H24  1  0.90180000  0.95060000  0.68370000  1.0 0.1713828002
H  H25  1  0.72630000  0.45700000  0.99390000  1.0 0.1478305364
H  H26  1  0.99390000  0.72630000  0.45700000  1.0 0.1478305364
H  H27  1  0.45700000  0.99390000  0.72630000  1.0 0.1478305364
H  H28  1  0.77370000  0.54300000  0.49390000  1.0 0.1478305364
H  H29  1  0.27370000  0.95700000  0.50610000  1.0 0.1478305364
H  H30  1  0.22630000  0.04300000  0.00610000  1.0 0.1478305364
H  H31  1  0.49390000  0.77370000  0.54300000  1.0 0.1478305364
H  H32  1  0.50610000  0.27370000  0.95700000  1.0 0.1478305364
H  H33  1  0.00610000  0.22630000  0.04300000  1.0 0.1478305364
H  H34  1  0.54300000  0.49390000  0.77370000  1.0 0.1478305364
H  H35  1  0.95700000  0.50610000  0.27370000  1.0 0.1478305364
H  H36  1  0.04300000  0.00610000  0.22630000  1.0 0.1478305364
H  H37  1  0.27370000  0.54300000  0.00610000  1.0 0.1478305364
H  H38  1  0.00610000  0.27370000  0.54300000  1.0 0.1478305364
H  H39  1  0.54300000  0.00610000  0.27370000  1.0 0.1478305364
H  H40  1  0.22630000  0.45700000  0.50610000  1.0 0.1478305364
H  H41  1  0.72630000  0.04300000  0.49390000  1.0 0.1478305364
H  H42  1  0.77370000  0.95700000  0.99390000  1.0 0.1478305364
H  H43  1  0.50610000  0.22630000  0.45700000  1.0 0.1478305364
H  H44  1  0.49390000  0.72630000  0.04300000  1.0 0.1478305364
H  H45  1  0.99390000  0.77370000  0.95700000  1.0 0.1478305364
H  H46  1  0.45700000  0.50610000  0.22630000  1.0 0.1478305364
H  H47  1  0.04300000  0.49390000  0.72630000  1.0 0.1478305364
H  H48  1  0.95700000  0.99390000  0.77370000  1.0 0.1478305364
H  H49  1  0.63980000  0.39630000  0.03880000  1.0 0.1713828002
H  H50  1  0.03880000  0.63980000  0.39630000  1.0 0.1713828002
H  H51  1  0.39630000  0.03880000  0.63980000  1.0 0.1713828002
H  H52  1  0.86020000  0.60370000  0.53880000  1.0 0.1713828002
H  H53  1  0.36020000  0.89630000  0.46120000  1.0 0.1713828002
H  H54  1  0.13980000  0.10370000  0.96120000  1.0 0.1713828002
H  H55  1  0.53880000  0.86020000  0.60370000  1.0 0.1713828002
H  H56  1  0.46120000  0.36020000  0.89630000  1.0 0.1713828002
H  H57  1  0.96120000  0.13980000  0.10370000  1.0 0.1713828002
H  H58  1  0.60370000  0.53880000  0.86020000  1.0 0.1713828002
H  H59  1  0.89630000  0.46120000  0.36020000  1.0 0.1713828002
H  H60  1  0.10370000  0.96120000  0.13980000  1.0 0.1713828002
H  H61  1  0.36020000  0.60370000  0.96120000  1.0 0.1713828002
H  H62  1  0.96120000  0.36020000  0.60370000  1.0 0.1713828002
H  H63  1  0.60370000  0.96120000  0.36020000  1.0 0.1713828002
H  H64  1  0.13980000  0.39630000  0.46120000  1.0 0.1713828002
H  H65  1  0.63980000  0.10370000  0.53880000  1.0 0.1713828002
H  H66  1  0.86020000  0.89630000  0.03880000  1.0 0.1713828002
H  H67  1  0.46120000  0.13980000  0.39630000  1.0 0.1713828002
H  H68  1  0.53880000  0.63980000  0.10370000  1.0 0.1713828002
H  H69  1  0.03880000  0.86020000  0.89630000  1.0 0.1713828002
H  H70  1  0.39630000  0.46120000  0.13980000  1.0 0.1713828002
H  H71  1  0.10370000  0.53880000  0.63980000  1.0 0.1713828002
H  H72  1  0.89630000  0.03880000  0.86020000  1.0 0.1713828002
C  C1  1  0.83930000  0.26910000  0.94790000  1.0 0.5925589854
C  C2  1  0.94790000  0.83930000  0.26910000  1.0 0.5925589854
C  C3  1  0.26910000  0.94790000  0.83930000  1.0 0.5925589854
C  C4  1  0.66070000  0.73090000  0.44790000  1.0 0.5925589854
C  C5  1  0.16070000  0.76910000  0.55210000  1.0 0.5925589854
C  C6  1  0.33930000  0.23090000  0.05210000  1.0 0.5925589854
C  C7  1  0.44790000  0.66070000  0.73090000  1.0 0.5925589854
C  C8  1  0.55210000  0.16070000  0.76910000  1.0 0.5925589854
C  C9  1  0.05210000  0.33930000  0.23090000  1.0 0.5925589854
C  C10  1  0.73090000  0.44790000  0.66070000  1.0 0.5925589854
C  C11  1  0.76910000  0.55210000  0.16070000  1.0 0.5925589854
C  C12  1  0.23090000  0.05210000  0.33930000  1.0 0.5925589854
C  C13  1  0.16070000  0.73090000  0.05210000  1.0 0.5925589854
C  C14  1  0.05210000  0.16070000  0.73090000  1.0 0.5925589854
C  C15  1  0.73090000  0.05210000  0.16070000  1.0 0.5925589854
C  C16  1  0.33930000  0.26910000  0.55210000  1.0 0.5925589854
C  C17  1  0.83930000  0.23090000  0.44790000  1.0 0.5925589854
C  C18  1  0.66070000  0.76910000  0.94790000  1.0 0.5925589854
C  C19  1  0.55210000  0.33930000  0.26910000  1.0 0.5925589854
C  C20  1  0.44790000  0.83930000  0.23090000  1.0 0.5925589854
C  C21  1  0.94790000  0.66070000  0.76910000  1.0 0.5925589854
C  C22  1  0.26910000  0.55210000  0.33930000  1.0 0.5925589854
C  C23  1  0.23090000  0.44790000  0.83930000  1.0 0.5925589854
C  C24  1  0.76910000  0.94790000  0.66070000  1.0 0.5925589854
C  C25  1  0.78360000  0.31110000  0.97410000  1.0 0.1308583883
C  C26  1  0.97410000  0.78360000  0.31110000  1.0 0.1308583883
C  C27  1  0.31110000  0.97410000  0.78360000  1.0 0.1308583883
C  C28  1  0.71640000  0.68890000  0.47410000  1.0 0.1308583883
C  C29  1  0.21640000  0.81110000  0.52590000  1.0 0.1308583883
C  C30  1  0.28360000  0.18890000  0.02590000  1.0 0.1308583883
C  C31  1  0.47410000  0.71640000  0.68890000  1.0 0.1308583883
C  C32  1  0.52590000  0.21640000  0.81110000  1.0 0.1308583883
C  C33  1  0.02590000  0.28360000  0.18890000  1.0 0.1308583883
C  C34  1  0.68890000  0.47410000  0.71640000  1.0 0.1308583883
C  C35  1  0.81110000  0.52590000  0.21640000  1.0 0.1308583883
C  C36  1  0.18890000  0.02590000  0.28360000  1.0 0.1308583883
C  C37  1  0.21640000  0.68890000  0.02590000  1.0 0.1308583883
C  C38  1  0.02590000  0.21640000  0.68890000  1.0 0.1308583883
C  C39  1  0.68890000  0.02590000  0.21640000  1.0 0.1308583883
C  C40  1  0.28360000  0.31110000  0.52590000  1.0 0.1308583883
C  C41  1  0.78360000  0.18890000  0.47410000  1.0 0.1308583883
C  C42  1  0.71640000  0.81110000  0.97410000  1.0 0.1308583883
C  C43  1  0.52590000  0.28360000  0.31110000  1.0 0.1308583883
C  C44  1  0.47410000  0.78360000  0.18890000  1.0 0.1308583883
C  C45  1  0.97410000  0.71640000  0.81110000  1.0 0.1308583883
C  C46  1  0.31110000  0.52590000  0.28360000  1.0 0.1308583883
C  C47  1  0.18890000  0.47410000  0.78360000  1.0 0.1308583883
C  C48  1  0.81110000  0.97410000  0.71640000  1.0 0.1308583883
C  C49  1  0.78190000  0.37870000  0.97000000  1.0 -0.0811987446
C  C50  1  0.97000000  0.78190000  0.37870000  1.0 -0.0811987446
C  C51  1  0.37870000  0.97000000  0.78190000  1.0 -0.0811987446
C  C52  1  0.71810000  0.62130000  0.47000000  1.0 -0.0811987446
C  C53  1  0.21810000  0.87870000  0.53000000  1.0 -0.0811987446
C  C54  1  0.28190000  0.12130000  0.03000000  1.0 -0.0811987446
C  C55  1  0.47000000  0.71810000  0.62130000  1.0 -0.0811987446
C  C56  1  0.53000000  0.21810000  0.87870000  1.0 -0.0811987446
C  C57  1  0.03000000  0.28190000  0.12130000  1.0 -0.0811987446
C  C58  1  0.62130000  0.47000000  0.71810000  1.0 -0.0811987446
C  C59  1  0.87870000  0.53000000  0.21810000  1.0 -0.0811987446
C  C60  1  0.12130000  0.03000000  0.28190000  1.0 -0.0811987446
C  C61  1  0.21810000  0.62130000  0.03000000  1.0 -0.0811987446
C  C62  1  0.03000000  0.21810000  0.62130000  1.0 -0.0811987446
C  C63  1  0.62130000  0.03000000  0.21810000  1.0 -0.0811987446
C  C64  1  0.28190000  0.37870000  0.53000000  1.0 -0.0811987446
C  C65  1  0.78190000  0.12130000  0.47000000  1.0 -0.0811987446
C  C66  1  0.71810000  0.87870000  0.97000000  1.0 -0.0811987446
C  C67  1  0.53000000  0.28190000  0.37870000  1.0 -0.0811987446
C  C68  1  0.47000000  0.78190000  0.12130000  1.0 -0.0811987446
C  C69  1  0.97000000  0.71810000  0.87870000  1.0 -0.0811987446
C  C70  1  0.37870000  0.53000000  0.28190000  1.0 -0.0811987446
C  C71  1  0.12130000  0.47000000  0.78190000  1.0 -0.0811987446
C  C72  1  0.87870000  0.97000000  0.71810000  1.0 -0.0811987446
C  C73  1  0.72820000  0.41140000  0.99520000  1.0 0.0302343991
C  C74  1  0.99520000  0.72820000  0.41140000  1.0 0.0302343991
C  C75  1  0.41140000  0.99520000  0.72820000  1.0 0.0302343991
C  C76  1  0.77180000  0.58860000  0.49520000  1.0 0.0302343991
C  C77  1  0.27180000  0.91140000  0.50480000  1.0 0.0302343991
C  C78  1  0.22820000  0.08860000  0.00480000  1.0 0.0302343991
C  C79  1  0.49520000  0.77180000  0.58860000  1.0 0.0302343991
C  C80  1  0.50480000  0.27180000  0.91140000  1.0 0.0302343991
C  C81  1  0.00480000  0.22820000  0.08860000  1.0 0.0302343991
C  C82  1  0.58860000  0.49520000  0.77180000  1.0 0.0302343991
C  C83  1  0.91140000  0.50480000  0.27180000  1.0 0.0302343991
C  C84  1  0.08860000  0.00480000  0.22820000  1.0 0.0302343991
C  C85  1  0.27180000  0.58860000  0.00480000  1.0 0.0302343991
C  C86  1  0.00480000  0.27180000  0.58860000  1.0 0.0302343991
C  C87  1  0.58860000  0.00480000  0.27180000  1.0 0.0302343991
C  C88  1  0.22820000  0.41140000  0.50480000  1.0 0.0302343991
C  C89  1  0.72820000  0.08860000  0.49520000  1.0 0.0302343991
C  C90  1  0.77180000  0.91140000  0.99520000  1.0 0.0302343991
C  C91  1  0.50480000  0.22820000  0.41140000  1.0 0.0302343991
C  C92  1  0.49520000  0.72820000  0.08860000  1.0 0.0302343991
C  C93  1  0.99520000  0.77180000  0.91140000  1.0 0.0302343991
C  C94  1  0.41140000  0.50480000  0.22820000  1.0 0.0302343991
C  C95  1  0.08860000  0.49520000  0.72820000  1.0 0.0302343991
C  C96  1  0.91140000  0.99520000  0.77180000  1.0 0.0302343991
C  C97  1  0.67690000  0.37540000  0.02240000  1.0 -0.0811987446
C  C98  1  0.02240000  0.67690000  0.37540000  1.0 -0.0811987446
C  C99  1  0.37540000  0.02240000  0.67690000  1.0 -0.0811987446
C  C100  1  0.82310000  0.62460000  0.52240000  1.0 -0.0811987446
C  C101  1  0.32310000  0.87540000  0.47760000  1.0 -0.0811987446
C  C102  1  0.17690000  0.12460000  0.97760000  1.0 -0.0811987446
C  C103  1  0.52240000  0.82310000  0.62460000  1.0 -0.0811987446
C  C104  1  0.47760000  0.32310000  0.87540000  1.0 -0.0811987446
C  C105  1  0.97760000  0.17690000  0.12460000  1.0 -0.0811987446
C  C106  1  0.62460000  0.52240000  0.82310000  1.0 -0.0811987446
C  C107  1  0.87540000  0.47760000  0.32310000  1.0 -0.0811987446
C  C108  1  0.12460000  0.97760000  0.17690000  1.0 -0.0811987446
C  C109  1  0.32310000  0.62460000  0.97760000  1.0 -0.0811987446
C  C110  1  0.97760000  0.32310000  0.62460000  1.0 -0.0811987446
C  C111  1  0.62460000  0.97760000  0.32310000  1.0 -0.0811987446
C  C112  1  0.17690000  0.37540000  0.47760000  1.0 -0.0811987446
C  C113  1  0.67690000  0.12460000  0.52240000  1.0 -0.0811987446
C  C114  1  0.82310000  0.87540000  0.02240000  1.0 -0.0811987446
C  C115  1  0.47760000  0.17690000  0.37540000  1.0 -0.0811987446
C  C116  1  0.52240000  0.67690000  0.12460000  1.0 -0.0811987446
C  C117  1  0.02240000  0.82310000  0.87540000  1.0 -0.0811987446
C  C118  1  0.37540000  0.47760000  0.17690000  1.0 -0.0811987446
C  C119  1  0.12460000  0.52240000  0.67690000  1.0 -0.0811987446
C  C120  1  0.87540000  0.02240000  0.82310000  1.0 -0.0811987446
C  C121  1  0.68250000  0.30810000  0.02450000  1.0 0.1209448258
C  C122  1  0.02450000  0.68250000  0.30810000  1.0 0.1209448258
C  C123  1  0.30810000  0.02450000  0.68250000  1.0 0.1209448258
C  C124  1  0.81750000  0.69190000  0.52450000  1.0 0.1209448258
C  C125  1  0.31750000  0.80810000  0.47550000  1.0 0.1209448258
C  C126  1  0.18250000  0.19190000  0.97550000  1.0 0.1209448258
C  C127  1  0.52450000  0.81750000  0.69190000  1.0 0.1209448258
C  C128  1  0.47550000  0.31750000  0.80810000  1.0 0.1209448258
C  C129  1  0.97550000  0.18250000  0.19190000  1.0 0.1209448258
C  C130  1  0.69190000  0.52450000  0.81750000  1.0 0.1209448258
C  C131  1  0.80810000  0.47550000  0.31750000  1.0 0.1209448258
C  C132  1  0.19190000  0.97550000  0.18250000  1.0 0.1209448258
C  C133  1  0.31750000  0.69190000  0.97550000  1.0 0.1209448258
C  C134  1  0.97550000  0.31750000  0.69190000  1.0 0.1209448258
C  C135  1  0.69190000  0.97550000  0.31750000  1.0 0.1209448258
C  C136  1  0.18250000  0.30810000  0.47550000  1.0 0.1209448258
C  C137  1  0.68250000  0.19190000  0.52450000  1.0 0.1209448258
C  C138  1  0.81750000  0.80810000  0.02450000  1.0 0.1209448258
C  C139  1  0.47550000  0.18250000  0.30810000  1.0 0.1209448258
C  C140  1  0.52450000  0.68250000  0.19190000  1.0 0.1209448258
C  C141  1  0.02450000  0.81750000  0.80810000  1.0 0.1209448258
C  C142  1  0.30810000  0.47550000  0.18250000  1.0 0.1209448258
C  C143  1  0.19190000  0.52450000  0.68250000  1.0 0.1209448258
C  C144  1  0.80810000  0.02450000  0.81750000  1.0 0.1209448258
C  C145  1  0.63050000  0.26360000  0.05330000  1.0 0.5821481078
C  C146  1  0.05330000  0.63050000  0.26360000  1.0 0.5821481078
C  C147  1  0.26360000  0.05330000  0.63050000  1.0 0.5821481078
C  C148  1  0.86950000  0.73640000  0.55330000  1.0 0.5821481078
C  C149  1  0.36950000  0.76360000  0.44670000  1.0 0.5821481078
C  C150  1  0.13050000  0.23640000  0.94670000  1.0 0.5821481078
C  C151  1  0.55330000  0.86950000  0.73640000  1.0 0.5821481078
C  C152  1  0.44670000  0.36950000  0.76360000  1.0 0.5821481078
C  C153  1  0.94670000  0.13050000  0.23640000  1.0 0.5821481078
C  C154  1  0.73640000  0.55330000  0.86950000  1.0 0.5821481078
C  C155  1  0.76360000  0.44670000  0.36950000  1.0 0.5821481078
C  C156  1  0.23640000  0.94670000  0.13050000  1.0 0.5821481078
C  C157  1  0.36950000  0.73640000  0.94670000  1.0 0.5821481078
C  C158  1  0.94670000  0.36950000  0.73640000  1.0 0.5821481078
C  C159  1  0.73640000  0.94670000  0.36950000  1.0 0.5821481078
C  C160  1  0.13050000  0.26360000  0.44670000  1.0 0.5821481078
C  C161  1  0.63050000  0.23640000  0.55330000  1.0 0.5821481078
C  C162  1  0.86950000  0.76360000  0.05330000  1.0 0.5821481078
C  C163  1  0.44670000  0.13050000  0.26360000  1.0 0.5821481078
C  C164  1  0.55330000  0.63050000  0.23640000  1.0 0.5821481078
C  C165  1  0.05330000  0.86950000  0.76360000  1.0 0.5821481078
C  C166  1  0.26360000  0.44670000  0.13050000  1.0 0.5821481078
C  C167  1  0.23640000  0.55330000  0.63050000  1.0 0.5821481078
C  C168  1  0.76360000  0.05330000  0.86950000  1.0 0.5821481078
N  N1  1  0.73500000  0.27570000  0.00080000  1.0 -0.298644012
N  N2  1  0.00080000  0.73500000  0.27570000  1.0 -0.298644012
N  N3  1  0.27570000  0.00080000  0.73500000  1.0 -0.298644012
N  N4  1  0.76500000  0.72430000  0.50080000  1.0 -0.298644012
N  N5  1  0.26500000  0.77570000  0.49920000  1.0 -0.298644012
N  N6  1  0.23500000  0.22430000  0.99920000  1.0 -0.298644012
N  N7  1  0.50080000  0.76500000  0.72430000  1.0 -0.298644012
N  N8  1  0.49920000  0.26500000  0.77570000  1.0 -0.298644012
N  N9  1  0.99920000  0.23500000  0.22430000  1.0 -0.298644012
N  N10  1  0.72430000  0.50080000  0.76500000  1.0 -0.298644012
N  N11  1  0.77570000  0.49920000  0.26500000  1.0 -0.298644012
N  N12  1  0.22430000  0.99920000  0.23500000  1.0 -0.298644012
N  N13  1  0.26500000  0.72430000  0.99920000  1.0 -0.298644012
N  N14  1  0.99920000  0.26500000  0.72430000  1.0 -0.298644012
N  N15  1  0.72430000  0.99920000  0.26500000  1.0 -0.298644012
N  N16  1  0.23500000  0.27570000  0.49920000  1.0 -0.298644012
N  N17  1  0.73500000  0.22430000  0.50080000  1.0 -0.298644012
N  N18  1  0.76500000  0.77570000  0.00080000  1.0 -0.298644012
N  N19  1  0.49920000  0.23500000  0.27570000  1.0 -0.298644012
N  N20  1  0.50080000  0.73500000  0.22430000  1.0 -0.298644012
N  N21  1  0.00080000  0.76500000  0.77570000  1.0 -0.298644012
N  N22  1  0.27570000  0.49920000  0.23500000  1.0 -0.298644012
N  N23  1  0.22430000  0.50080000  0.73500000  1.0 -0.298644012
N  N24  1  0.77570000  0.00080000  0.76500000  1.0 -0.298644012
N  N25  1  0.65140000  0.65140000  0.65140000  1.0 0.6023309285
N  N26  1  0.15140000  0.84860000  0.34860000  1.0 0.6023309285
N  N27  1  0.84860000  0.34860000  0.15140000  1.0 0.6023309285
N  N28  1  0.34860000  0.15140000  0.84860000  1.0 0.6023309285
N  N29  1  0.34860000  0.34860000  0.34860000  1.0 0.6023309285
N  N30  1  0.84860000  0.15140000  0.65140000  1.0 0.6023309285
N  N31  1  0.15140000  0.65140000  0.84860000  1.0 0.6023309285
N  N32  1  0.65140000  0.84860000  0.15140000  1.0 0.6023309285
N  N33  1  0.77890000  0.77890000  0.77890000  1.0 0.6812867428
N  N34  1  0.72110000  0.22110000  0.27890000  1.0 0.6812867428
N  N35  1  0.22110000  0.27890000  0.72110000  1.0 0.6812867428
N  N36  1  0.27890000  0.72110000  0.22110000  1.0 0.6812867428
N  N37  1  0.22110000  0.22110000  0.22110000  1.0 0.6812867428
N  N38  1  0.27890000  0.77890000  0.72110000  1.0 0.6812867428
N  N39  1  0.77890000  0.72110000  0.27890000  1.0 0.6812867428
N  N40  1  0.72110000  0.27890000  0.77890000  1.0 0.6812867428
O  O1  1  0.83510000  0.20850000  0.96000000  1.0 -0.4913369586
O  O2  1  0.96000000  0.83510000  0.20850000  1.0 -0.4913369586
O  O3  1  0.20850000  0.96000000  0.83510000  1.0 -0.4913369586
O  O4  1  0.66490000  0.79150000  0.46000000  1.0 -0.4913369586
O  O5  1  0.16490000  0.70850000  0.54000000  1.0 -0.4913369586
O  O6  1  0.33510000  0.29150000  0.04000000  1.0 -0.4913369586
O  O7  1  0.46000000  0.66490000  0.79150000  1.0 -0.4913369586
O  O8  1  0.54000000  0.16490000  0.70850000  1.0 -0.4913369586
O  O9  1  0.04000000  0.33510000  0.29150000  1.0 -0.4913369586
O  O10  1  0.79150000  0.46000000  0.66490000  1.0 -0.4913369586
O  O11  1  0.70850000  0.54000000  0.16490000  1.0 -0.4913369586
O  O12  1  0.29150000  0.04000000  0.33510000  1.0 -0.4913369586
O  O13  1  0.16490000  0.79150000  0.04000000  1.0 -0.4913369586
O  O14  1  0.04000000  0.16490000  0.79150000  1.0 -0.4913369586
O  O15  1  0.79150000  0.04000000  0.16490000  1.0 -0.4913369586
O  O16  1  0.33510000  0.20850000  0.54000000  1.0 -0.4913369586
O  O17  1  0.83510000  0.29150000  0.46000000  1.0 -0.4913369586
O  O18  1  0.66490000  0.70850000  0.96000000  1.0 -0.4913369586
O  O19  1  0.54000000  0.33510000  0.20850000  1.0 -0.4913369586
O  O20  1  0.46000000  0.83510000  0.29150000  1.0 -0.4913369586
O  O21  1  0.96000000  0.66490000  0.70850000  1.0 -0.4913369586
O  O22  1  0.20850000  0.54000000  0.33510000  1.0 -0.4913369586
O  O23  1  0.29150000  0.46000000  0.83510000  1.0 -0.4913369586
O  O24  1  0.70850000  0.96000000  0.66490000  1.0 -0.4913369586
O  O25  1  0.88400000  0.29580000  0.91580000  1.0 -0.478291115
O  O26  1  0.91580000  0.88400000  0.29580000  1.0 -0.478291115
O  O27  1  0.29580000  0.91580000  0.88400000  1.0 -0.478291115
O  O28  1  0.61600000  0.70420000  0.41580000  1.0 -0.478291115
O  O29  1  0.11600000  0.79580000  0.58420000  1.0 -0.478291115
O  O30  1  0.38400000  0.20420000  0.08420000  1.0 -0.478291115
O  O31  1  0.41580000  0.61600000  0.70420000  1.0 -0.478291115
O  O32  1  0.58420000  0.11600000  0.79580000  1.0 -0.478291115
O  O33  1  0.08420000  0.38400000  0.20420000  1.0 -0.478291115
O  O34  1  0.70420000  0.41580000  0.61600000  1.0 -0.478291115
O  O35  1  0.79580000  0.58420000  0.11600000  1.0 -0.478291115
O  O36  1  0.20420000  0.08420000  0.38400000  1.0 -0.478291115
O  O37  1  0.11600000  0.70420000  0.08420000  1.0 -0.478291115
O  O38  1  0.08420000  0.11600000  0.70420000  1.0 -0.478291115
O  O39  1  0.70420000  0.08420000  0.11600000  1.0 -0.478291115
O  O40  1  0.38400000  0.29580000  0.58420000  1.0 -0.478291115
O  O41  1  0.88400000  0.20420000  0.41580000  1.0 -0.478291115
O  O42  1  0.61600000  0.79580000  0.91580000  1.0 -0.478291115
O  O43  1  0.58420000  0.38400000  0.29580000  1.0 -0.478291115
O  O44  1  0.41580000  0.88400000  0.20420000  1.0 -0.478291115
O  O45  1  0.91580000  0.61600000  0.79580000  1.0 -0.478291115
O  O46  1  0.29580000  0.58420000  0.38400000  1.0 -0.478291115
O  O47  1  0.20420000  0.41580000  0.88400000  1.0 -0.478291115
O  O48  1  0.79580000  0.91580000  0.61600000  1.0 -0.478291115
O  O49  1  0.64230000  0.20260000  0.05300000  1.0 -0.4913369586
O  O50  1  0.05300000  0.64230000  0.20260000  1.0 -0.4913369586
O  O51  1  0.20260000  0.05300000  0.64230000  1.0 -0.4913369586
O  O52  1  0.85770000  0.79740000  0.55300000  1.0 -0.4913369586
O  O53  1  0.35770000  0.70260000  0.44700000  1.0 -0.4913369586
O  O54  1  0.14230000  0.29740000  0.94700000  1.0 -0.4913369586
O  O55  1  0.55300000  0.85770000  0.79740000  1.0 -0.4913369586
O  O56  1  0.44700000  0.35770000  0.70260000  1.0 -0.4913369586
O  O57  1  0.94700000  0.14230000  0.29740000  1.0 -0.4913369586
O  O58  1  0.79740000  0.55300000  0.85770000  1.0 -0.4913369586
O  O59  1  0.70260000  0.44700000  0.35770000  1.0 -0.4913369586
O  O60  1  0.29740000  0.94700000  0.14230000  1.0 -0.4913369586
O  O61  1  0.35770000  0.79740000  0.94700000  1.0 -0.4913369586
O  O62  1  0.94700000  0.35770000  0.79740000  1.0 -0.4913369586
O  O63  1  0.79740000  0.94700000  0.35770000  1.0 -0.4913369586
O  O64  1  0.14230000  0.20260000  0.44700000  1.0 -0.4913369586
O  O65  1  0.64230000  0.29740000  0.55300000  1.0 -0.4913369586
O  O66  1  0.85770000  0.70260000  0.05300000  1.0 -0.4913369586
O  O67  1  0.44700000  0.14230000  0.20260000  1.0 -0.4913369586
O  O68  1  0.55300000  0.64230000  0.29740000  1.0 -0.4913369586
O  O69  1  0.05300000  0.85770000  0.70260000  1.0 -0.4913369586
O  O70  1  0.20260000  0.44700000  0.14230000  1.0 -0.4913369586
O  O71  1  0.29740000  0.55300000  0.64230000  1.0 -0.4913369586
O  O72  1  0.70260000  0.05300000  0.85770000  1.0 -0.4913369586
O  O73  1  0.57960000  0.28960000  0.07600000  1.0 -0.5081917117
O  O74  1  0.07600000  0.57960000  0.28960000  1.0 -0.5081917117
O  O75  1  0.28960000  0.07600000  0.57960000  1.0 -0.5081917117
O  O76  1  0.92040000  0.71040000  0.57600000  1.0 -0.5081917117
O  O77  1  0.42040000  0.78960000  0.42400000  1.0 -0.5081917117
O  O78  1  0.07960000  0.21040000  0.92400000  1.0 -0.5081917117
O  O79  1  0.57600000  0.92040000  0.71040000  1.0 -0.5081917117
O  O80  1  0.42400000  0.42040000  0.78960000  1.0 -0.5081917117
O  O81  1  0.92400000  0.07960000  0.21040000  1.0 -0.5081917117
O  O82  1  0.71040000  0.57600000  0.92040000  1.0 -0.5081917117
O  O83  1  0.78960000  0.42400000  0.42040000  1.0 -0.5081917117
O  O84  1  0.21040000  0.92400000  0.07960000  1.0 -0.5081917117
O  O85  1  0.42040000  0.71040000  0.92400000  1.0 -0.5081917117
O  O86  1  0.92400000  0.42040000  0.71040000  1.0 -0.5081917117
O  O87  1  0.71040000  0.92400000  0.42040000  1.0 -0.5081917117
O  O88  1  0.07960000  0.28960000  0.42400000  1.0 -0.5081917117
O  O89  1  0.57960000  0.21040000  0.57600000  1.0 -0.5081917117
O  O90  1  0.92040000  0.78960000  0.07600000  1.0 -0.5081917117
O  O91  1  0.42400000  0.07960000  0.28960000  1.0 -0.5081917117
O  O92  1  0.57600000  0.57960000  0.21040000  1.0 -0.5081917117
O  O93  1  0.07600000  0.92040000  0.78960000  1.0 -0.5081917117
O  O94  1  0.28960000  0.42400000  0.07960000  1.0 -0.5081917117
O  O95  1  0.21040000  0.57600000  0.57960000  1.0 -0.5081917117
O  O96  1  0.78960000  0.07600000  0.92040000  1.0 -0.5081917117
O  O97  1  0.78800000  0.20180000  0.11560000  1.0 -0.3653545143
O  O98  1  0.11560000  0.78800000  0.20180000  1.0 -0.3653545143
O  O99  1  0.20180000  0.11560000  0.78800000  1.0 -0.3653545143
O  O100  1  0.71200000  0.79820000  0.61560000  1.0 -0.3646670526
O  O101  1  0.21200000  0.70180000  0.38440000  1.0 -0.3653545143
O  O102  1  0.28800000  0.29820000  0.88440000  1.0 -0.3653545143
O  O103  1  0.61560000  0.71200000  0.79820000  1.0 -0.3646670526
O  O104  1  0.38440000  0.21200000  0.70180000  1.0 -0.3653545143
O  O105  1  0.88440000  0.28800000  0.29820000  1.0 -0.3653545143
O  O106  1  0.79820000  0.61560000  0.71200000  1.0 -0.3646670526
O  O107  1  0.70180000  0.38440000  0.21200000  1.0 -0.3653545143
O  O108  1  0.29820000  0.88440000  0.28800000  1.0 -0.3653545143
O  O109  1  0.21200000  0.79820000  0.88440000  1.0 -0.3646670526
O  O110  1  0.88440000  0.21200000  0.79820000  1.0 -0.3653545143
O  O111  1  0.79820000  0.88440000  0.21200000  1.0 -0.3653545143
O  O112  1  0.28800000  0.20180000  0.38440000  1.0 -0.3653545143
O  O113  1  0.78800000  0.29820000  0.61560000  1.0 -0.3653545143
O  O114  1  0.71200000  0.70180000  0.11560000  1.0 -0.3653545143
O  O115  1  0.38440000  0.28800000  0.20180000  1.0 -0.3653545143
O  O116  1  0.61560000  0.78800000  0.29820000  1.0 -0.3653545143
O  O117  1  0.11560000  0.71200000  0.70180000  1.0 -0.3646670526
O  O118  1  0.20180000  0.38440000  0.28800000  1.0 -0.3653545143
O  O119  1  0.29820000  0.61560000  0.78800000  1.0 -0.3646670526
O  O120  1  0.70180000  0.11560000  0.71200000  1.0 -0.3653545143
O  O121  1  0.83950000  0.07770000  0.05000000  1.0 -0.2636090761
O  O122  1  0.05000000  0.83950000  0.07770000  1.0 -0.2654275371
O  O123  1  0.07770000  0.05000000  0.83950000  1.0 -0.2654275371
O  O124  1  0.66050000  0.92230000  0.55000000  1.0 -0.2636090761
O  O125  1  0.16050000  0.57770000  0.45000000  1.0 -0.2654275371
O  O126  1  0.33950000  0.42230000  0.95000000  1.0 -0.2654275371
O  O127  1  0.55000000  0.66050000  0.92230000  1.0 -0.2636090761
O  O128  1  0.45000000  0.16050000  0.57770000  1.0 -0.2636090761
O  O129  1  0.95000000  0.33950000  0.42230000  1.0 -0.2636090761
O  O130  1  0.92230000  0.55000000  0.66050000  1.0 -0.2636090761
O  O131  1  0.57770000  0.45000000  0.16050000  1.0 -0.2636090761
O  O132  1  0.42230000  0.95000000  0.33950000  1.0 -0.2636090761
O  O133  1  0.16050000  0.92230000  0.95000000  1.0 -0.2654275371
O  O134  1  0.95000000  0.16050000  0.92230000  1.0 -0.2636090761
O  O135  1  0.92230000  0.95000000  0.16050000  1.0 -0.2636090761
O  O136  1  0.33950000  0.07770000  0.45000000  1.0 -0.2636090761
O  O137  1  0.83950000  0.42230000  0.55000000  1.0 -0.2636090761
O  O138  1  0.66050000  0.57770000  0.05000000  1.0 -0.2636090761
O  O139  1  0.45000000  0.33950000  0.07770000  1.0 -0.2636090761
O  O140  1  0.55000000  0.83950000  0.42230000  1.0 -0.2636090761
O  O141  1  0.05000000  0.66050000  0.57770000  1.0 -0.2654275371
O  O142  1  0.07770000  0.45000000  0.33950000  1.0 -0.2654275371
O  O143  1  0.42230000  0.55000000  0.83950000  1.0 -0.2636090761
O  O144  1  0.57770000  0.05000000  0.66050000  1.0 -0.2636090761
O  O145  1  0.68270000  0.17960000  0.90750000  1.0 -0.3161091703
O  O146  1  0.90750000  0.68270000  0.17960000  1.0 -0.3124804257
O  O147  1  0.17960000  0.90750000  0.68270000  1.0 -0.3161091703
O  O148  1  0.81730000  0.82040000  0.40750000  1.0 -0.3124804257
O  O149  1  0.31730000  0.67960000  0.59250000  1.0 -0.3161091703
O  O150  1  0.18270000  0.32040000  0.09250000  1.0 -0.3161091703
O  O151  1  0.40750000  0.81730000  0.82040000  1.0 -0.3161091703
O  O152  1  0.59250000  0.31730000  0.67960000  1.0 -0.3161091703
O  O153  1  0.09250000  0.18270000  0.32040000  1.0 -0.3161091703
O  O154  1  0.82040000  0.40750000  0.81730000  1.0 -0.3161091703
O  O155  1  0.67960000  0.59250000  0.31730000  1.0 -0.3161091703
O  O156  1  0.32040000  0.09250000  0.18270000  1.0 -0.3161091703
O  O157  1  0.31730000  0.82040000  0.09250000  1.0 -0.3124804257
O  O158  1  0.09250000  0.31730000  0.82040000  1.0 -0.3161091703
O  O159  1  0.82040000  0.09250000  0.31730000  1.0 -0.3161091703
O  O160  1  0.18270000  0.17960000  0.59250000  1.0 -0.3161091703
O  O161  1  0.68270000  0.32040000  0.40750000  1.0 -0.3161091703
O  O162  1  0.81730000  0.67960000  0.90750000  1.0 -0.3161091703
O  O163  1  0.59250000  0.18270000  0.17960000  1.0 -0.3161091703
O  O164  1  0.40750000  0.68270000  0.32040000  1.0 -0.3124804257
O  O165  1  0.90750000  0.81730000  0.67960000  1.0 -0.3124804257
O  O166  1  0.17960000  0.59250000  0.18270000  1.0 -0.3161091703
O  O167  1  0.32040000  0.40750000  0.68270000  1.0 -0.3161091703
O  O168  1  0.67960000  0.90750000  0.81730000  1.0 -0.3161091703
O  O169  1  0.65610000  0.05770000  0.98670000  1.0 -0.2427861723
O  O170  1  0.98670000  0.65610000  0.05770000  1.0 -0.2427861723
O  O171  1  0.05770000  0.98670000  0.65610000  1.0 -0.2427861723
O  O172  1  0.84390000  0.94230000  0.48670000  1.0 -0.2427861723
O  O173  1  0.34390000  0.55770000  0.51330000  1.0 -0.2427861723
O  O174  1  0.15610000  0.44230000  0.01330000  1.0 -0.2427861723
O  O175  1  0.48670000  0.84390000  0.94230000  1.0 -0.2427861723
O  O176  1  0.51330000  0.34390000  0.55770000  1.0 -0.2427861723
O  O177  1  0.01330000  0.15610000  0.44230000  1.0 -0.2427861723
O  O178  1  0.94230000  0.48670000  0.84390000  1.0 -0.2427861723
O  O179  1  0.55770000  0.51330000  0.34390000  1.0 -0.2427861723
O  O180  1  0.44230000  0.01330000  0.15610000  1.0 -0.2427861723
O  O181  1  0.34390000  0.94230000  0.01330000  1.0 -0.2427861723
O  O182  1  0.01330000  0.34390000  0.94230000  1.0 -0.2427861723
O  O183  1  0.94230000  0.01330000  0.34390000  1.0 -0.2427861723
O  O184  1  0.15610000  0.05770000  0.51330000  1.0 -0.2427861723
O  O185  1  0.65610000  0.44230000  0.48670000  1.0 -0.2427861723
O  O186  1  0.84390000  0.55770000  0.98670000  1.0 -0.2427861723
O  O187  1  0.51330000  0.15610000  0.05770000  1.0 -0.2427861723
O  O188  1  0.48670000  0.65610000  0.44230000  1.0 -0.2427861723
O  O189  1  0.98670000  0.84390000  0.55770000  1.0 -0.2427861723
O  O190  1  0.05770000  0.51330000  0.15610000  1.0 -0.2427861723
O  O191  1  0.44230000  0.48670000  0.65610000  1.0 -0.2427861723
O  O192  1  0.55770000  0.98670000  0.84390000  1.0 -0.2427861723
O  O193  1  0.67490000  0.59500000  0.62290000  1.0 -0.2803146487
O  O194  1  0.62290000  0.67490000  0.59500000  1.0 -0.2803146487
O  O195  1  0.59500000  0.62290000  0.67490000  1.0 -0.2803146487
O  O196  1  0.09500000  0.87710000  0.32510000  1.0 -0.2803146487
O  O197  1  0.17490000  0.90500000  0.37710000  1.0 -0.2803146487
O  O198  1  0.12290000  0.82510000  0.40500000  1.0 -0.2803146487
O  O199  1  0.87710000  0.32510000  0.09500000  1.0 -0.2803146487
O  O200  1  0.82510000  0.40500000  0.12290000  1.0 -0.2803146487
O  O201  1  0.90500000  0.37710000  0.17490000  1.0 -0.2803146487
O  O202  1  0.32510000  0.09500000  0.87710000  1.0 -0.2803146487
O  O203  1  0.37710000  0.17490000  0.90500000  1.0 -0.2803146487
O  O204  1  0.40500000  0.12290000  0.82510000  1.0 -0.2803146487
O  O205  1  0.32510000  0.40500000  0.37710000  1.0 -0.2803146487
O  O206  1  0.37710000  0.32510000  0.40500000  1.0 -0.2803146487
O  O207  1  0.40500000  0.37710000  0.32510000  1.0 -0.2803146487
O  O208  1  0.90500000  0.12290000  0.67490000  1.0 -0.2803146487
O  O209  1  0.82510000  0.09500000  0.62290000  1.0 -0.2803146487
O  O210  1  0.87710000  0.17490000  0.59500000  1.0 -0.2803146487
O  O211  1  0.12290000  0.67490000  0.90500000  1.0 -0.2803146487
O  O212  1  0.17490000  0.59500000  0.87710000  1.0 -0.2803146487
O  O213  1  0.09500000  0.62290000  0.82510000  1.0 -0.2803146487
O  O214  1  0.67490000  0.90500000  0.12290000  1.0 -0.2803146487
O  O215  1  0.62290000  0.82510000  0.09500000  1.0 -0.2803146487
O  O216  1  0.59500000  0.87710000  0.17490000  1.0 -0.2803146487
O  O217  1  0.74530000  0.76230000  0.82720000  1.0 -0.3124804257
O  O218  1  0.82720000  0.74530000  0.76230000  1.0 -0.3124804257
O  O219  1  0.76230000  0.82720000  0.74530000  1.0 -0.3124804257
O  O220  1  0.73770000  0.17280000  0.24530000  1.0 -0.3124804257
O  O221  1  0.75470000  0.23770000  0.32720000  1.0 -0.3124804257
O  O222  1  0.67280000  0.25470000  0.26230000  1.0 -0.3124804257
O  O223  1  0.17280000  0.24530000  0.73770000  1.0 -0.3124804257
O  O224  1  0.25470000  0.26230000  0.67280000  1.0 -0.3124804257
O  O225  1  0.23770000  0.32720000  0.75470000  1.0 -0.3124804257
O  O226  1  0.24530000  0.73770000  0.17280000  1.0 -0.3124804257
O  O227  1  0.32720000  0.75470000  0.23770000  1.0 -0.3124804257
O  O228  1  0.26230000  0.67280000  0.25470000  1.0 -0.3124804257
O  O229  1  0.25470000  0.23770000  0.17280000  1.0 -0.3124804257
O  O230  1  0.17280000  0.25470000  0.23770000  1.0 -0.3124804257
O  O231  1  0.23770000  0.17280000  0.25470000  1.0 -0.3124804257
O  O232  1  0.26230000  0.82720000  0.75470000  1.0 -0.3124804257
O  O233  1  0.24530000  0.76230000  0.67280000  1.0 -0.3124804257
O  O234  1  0.32720000  0.74530000  0.73770000  1.0 -0.3124804257
O  O235  1  0.82720000  0.75470000  0.26230000  1.0 -0.3124804257
O  O236  1  0.74530000  0.73770000  0.32720000  1.0 -0.3124804257
O  O237  1  0.76230000  0.67280000  0.24530000  1.0 -0.3124804257
O  O238  1  0.75470000  0.26230000  0.82720000  1.0 -0.3124804257
O  O239  1  0.67280000  0.24530000  0.76230000  1.0 -0.3124804257
O  O240  1  0.73770000  0.32720000  0.74530000  1.0 -0.3124804257
