# DDEC6 charges by PACMAN v1.1 (https://github.com/mtap-research/PACMAN-charge/)
data_DANZAV_FSR_pacman
_symmetry_space_group_name_H-M   'P 1'
_cell_length_a   28.93180000
_cell_length_b   28.93180000
_cell_length_c   10.36460000
_cell_angle_alpha   90.00000000
_cell_angle_beta   90.00000000
_cell_angle_gamma   90.00000000
_symmetry_Int_Tables_number   1
_chemical_formula_structural   Cd7H172C152N24Cl5O56
_chemical_formula_sum   'Cd14 H344 C304 N48 Cl10 O112'
_cell_volume   8675.67859648
_cell_formula_units_Z   2
loop_
 _symmetry_equiv_pos_site_id
 _symmetry_equiv_pos_as_xyz
  1  'x, y, z'
loop_
 _atom_site_type_symbol
 _atom_site_label
 _atom_site_symmetry_multiplicity
 _atom_site_fract_x
 _atom_site_fract_y
 _atom_site_fract_z
 _atom_site_occupancy
 _atom_site_charge
Cd  Cd1  1  0.84451000  0.73842000  0.76824000  1.0 0.931771804
Cd  Cd2  1  0.23842000  0.65549000  0.76824000  1.0 0.931771804
Cd  Cd3  1  0.15549000  0.26158000  0.76824000  1.0 0.931771804
Cd  Cd4  1  0.76158000  0.34451000  0.76824000  1.0 0.931771804
Cd  Cd5  1  0.65549000  0.76158000  0.23176000  1.0 0.931771804
Cd  Cd6  1  0.26158000  0.84451000  0.23176000  1.0 0.931771804
Cd  Cd7  1  0.34451000  0.23842000  0.23176000  1.0 0.931771804
Cd  Cd8  1  0.73842000  0.15549000  0.23176000  1.0 0.931771804
Cd  Cd9  1  0.75000000  0.75000000  0.00000000  1.0 0.9735160808
Cd  Cd10  1  0.25000000  0.75000000  0.00000000  1.0 0.9735160808
Cd  Cd11  1  0.25000000  0.25000000  0.00000000  1.0 0.9735160808
Cd  Cd12  1  0.75000000  0.25000000  0.00000000  1.0 0.9735160808
Cd  Cd13  1  0.00000000  0.50000000  0.25983000  1.0 0.7544888597
Cd  Cd14  1  0.50000000  0.00000000  0.74017000  1.0 0.7544888597
H  H1  1  0.66050000  0.60630000  0.32900000  1.0 0.1198497323
H  H2  1  0.10630000  0.83950000  0.32900000  1.0 0.1198497323
H  H3  1  0.33950000  0.39370000  0.32900000  1.0 0.1198497323
H  H4  1  0.89370000  0.16050000  0.32900000  1.0 0.1198497323
H  H5  1  0.83950000  0.89370000  0.67100000  1.0 0.1198497323
H  H6  1  0.39370000  0.66050000  0.67100000  1.0 0.1198497323
H  H7  1  0.16050000  0.10630000  0.67100000  1.0 0.1198497323
H  H8  1  0.60630000  0.33950000  0.67100000  1.0 0.1198497323
H  H9  1  0.67440000  0.52880000  0.37300000  1.0 0.1284183842
H  H10  1  0.02880000  0.82560000  0.37300000  1.0 0.1284183842
H  H11  1  0.32560000  0.47120000  0.37300000  1.0 0.1284183842
H  H12  1  0.97120000  0.17440000  0.37300000  1.0 0.1284183842
H  H13  1  0.82560000  0.97120000  0.62700000  1.0 0.1284183842
H  H14  1  0.47120000  0.67440000  0.62700000  1.0 0.1284183842
H  H15  1  0.17440000  0.02880000  0.62700000  1.0 0.1284183842
H  H16  1  0.52880000  0.32560000  0.62700000  1.0 0.1284183842
H  H17  1  0.77470000  0.52740000  0.10320000  1.0 0.1198497323
H  H18  1  0.02740000  0.72530000  0.10320000  1.0 0.1198497323
H  H19  1  0.22530000  0.47260000  0.10320000  1.0 0.1198497323
H  H20  1  0.97260000  0.27470000  0.10320000  1.0 0.1198497323
H  H21  1  0.72530000  0.97260000  0.89680000  1.0 0.1198497323
H  H22  1  0.47260000  0.77470000  0.89680000  1.0 0.1198497323
H  H23  1  0.27470000  0.02740000  0.89680000  1.0 0.1198497323
H  H24  1  0.52740000  0.22530000  0.89680000  1.0 0.1198497323
H  H25  1  0.76270000  0.60520000  0.06420000  1.0 0.1198497323
H  H26  1  0.10520000  0.73730000  0.06420000  1.0 0.1198497323
H  H27  1  0.23730000  0.39480000  0.06420000  1.0 0.1198497323
H  H28  1  0.89480000  0.26270000  0.06420000  1.0 0.1198497323
H  H29  1  0.73730000  0.89480000  0.93580000  1.0 0.1198497323
H  H30  1  0.39480000  0.76270000  0.93580000  1.0 0.1198497323
H  H31  1  0.26270000  0.10520000  0.93580000  1.0 0.1198497323
H  H32  1  0.60520000  0.23730000  0.93580000  1.0 0.1198497323
H  H33  1  0.74190000  0.45370000  0.07380000  1.0 0.1198497323
H  H34  1  0.95370000  0.75810000  0.07380000  1.0 0.1198497323
H  H35  1  0.25810000  0.54630000  0.07380000  1.0 0.1198497323
H  H36  1  0.04630000  0.24190000  0.07380000  1.0 0.1198497323
H  H37  1  0.75810000  0.04630000  0.92620000  1.0 0.1198497323
H  H38  1  0.54630000  0.74190000  0.92620000  1.0 0.1198497323
H  H39  1  0.24190000  0.95370000  0.92620000  1.0 0.1198497323
H  H40  1  0.45370000  0.25810000  0.92620000  1.0 0.1198497323
H  H41  1  0.75260000  0.34260000  0.30590000  1.0 0.1198497323
H  H42  1  0.84260000  0.74740000  0.30590000  1.0 0.1198497323
H  H43  1  0.24740000  0.65740000  0.30590000  1.0 0.1198497323
H  H44  1  0.15740000  0.25260000  0.30590000  1.0 0.1198497323
H  H45  1  0.74740000  0.15740000  0.69410000  1.0 0.1198497323
H  H46  1  0.65740000  0.75260000  0.69410000  1.0 0.1198497323
H  H47  1  0.25260000  0.84260000  0.69410000  1.0 0.1198497323
H  H48  1  0.34260000  0.24740000  0.69410000  1.0 0.1198497323
H  H49  1  0.73080000  0.46980000  0.45830000  1.0 0.1198497323
H  H50  1  0.96980000  0.76920000  0.45830000  1.0 0.1198497323
H  H51  1  0.26920000  0.53020000  0.45830000  1.0 0.1198497323
H  H52  1  0.03020000  0.23080000  0.45830000  1.0 0.1198497323
H  H53  1  0.76920000  0.03020000  0.54170000  1.0 0.1198497323
H  H54  1  0.53020000  0.73080000  0.54170000  1.0 0.1198497323
H  H55  1  0.23080000  0.96980000  0.54170000  1.0 0.1198497323
H  H56  1  0.46980000  0.26920000  0.54170000  1.0 0.1198497323
H  H57  1  0.17790000  0.48340000  0.37830000  1.0 0.1284183842
H  H58  1  0.98340000  0.32210000  0.37830000  1.0 0.1284183842
H  H59  1  0.82210000  0.51660000  0.37830000  1.0 0.1284183842
H  H60  1  0.01660000  0.67790000  0.37830000  1.0 0.1284183842
H  H61  1  0.32210000  0.01660000  0.62170000  1.0 0.1284183842
H  H62  1  0.51660000  0.17790000  0.62170000  1.0 0.1284183842
H  H63  1  0.67790000  0.98340000  0.62170000  1.0 0.1284183842
H  H64  1  0.48340000  0.82210000  0.62170000  1.0 0.1284183842
H  H65  1  0.16470000  0.56830000  0.38080000  1.0 0.1284183842
H  H66  1  0.06830000  0.33530000  0.38080000  1.0 0.1284183842
H  H67  1  0.83530000  0.43170000  0.38080000  1.0 0.1284183842
H  H68  1  0.93170000  0.66470000  0.38080000  1.0 0.1284183842
H  H69  1  0.33530000  0.93170000  0.61920000  1.0 0.1284183842
H  H70  1  0.43170000  0.16470000  0.61920000  1.0 0.1284183842
H  H71  1  0.66470000  0.06830000  0.61920000  1.0 0.1284183842
H  H72  1  0.56830000  0.83530000  0.61920000  1.0 0.1284183842
H  H73  1  0.21130000  0.36700000  0.59170000  1.0 0.1098475571
H  H74  1  0.86700000  0.28870000  0.59170000  1.0 0.1098475571
H  H75  1  0.78870000  0.63300000  0.59170000  1.0 0.1098475571
H  H76  1  0.13300000  0.71130000  0.59170000  1.0 0.1098475571
H  H77  1  0.28870000  0.13300000  0.40830000  1.0 0.1098475571
H  H78  1  0.63300000  0.21130000  0.40830000  1.0 0.1098475571
H  H79  1  0.71130000  0.86700000  0.40830000  1.0 0.1098475571
H  H80  1  0.36700000  0.78870000  0.40830000  1.0 0.1098475571
H  H81  1  0.14990000  0.41720000  0.56020000  1.0 0.1410371814
H  H82  1  0.91720000  0.35010000  0.56020000  1.0 0.1410371814
H  H83  1  0.85010000  0.58280000  0.56020000  1.0 0.1410371814
H  H84  1  0.08280000  0.64990000  0.56020000  1.0 0.1410371814
H  H85  1  0.35010000  0.08280000  0.43980000  1.0 0.1410371814
H  H86  1  0.58280000  0.14990000  0.43980000  1.0 0.1410371814
H  H87  1  0.64990000  0.91720000  0.43980000  1.0 0.1410371814
H  H88  1  0.41720000  0.85010000  0.43980000  1.0 0.1410371814
H  H89  1  0.13680000  0.36950000  0.19630000  1.0 0.1572155981
H  H90  1  0.86950000  0.36320000  0.19630000  1.0 0.1572155981
H  H91  1  0.86320000  0.63050000  0.19630000  1.0 0.1572155981
H  H92  1  0.13050000  0.63680000  0.19630000  1.0 0.1572155981
H  H93  1  0.36320000  0.13050000  0.80370000  1.0 0.1572155981
H  H94  1  0.63050000  0.13680000  0.80370000  1.0 0.1572155981
H  H95  1  0.63680000  0.86950000  0.80370000  1.0 0.1572155981
H  H96  1  0.36950000  0.86320000  0.80370000  1.0 0.1572155981
H  H97  1  0.20060000  0.32160000  0.23300000  1.0 0.1284183842
H  H98  1  0.82160000  0.29940000  0.23300000  1.0 0.1284183842
H  H99  1  0.79940000  0.67840000  0.23300000  1.0 0.1284183842
H  H100  1  0.17840000  0.70060000  0.23300000  1.0 0.1284183842
H  H101  1  0.29940000  0.17840000  0.76700000  1.0 0.1284183842
H  H102  1  0.67840000  0.20060000  0.76700000  1.0 0.1284183842
H  H103  1  0.70060000  0.82160000  0.76700000  1.0 0.1284183842
H  H104  1  0.32160000  0.79940000  0.76700000  1.0 0.1284183842
H  H105  1  0.24920000  0.28400000  0.37280000  1.0 0.1537420027
H  H106  1  0.78400000  0.25080000  0.37280000  1.0 0.1537420027
H  H107  1  0.75080000  0.71600000  0.37280000  1.0 0.1537420027
H  H108  1  0.21600000  0.74920000  0.37280000  1.0 0.1537420027
H  H109  1  0.25080000  0.21600000  0.62720000  1.0 0.1537420027
H  H110  1  0.71600000  0.24920000  0.62720000  1.0 0.1537420027
H  H111  1  0.74920000  0.78400000  0.62720000  1.0 0.1537420027
H  H112  1  0.28400000  0.75080000  0.62720000  1.0 0.1537420027
H  H113  1  0.27860000  0.32570000  0.43220000  1.0 0.1410371814
H  H114  1  0.82570000  0.22140000  0.43220000  1.0 0.1410371814
H  H115  1  0.72140000  0.67430000  0.43220000  1.0 0.1410371814
H  H116  1  0.17430000  0.77860000  0.43220000  1.0 0.1410371814
H  H117  1  0.22140000  0.17430000  0.56780000  1.0 0.1410371814
H  H118  1  0.67430000  0.27860000  0.56780000  1.0 0.1410371814
H  H119  1  0.77860000  0.82570000  0.56780000  1.0 0.1410371814
H  H120  1  0.32570000  0.72140000  0.56780000  1.0 0.1410371814
H  H121  1  0.24640000  0.29500000  0.52390000  1.0 0.1572155981
H  H122  1  0.79500000  0.25360000  0.52390000  1.0 0.1572155981
H  H123  1  0.75360000  0.70500000  0.52390000  1.0 0.1572155981
H  H124  1  0.20500000  0.74640000  0.52390000  1.0 0.1572155981
H  H125  1  0.25360000  0.20500000  0.47610000  1.0 0.1572155981
H  H126  1  0.70500000  0.24640000  0.47610000  1.0 0.1572155981
H  H127  1  0.74640000  0.79500000  0.47610000  1.0 0.1572155981
H  H128  1  0.29500000  0.75360000  0.47610000  1.0 0.1572155981
H  H129  1  0.96470000  0.60910000  0.09140000  1.0 0.102410993
H  H130  1  0.10910000  0.53530000  0.09140000  1.0 0.102410993
H  H131  1  0.03530000  0.39090000  0.09140000  1.0 0.102410993
H  H132  1  0.89090000  0.46470000  0.09140000  1.0 0.102410993
H  H133  1  0.53530000  0.89090000  0.90860000  1.0 0.102410993
H  H134  1  0.39090000  0.96470000  0.90860000  1.0 0.102410993
H  H135  1  0.46470000  0.10910000  0.90860000  1.0 0.102410993
H  H136  1  0.60910000  0.03530000  0.90860000  1.0 0.102410993
H  H137  1  0.04640000  0.60800000  0.89080000  1.0 0.1537420027
H  H138  1  0.10800000  0.45360000  0.89080000  1.0 0.1537420027
H  H139  1  0.95360000  0.39200000  0.89080000  1.0 0.1537420027
H  H140  1  0.89200000  0.54640000  0.89080000  1.0 0.1537420027
H  H141  1  0.45360000  0.89200000  0.10920000  1.0 0.1537420027
H  H142  1  0.39200000  0.04640000  0.10920000  1.0 0.1537420027
H  H143  1  0.54640000  0.10800000  0.10920000  1.0 0.1537420027
H  H144  1  0.60800000  0.95360000  0.10920000  1.0 0.1537420027
H  H145  1  0.05790000  0.65350000  0.97260000  1.0 0.1284183842
H  H146  1  0.15350000  0.44210000  0.97260000  1.0 0.1284183842
H  H147  1  0.94210000  0.34650000  0.97260000  1.0 0.1284183842
H  H148  1  0.84650000  0.55790000  0.97260000  1.0 0.1284183842
H  H149  1  0.44210000  0.84650000  0.02740000  1.0 0.1284183842
H  H150  1  0.34650000  0.05790000  0.02740000  1.0 0.1284183842
H  H151  1  0.55790000  0.15350000  0.02740000  1.0 0.1284183842
H  H152  1  0.65350000  0.94210000  0.02740000  1.0 0.1284183842
H  H153  1  0.03990000  0.60800000  0.04420000  1.0 0.1284183842
H  H154  1  0.10800000  0.46010000  0.04420000  1.0 0.1284183842
H  H155  1  0.96010000  0.39200000  0.04420000  1.0 0.1284183842
H  H156  1  0.89200000  0.53990000  0.04420000  1.0 0.1284183842
H  H157  1  0.46010000  0.89200000  0.95580000  1.0 0.1284183842
H  H158  1  0.39200000  0.03990000  0.95580000  1.0 0.1284183842
H  H159  1  0.53990000  0.10800000  0.95580000  1.0 0.1284183842
H  H160  1  0.60800000  0.96010000  0.95580000  1.0 0.1284183842
H  H161  1  0.96170000  0.66340000  0.78040000  1.0 0.1537420027
H  H162  1  0.16340000  0.53830000  0.78040000  1.0 0.1537420027
H  H163  1  0.03830000  0.33660000  0.78040000  1.0 0.1537420027
H  H164  1  0.83660000  0.46170000  0.78040000  1.0 0.1537420027
H  H165  1  0.53830000  0.83660000  0.21960000  1.0 0.1537420027
H  H166  1  0.33660000  0.96170000  0.21960000  1.0 0.1537420027
H  H167  1  0.46170000  0.16340000  0.21960000  1.0 0.1537420027
H  H168  1  0.66340000  0.03830000  0.21960000  1.0 0.1537420027
H  H169  1  0.96730000  0.70430000  0.88300000  1.0 0.1284183842
H  H170  1  0.20430000  0.53270000  0.88300000  1.0 0.1284183842
H  H171  1  0.03270000  0.29570000  0.88300000  1.0 0.1284183842
H  H172  1  0.79570000  0.46730000  0.88300000  1.0 0.1284183842
H  H173  1  0.53270000  0.79570000  0.11700000  1.0 0.1284183842
H  H174  1  0.29570000  0.96730000  0.11700000  1.0 0.1284183842
H  H175  1  0.46730000  0.20430000  0.11700000  1.0 0.1284183842
H  H176  1  0.70430000  0.03270000  0.11700000  1.0 0.1284183842
H  H177  1  0.01160000  0.68520000  0.80760000  1.0 0.1198497323
H  H178  1  0.18520000  0.48840000  0.80760000  1.0 0.1198497323
H  H179  1  0.98840000  0.31480000  0.80760000  1.0 0.1198497323
H  H180  1  0.81480000  0.51160000  0.80760000  1.0 0.1198497323
H  H181  1  0.48840000  0.81480000  0.19240000  1.0 0.1198497323
H  H182  1  0.31480000  0.01160000  0.19240000  1.0 0.1198497323
H  H183  1  0.51160000  0.18520000  0.19240000  1.0 0.1198497323
H  H184  1  0.68520000  0.98840000  0.19240000  1.0 0.1198497323
H  H185  1  0.79260000  0.03110000  0.22490000  1.0 0.1284183842
H  H186  1  0.53110000  0.70740000  0.22490000  1.0 0.1284183842
H  H187  1  0.20740000  0.96890000  0.22490000  1.0 0.1284183842
H  H188  1  0.46890000  0.29260000  0.22490000  1.0 0.1284183842
H  H189  1  0.70740000  0.46890000  0.77510000  1.0 0.1284183842
H  H190  1  0.96890000  0.79260000  0.77510000  1.0 0.1284183842
H  H191  1  0.29260000  0.53110000  0.77510000  1.0 0.1284183842
H  H192  1  0.03110000  0.20740000  0.77510000  1.0 0.1284183842
H  H193  1  0.88370000  0.07080000  0.04090000  1.0 0.1198497323
H  H194  1  0.57080000  0.61630000  0.04090000  1.0 0.1198497323
H  H195  1  0.11630000  0.92920000  0.04090000  1.0 0.1198497323
H  H196  1  0.42920000  0.38370000  0.04090000  1.0 0.1198497323
H  H197  1  0.61630000  0.42920000  0.95910000  1.0 0.1198497323
H  H198  1  0.92920000  0.88370000  0.95910000  1.0 0.1198497323
H  H199  1  0.38370000  0.57080000  0.95910000  1.0 0.1198497323
H  H200  1  0.07080000  0.11630000  0.95910000  1.0 0.1198497323
H  H201  1  0.83270000  0.08910000  0.07180000  1.0 0.2080823447
H  H202  1  0.58910000  0.66730000  0.07180000  1.0 0.2080823447
H  H203  1  0.16730000  0.91090000  0.07180000  1.0 0.2080823447
H  H204  1  0.41090000  0.33270000  0.07180000  1.0 0.2080823447
H  H205  1  0.66730000  0.41090000  0.92820000  1.0 0.2080823447
H  H206  1  0.91090000  0.83270000  0.92820000  1.0 0.2080823447
H  H207  1  0.33270000  0.58910000  0.92820000  1.0 0.2080823447
H  H208  1  0.08910000  0.16730000  0.92820000  1.0 0.2080823447
H  H209  1  0.86740000  0.07710000  0.18730000  1.0 0.2443862021
H  H210  1  0.57710000  0.63260000  0.18730000  1.0 0.2443862021
H  H211  1  0.13260000  0.92290000  0.18730000  1.0 0.2443862021
H  H212  1  0.42290000  0.36740000  0.18730000  1.0 0.2443862021
H  H213  1  0.63260000  0.42290000  0.81270000  1.0 0.2443862021
H  H214  1  0.92290000  0.86740000  0.81270000  1.0 0.2443862021
H  H215  1  0.36740000  0.57710000  0.81270000  1.0 0.2443862021
H  H216  1  0.07710000  0.13260000  0.81270000  1.0 0.2443862021
H  H217  1  0.88980000  0.00420000  0.97310000  1.0 0.1410371814
H  H218  1  0.50420000  0.61020000  0.97310000  1.0 0.1410371814
H  H219  1  0.11020000  0.99580000  0.97310000  1.0 0.1410371814
H  H220  1  0.49580000  0.38980000  0.97310000  1.0 0.1410371814
H  H221  1  0.61020000  0.49580000  0.02690000  1.0 0.1410371814
H  H222  1  0.99580000  0.88980000  0.02690000  1.0 0.1410371814
H  H223  1  0.38980000  0.50420000  0.02690000  1.0 0.1410371814
H  H224  1  0.00420000  0.11020000  0.02690000  1.0 0.1410371814
H  H225  1  0.87780000  0.96370000  0.07280000  1.0 0.1098475571
H  H226  1  0.46370000  0.62220000  0.07280000  1.0 0.1098475571
H  H227  1  0.12220000  0.03630000  0.07280000  1.0 0.1098475571
H  H228  1  0.53630000  0.37780000  0.07280000  1.0 0.1098475571
H  H229  1  0.62220000  0.53630000  0.92720000  1.0 0.1098475571
H  H230  1  0.03630000  0.87780000  0.92720000  1.0 0.1098475571
H  H231  1  0.37780000  0.46370000  0.92720000  1.0 0.1098475571
H  H232  1  0.96370000  0.12220000  0.92720000  1.0 0.1098475571
H  H233  1  0.84300000  0.97530000  0.95720000  1.0 0.1284183842
H  H234  1  0.47530000  0.65700000  0.95720000  1.0 0.1284183842
H  H235  1  0.15700000  0.02470000  0.95720000  1.0 0.1284183842
H  H236  1  0.52470000  0.34300000  0.95720000  1.0 0.1284183842
H  H237  1  0.65700000  0.52470000  0.04280000  1.0 0.1284183842
H  H238  1  0.02470000  0.84300000  0.04280000  1.0 0.1284183842
H  H239  1  0.34300000  0.47530000  0.04280000  1.0 0.1284183842
H  H240  1  0.97530000  0.15700000  0.04280000  1.0 0.1284183842
H  H241  1  0.87320000  0.23750000  0.88530000  1.0 0.1098475571
H  H242  1  0.73750000  0.62680000  0.88530000  1.0 0.1098475571
H  H243  1  0.12680000  0.76250000  0.88530000  1.0 0.1098475571
H  H244  1  0.26250000  0.37320000  0.88530000  1.0 0.1098475571
H  H245  1  0.62680000  0.26250000  0.11470000  1.0 0.1098475571
H  H246  1  0.76250000  0.87320000  0.11470000  1.0 0.1098475571
H  H247  1  0.37320000  0.73750000  0.11470000  1.0 0.1098475571
H  H248  1  0.23750000  0.12680000  0.11470000  1.0 0.1098475571
H  H249  1  0.90210000  0.14130000  0.70080000  1.0 0.1198497323
H  H250  1  0.64130000  0.59790000  0.70080000  1.0 0.1198497323
H  H251  1  0.09790000  0.85870000  0.70080000  1.0 0.1198497323
H  H252  1  0.35870000  0.40210000  0.70080000  1.0 0.1198497323
H  H253  1  0.59790000  0.35870000  0.29920000  1.0 0.1198497323
H  H254  1  0.85870000  0.90210000  0.29920000  1.0 0.1198497323
H  H255  1  0.40210000  0.64130000  0.29920000  1.0 0.1198497323
H  H256  1  0.14130000  0.09790000  0.29920000  1.0 0.1198497323
H  H257  1  0.89570000  0.15290000  0.85060000  1.0 0.102410993
H  H258  1  0.65290000  0.60430000  0.85060000  1.0 0.102410993
H  H259  1  0.10430000  0.84710000  0.85060000  1.0 0.102410993
H  H260  1  0.34710000  0.39570000  0.85060000  1.0 0.102410993
H  H261  1  0.60430000  0.34710000  0.14940000  1.0 0.102410993
H  H262  1  0.84710000  0.89570000  0.14940000  1.0 0.102410993
H  H263  1  0.39570000  0.65290000  0.14940000  1.0 0.102410993
H  H264  1  0.15290000  0.10430000  0.14940000  1.0 0.102410993
H  H265  1  0.85440000  0.16270000  0.75150000  1.0 0.1098475571
H  H266  1  0.66270000  0.64560000  0.75150000  1.0 0.1098475571
H  H267  1  0.14560000  0.83730000  0.75150000  1.0 0.1098475571
H  H268  1  0.33730000  0.35440000  0.75150000  1.0 0.1098475571
H  H269  1  0.64560000  0.33730000  0.24850000  1.0 0.1098475571
H  H270  1  0.83730000  0.85440000  0.24850000  1.0 0.1098475571
H  H271  1  0.35440000  0.66270000  0.24850000  1.0 0.1098475571
H  H272  1  0.16270000  0.14560000  0.24850000  1.0 0.1098475571
H  H273  1  0.94220000  0.18590000  0.59050000  1.0 0.1284183842
H  H274  1  0.68590000  0.55780000  0.59050000  1.0 0.1284183842
H  H275  1  0.05780000  0.81410000  0.59050000  1.0 0.1284183842
H  H276  1  0.31410000  0.44220000  0.59050000  1.0 0.1284183842
H  H277  1  0.55780000  0.31410000  0.40950000  1.0 0.1284183842
H  H278  1  0.81410000  0.94220000  0.40950000  1.0 0.1284183842
H  H279  1  0.44220000  0.68590000  0.40950000  1.0 0.1284183842
H  H280  1  0.18590000  0.05780000  0.40950000  1.0 0.1284183842
H  H281  1  0.92280000  0.23730000  0.57320000  1.0 0.1284183842
H  H282  1  0.73730000  0.57720000  0.57320000  1.0 0.1284183842
H  H283  1  0.07720000  0.76270000  0.57320000  1.0 0.1284183842
H  H284  1  0.26270000  0.42280000  0.57320000  1.0 0.1284183842
H  H285  1  0.57720000  0.26270000  0.42680000  1.0 0.1284183842
H  H286  1  0.76270000  0.92280000  0.42680000  1.0 0.1284183842
H  H287  1  0.42280000  0.73730000  0.42680000  1.0 0.1284183842
H  H288  1  0.23730000  0.07720000  0.42680000  1.0 0.1284183842
H  H289  1  0.96590000  0.22790000  0.66610000  1.0 0.2223245263
H  H290  1  0.72790000  0.53410000  0.66610000  1.0 0.2223245263
H  H291  1  0.03410000  0.77210000  0.66610000  1.0 0.2223245263
H  H292  1  0.27210000  0.46590000  0.66610000  1.0 0.2223245263
H  H293  1  0.53410000  0.27210000  0.33390000  1.0 0.2223245263
H  H294  1  0.77210000  0.96590000  0.33390000  1.0 0.2223245263
H  H295  1  0.46590000  0.72790000  0.33390000  1.0 0.2223245263
H  H296  1  0.22790000  0.03410000  0.33390000  1.0 0.2223245263
H  H297  1  0.85950000  0.18650000  0.84070000  1.0 0.102410993
H  H298  1  0.68650000  0.64050000  0.84070000  1.0 0.102410993
H  H299  1  0.14050000  0.81350000  0.84070000  1.0 0.102410993
H  H300  1  0.31350000  0.35950000  0.84070000  1.0 0.102410993
H  H301  1  0.64050000  0.31350000  0.15930000  1.0 0.102410993
H  H302  1  0.81350000  0.85950000  0.15930000  1.0 0.102410993
H  H303  1  0.35950000  0.68650000  0.15930000  1.0 0.102410993
H  H304  1  0.18650000  0.14050000  0.15930000  1.0 0.102410993
H  H305  1  0.83630000  0.14230000  0.90710000  1.0 0.102410993
H  H306  1  0.64230000  0.66370000  0.90710000  1.0 0.102410993
H  H307  1  0.16370000  0.85770000  0.90710000  1.0 0.102410993
H  H308  1  0.35770000  0.33630000  0.90710000  1.0 0.102410993
H  H309  1  0.66370000  0.35770000  0.09290000  1.0 0.102410993
H  H310  1  0.85770000  0.83630000  0.09290000  1.0 0.102410993
H  H311  1  0.33630000  0.64230000  0.09290000  1.0 0.102410993
H  H312  1  0.14230000  0.16370000  0.09290000  1.0 0.102410993
H  H313  1  0.89060000  0.15120000  0.92180000  1.0 0.1098475571
H  H314  1  0.65120000  0.60940000  0.92180000  1.0 0.1098475571
H  H315  1  0.10940000  0.84880000  0.92180000  1.0 0.1098475571
H  H316  1  0.34880000  0.39060000  0.92180000  1.0 0.1098475571
H  H317  1  0.60940000  0.34880000  0.07820000  1.0 0.1098475571
H  H318  1  0.84880000  0.89060000  0.07820000  1.0 0.1098475571
H  H319  1  0.39060000  0.65120000  0.07820000  1.0 0.1098475571
H  H320  1  0.15120000  0.10940000  0.07820000  1.0 0.1098475571
H  H321  1  0.86370000  0.18420000  0.64220000  1.0 0.1198497323
H  H322  1  0.68420000  0.63630000  0.64220000  1.0 0.1198497323
H  H323  1  0.13630000  0.81580000  0.64220000  1.0 0.1198497323
H  H324  1  0.31580000  0.36370000  0.64220000  1.0 0.1198497323
H  H325  1  0.63630000  0.31580000  0.35780000  1.0 0.1198497323
H  H326  1  0.81580000  0.86370000  0.35780000  1.0 0.1198497323
H  H327  1  0.36370000  0.68420000  0.35780000  1.0 0.1198497323
H  H328  1  0.18420000  0.13630000  0.35780000  1.0 0.1198497323
H  H329  1  0.89730000  0.14670000  0.57750000  1.0 0.0895562212
H  H330  1  0.64670000  0.60270000  0.57750000  1.0 0.0895562212
H  H331  1  0.10270000  0.85330000  0.57750000  1.0 0.0895562212
H  H332  1  0.35330000  0.39730000  0.57750000  1.0 0.0895562212
H  H333  1  0.60270000  0.35330000  0.42250000  1.0 0.0895562212
H  H334  1  0.85330000  0.89730000  0.42250000  1.0 0.0895562212
H  H335  1  0.39730000  0.64670000  0.42250000  1.0 0.0895562212
H  H336  1  0.14670000  0.10270000  0.42250000  1.0 0.0895562212
H  H337  1  0.84260000  0.13850000  0.57810000  1.0 0.1284183842
H  H338  1  0.63850000  0.65740000  0.57810000  1.0 0.1284183842
H  H339  1  0.15740000  0.86150000  0.57810000  1.0 0.1284183842
H  H340  1  0.36150000  0.34260000  0.57810000  1.0 0.1284183842
H  H341  1  0.65740000  0.36150000  0.42190000  1.0 0.1284183842
H  H342  1  0.86150000  0.84260000  0.42190000  1.0 0.1284183842
H  H343  1  0.34260000  0.63850000  0.42190000  1.0 0.1284183842
H  H344  1  0.13850000  0.15740000  0.42190000  1.0 0.1284183842
C  C1  1  0.70120000  0.66380000  0.16110000  1.0 0.5633888285
C  C2  1  0.16380000  0.79880000  0.16110000  1.0 0.5633888285
C  C3  1  0.29880000  0.33620000  0.16110000  1.0 0.5633888285
C  C4  1  0.83620000  0.20120000  0.16110000  1.0 0.5633888285
C  C5  1  0.79880000  0.83620000  0.83890000  1.0 0.5633888285
C  C6  1  0.33620000  0.70120000  0.83890000  1.0 0.5633888285
C  C7  1  0.20120000  0.16380000  0.83890000  1.0 0.5633888285
C  C8  1  0.66380000  0.29880000  0.83890000  1.0 0.5633888285
C  C9  1  0.70930000  0.61320000  0.18970000  1.0 -0.0441473011
C  C10  1  0.11320000  0.79070000  0.18970000  1.0 -0.0441473011
C  C11  1  0.29070000  0.38680000  0.18970000  1.0 -0.0441473011
C  C12  1  0.88680000  0.20930000  0.18970000  1.0 -0.0441473011
C  C13  1  0.79070000  0.88680000  0.81030000  1.0 -0.0441473011
C  C14  1  0.38680000  0.70930000  0.81030000  1.0 -0.0441473011
C  C15  1  0.20930000  0.11320000  0.81030000  1.0 -0.0441473011
C  C16  1  0.61320000  0.29070000  0.81030000  1.0 -0.0441473011
C  C17  1  0.68390000  0.59020000  0.28270000  1.0 -0.1319922913
C  C18  1  0.09020000  0.81610000  0.28270000  1.0 -0.1319922913
C  C19  1  0.31610000  0.40980000  0.28270000  1.0 -0.1319922913
C  C20  1  0.90980000  0.18390000  0.28270000  1.0 -0.1319922913
C  C21  1  0.81610000  0.90980000  0.71730000  1.0 -0.1319922913
C  C22  1  0.40980000  0.68390000  0.71730000  1.0 -0.1319922913
C  C23  1  0.18390000  0.09020000  0.71730000  1.0 -0.1319922913
C  C24  1  0.59020000  0.31610000  0.71730000  1.0 -0.1319922913
C  C25  1  0.69220000  0.54410000  0.30890000  1.0 -0.1389513143
C  C26  1  0.04410000  0.80780000  0.30890000  1.0 -0.1389513143
C  C27  1  0.30780000  0.45590000  0.30890000  1.0 -0.1389513143
C  C28  1  0.95590000  0.19220000  0.30890000  1.0 -0.1389513143
C  C29  1  0.80780000  0.95590000  0.69110000  1.0 -0.1389513143
C  C30  1  0.45590000  0.69220000  0.69110000  1.0 -0.1389513143
C  C31  1  0.19220000  0.04410000  0.69110000  1.0 -0.1389513143
C  C32  1  0.54410000  0.30780000  0.69110000  1.0 -0.1389513143
C  C33  1  0.72630000  0.51980000  0.24260000  1.0 0.0780538087
C  C34  1  0.01980000  0.77370000  0.24260000  1.0 0.0780538087
C  C35  1  0.27370000  0.48020000  0.24260000  1.0 0.0780538087
C  C36  1  0.98020000  0.22630000  0.24260000  1.0 0.0780538087
C  C37  1  0.77370000  0.98020000  0.75740000  1.0 0.0780538087
C  C38  1  0.48020000  0.72630000  0.75740000  1.0 0.0780538087
C  C39  1  0.22630000  0.01980000  0.75740000  1.0 0.0780538087
C  C40  1  0.51980000  0.27370000  0.75740000  1.0 0.0780538087
C  C41  1  0.75150000  0.54340000  0.15050000  1.0 -0.1389513143
C  C42  1  0.04340000  0.74850000  0.15050000  1.0 -0.1389513143
C  C43  1  0.24850000  0.45660000  0.15050000  1.0 -0.1389513143
C  C44  1  0.95660000  0.25150000  0.15050000  1.0 -0.1389513143
C  C45  1  0.74850000  0.95660000  0.84950000  1.0 -0.1389513143
C  C46  1  0.45660000  0.75150000  0.84950000  1.0 -0.1389513143
C  C47  1  0.25150000  0.04340000  0.84950000  1.0 -0.1389513143
C  C48  1  0.54340000  0.24850000  0.84950000  1.0 -0.1389513143
C  C49  1  0.74400000  0.58960000  0.12550000  1.0 -0.1389513143
C  C50  1  0.08960000  0.75600000  0.12550000  1.0 -0.1389513143
C  C51  1  0.25600000  0.41040000  0.12550000  1.0 -0.1389513143
C  C52  1  0.91040000  0.24400000  0.12550000  1.0 -0.1389513143
C  C53  1  0.75600000  0.91040000  0.87450000  1.0 -0.1389513143
C  C54  1  0.41040000  0.74400000  0.87450000  1.0 -0.1389513143
C  C55  1  0.24400000  0.08960000  0.87450000  1.0 -0.1389513143
C  C56  1  0.58960000  0.25600000  0.87450000  1.0 -0.1389513143
C  C57  1  0.73380000  0.46960000  0.26400000  1.0 0.0780538087
C  C58  1  0.96960000  0.76620000  0.26400000  1.0 0.0780538087
C  C59  1  0.26620000  0.53040000  0.26400000  1.0 0.0780538087
C  C60  1  0.03040000  0.23380000  0.26400000  1.0 0.0780538087
C  C61  1  0.76620000  0.03040000  0.73600000  1.0 0.0780538087
C  C62  1  0.53040000  0.73380000  0.73600000  1.0 0.0780538087
C  C63  1  0.23380000  0.96960000  0.73600000  1.0 0.0780538087
C  C64  1  0.46960000  0.26620000  0.73600000  1.0 0.0780538087
C  C65  1  0.74160000  0.44070000  0.15800000  1.0 -0.1735573631
C  C66  1  0.94070000  0.75840000  0.15800000  1.0 -0.1735573631
C  C67  1  0.25840000  0.55930000  0.15800000  1.0 -0.1735573631
C  C68  1  0.05930000  0.24160000  0.15800000  1.0 -0.1735573631
C  C69  1  0.75840000  0.05930000  0.84200000  1.0 -0.1735573631
C  C70  1  0.55930000  0.74160000  0.84200000  1.0 -0.1735573631
C  C71  1  0.24160000  0.94070000  0.84200000  1.0 -0.1735573631
C  C72  1  0.44070000  0.25840000  0.84200000  1.0 -0.1735573631
C  C73  1  0.74870000  0.39390000  0.17230000  1.0 -0.0127209104
C  C74  1  0.89390000  0.75130000  0.17230000  1.0 -0.0127209104
C  C75  1  0.25130000  0.60610000  0.17230000  1.0 -0.0127209104
C  C76  1  0.10610000  0.24870000  0.17230000  1.0 -0.0127209104
C  C77  1  0.75130000  0.10610000  0.82770000  1.0 -0.0127209104
C  C78  1  0.60610000  0.74870000  0.82770000  1.0 -0.0127209104
C  C79  1  0.24870000  0.89390000  0.82770000  1.0 -0.0127209104
C  C80  1  0.39390000  0.25130000  0.82770000  1.0 -0.0127209104
C  C81  1  0.74870000  0.37500000  0.29520000  1.0 -0.1626381014
C  C82  1  0.87500000  0.75130000  0.29520000  1.0 -0.1626381014
C  C83  1  0.25130000  0.62500000  0.29520000  1.0 -0.1626381014
C  C84  1  0.12500000  0.24870000  0.29520000  1.0 -0.1626381014
C  C85  1  0.75130000  0.12500000  0.70480000  1.0 -0.1626381014
C  C86  1  0.62500000  0.74870000  0.70480000  1.0 -0.1626381014
C  C87  1  0.24870000  0.87500000  0.70480000  1.0 -0.1626381014
C  C88  1  0.37500000  0.25130000  0.70480000  1.0 -0.1626381014
C  C89  1  0.74290000  0.40290000  0.40270000  1.0 -0.0127209104
C  C90  1  0.90290000  0.75710000  0.40270000  1.0 -0.0127209104
C  C91  1  0.25710000  0.59710000  0.40270000  1.0 -0.0127209104
C  C92  1  0.09710000  0.24290000  0.40270000  1.0 -0.0127209104
C  C93  1  0.75710000  0.09710000  0.59730000  1.0 -0.0127209104
C  C94  1  0.59710000  0.74290000  0.59730000  1.0 -0.0127209104
C  C95  1  0.24290000  0.90290000  0.59730000  1.0 -0.0127209104
C  C96  1  0.40290000  0.25710000  0.59730000  1.0 -0.0127209104
C  C97  1  0.73520000  0.45050000  0.38510000  1.0 -0.1626381014
C  C98  1  0.95050000  0.76480000  0.38510000  1.0 -0.1626381014
C  C99  1  0.26480000  0.54950000  0.38510000  1.0 -0.1626381014
C  C100  1  0.04950000  0.23520000  0.38510000  1.0 -0.1626381014
C  C101  1  0.76480000  0.04950000  0.61490000  1.0 -0.1626381014
C  C102  1  0.54950000  0.73520000  0.61490000  1.0 -0.1626381014
C  C103  1  0.23520000  0.95050000  0.61490000  1.0 -0.1626381014
C  C104  1  0.45050000  0.26480000  0.61490000  1.0 -0.1626381014
C  C105  1  0.74850000  0.38300000  0.53560000  1.0 0.543123972
C  C106  1  0.88300000  0.75150000  0.53560000  1.0 0.543123972
C  C107  1  0.25150000  0.61700000  0.53560000  1.0 0.543123972
C  C108  1  0.11700000  0.24850000  0.53560000  1.0 0.543123972
C  C109  1  0.75150000  0.11700000  0.46440000  1.0 0.543123972
C  C110  1  0.61700000  0.74850000  0.46440000  1.0 0.543123972
C  C111  1  0.24850000  0.88300000  0.46440000  1.0 0.543123972
C  C112  1  0.38300000  0.25150000  0.46440000  1.0 0.543123972
C  C113  1  0.75710000  0.36420000  0.05480000  1.0 0.569699284
C  C114  1  0.86420000  0.74290000  0.05480000  1.0 0.569699284
C  C115  1  0.24290000  0.63580000  0.05480000  1.0 0.569699284
C  C116  1  0.13580000  0.25710000  0.05480000  1.0 0.569699284
C  C117  1  0.74290000  0.13580000  0.94520000  1.0 0.569699284
C  C118  1  0.63580000  0.75710000  0.94520000  1.0 0.569699284
C  C119  1  0.25710000  0.86420000  0.94520000  1.0 0.569699284
C  C120  1  0.36420000  0.24290000  0.94520000  1.0 0.569699284
C  C121  1  0.10460000  0.47710000  0.35390000  1.0 0.1760431075
C  C122  1  0.97710000  0.39540000  0.35390000  1.0 0.1760431075
C  C123  1  0.89540000  0.52290000  0.35390000  1.0 0.1760431075
C  C124  1  0.02290000  0.60460000  0.35390000  1.0 0.1760431075
C  C125  1  0.39540000  0.02290000  0.64610000  1.0 0.1760431075
C  C126  1  0.52290000  0.10460000  0.64610000  1.0 0.1760431075
C  C127  1  0.60460000  0.97710000  0.64610000  1.0 0.1760431075
C  C128  1  0.47710000  0.89540000  0.64610000  1.0 0.1760431075
C  C129  1  0.14900000  0.49870000  0.36980000  1.0 -0.1989810873
C  C130  1  0.99870000  0.35100000  0.36980000  1.0 -0.1989810873
C  C131  1  0.85100000  0.50130000  0.36980000  1.0 -0.1989810873
C  C132  1  0.00130000  0.64900000  0.36980000  1.0 -0.1989810873
C  C133  1  0.35100000  0.00130000  0.63020000  1.0 -0.1989810873
C  C134  1  0.50130000  0.14900000  0.63020000  1.0 -0.1989810873
C  C135  1  0.64900000  0.99870000  0.63020000  1.0 -0.1989810873
C  C136  1  0.49870000  0.85100000  0.63020000  1.0 -0.1989810873
C  C137  1  0.14180000  0.54510000  0.37030000  1.0 -0.183366669
C  C138  1  0.04510000  0.35820000  0.37030000  1.0 -0.183366669
C  C139  1  0.85820000  0.45490000  0.37030000  1.0 -0.183366669
C  C140  1  0.95490000  0.64180000  0.37030000  1.0 -0.183366669
C  C141  1  0.35820000  0.95490000  0.62970000  1.0 -0.183366669
C  C142  1  0.45490000  0.14180000  0.62970000  1.0 -0.183366669
C  C143  1  0.64180000  0.04510000  0.62970000  1.0 -0.183366669
C  C144  1  0.54510000  0.85820000  0.62970000  1.0 -0.183366669
C  C145  1  0.09310000  0.55260000  0.35200000  1.0 0.1760431075
C  C146  1  0.05260000  0.40690000  0.35200000  1.0 0.1760431075
C  C147  1  0.90690000  0.44740000  0.35200000  1.0 0.1760431075
C  C148  1  0.94740000  0.59310000  0.35200000  1.0 0.1760431075
C  C149  1  0.40690000  0.94740000  0.64800000  1.0 0.1760431075
C  C150  1  0.44740000  0.09310000  0.64800000  1.0 0.1760431075
C  C151  1  0.59310000  0.05260000  0.64800000  1.0 0.1760431075
C  C152  1  0.55260000  0.90690000  0.64800000  1.0 0.1760431075
C  C153  1  0.09560000  0.42930000  0.35670000  1.0 -0.0852133926
C  C154  1  0.92930000  0.40440000  0.35670000  1.0 -0.0852133926
C  C155  1  0.90440000  0.57070000  0.35670000  1.0 -0.0852133926
C  C156  1  0.07070000  0.59560000  0.35670000  1.0 -0.0852133926
C  C157  1  0.40440000  0.07070000  0.64330000  1.0 -0.0852133926
C  C158  1  0.57070000  0.09560000  0.64330000  1.0 -0.0852133926
C  C159  1  0.59560000  0.92930000  0.64330000  1.0 -0.0852133926
C  C160  1  0.42930000  0.90440000  0.64330000  1.0 -0.0852133926
C  C161  1  0.19600000  0.36800000  0.51060000  1.0 0.0162742121
C  C162  1  0.86800000  0.30400000  0.51060000  1.0 0.0162742121
C  C163  1  0.80400000  0.63200000  0.51060000  1.0 0.0162742121
C  C164  1  0.13200000  0.69600000  0.51060000  1.0 0.0162742121
C  C165  1  0.30400000  0.13200000  0.48940000  1.0 0.0162742121
C  C166  1  0.63200000  0.19600000  0.48940000  1.0 0.0162742121
C  C167  1  0.69600000  0.86800000  0.48940000  1.0 0.0162742121
C  C168  1  0.36800000  0.80400000  0.48940000  1.0 0.0162742121
C  C169  1  0.15950000  0.39730000  0.49240000  1.0 -0.183366669
C  C170  1  0.89730000  0.34050000  0.49240000  1.0 -0.183366669
C  C171  1  0.84050000  0.60270000  0.49240000  1.0 -0.183366669
C  C172  1  0.10270000  0.65950000  0.49240000  1.0 -0.183366669
C  C173  1  0.34050000  0.10270000  0.50760000  1.0 -0.183366669
C  C174  1  0.60270000  0.15950000  0.50760000  1.0 -0.183366669
C  C175  1  0.65950000  0.89730000  0.50760000  1.0 -0.183366669
C  C176  1  0.39730000  0.84050000  0.50760000  1.0 -0.183366669
C  C177  1  0.13640000  0.39800000  0.37440000  1.0 0.1410371814
C  C178  1  0.89800000  0.36360000  0.37440000  1.0 0.1410371814
C  C179  1  0.86360000  0.60200000  0.37440000  1.0 0.1410371814
C  C180  1  0.10200000  0.63640000  0.37440000  1.0 0.1410371814
C  C181  1  0.36360000  0.10200000  0.62560000  1.0 0.1410371814
C  C182  1  0.60200000  0.13640000  0.62560000  1.0 0.1410371814
C  C183  1  0.63640000  0.89800000  0.62560000  1.0 0.1410371814
C  C184  1  0.39800000  0.86360000  0.62560000  1.0 0.1410371814
C  C185  1  0.15180000  0.36970000  0.27790000  1.0 -0.1735573631
C  C186  1  0.86970000  0.34820000  0.27790000  1.0 -0.1735573631
C  C187  1  0.84820000  0.63030000  0.27790000  1.0 -0.1735573631
C  C188  1  0.13030000  0.65180000  0.27790000  1.0 -0.1735573631
C  C189  1  0.34820000  0.13030000  0.72210000  1.0 -0.1735573631
C  C190  1  0.63030000  0.15180000  0.72210000  1.0 -0.1735573631
C  C191  1  0.65180000  0.86970000  0.72210000  1.0 -0.1735573631
C  C192  1  0.36970000  0.84820000  0.72210000  1.0 -0.1735573631
C  C193  1  0.18950000  0.34100000  0.30010000  1.0 0.0489552872
C  C194  1  0.84100000  0.31050000  0.30010000  1.0 0.0489552872
C  C195  1  0.81050000  0.65900000  0.30010000  1.0 0.0489552872
C  C196  1  0.15900000  0.68950000  0.30010000  1.0 0.0489552872
C  C197  1  0.31050000  0.15900000  0.69990000  1.0 0.0489552872
C  C198  1  0.65900000  0.18950000  0.69990000  1.0 0.0489552872
C  C199  1  0.68950000  0.84100000  0.69990000  1.0 0.0489552872
C  C200  1  0.34100000  0.81050000  0.69990000  1.0 0.0489552872
C  C201  1  0.24940000  0.30860000  0.43770000  1.0 -0.3723281656
C  C202  1  0.80860000  0.25060000  0.43770000  1.0 -0.3723281656
C  C203  1  0.75060000  0.69140000  0.43770000  1.0 -0.3723281656
C  C204  1  0.19140000  0.74940000  0.43770000  1.0 -0.3723281656
C  C205  1  0.25060000  0.19140000  0.56230000  1.0 -0.3723281656
C  C206  1  0.69140000  0.24940000  0.56230000  1.0 -0.3723281656
C  C207  1  0.74940000  0.80860000  0.56230000  1.0 -0.3723281656
C  C208  1  0.30860000  0.75060000  0.56230000  1.0 -0.3723281656
C  C209  1  0.95670000  0.62880000  0.02160000  1.0 0.290832017
C  C210  1  0.12880000  0.54330000  0.02160000  1.0 0.290832017
C  C211  1  0.04330000  0.37120000  0.02160000  1.0 0.290832017
C  C212  1  0.87120000  0.45670000  0.02160000  1.0 0.290832017
C  C213  1  0.54330000  0.87120000  0.97840000  1.0 0.290832017
C  C214  1  0.37120000  0.95670000  0.97840000  1.0 0.290832017
C  C215  1  0.45670000  0.12880000  0.97840000  1.0 0.290832017
C  C216  1  0.62880000  0.04330000  0.97840000  1.0 0.290832017
C  C217  1  0.03740000  0.62670000  0.96570000  1.0 -0.3571034033
C  C218  1  0.12670000  0.46260000  0.96570000  1.0 -0.3571034033
C  C219  1  0.96260000  0.37330000  0.96570000  1.0 -0.3571034033
C  C220  1  0.87330000  0.53740000  0.96570000  1.0 -0.3571034033
C  C221  1  0.46260000  0.87330000  0.03430000  1.0 -0.3571034033
C  C222  1  0.37330000  0.03740000  0.03430000  1.0 -0.3571034033
C  C223  1  0.53740000  0.12670000  0.03430000  1.0 -0.3571034033
C  C224  1  0.62670000  0.96260000  0.03430000  1.0 -0.3571034033
C  C225  1  0.98190000  0.67670000  0.84650000  1.0 -0.335278507
C  C226  1  0.17670000  0.51810000  0.84650000  1.0 -0.3340738971
C  C227  1  0.01810000  0.32330000  0.84650000  1.0 -0.3340738971
C  C228  1  0.82330000  0.48190000  0.84650000  1.0 -0.3340738971
C  C229  1  0.51810000  0.82330000  0.15350000  1.0 -0.3340738971
C  C230  1  0.32330000  0.98190000  0.15350000  1.0 -0.335278507
C  C231  1  0.48190000  0.17670000  0.15350000  1.0 -0.3340738971
C  C232  1  0.67670000  0.01810000  0.15350000  1.0 -0.3340738971
C  C233  1  0.80660000  0.00750000  0.17500000  1.0 0.0162742121
C  C234  1  0.50750000  0.69340000  0.17500000  1.0 0.0162742121
C  C235  1  0.19340000  0.99250000  0.17500000  1.0 0.0162742121
C  C236  1  0.49250000  0.30660000  0.17500000  1.0 0.0162742121
C  C237  1  0.69340000  0.49250000  0.82500000  1.0 0.0141577324
C  C238  1  0.99250000  0.80660000  0.82500000  1.0 0.0141577324
C  C239  1  0.30660000  0.50750000  0.82500000  1.0 0.0141577324
C  C240  1  0.00750000  0.19340000  0.82500000  1.0 0.0141577324
C  C241  1  0.85750000  0.06840000  0.10000000  1.0 -0.0127209104
C  C242  1  0.56840000  0.64250000  0.10000000  1.0 -0.0127209104
C  C243  1  0.14250000  0.93160000  0.10000000  1.0 -0.0127209104
C  C244  1  0.43160000  0.35750000  0.10000000  1.0 -0.0127209104
C  C245  1  0.64250000  0.43160000  0.90000000  1.0 -0.0127209104
C  C246  1  0.93160000  0.85750000  0.90000000  1.0 -0.0127209104
C  C247  1  0.35750000  0.56840000  0.90000000  1.0 -0.0127209104
C  C248  1  0.06840000  0.14250000  0.90000000  1.0 -0.0127209104
C  C249  1  0.86480000  0.98850000  0.01900000  1.0 -0.3885214977
C  C250  1  0.48850000  0.63520000  0.01900000  1.0 -0.3885214977
C  C251  1  0.13520000  0.01150000  0.01900000  1.0 -0.3885214977
C  C252  1  0.51150000  0.36480000  0.01900000  1.0 -0.3885214977
C  C253  1  0.63520000  0.51150000  0.98100000  1.0 -0.3885214977
C  C254  1  0.01150000  0.86480000  0.98100000  1.0 -0.3885214977
C  C255  1  0.36480000  0.48850000  0.98100000  1.0 -0.3885214977
C  C256  1  0.98850000  0.13520000  0.98100000  1.0 -0.3885214977
C  C257  1  0.89280000  0.24350000  0.81400000  1.0 0.0574246367
C  C258  1  0.74350000  0.60720000  0.81400000  1.0 0.0574246367
C  C259  1  0.10720000  0.75650000  0.81400000  1.0 0.0574246367
C  C260  1  0.25650000  0.39280000  0.81400000  1.0 0.0574246367
C  C261  1  0.60720000  0.25650000  0.18600000  1.0 0.0574246367
C  C262  1  0.75650000  0.89280000  0.18600000  1.0 0.0574246367
C  C263  1  0.39280000  0.74350000  0.18600000  1.0 0.0574246367
C  C264  1  0.24350000  0.10720000  0.18600000  1.0 0.0574246367
C  C265  1  0.88810000  0.16270000  0.76300000  1.0 0.0574246367
C  C266  1  0.66270000  0.61190000  0.76300000  1.0 0.0574246367
C  C267  1  0.11190000  0.83730000  0.76300000  1.0 0.0574246367
C  C268  1  0.33730000  0.38810000  0.76300000  1.0 0.0574246367
C  C269  1  0.61190000  0.33730000  0.23700000  1.0 0.0574246367
C  C270  1  0.83730000  0.88810000  0.23700000  1.0 0.0574246367
C  C271  1  0.38810000  0.66270000  0.23700000  1.0 0.0574246367
C  C272  1  0.16270000  0.11190000  0.23700000  1.0 0.0574246367
C  C273  1  0.93660000  0.21540000  0.63400000  1.0 -0.3525930155
C  C274  1  0.71540000  0.56340000  0.63400000  1.0 -0.3525930155
C  C275  1  0.06340000  0.78460000  0.63400000  1.0 -0.3525930155
C  C276  1  0.28460000  0.43660000  0.63400000  1.0 -0.3525930155
C  C277  1  0.56340000  0.28460000  0.36600000  1.0 -0.3525930155
C  C278  1  0.78460000  0.93660000  0.36600000  1.0 -0.3525930155
C  C279  1  0.43660000  0.71540000  0.36600000  1.0 -0.3525930155
C  C280  1  0.21540000  0.06340000  0.36600000  1.0 -0.3525930155
C  C281  1  0.88160000  0.08270000  0.75400000  1.0 0.4682352994
C  C282  1  0.58270000  0.61840000  0.75400000  1.0 0.4682352994
C  C283  1  0.11840000  0.91730000  0.75400000  1.0 0.4682352994
C  C284  1  0.41730000  0.38160000  0.75400000  1.0 0.4682352994
C  C285  1  0.61840000  0.41730000  0.24600000  1.0 0.4682352994
C  C286  1  0.91730000  0.88160000  0.24600000  1.0 0.4682352994
C  C287  1  0.38160000  0.58270000  0.24600000  1.0 0.4682352994
C  C288  1  0.08270000  0.11840000  0.24600000  1.0 0.4682352994
C  C289  1  0.86400000  0.15400000  0.86400000  1.0 -0.2440428376
C  C290  1  0.65400000  0.63600000  0.86400000  1.0 -0.2440428376
C  C291  1  0.13600000  0.84600000  0.86400000  1.0 -0.2440428376
C  C292  1  0.34600000  0.36400000  0.86400000  1.0 -0.2440428376
C  C293  1  0.63600000  0.34600000  0.13600000  1.0 -0.2440428376
C  C294  1  0.84600000  0.86400000  0.13600000  1.0 -0.2440428376
C  C295  1  0.36400000  0.65400000  0.13600000  1.0 -0.2440428376
C  C296  1  0.15400000  0.13600000  0.13600000  1.0 -0.2440428376
C  C297  1  0.86870000  0.15110000  0.62700000  1.0 -0.2291484956
C  C298  1  0.65110000  0.63130000  0.62700000  1.0 -0.2291484956
C  C299  1  0.13130000  0.84890000  0.62700000  1.0 -0.2291484956
C  C300  1  0.34890000  0.36870000  0.62700000  1.0 -0.2291484956
C  C301  1  0.63130000  0.34890000  0.37300000  1.0 -0.2291484956
C  C302  1  0.84890000  0.86870000  0.37300000  1.0 -0.2291484956
C  C303  1  0.36870000  0.65110000  0.37300000  1.0 -0.2291484956
C  C304  1  0.15110000  0.13130000  0.37300000  1.0 -0.2291484956
N  N1  1  0.07173000  0.51076000  0.34130000  1.0 -0.3723281656
N  N2  1  0.01076000  0.42827000  0.34130000  1.0 -0.3723281656
N  N3  1  0.92827000  0.48924000  0.34130000  1.0 -0.3723281656
N  N4  1  0.98924000  0.57173000  0.34130000  1.0 -0.3723281656
N  N5  1  0.42827000  0.98924000  0.65870000  1.0 -0.3723281656
N  N6  1  0.48924000  0.07173000  0.65870000  1.0 -0.3723281656
N  N7  1  0.57173000  0.01076000  0.65870000  1.0 -0.3723281656
N  N8  1  0.51076000  0.92827000  0.65870000  1.0 -0.3723281656
N  N9  1  0.21020000  0.34060000  0.41390000  1.0 0.1572155981
N  N10  1  0.84060000  0.28980000  0.41390000  1.0 0.1572155981
N  N11  1  0.78980000  0.65940000  0.41390000  1.0 0.1572155981
N  N12  1  0.15940000  0.71020000  0.41390000  1.0 0.1572155981
N  N13  1  0.28980000  0.15940000  0.58610000  1.0 0.1572155981
N  N14  1  0.65940000  0.21020000  0.58610000  1.0 0.1572155981
N  N15  1  0.71020000  0.84060000  0.58610000  1.0 0.1572155981
N  N16  1  0.34060000  0.78980000  0.58610000  1.0 0.1572155981
N  N17  1  0.98970000  0.64230000  0.95000000  1.0 0.0489552872
N  N18  1  0.14230000  0.51030000  0.95000000  1.0 0.0489552872
N  N19  1  0.01030000  0.35770000  0.95000000  1.0 0.0489552872
N  N20  1  0.85770000  0.48970000  0.95000000  1.0 0.0489552872
N  N21  1  0.51030000  0.85770000  0.05000000  1.0 0.0489552872
N  N22  1  0.35770000  0.98970000  0.05000000  1.0 0.0489552872
N  N23  1  0.48970000  0.14230000  0.05000000  1.0 0.0489552872
N  N24  1  0.64230000  0.01030000  0.05000000  1.0 0.0489552872
N  N25  1  0.84080000  0.02150000  0.10100000  1.0 0.0660402517
N  N26  1  0.52150000  0.65920000  0.10100000  1.0 0.0660402517
N  N27  1  0.15920000  0.97850000  0.10100000  1.0 0.0660402517
N  N28  1  0.47850000  0.34080000  0.10100000  1.0 0.0660402517
N  N29  1  0.65920000  0.47850000  0.89900000  1.0 0.0660402517
N  N30  1  0.97850000  0.84080000  0.89900000  1.0 0.0660402517
N  N31  1  0.34080000  0.52150000  0.89900000  1.0 0.0660402517
N  N32  1  0.02150000  0.15920000  0.89900000  1.0 0.0660402517
N  N33  1  0.90560000  0.20830000  0.74100000  1.0 -0.0780855526
N  N34  1  0.70830000  0.59440000  0.74100000  1.0 -0.0780855526
N  N35  1  0.09440000  0.79170000  0.74100000  1.0 -0.0780855526
N  N36  1  0.29170000  0.40560000  0.74100000  1.0 -0.0780855526
N  N37  1  0.59440000  0.29170000  0.25900000  1.0 -0.0780855526
N  N38  1  0.79170000  0.90560000  0.25900000  1.0 -0.0780855526
N  N39  1  0.40560000  0.70830000  0.25900000  1.0 -0.0780855526
N  N40  1  0.20830000  0.09440000  0.25900000  1.0 -0.0780855526
N  N41  1  0.87240000  0.12740000  0.74900000  1.0 -0.0335016652
N  N42  1  0.62740000  0.62760000  0.74900000  1.0 -0.0335016652
N  N43  1  0.12760000  0.87260000  0.74900000  1.0 -0.0335016652
N  N44  1  0.37260000  0.37240000  0.74900000  1.0 -0.0335016652
N  N45  1  0.62760000  0.37260000  0.25100000  1.0 -0.0335016652
N  N46  1  0.87260000  0.87240000  0.25100000  1.0 -0.0335016652
N  N47  1  0.37240000  0.62740000  0.25100000  1.0 -0.0335016652
N  N48  1  0.12740000  0.12760000  0.25100000  1.0 -0.0335016652
Cl  Cl1  1  0.76083000  0.70994000  0.77937000  1.0 -0.5088748891
Cl  Cl2  1  0.20994000  0.73917000  0.77937000  1.0 -0.5088748891
Cl  Cl3  1  0.23917000  0.29006000  0.77937000  1.0 -0.5088748891
Cl  Cl4  1  0.79006000  0.26083000  0.77937000  1.0 -0.5088748891
Cl  Cl5  1  0.73917000  0.79006000  0.22063000  1.0 -0.5088748891
Cl  Cl6  1  0.29006000  0.76083000  0.22063000  1.0 -0.5088748891
Cl  Cl7  1  0.26083000  0.20994000  0.22063000  1.0 -0.5088748891
Cl  Cl8  1  0.70994000  0.23917000  0.22063000  1.0 -0.5088748891
Cl  Cl9  1  0.00000000  0.50000000  0.02270000  1.0 -0.5961572487
Cl  Cl10  1  0.50000000  0.00000000  0.97730000  1.0 -0.5945507843
O  O1  1  0.67045000  0.68390000  0.22330000  1.0 -0.5612209138
O  O2  1  0.18390000  0.82955000  0.22330000  1.0 -0.5612209138
O  O3  1  0.32955000  0.31610000  0.22330000  1.0 -0.5612209138
O  O4  1  0.81610000  0.17045000  0.22330000  1.0 -0.5612209138
O  O5  1  0.82955000  0.81610000  0.77670000  1.0 -0.5612209138
O  O6  1  0.31610000  0.67045000  0.77670000  1.0 -0.5612209138
O  O7  1  0.17045000  0.18390000  0.77670000  1.0 -0.5612209138
O  O8  1  0.68390000  0.32955000  0.77670000  1.0 -0.5612209138
O  O9  1  0.72783000  0.68161000  0.07890000  1.0 -0.5612209138
O  O10  1  0.18161000  0.77217000  0.07890000  1.0 -0.5612209138
O  O11  1  0.27217000  0.31839000  0.07890000  1.0 -0.5612209138
O  O12  1  0.81839000  0.22783000  0.07890000  1.0 -0.5612209138
O  O13  1  0.77217000  0.81839000  0.92110000  1.0 -0.5612209138
O  O14  1  0.31839000  0.72783000  0.92110000  1.0 -0.5612209138
O  O15  1  0.22783000  0.18161000  0.92110000  1.0 -0.5612209138
O  O16  1  0.68161000  0.27217000  0.92110000  1.0 -0.5612209138
O  O17  1  0.75116000  0.38390000  0.94810000  1.0 -0.538210373
O  O18  1  0.88390000  0.74884000  0.94810000  1.0 -0.538210373
O  O19  1  0.24884000  0.61610000  0.94810000  1.0 -0.538210373
O  O20  1  0.11610000  0.25116000  0.94810000  1.0 -0.538210373
O  O21  1  0.74884000  0.11610000  0.05190000  1.0 -0.538210373
O  O22  1  0.61610000  0.75116000  0.05190000  1.0 -0.538210373
O  O23  1  0.25116000  0.88390000  0.05190000  1.0 -0.538210373
O  O24  1  0.38390000  0.24884000  0.05190000  1.0 -0.538210373
O  O25  1  0.76886000  0.32312000  0.07100000  1.0 -0.5656134669
O  O26  1  0.82312000  0.73114000  0.07100000  1.0 -0.5656134669
O  O27  1  0.23114000  0.67688000  0.07100000  1.0 -0.5656134669
O  O28  1  0.17688000  0.26886000  0.07100000  1.0 -0.5656134669
O  O29  1  0.73114000  0.17688000  0.92900000  1.0 -0.5656134669
O  O30  1  0.67688000  0.76886000  0.92900000  1.0 -0.5656134669
O  O31  1  0.26886000  0.82312000  0.92900000  1.0 -0.5656134669
O  O32  1  0.32312000  0.23114000  0.92900000  1.0 -0.5656134669
O  O33  1  0.86480000  0.65940000  0.79060000  1.0 -0.3885214977
O  O34  1  0.15940000  0.63520000  0.79060000  1.0 -0.3885214977
O  O35  1  0.13520000  0.34060000  0.79060000  1.0 -0.3885214977
O  O36  1  0.84060000  0.36480000  0.79060000  1.0 -0.3885214977
O  O37  1  0.63520000  0.84060000  0.20940000  1.0 -0.3885214977
O  O38  1  0.34060000  0.86480000  0.20940000  1.0 -0.3885214977
O  O39  1  0.36480000  0.15940000  0.20940000  1.0 -0.3885214977
O  O40  1  0.65940000  0.13520000  0.20940000  1.0 -0.3885214977
O  O41  1  0.74340000  0.40880000  0.63200000  1.0 -0.538210373
O  O42  1  0.90880000  0.75660000  0.63200000  1.0 -0.538210373
O  O43  1  0.25660000  0.59120000  0.63200000  1.0 -0.538210373
O  O44  1  0.09120000  0.24340000  0.63200000  1.0 -0.538210373
O  O45  1  0.75660000  0.09120000  0.36800000  1.0 -0.538210373
O  O46  1  0.59120000  0.74340000  0.36800000  1.0 -0.538210373
O  O47  1  0.24340000  0.90880000  0.36800000  1.0 -0.538210373
O  O48  1  0.40880000  0.25660000  0.36800000  1.0 -0.538210373
O  O49  1  0.75905000  0.34061000  0.54460000  1.0 -0.538210373
O  O50  1  0.84061000  0.74095000  0.54460000  1.0 -0.538210373
O  O51  1  0.24095000  0.65939000  0.54460000  1.0 -0.538210373
O  O52  1  0.15939000  0.25905000  0.54460000  1.0 -0.538210373
O  O53  1  0.74095000  0.15939000  0.45540000  1.0 -0.538210373
O  O54  1  0.65939000  0.75905000  0.45540000  1.0 -0.538210373
O  O55  1  0.25905000  0.84061000  0.45540000  1.0 -0.538210373
O  O56  1  0.34061000  0.24095000  0.45540000  1.0 -0.538210373
O  O57  1  0.91500000  0.63860000  0.01000000  1.0 -0.4038200934
O  O58  1  0.13860000  0.58500000  0.01000000  1.0 -0.4038200934
O  O59  1  0.08500000  0.36140000  0.01000000  1.0 -0.4038200934
O  O60  1  0.86140000  0.41500000  0.01000000  1.0 -0.4038200934
O  O61  1  0.58500000  0.86140000  0.99000000  1.0 -0.4038200934
O  O62  1  0.36140000  0.91500000  0.99000000  1.0 -0.4038200934
O  O63  1  0.41500000  0.13860000  0.99000000  1.0 -0.4038200934
O  O64  1  0.63860000  0.08500000  0.99000000  1.0 -0.4038200934
O  O65  1  0.92180000  0.32390000  0.79100000  1.0 -0.1031796668
O  O66  1  0.82390000  0.57820000  0.79100000  1.0 -0.1031796668
O  O67  1  0.07820000  0.67610000  0.79100000  1.0 -0.1031796668
O  O68  1  0.17610000  0.42180000  0.79100000  1.0 -0.1031796668
O  O69  1  0.57820000  0.17610000  0.20900000  1.0 -0.1031796668
O  O70  1  0.67610000  0.92180000  0.20900000  1.0 -0.1031796668
O  O71  1  0.42180000  0.82390000  0.20900000  1.0 -0.1031796668
O  O72  1  0.32390000  0.07820000  0.20900000  1.0 -0.1031796668
O  O73  1  0.78930000  0.96770000  0.19000000  1.0 -0.3014805239
O  O74  1  0.46770000  0.71070000  0.19000000  1.0 -0.3014805239
O  O75  1  0.21070000  0.03230000  0.19000000  1.0 -0.3014805239
O  O76  1  0.53230000  0.28930000  0.19000000  1.0 -0.3014805239
O  O77  1  0.71070000  0.53230000  0.81000000  1.0 -0.3014805239
O  O78  1  0.03230000  0.78930000  0.81000000  1.0 -0.3014805239
O  O79  1  0.28930000  0.46770000  0.81000000  1.0 -0.3014805239
O  O80  1  0.96770000  0.21070000  0.81000000  1.0 -0.3014805239
O  O81  1  0.90480000  0.28320000  0.79420000  1.0 0.027308165
O  O82  1  0.78320000  0.59520000  0.79420000  1.0 0.027308165
O  O83  1  0.09520000  0.71680000  0.79420000  1.0 0.027308165
O  O84  1  0.21680000  0.40480000  0.79420000  1.0 0.027308165
O  O85  1  0.59520000  0.21680000  0.20580000  1.0 0.027308165
O  O86  1  0.71680000  0.90480000  0.20580000  1.0 0.027308165
O  O87  1  0.40480000  0.78320000  0.20580000  1.0 0.027308165
O  O88  1  0.28320000  0.09520000  0.20580000  1.0 0.027308165
O  O89  1  0.88640000  0.05430000  0.84200000  1.0 -0.4377787632
O  O90  1  0.55430000  0.61360000  0.84200000  1.0 -0.4377787632
O  O91  1  0.11360000  0.94570000  0.84200000  1.0 -0.4377787632
O  O92  1  0.44570000  0.38640000  0.84200000  1.0 -0.4377787632
O  O93  1  0.61360000  0.44570000  0.15800000  1.0 -0.4377787632
O  O94  1  0.94570000  0.88640000  0.15800000  1.0 -0.4377787632
O  O95  1  0.38640000  0.55430000  0.15800000  1.0 -0.4377787632
O  O96  1  0.05430000  0.11360000  0.15800000  1.0 -0.4377787632
O  O97  1  0.88840000  0.05900000  0.65800000  1.0 -0.415546335
O  O98  1  0.55900000  0.61160000  0.65800000  1.0 -0.415546335
O  O99  1  0.11160000  0.94100000  0.65800000  1.0 -0.415546335
O  O100  1  0.44100000  0.38840000  0.65800000  1.0 -0.415546335
O  O101  1  0.61160000  0.44100000  0.34200000  1.0 -0.415546335
O  O102  1  0.94100000  0.88840000  0.34200000  1.0 -0.415546335
O  O103  1  0.38840000  0.55900000  0.34200000  1.0 -0.415546335
O  O104  1  0.05900000  0.11160000  0.34200000  1.0 -0.415546335
O  O105  1  0.84400000  0.07100000  0.18300000  1.0 -0.1207647059
O  O106  1  0.57100000  0.65600000  0.18300000  1.0 -0.1207647059
O  O107  1  0.15600000  0.92900000  0.18300000  1.0 -0.1207647059
O  O108  1  0.42900000  0.34400000  0.18300000  1.0 -0.1207647059
O  O109  1  0.65600000  0.42900000  0.81700000  1.0 -0.1207647059
O  O110  1  0.92900000  0.84400000  0.81700000  1.0 -0.1207647059
O  O111  1  0.34400000  0.57100000  0.81700000  1.0 -0.1207647059
O  O112  1  0.07100000  0.15600000  0.81700000  1.0 -0.1207647059
