# DDEC6 charges by PACMAN v1.1 (https://github.com/mtap-research/PACMAN-charge/)
data_DANZEZ_FSR_pacman
_symmetry_space_group_name_H-M   'P 1'
_cell_length_a   28.50500000
_cell_length_b   28.50500000
_cell_length_c   10.37180000
_cell_angle_alpha   90.00000000
_cell_angle_beta   90.00000000
_cell_angle_gamma   90.00000000
_symmetry_Int_Tables_number   1
_chemical_formula_structural   Mn7H92C112N8(Cl2O17)2
_chemical_formula_sum   'Mn14 H184 C224 N16 Cl8 O68'
_cell_volume   8427.45077230
_cell_formula_units_Z   2
loop_
 _symmetry_equiv_pos_site_id
 _symmetry_equiv_pos_as_xyz
  1  'x, y, z'
loop_
 _atom_site_type_symbol
 _atom_site_label
 _atom_site_symmetry_multiplicity
 _atom_site_fract_x
 _atom_site_fract_y
 _atom_site_fract_z
 _atom_site_occupancy
 _atom_site_charge
Mn  Mn1  1  0.25000000  0.75000000  0.00000000  1.0 1.0208293193
Mn  Mn2  1  0.25000000  0.25000000  0.00000000  1.0 1.0208293193
Mn  Mn3  1  0.75000000  0.75000000  0.00000000  1.0 1.0208293193
Mn  Mn4  1  0.75000000  0.25000000  0.00000000  1.0 1.0208293193
Mn  Mn5  1  0.34829000  0.75938000  0.23276000  1.0 0.9497328245
Mn  Mn6  1  0.25938000  0.15171000  0.23276000  1.0 0.9497328245
Mn  Mn7  1  0.74062000  0.84829000  0.23276000  1.0 0.9497328245
Mn  Mn8  1  0.65171000  0.24062000  0.23276000  1.0 0.9497328245
Mn  Mn9  1  0.15171000  0.74062000  0.76724000  1.0 0.9497328245
Mn  Mn10  1  0.24062000  0.34829000  0.76724000  1.0 0.9497328245
Mn  Mn11  1  0.75938000  0.65171000  0.76724000  1.0 0.9497328245
Mn  Mn12  1  0.84829000  0.25938000  0.76724000  1.0 0.9497328245
Mn  Mn13  1  0.00000000  0.50000000  0.36363000  1.0 0.8463827961
Mn  Mn14  1  0.50000000  0.00000000  0.63637000  1.0 0.8441125744
H  H1  1  0.04870000  0.75880000  0.07070000  1.0 0.1280411073
H  H2  1  0.25880000  0.45130000  0.07070000  1.0 0.1280411073
H  H3  1  0.74120000  0.54870000  0.07070000  1.0 0.1280411073
H  H4  1  0.95130000  0.24120000  0.07070000  1.0 0.1280411073
H  H5  1  0.45130000  0.74120000  0.92930000  1.0 0.1280411073
H  H6  1  0.24120000  0.04870000  0.92930000  1.0 0.1280411073
H  H7  1  0.75880000  0.95130000  0.92930000  1.0 0.1280411073
H  H8  1  0.54870000  0.25880000  0.92930000  1.0 0.1280411073
H  H9  1  0.89490000  0.74520000  0.04030000  1.0 0.1355562055
H  H10  1  0.24520000  0.60510000  0.04030000  1.0 0.1355562055
H  H11  1  0.75480000  0.39490000  0.04030000  1.0 0.1355562055
H  H12  1  0.10510000  0.25480000  0.04030000  1.0 0.1355562055
H  H13  1  0.60510000  0.75480000  0.95970000  1.0 0.1355562055
H  H14  1  0.25480000  0.89490000  0.95970000  1.0 0.1355562055
H  H15  1  0.74520000  0.10510000  0.95970000  1.0 0.1355562055
H  H16  1  0.39490000  0.24520000  0.95970000  1.0 0.1355562055
H  H17  1  0.96970000  0.82090000  0.38150000  1.0 0.1280411073
H  H18  1  0.32090000  0.53030000  0.38150000  1.0 0.1280411073
H  H19  1  0.67910000  0.46970000  0.38150000  1.0 0.1280411073
H  H20  1  0.03030000  0.17910000  0.38150000  1.0 0.1280411073
H  H21  1  0.53030000  0.67910000  0.61850000  1.0 0.1280411073
H  H22  1  0.17910000  0.96970000  0.61850000  1.0 0.1280411073
H  H23  1  0.82090000  0.03030000  0.61850000  1.0 0.1280411073
H  H24  1  0.46970000  0.32090000  0.61850000  1.0 0.1280411073
H  H25  1  0.02870000  0.77090000  0.45460000  1.0 0.1218076385
H  H26  1  0.27090000  0.47130000  0.45460000  1.0 0.1218076385
H  H27  1  0.72910000  0.52870000  0.45460000  1.0 0.1218076385
H  H28  1  0.97130000  0.22910000  0.45460000  1.0 0.1218076385
H  H29  1  0.47130000  0.72910000  0.54540000  1.0 0.1218076385
H  H30  1  0.22910000  0.02870000  0.54540000  1.0 0.1218076385
H  H31  1  0.77090000  0.97130000  0.54540000  1.0 0.1218076385
H  H32  1  0.52870000  0.27090000  0.54540000  1.0 0.1218076385
H  H33  1  0.15950000  0.74920000  0.31300000  1.0 0.1280411073
H  H34  1  0.24920000  0.34050000  0.31300000  1.0 0.1280411073
H  H35  1  0.75080000  0.65950000  0.31300000  1.0 0.1280411073
H  H36  1  0.84050000  0.25080000  0.31300000  1.0 0.1280411073
H  H37  1  0.34050000  0.75080000  0.68700000  1.0 0.1280411073
H  H38  1  0.25080000  0.15950000  0.68700000  1.0 0.1280411073
H  H39  1  0.74920000  0.84050000  0.68700000  1.0 0.1280411073
H  H40  1  0.65950000  0.24920000  0.68700000  1.0 0.1280411073
H  H41  1  0.89140000  0.83620000  0.34020000  1.0 0.1280411073
H  H42  1  0.33620000  0.60860000  0.34020000  1.0 0.1280411073
H  H43  1  0.66380000  0.39140000  0.34020000  1.0 0.1280411073
H  H44  1  0.10860000  0.16380000  0.34020000  1.0 0.1280411073
H  H45  1  0.60860000  0.66380000  0.65980000  1.0 0.1280411073
H  H46  1  0.16380000  0.89140000  0.65980000  1.0 0.1280411073
H  H47  1  0.83620000  0.10860000  0.65980000  1.0 0.1280411073
H  H48  1  0.39140000  0.33620000  0.65980000  1.0 0.1280411073
H  H49  1  0.97360000  0.73030000  0.08250000  1.0 0.1280411073
H  H50  1  0.23030000  0.52640000  0.08250000  1.0 0.1280411073
H  H51  1  0.76970000  0.47360000  0.08250000  1.0 0.1280411073
H  H52  1  0.02640000  0.26970000  0.08250000  1.0 0.1280411073
H  H53  1  0.52640000  0.76970000  0.91750000  1.0 0.1280411073
H  H54  1  0.26970000  0.97360000  0.91750000  1.0 0.1280411073
H  H55  1  0.73030000  0.02640000  0.91750000  1.0 0.1280411073
H  H56  1  0.47360000  0.23030000  0.91750000  1.0 0.1280411073
H  H57  1  0.44390000  0.83430000  0.20300000  1.0 0.1078908226
H  H58  1  0.33430000  0.05610000  0.20300000  1.0 0.1078908226
H  H59  1  0.66570000  0.94390000  0.20300000  1.0 0.1078908226
H  H60  1  0.55610000  0.16570000  0.20300000  1.0 0.1078908226
H  H61  1  0.05610000  0.66570000  0.79700000  1.0 0.1078908226
H  H62  1  0.16570000  0.44390000  0.79700000  1.0 0.1078908226
H  H63  1  0.83430000  0.55610000  0.79700000  1.0 0.1078908226
H  H64  1  0.94390000  0.33430000  0.79700000  1.0 0.1078908226
H  H65  1  0.42420000  0.87750000  0.28520000  1.0 0.1011447013
H  H66  1  0.37750000  0.07580000  0.28520000  1.0 0.1078908226
H  H67  1  0.62250000  0.92420000  0.28520000  1.0 0.1011447013
H  H68  1  0.57580000  0.12250000  0.28520000  1.0 0.1078908226
H  H69  1  0.07580000  0.62250000  0.71480000  1.0 0.1011447013
H  H70  1  0.12250000  0.42420000  0.71480000  1.0 0.1078908226
H  H71  1  0.87750000  0.57580000  0.71480000  1.0 0.1078908226
H  H72  1  0.92420000  0.37750000  0.71480000  1.0 0.1078908226
H  H73  1  0.43200000  0.82760000  0.35270000  1.0 0.1078908226
H  H74  1  0.32760000  0.06800000  0.35270000  1.0 0.1078908226
H  H75  1  0.67240000  0.93200000  0.35270000  1.0 0.1078908226
H  H76  1  0.56800000  0.17240000  0.35270000  1.0 0.1078908226
H  H77  1  0.06800000  0.67240000  0.64730000  1.0 0.1078908226
H  H78  1  0.17240000  0.43200000  0.64730000  1.0 0.1078908226
H  H79  1  0.82760000  0.56800000  0.64730000  1.0 0.1078908226
H  H80  1  0.93200000  0.32760000  0.64730000  1.0 0.1078908226
H  H81  1  0.98520000  0.67880000  0.37270000  1.0 0.1218076385
H  H82  1  0.17880000  0.51480000  0.37270000  1.0 0.1218076385
H  H83  1  0.82120000  0.48520000  0.37270000  1.0 0.1218076385
H  H84  1  0.01480000  0.32120000  0.37270000  1.0 0.1218076385
H  H85  1  0.51480000  0.82120000  0.62730000  1.0 0.1218076385
H  H86  1  0.32120000  0.98520000  0.62730000  1.0 0.1218076385
H  H87  1  0.67880000  0.01480000  0.62730000  1.0 0.1218076385
H  H88  1  0.48520000  0.17880000  0.62730000  1.0 0.1218076385
H  H89  1  0.07050000  0.66470000  0.37320000  1.0 0.1280411073
H  H90  1  0.16470000  0.42950000  0.37320000  1.0 0.1280411073
H  H91  1  0.83530000  0.57050000  0.37320000  1.0 0.1280411073
H  H92  1  0.92950000  0.33530000  0.37320000  1.0 0.1280411073
H  H93  1  0.42950000  0.83530000  0.62680000  1.0 0.1280411073
H  H94  1  0.33530000  0.07050000  0.62680000  1.0 0.1280411073
H  H95  1  0.66470000  0.92950000  0.62680000  1.0 0.1280411073
H  H96  1  0.57050000  0.16470000  0.62680000  1.0 0.1280411073
H  H97  1  0.91870000  0.65310000  0.57470000  1.0 0.1520027503
H  H98  1  0.15310000  0.58130000  0.57470000  1.0 0.1520027503
H  H99  1  0.84690000  0.41870000  0.57470000  1.0 0.1520027503
H  H100  1  0.08130000  0.34690000  0.57470000  1.0 0.1520027503
H  H101  1  0.58130000  0.84690000  0.42530000  1.0 0.1520027503
H  H102  1  0.34690000  0.91870000  0.42530000  1.0 0.1520027503
H  H103  1  0.65310000  0.08130000  0.42530000  1.0 0.1520027503
H  H104  1  0.41870000  0.15310000  0.42530000  1.0 0.1520027503
H  H105  1  0.86850000  0.71600000  0.60550000  1.0 0.1355562055
H  H106  1  0.21600000  0.63150000  0.60550000  1.0 0.1355562055
H  H107  1  0.78400000  0.36850000  0.60550000  1.0 0.1355562055
H  H108  1  0.13150000  0.28400000  0.60550000  1.0 0.1355562055
H  H109  1  0.63150000  0.78400000  0.39450000  1.0 0.1355562055
H  H110  1  0.28400000  0.86850000  0.39450000  1.0 0.1355562055
H  H111  1  0.71600000  0.13150000  0.39450000  1.0 0.1355562055
H  H112  1  0.36850000  0.21600000  0.39450000  1.0 0.1355562055
H  H113  1  0.82340000  0.70550000  0.24360000  1.0 0.1280411073
H  H114  1  0.20550000  0.67660000  0.24360000  1.0 0.1280411073
H  H115  1  0.79450000  0.32340000  0.24360000  1.0 0.1280411073
H  H116  1  0.17660000  0.29450000  0.24360000  1.0 0.1280411073
H  H117  1  0.67660000  0.79450000  0.75640000  1.0 0.1280411073
H  H118  1  0.29450000  0.82340000  0.75640000  1.0 0.1280411073
H  H119  1  0.70550000  0.17660000  0.75640000  1.0 0.1280411073
H  H120  1  0.32340000  0.20550000  0.75640000  1.0 0.1280411073
H  H121  1  0.87060000  0.64140000  0.20820000  1.0 0.1589774837
H  H122  1  0.14140000  0.62940000  0.20820000  1.0 0.1589774837
H  H123  1  0.85860000  0.37060000  0.20820000  1.0 0.1589774837
H  H124  1  0.12940000  0.35860000  0.20820000  1.0 0.1589774837
H  H125  1  0.62940000  0.85860000  0.79180000  1.0 0.1589774837
H  H126  1  0.35860000  0.87060000  0.79180000  1.0 0.1589774837
H  H127  1  0.64140000  0.12940000  0.79180000  1.0 0.1589774837
H  H128  1  0.37060000  0.14140000  0.79180000  1.0 0.1589774837
H  H129  1  0.78510000  0.75480000  0.38340000  1.0 0.1520027503
H  H130  1  0.25480000  0.71490000  0.38340000  1.0 0.1520027503
H  H131  1  0.74520000  0.28510000  0.38340000  1.0 0.1520027503
H  H132  1  0.21490000  0.24520000  0.38340000  1.0 0.1520027503
H  H133  1  0.71490000  0.74520000  0.61660000  1.0 0.1520027503
H  H134  1  0.24520000  0.78510000  0.61660000  1.0 0.1520027503
H  H135  1  0.75480000  0.21490000  0.61660000  1.0 0.1520027503
H  H136  1  0.28510000  0.25480000  0.61660000  1.0 0.1520027503
H  H137  1  0.79550000  0.75160000  0.53470000  1.0 0.1589774837
H  H138  1  0.25160000  0.70450000  0.53470000  1.0 0.1589774837
H  H139  1  0.74840000  0.29550000  0.53470000  1.0 0.1589774837
H  H140  1  0.20450000  0.24840000  0.53470000  1.0 0.1589774837
H  H141  1  0.70450000  0.74840000  0.46530000  1.0 0.1589774837
H  H142  1  0.24840000  0.79550000  0.46530000  1.0 0.1589774837
H  H143  1  0.75160000  0.20450000  0.46530000  1.0 0.1589774837
H  H144  1  0.29550000  0.25160000  0.46530000  1.0 0.1589774837
H  H145  1  0.82760000  0.78380000  0.44450000  1.0 0.1520027503
H  H146  1  0.28380000  0.67240000  0.44450000  1.0 0.1520027503
H  H147  1  0.71620000  0.32760000  0.44450000  1.0 0.1520027503
H  H148  1  0.17240000  0.21620000  0.44450000  1.0 0.1520027503
H  H149  1  0.67240000  0.71620000  0.55550000  1.0 0.1520027503
H  H150  1  0.21620000  0.82760000  0.55550000  1.0 0.1520027503
H  H151  1  0.78380000  0.17240000  0.55550000  1.0 0.1520027503
H  H152  1  0.32760000  0.28380000  0.55550000  1.0 0.1520027503
H  H153  1  0.43820000  0.67990000  0.32510000  1.0 0.3447277838
H  H154  1  0.17990000  0.06180000  0.32510000  1.0 0.3447277838
H  H155  1  0.82010000  0.93820000  0.32510000  1.0 0.3447277838
H  H156  1  0.56180000  0.32010000  0.32510000  1.0 0.3447277838
H  H157  1  0.06180000  0.82010000  0.67490000  1.0 0.34504193
H  H158  1  0.32010000  0.43820000  0.67490000  1.0 0.3447277838
H  H159  1  0.67990000  0.56180000  0.67490000  1.0 0.3447277838
H  H160  1  0.93820000  0.17990000  0.67490000  1.0 0.3447277838
H  H161  1  0.44940000  0.61700000  0.13950000  1.0 0.1011447013
H  H162  1  0.11700000  0.05060000  0.13950000  1.0 0.1011447013
H  H163  1  0.88300000  0.94940000  0.13950000  1.0 0.1011447013
H  H164  1  0.55060000  0.38300000  0.13950000  1.0 0.1011447013
H  H165  1  0.05060000  0.88300000  0.86050000  1.0 0.1011447013
H  H166  1  0.38300000  0.44940000  0.86050000  1.0 0.1011447013
H  H167  1  0.61700000  0.55060000  0.86050000  1.0 0.1011447013
H  H168  1  0.94940000  0.11700000  0.86050000  1.0 0.1011447013
H  H169  1  0.39680000  0.63200000  0.17350000  1.0 0.1078908226
H  H170  1  0.13200000  0.10320000  0.17350000  1.0 0.1078908226
H  H171  1  0.86800000  0.89680000  0.17350000  1.0 0.1078908226
H  H172  1  0.60320000  0.36800000  0.17350000  1.0 0.1078908226
H  H173  1  0.10320000  0.86800000  0.82650000  1.0 0.1078908226
H  H174  1  0.36800000  0.39680000  0.82650000  1.0 0.1078908226
H  H175  1  0.63200000  0.60320000  0.82650000  1.0 0.1078908226
H  H176  1  0.89680000  0.13200000  0.82650000  1.0 0.1078908226
H  H177  1  0.43330000  0.67040000  0.12250000  1.0 0.1218076385
H  H178  1  0.17040000  0.06670000  0.12250000  1.0 0.1218076385
H  H179  1  0.82960000  0.93330000  0.12250000  1.0 0.1218076385
H  H180  1  0.56670000  0.32960000  0.12250000  1.0 0.1218076385
H  H181  1  0.06670000  0.82960000  0.87750000  1.0 0.1218076385
H  H182  1  0.32960000  0.43330000  0.87750000  1.0 0.1218076385
H  H183  1  0.67040000  0.56670000  0.87750000  1.0 0.1218076385
H  H184  1  0.93330000  0.17040000  0.87750000  1.0 0.1218076385
C  C1  1  0.14024000  0.74345000  0.06010000  1.0 0.584477722
C  C2  1  0.24345000  0.35976000  0.06010000  1.0 0.584477722
C  C3  1  0.75655000  0.64024000  0.06010000  1.0 0.584477722
C  C4  1  0.85976000  0.25655000  0.06010000  1.0 0.584477722
C  C5  1  0.35976000  0.75655000  0.93990000  1.0 0.584477722
C  C6  1  0.25655000  0.14024000  0.93990000  1.0 0.584477722
C  C7  1  0.74345000  0.85976000  0.93990000  1.0 0.584477722
C  C8  1  0.64024000  0.24345000  0.93990000  1.0 0.584477722
C  C9  1  0.10868000  0.75172000  0.17470000  1.0 -0.0118933459
C  C10  1  0.25172000  0.39132000  0.17470000  1.0 -0.0118933459
C  C11  1  0.74828000  0.60868000  0.17470000  1.0 -0.0118933459
C  C12  1  0.89132000  0.24828000  0.17470000  1.0 -0.0118933459
C  C13  1  0.39132000  0.74828000  0.82530000  1.0 -0.0118933459
C  C14  1  0.24828000  0.10868000  0.82530000  1.0 -0.0118933459
C  C15  1  0.75172000  0.89132000  0.82530000  1.0 -0.0118933459
C  C16  1  0.60868000  0.25172000  0.82530000  1.0 -0.0118933459
C  C17  1  0.06094000  0.75888000  0.15590000  1.0 -0.1497138962
C  C18  1  0.25888000  0.43906000  0.15590000  1.0 -0.1497138962
C  C19  1  0.74112000  0.56094000  0.15590000  1.0 -0.1497138962
C  C20  1  0.93906000  0.24112000  0.15590000  1.0 -0.1497138962
C  C21  1  0.43906000  0.74112000  0.84410000  1.0 -0.1497138962
C  C22  1  0.24112000  0.06094000  0.84410000  1.0 -0.1497138962
C  C23  1  0.75888000  0.93906000  0.84410000  1.0 -0.1497138962
C  C24  1  0.56094000  0.25888000  0.84410000  1.0 -0.1497138962
C  C25  1  0.03055000  0.76614000  0.25950000  1.0 0.0666549358
C  C26  1  0.26614000  0.46945000  0.25950000  1.0 0.0666549358
C  C27  1  0.73386000  0.53055000  0.25950000  1.0 0.0666549358
C  C28  1  0.96945000  0.23386000  0.25950000  1.0 0.0666549358
C  C29  1  0.46945000  0.73386000  0.74050000  1.0 0.0666549358
C  C30  1  0.23386000  0.03055000  0.74050000  1.0 0.0666549358
C  C31  1  0.76614000  0.96945000  0.74050000  1.0 0.0666549358
C  C32  1  0.53055000  0.26614000  0.74050000  1.0 0.0666549358
C  C33  1  0.97998000  0.77447000  0.23550000  1.0 0.0798391815
C  C34  1  0.27447000  0.52002000  0.23550000  1.0 0.0798391815
C  C35  1  0.72553000  0.47998000  0.23550000  1.0 0.0798391815
C  C36  1  0.02002000  0.22553000  0.23550000  1.0 0.0798391815
C  C37  1  0.52002000  0.72553000  0.76450000  1.0 0.0798391815
C  C38  1  0.22553000  0.97998000  0.76450000  1.0 0.0798391815
C  C39  1  0.77447000  0.02002000  0.76450000  1.0 0.0798391815
C  C40  1  0.47998000  0.27447000  0.76450000  1.0 0.0798391815
C  C41  1  0.91012000  0.76080000  0.10960000  1.0 -0.094449558
C  C42  1  0.26080000  0.58988000  0.10960000  1.0 -0.094449558
C  C43  1  0.73920000  0.41012000  0.10960000  1.0 -0.094449558
C  C44  1  0.08988000  0.23920000  0.10960000  1.0 -0.094449558
C  C45  1  0.58988000  0.73920000  0.89040000  1.0 -0.094449558
C  C46  1  0.23920000  0.91012000  0.89040000  1.0 -0.094449558
C  C47  1  0.76080000  0.08988000  0.89040000  1.0 -0.094449558
C  C48  1  0.41012000  0.26080000  0.89040000  1.0 -0.094449558
C  C49  1  0.95459000  0.80564000  0.31150000  1.0 -0.1497138962
C  C50  1  0.30564000  0.54541000  0.31150000  1.0 -0.1497138962
C  C51  1  0.69436000  0.45459000  0.31150000  1.0 -0.1497138962
C  C52  1  0.04541000  0.19436000  0.31150000  1.0 -0.1497138962
C  C53  1  0.54541000  0.69436000  0.68850000  1.0 -0.1497138962
C  C54  1  0.19436000  0.95459000  0.68850000  1.0 -0.1497138962
C  C55  1  0.80564000  0.04541000  0.68850000  1.0 -0.1497138962
C  C56  1  0.45459000  0.30564000  0.68850000  1.0 -0.1497138962
C  C57  1  0.04881000  0.76592000  0.38300000  1.0 -0.1601705614
C  C58  1  0.26592000  0.45119000  0.38300000  1.0 -0.1601705614
C  C59  1  0.73408000  0.54881000  0.38300000  1.0 -0.1601705614
C  C60  1  0.95119000  0.23408000  0.38300000  1.0 -0.1601705614
C  C61  1  0.45119000  0.73408000  0.61700000  1.0 -0.1601705614
C  C62  1  0.23408000  0.04881000  0.61700000  1.0 -0.1601705614
C  C63  1  0.76592000  0.95119000  0.61700000  1.0 -0.1601705614
C  C64  1  0.54881000  0.26592000  0.61700000  1.0 -0.1601705614
C  C65  1  0.09677000  0.75842000  0.40320000  1.0 -0.0118933459
C  C66  1  0.25842000  0.40323000  0.40320000  1.0 -0.0118933459
C  C67  1  0.74158000  0.59677000  0.40320000  1.0 -0.0118933459
C  C68  1  0.90323000  0.24158000  0.40320000  1.0 -0.0118933459
C  C69  1  0.40323000  0.74158000  0.59680000  1.0 -0.0118933459
C  C70  1  0.24158000  0.09677000  0.59680000  1.0 -0.0118933459
C  C71  1  0.75842000  0.90323000  0.59680000  1.0 -0.0118933459
C  C72  1  0.59677000  0.25842000  0.59680000  1.0 -0.0118933459
C  C73  1  0.12675000  0.75257000  0.29930000  1.0 -0.1313274062
C  C74  1  0.25257000  0.37325000  0.29930000  1.0 -0.1313274062
C  C75  1  0.74743000  0.62675000  0.29930000  1.0 -0.1313274062
C  C76  1  0.87325000  0.24743000  0.29930000  1.0 -0.1313274062
C  C77  1  0.37325000  0.74743000  0.70070000  1.0 -0.1313274062
C  C78  1  0.24743000  0.12675000  0.70070000  1.0 -0.1313274062
C  C79  1  0.75257000  0.87325000  0.70070000  1.0 -0.1313274062
C  C80  1  0.62675000  0.25257000  0.70070000  1.0 -0.1313274062
C  C81  1  0.11656000  0.75451000  0.53810000  1.0 0.5468574085
C  C82  1  0.25451000  0.38344000  0.53810000  1.0 0.5468574085
C  C83  1  0.74549000  0.61656000  0.53810000  1.0 0.5468574085
C  C84  1  0.88344000  0.24549000  0.53810000  1.0 0.5468574085
C  C85  1  0.38344000  0.74549000  0.46190000  1.0 0.5468574085
C  C86  1  0.24549000  0.11656000  0.46190000  1.0 0.5468574085
C  C87  1  0.75451000  0.88344000  0.46190000  1.0 0.5468574085
C  C88  1  0.61656000  0.25451000  0.46190000  1.0 0.5468574085
C  C89  1  0.83381000  0.80028000  0.16120000  1.0 0.5710378879
C  C90  1  0.30028000  0.66619000  0.16120000  1.0 0.5710378879
C  C91  1  0.69972000  0.33381000  0.16120000  1.0 0.5710378879
C  C92  1  0.16619000  0.19972000  0.16120000  1.0 0.5710378879
C  C93  1  0.66619000  0.69972000  0.83880000  1.0 0.5710378879
C  C94  1  0.19972000  0.83381000  0.83880000  1.0 0.5710378879
C  C95  1  0.80028000  0.16619000  0.83880000  1.0 0.5710378879
C  C96  1  0.33381000  0.30028000  0.83880000  1.0 0.5710378879
C  C97  1  0.88524000  0.79225000  0.18490000  1.0 -0.0361620641
C  C98  1  0.29225000  0.61476000  0.18490000  1.0 -0.0361620641
C  C99  1  0.70775000  0.38524000  0.18490000  1.0 -0.0361620641
C  C100  1  0.11476000  0.20775000  0.18490000  1.0 -0.0361620641
C  C101  1  0.61476000  0.70775000  0.81510000  1.0 -0.0361620641
C  C102  1  0.20775000  0.88524000  0.81510000  1.0 -0.0361620641
C  C103  1  0.79225000  0.11476000  0.81510000  1.0 -0.0361620641
C  C104  1  0.38524000  0.29225000  0.81510000  1.0 -0.0361620641
C  C105  1  0.90805000  0.81473000  0.28740000  1.0 -0.1038225449
C  C106  1  0.31473000  0.59195000  0.28740000  1.0 -0.1038225449
C  C107  1  0.68527000  0.40805000  0.28740000  1.0 -0.1038225449
C  C108  1  0.09195000  0.18527000  0.28740000  1.0 -0.1038225449
C  C109  1  0.59195000  0.68527000  0.71260000  1.0 -0.1038225449
C  C110  1  0.18527000  0.90805000  0.71260000  1.0 -0.1038225449
C  C111  1  0.81473000  0.09195000  0.71260000  1.0 -0.1038225449
C  C112  1  0.40805000  0.31473000  0.71260000  1.0 -0.1038225449
C  C113  1  0.95694000  0.75200000  0.13480000  1.0 -0.1497138962
C  C114  1  0.25200000  0.54306000  0.13480000  1.0 -0.1497138962
C  C115  1  0.74800000  0.45694000  0.13480000  1.0 -0.1497138962
C  C116  1  0.04306000  0.24800000  0.13480000  1.0 -0.1497138962
C  C117  1  0.54306000  0.74800000  0.86520000  1.0 -0.1497138962
C  C118  1  0.24800000  0.95694000  0.86520000  1.0 -0.1497138962
C  C119  1  0.75200000  0.04306000  0.86520000  1.0 -0.1497138962
C  C120  1  0.45694000  0.25200000  0.86520000  1.0 -0.1497138962
C  C121  1  0.42270000  0.84340000  0.27300000  1.0 -0.1730349751
C  C122  1  0.34340000  0.07730000  0.27300000  1.0 -0.1730349751
C  C123  1  0.65660000  0.92270000  0.27300000  1.0 -0.1730349751
C  C124  1  0.57730000  0.15660000  0.27300000  1.0 -0.1730349751
C  C125  1  0.07730000  0.65660000  0.72700000  1.0 -0.1730349751
C  C126  1  0.15660000  0.42270000  0.72700000  1.0 -0.1730349751
C  C127  1  0.84340000  0.57730000  0.72700000  1.0 -0.1730349751
C  C128  1  0.92270000  0.34340000  0.72700000  1.0 -0.1730349751
C  C129  1  0.97813000  0.60436000  0.36980000  1.0 0.1765119576
C  C130  1  0.10436000  0.52187000  0.36980000  1.0 0.1765119576
C  C131  1  0.89564000  0.47813000  0.36980000  1.0 0.1765119576
C  C132  1  0.02187000  0.39564000  0.36980000  1.0 0.1765119576
C  C133  1  0.52187000  0.89564000  0.63020000  1.0 0.1765119576
C  C134  1  0.39564000  0.97813000  0.63020000  1.0 0.1765119576
C  C135  1  0.60436000  0.02187000  0.63020000  1.0 0.1765119576
C  C136  1  0.47813000  0.10436000  0.63020000  1.0 0.1765119576
C  C137  1  0.92991000  0.59743000  0.37030000  1.0 -0.0818728886
C  C138  1  0.09743000  0.57009000  0.37030000  1.0 -0.0818728886
C  C139  1  0.90257000  0.42991000  0.37030000  1.0 -0.0818728886
C  C140  1  0.07009000  0.40257000  0.37030000  1.0 -0.0818728886
C  C141  1  0.57009000  0.90257000  0.62970000  1.0 -0.0818728886
C  C142  1  0.40257000  0.92991000  0.62970000  1.0 -0.0818728886
C  C143  1  0.59743000  0.07009000  0.62970000  1.0 -0.0818728886
C  C144  1  0.42991000  0.09743000  0.62970000  1.0 -0.0818728886
C  C145  1  0.05390000  0.59201000  0.36710000  1.0 0.1765119576
C  C146  1  0.09201000  0.44610000  0.36710000  1.0 0.1765119576
C  C147  1  0.90799000  0.55390000  0.36710000  1.0 0.1765119576
C  C148  1  0.94610000  0.40799000  0.36710000  1.0 0.1765119576
C  C149  1  0.44610000  0.90799000  0.63290000  1.0 0.1765119576
C  C150  1  0.40799000  0.05390000  0.63290000  1.0 0.1765119576
C  C151  1  0.59201000  0.94610000  0.63290000  1.0 0.1765119576
C  C152  1  0.55390000  0.09201000  0.63290000  1.0 0.1765119576
C  C153  1  0.00030000  0.64908000  0.37150000  1.0 -0.181200192
C  C154  1  0.14908000  0.49970000  0.37150000  1.0 -0.181200192
C  C155  1  0.85092000  0.50030000  0.37150000  1.0 -0.181200192
C  C156  1  0.99970000  0.35092000  0.37150000  1.0 -0.181200192
C  C157  1  0.49970000  0.85092000  0.62850000  1.0 -0.181200192
C  C158  1  0.35092000  0.00030000  0.62850000  1.0 -0.181200192
C  C159  1  0.64908000  0.99970000  0.62850000  1.0 -0.181200192
C  C160  1  0.50030000  0.14908000  0.62850000  1.0 -0.181200192
C  C161  1  0.04666000  0.64135000  0.37120000  1.0 -0.1730349751
C  C162  1  0.14135000  0.45334000  0.37120000  1.0 -0.1730349751
C  C163  1  0.85865000  0.54666000  0.37120000  1.0 -0.1730349751
C  C164  1  0.95334000  0.35865000  0.37120000  1.0 -0.1730349751
C  C165  1  0.45334000  0.85865000  0.62880000  1.0 -0.1730349751
C  C166  1  0.35865000  0.04666000  0.62880000  1.0 -0.1730349751
C  C167  1  0.64135000  0.95334000  0.62880000  1.0 -0.1730349751
C  C168  1  0.54666000  0.14135000  0.62880000  1.0 -0.1730349751
C  C169  1  0.89942000  0.63961000  0.38760000  1.0 0.1280411073
C  C170  1  0.13961000  0.60058000  0.38760000  1.0 0.1280411073
C  C171  1  0.86039000  0.39942000  0.38760000  1.0 0.1280411073
C  C172  1  0.10058000  0.36039000  0.38760000  1.0 0.1280411073
C  C173  1  0.60058000  0.86039000  0.61240000  1.0 0.1280411073
C  C174  1  0.36039000  0.89942000  0.61240000  1.0 0.1280411073
C  C175  1  0.63961000  0.10058000  0.61240000  1.0 0.1280411073
C  C176  1  0.39942000  0.13961000  0.61240000  1.0 0.1280411073
C  C177  1  0.89870000  0.66310000  0.50680000  1.0 -0.181200192
C  C178  1  0.16310000  0.60130000  0.50680000  1.0 -0.181200192
C  C179  1  0.83690000  0.39870000  0.50680000  1.0 -0.181200192
C  C180  1  0.10130000  0.33690000  0.50680000  1.0 -0.181200192
C  C181  1  0.60130000  0.83690000  0.49320000  1.0 -0.181200192
C  C182  1  0.33690000  0.89870000  0.49320000  1.0 -0.181200192
C  C183  1  0.66310000  0.10130000  0.49320000  1.0 -0.181200192
C  C184  1  0.39870000  0.16310000  0.49320000  1.0 -0.181200192
C  C185  1  0.86940000  0.70030000  0.52480000  1.0 0.0410983956
C  C186  1  0.20030000  0.63060000  0.52480000  1.0 0.0410983956
C  C187  1  0.79970000  0.36940000  0.52480000  1.0 0.0410983956
C  C188  1  0.13060000  0.29970000  0.52480000  1.0 0.0410983956
C  C189  1  0.63060000  0.79970000  0.47520000  1.0 0.0410983956
C  C190  1  0.29970000  0.86940000  0.47520000  1.0 0.0410983956
C  C191  1  0.70030000  0.13060000  0.47520000  1.0 0.0410983956
C  C192  1  0.36940000  0.20030000  0.47520000  1.0 0.0410983956
C  C193  1  0.84250000  0.69391000  0.31160000  1.0 0.0410983956
C  C194  1  0.19391000  0.65750000  0.31160000  1.0 0.0410983956
C  C195  1  0.80609000  0.34250000  0.31160000  1.0 0.0410983956
C  C196  1  0.15750000  0.30609000  0.31160000  1.0 0.0410983956
C  C197  1  0.65750000  0.80609000  0.68840000  1.0 0.0410983956
C  C198  1  0.30609000  0.84250000  0.68840000  1.0 0.0410983956
C  C199  1  0.69391000  0.15750000  0.68840000  1.0 0.0410983956
C  C200  1  0.34250000  0.19391000  0.68840000  1.0 0.0410983956
C  C201  1  0.87060000  0.65633000  0.29010000  1.0 -0.1926513917
C  C202  1  0.15633000  0.62940000  0.29010000  1.0 -0.1926513917
C  C203  1  0.84367000  0.37060000  0.29010000  1.0 -0.1926513917
C  C204  1  0.12940000  0.34367000  0.29010000  1.0 -0.1926513917
C  C205  1  0.62940000  0.84367000  0.70990000  1.0 -0.1926513917
C  C206  1  0.34367000  0.87060000  0.70990000  1.0 -0.1926513917
C  C207  1  0.65633000  0.12940000  0.70990000  1.0 -0.1926513917
C  C208  1  0.37060000  0.15633000  0.70990000  1.0 -0.1926513917
C  C209  1  0.80976000  0.75451000  0.44910000  1.0 -0.3709262877
C  C210  1  0.25451000  0.69024000  0.44910000  1.0 -0.3709262877
C  C211  1  0.74549000  0.30976000  0.44910000  1.0 -0.3709262877
C  C212  1  0.19024000  0.24549000  0.44910000  1.0 -0.3709262877
C  C213  1  0.69024000  0.74549000  0.55090000  1.0 -0.3709262877
C  C214  1  0.24549000  0.80976000  0.55090000  1.0 -0.3709262877
C  C215  1  0.75451000  0.19024000  0.55090000  1.0 -0.3709262877
C  C216  1  0.30976000  0.25451000  0.55090000  1.0 -0.3709262877
C  C217  1  0.42960000  0.64200000  0.17500000  1.0 -0.2036103613
C  C218  1  0.14200000  0.07040000  0.17500000  1.0 -0.2036103613
C  C219  1  0.85800000  0.92960000  0.17500000  1.0 -0.2036103613
C  C220  1  0.57040000  0.35800000  0.17500000  1.0 -0.2036103613
C  C221  1  0.07040000  0.85800000  0.82500000  1.0 -0.2036103613
C  C222  1  0.35800000  0.42960000  0.82500000  1.0 -0.2036103613
C  C223  1  0.64200000  0.57040000  0.82500000  1.0 -0.2036103613
C  C224  1  0.92960000  0.14200000  0.82500000  1.0 -0.2036103613
N  N1  1  0.01130000  0.56976000  0.36560000  1.0 -0.3025326139
N  N2  1  0.06976000  0.48870000  0.36560000  1.0 -0.3025326139
N  N3  1  0.93024000  0.51130000  0.36560000  1.0 -0.3025326139
N  N4  1  0.98870000  0.43024000  0.36560000  1.0 -0.3025326139
N  N5  1  0.48870000  0.93024000  0.63440000  1.0 -0.3025326139
N  N6  1  0.43024000  0.01130000  0.63440000  1.0 -0.3025326139
N  N7  1  0.56976000  0.98870000  0.63440000  1.0 -0.3025326139
N  N8  1  0.51130000  0.06976000  0.63440000  1.0 -0.3025326139
N  N9  1  0.84123000  0.71473000  0.42640000  1.0 0.1520027503
N  N10  1  0.21473000  0.65877000  0.42640000  1.0 0.1520027503
N  N11  1  0.78527000  0.34123000  0.42640000  1.0 0.1520027503
N  N12  1  0.15877000  0.28527000  0.42640000  1.0 0.1520027503
N  N13  1  0.65877000  0.78527000  0.57360000  1.0 0.1520027503
N  N14  1  0.28527000  0.84123000  0.57360000  1.0 0.1520027503
N  N15  1  0.71473000  0.15877000  0.57360000  1.0 0.1520027503
N  N16  1  0.34123000  0.21473000  0.57360000  1.0 0.1520027503
Cl  Cl1  1  0.26944000  0.79370000  0.20893000  1.0 -0.5195056505
Cl  Cl2  1  0.29370000  0.23056000  0.20893000  1.0 -0.5195056505
Cl  Cl3  1  0.70630000  0.76944000  0.20893000  1.0 -0.5195056505
Cl  Cl4  1  0.73056000  0.20630000  0.20893000  1.0 -0.5195056505
Cl  Cl5  1  0.23056000  0.70630000  0.79107000  1.0 -0.5195056505
Cl  Cl6  1  0.20630000  0.26944000  0.79107000  1.0 -0.5195056505
Cl  Cl7  1  0.79370000  0.73056000  0.79107000  1.0 -0.5195056505
Cl  Cl8  1  0.76944000  0.29370000  0.79107000  1.0 -0.5195056505
O  O1  1  0.18251000  0.73432000  0.08330000  1.0 -0.5647788054
O  O2  1  0.23432000  0.31749000  0.08330000  1.0 -0.5647788054
O  O3  1  0.76568000  0.68251000  0.08330000  1.0 -0.5647788054
O  O4  1  0.81749000  0.26568000  0.08330000  1.0 -0.5647788054
O  O5  1  0.31749000  0.76568000  0.91670000  1.0 -0.5647788054
O  O6  1  0.26568000  0.18251000  0.91670000  1.0 -0.5647788054
O  O7  1  0.73432000  0.81749000  0.91670000  1.0 -0.5647788054
O  O8  1  0.68251000  0.23432000  0.91670000  1.0 -0.5647788054
O  O9  1  0.81469000  0.77486000  0.07770000  1.0 -0.5464616424
O  O10  1  0.27486000  0.68531000  0.07770000  1.0 -0.5464616424
O  O11  1  0.72514000  0.31469000  0.07770000  1.0 -0.5464616424
O  O12  1  0.18531000  0.22514000  0.07770000  1.0 -0.5464616424
O  O13  1  0.68531000  0.72514000  0.92230000  1.0 -0.5464616424
O  O14  1  0.22514000  0.81469000  0.92230000  1.0 -0.5464616424
O  O15  1  0.77486000  0.18531000  0.92230000  1.0 -0.5464616424
O  O16  1  0.31469000  0.27486000  0.92230000  1.0 -0.5464616424
O  O17  1  0.81410000  0.83145000  0.22470000  1.0 -0.5293415494
O  O18  1  0.33145000  0.68590000  0.22470000  1.0 -0.5293415494
O  O19  1  0.66855000  0.31410000  0.22470000  1.0 -0.5293415494
O  O20  1  0.18590000  0.16855000  0.22470000  1.0 -0.5293415494
O  O21  1  0.68590000  0.66855000  0.77530000  1.0 -0.5293415494
O  O22  1  0.16855000  0.81410000  0.77530000  1.0 -0.5293415494
O  O23  1  0.83145000  0.18590000  0.77530000  1.0 -0.5293415494
O  O24  1  0.31410000  0.33145000  0.77530000  1.0 -0.5293415494
O  O25  1  0.08997000  0.76207000  0.63320000  1.0 -0.5293415494
O  O26  1  0.26207000  0.41003000  0.63320000  1.0 -0.5293415494
O  O27  1  0.73793000  0.58997000  0.63320000  1.0 -0.5293415494
O  O28  1  0.91003000  0.23793000  0.63320000  1.0 -0.5293415494
O  O29  1  0.41003000  0.73793000  0.36680000  1.0 -0.5293415494
O  O30  1  0.23793000  0.08997000  0.36680000  1.0 -0.5293415494
O  O31  1  0.76207000  0.91003000  0.36680000  1.0 -0.5293415494
O  O32  1  0.58997000  0.26207000  0.36680000  1.0 -0.5293415494
O  O33  1  0.15795000  0.74189000  0.55180000  1.0 -0.4980031892
O  O34  1  0.24189000  0.34205000  0.55180000  1.0 -0.4980031892
O  O35  1  0.75811000  0.65795000  0.55180000  1.0 -0.4980031892
O  O36  1  0.84205000  0.25811000  0.55180000  1.0 -0.4980031892
O  O37  1  0.34205000  0.75811000  0.44820000  1.0 -0.4980031892
O  O38  1  0.25811000  0.15795000  0.44820000  1.0 -0.4980031892
O  O39  1  0.74189000  0.84205000  0.44820000  1.0 -0.4980031892
O  O40  1  0.65795000  0.24189000  0.44820000  1.0 -0.4980031892
O  O41  1  0.12175000  0.74620000  0.95180000  1.0 -0.5195056505
O  O42  1  0.24620000  0.37825000  0.95180000  1.0 -0.5195056505
O  O43  1  0.75380000  0.62175000  0.95180000  1.0 -0.5195056505
O  O44  1  0.87825000  0.25380000  0.95180000  1.0 -0.5195056505
O  O45  1  0.37825000  0.75380000  0.04820000  1.0 -0.5195056505
O  O46  1  0.25380000  0.12175000  0.04820000  1.0 -0.5195056505
O  O47  1  0.74620000  0.87825000  0.04820000  1.0 -0.5195056505
O  O48  1  0.62175000  0.24620000  0.04820000  1.0 -0.5195056505
O  O49  1  0.37790000  0.83086000  0.24180000  1.0 -0.3709262877
O  O50  1  0.33086000  0.12210000  0.24180000  1.0 -0.3709262877
O  O51  1  0.66914000  0.87790000  0.24180000  1.0 -0.3709262877
O  O52  1  0.62210000  0.16914000  0.24180000  1.0 -0.3709262877
O  O53  1  0.12210000  0.66914000  0.75820000  1.0 -0.3709262877
O  O54  1  0.16914000  0.37790000  0.75820000  1.0 -0.3709262877
O  O55  1  0.83086000  0.62210000  0.75820000  1.0 -0.3709262877
O  O56  1  0.87790000  0.33086000  0.75820000  1.0 -0.3709262877
O  O57  1  0.00000000  0.50000000  0.14910000  1.0 -0.2906977392
O  O58  1  0.50000000  0.00000000  0.85090000  1.0 -0.2906977392
O  O59  1  0.00000000  0.50000000  0.57810000  1.0 -0.3265024993
O  O60  1  0.50000000  0.00000000  0.42190000  1.0 -0.3243534869
O  O61  1  0.44370000  0.65170000  0.30630000  1.0 -0.3265024993
O  O62  1  0.15170000  0.05630000  0.30630000  1.0 -0.3265024993
O  O63  1  0.84830000  0.94370000  0.30630000  1.0 -0.3265024993
O  O64  1  0.55630000  0.34830000  0.30630000  1.0 -0.3265024993
O  O65  1  0.05630000  0.84830000  0.69370000  1.0 -0.3265024993
O  O66  1  0.34830000  0.44370000  0.69370000  1.0 -0.3265024993
O  O67  1  0.65170000  0.55630000  0.69370000  1.0 -0.3265024993
O  O68  1  0.94370000  0.15170000  0.69370000  1.0 -0.3265024993
