# DDEC6 charges by PACMAN v1.1 (https://github.com/mtap-research/PACMAN-charge/)
data_DANZOJ_ion_pacman
_symmetry_space_group_name_H-M   'P 1'
_cell_length_a   18.80720000
_cell_length_b   18.80720000
_cell_length_c   18.80720000
_cell_angle_alpha   60.00000000
_cell_angle_beta   60.00000000
_cell_angle_gamma   60.00000000
_symmetry_Int_Tables_number   1
_chemical_formula_structural   Mn13H168C186N18(Cl7O48)2
_chemical_formula_sum   'Mn13 H168 C186 N18 Cl14 O96'
_cell_volume   4703.89296577
_cell_formula_units_Z   1
loop_
 _symmetry_equiv_pos_site_id
 _symmetry_equiv_pos_as_xyz
  1  'x, y, z'
loop_
 _atom_site_type_symbol
 _atom_site_label
 _atom_site_symmetry_multiplicity
 _atom_site_fract_x
 _atom_site_fract_y
 _atom_site_fract_z
 _atom_site_occupancy
 _atom_site_charge
Mn  Mn1  1  0.00000000  0.00000000  0.00000000  1.0 0.2648797785
Mn  Mn2  1  0.50000000  0.91434000  0.50000000  1.0 0.8214213902
Mn  Mn3  1  0.08566000  0.50000000  0.91434000  1.0 0.8214213902
Mn  Mn4  1  0.91434000  0.50000000  0.08566000  1.0 0.8214213902
Mn  Mn5  1  0.50000000  0.08566000  0.50000000  1.0 0.8214213902
Mn  Mn6  1  0.91434000  0.50000000  0.50000000  1.0 0.8214213902
Mn  Mn7  1  0.50000000  0.08566000  0.91434000  1.0 0.8214213902
Mn  Mn8  1  0.50000000  0.91434000  0.08566000  1.0 0.8214213902
Mn  Mn9  1  0.08566000  0.50000000  0.50000000  1.0 0.8214213902
Mn  Mn10  1  0.50000000  0.50000000  0.91434000  1.0 0.8214213902
Mn  Mn11  1  0.91434000  0.08566000  0.50000000  1.0 0.8214213902
Mn  Mn12  1  0.50000000  0.50000000  0.08566000  1.0 0.8214213902
Mn  Mn13  1  0.08566000  0.91434000  0.50000000  1.0 0.8214213902
H  H1  1  0.72840000  0.27160000  0.87980000  1.0 0.0897261559
H  H2  1  0.12020000  0.87980000  0.27160000  1.0 0.0897261559
H  H3  1  0.27160000  0.72840000  0.12020000  1.0 0.0897261559
H  H4  1  0.87980000  0.12020000  0.72840000  1.0 0.0897261559
H  H5  1  0.87980000  0.12020000  0.27160000  1.0 0.0897261559
H  H6  1  0.27160000  0.72840000  0.87980000  1.0 0.0897261559
H  H7  1  0.12020000  0.87980000  0.72840000  1.0 0.0897261559
H  H8  1  0.72840000  0.27160000  0.12020000  1.0 0.0897261559
H  H9  1  0.27160000  0.87980000  0.72840000  1.0 0.0897261559
H  H10  1  0.87980000  0.27160000  0.12020000  1.0 0.0897261559
H  H11  1  0.12020000  0.72840000  0.87980000  1.0 0.0897261559
H  H12  1  0.72840000  0.12020000  0.27160000  1.0 0.0897261559
H  H13  1  0.87980000  0.27160000  0.72840000  1.0 0.0897261559
H  H14  1  0.12020000  0.72840000  0.27160000  1.0 0.0897261559
H  H15  1  0.27160000  0.87980000  0.12020000  1.0 0.0897261559
H  H16  1  0.72840000  0.12020000  0.87980000  1.0 0.0897261559
H  H17  1  0.87980000  0.72840000  0.27160000  1.0 0.0897261559
H  H18  1  0.27160000  0.12020000  0.87980000  1.0 0.0897261559
H  H19  1  0.72840000  0.87980000  0.12020000  1.0 0.0897261559
H  H20  1  0.12020000  0.27160000  0.72840000  1.0 0.0897261559
H  H21  1  0.27160000  0.12020000  0.72840000  1.0 0.0897261559
H  H22  1  0.87980000  0.72840000  0.12020000  1.0 0.0897261559
H  H23  1  0.72840000  0.87980000  0.27160000  1.0 0.0897261559
H  H24  1  0.12020000  0.27160000  0.87980000  1.0 0.0897261559
H  H25  1  0.64450000  0.35550000  0.79210000  1.0 0.0536785451
H  H26  1  0.20790000  0.79210000  0.35550000  1.0 0.0536785451
H  H27  1  0.35550000  0.64450000  0.20790000  1.0 0.0536785451
H  H28  1  0.79210000  0.20790000  0.64450000  1.0 0.0536785451
H  H29  1  0.79210000  0.20790000  0.35550000  1.0 0.0536785451
H  H30  1  0.35550000  0.64450000  0.79210000  1.0 0.0536785451
H  H31  1  0.20790000  0.79210000  0.64450000  1.0 0.0536785451
H  H32  1  0.64450000  0.35550000  0.20790000  1.0 0.0536785451
H  H33  1  0.35550000  0.79210000  0.64450000  1.0 0.0536785451
H  H34  1  0.79210000  0.35550000  0.20790000  1.0 0.0536785451
H  H35  1  0.20790000  0.64450000  0.79210000  1.0 0.0536785451
H  H36  1  0.64450000  0.20790000  0.35550000  1.0 0.0536785451
H  H37  1  0.79210000  0.35550000  0.64450000  1.0 0.0536785451
H  H38  1  0.20790000  0.64450000  0.35550000  1.0 0.0536785451
H  H39  1  0.35550000  0.79210000  0.20790000  1.0 0.0536785451
H  H40  1  0.64450000  0.20790000  0.79210000  1.0 0.0536785451
H  H41  1  0.79210000  0.64450000  0.35550000  1.0 0.0536785451
H  H42  1  0.35550000  0.20790000  0.79210000  1.0 0.0536785451
H  H43  1  0.64450000  0.79210000  0.20790000  1.0 0.0536785451
H  H44  1  0.20790000  0.35550000  0.64450000  1.0 0.0536785451
H  H45  1  0.35550000  0.20790000  0.64450000  1.0 0.0536785451
H  H46  1  0.79210000  0.64450000  0.20790000  1.0 0.0536785451
H  H47  1  0.64450000  0.79210000  0.35550000  1.0 0.0536785451
H  H48  1  0.20790000  0.35550000  0.79210000  1.0 0.0536785451
H  H49  1  0.93360000  0.06640000  0.73480000  1.0 0.0978826898
H  H50  1  0.26520000  0.73480000  0.06640000  1.0 0.0978826898
H  H51  1  0.06640000  0.93360000  0.26520000  1.0 0.0978826898
H  H52  1  0.73480000  0.26520000  0.93360000  1.0 0.0978826898
H  H53  1  0.73480000  0.26520000  0.06640000  1.0 0.0978826898
H  H54  1  0.06640000  0.93360000  0.73480000  1.0 0.0978826898
H  H55  1  0.26520000  0.73480000  0.93360000  1.0 0.0978826898
H  H56  1  0.93360000  0.06640000  0.26520000  1.0 0.0978826898
H  H57  1  0.06640000  0.73480000  0.93360000  1.0 0.0978826898
H  H58  1  0.73480000  0.06640000  0.26520000  1.0 0.0978826898
H  H59  1  0.26520000  0.93360000  0.73480000  1.0 0.0978826898
H  H60  1  0.93360000  0.26520000  0.06640000  1.0 0.0978826898
H  H61  1  0.73480000  0.06640000  0.93360000  1.0 0.0978826898
H  H62  1  0.26520000  0.93360000  0.06640000  1.0 0.0978826898
H  H63  1  0.06640000  0.73480000  0.26520000  1.0 0.0978826898
H  H64  1  0.93360000  0.26520000  0.73480000  1.0 0.0978826898
H  H65  1  0.73480000  0.93360000  0.06640000  1.0 0.0978826898
H  H66  1  0.06640000  0.26520000  0.73480000  1.0 0.0978826898
H  H67  1  0.93360000  0.73480000  0.26520000  1.0 0.0978826898
H  H68  1  0.26520000  0.06640000  0.93360000  1.0 0.0978826898
H  H69  1  0.06640000  0.26520000  0.93360000  1.0 0.0978826898
H  H70  1  0.73480000  0.93360000  0.26520000  1.0 0.0978826898
H  H71  1  0.93360000  0.73480000  0.06640000  1.0 0.0978826898
H  H72  1  0.26520000  0.06640000  0.73480000  1.0 0.0978826898
H  H73  1  0.60830000  0.32230000  0.67770000  1.0 -0.0255533434
H  H74  1  0.39170000  0.67770000  0.32230000  1.0 -0.0255533434
H  H75  1  0.32230000  0.60830000  0.39170000  1.0 -0.0255533434
H  H76  1  0.67770000  0.39170000  0.60830000  1.0 -0.0255533434
H  H77  1  0.60830000  0.32230000  0.39170000  1.0 -0.0255533434
H  H78  1  0.39170000  0.67770000  0.60830000  1.0 -0.0255533434
H  H79  1  0.32230000  0.60830000  0.67770000  1.0 -0.0255533434
H  H80  1  0.67770000  0.39170000  0.32230000  1.0 -0.0255533434
H  H81  1  0.32230000  0.67770000  0.60830000  1.0 -0.0255533434
H  H82  1  0.67770000  0.32230000  0.39170000  1.0 -0.0255533434
H  H83  1  0.39170000  0.60830000  0.67770000  1.0 -0.0255533434
H  H84  1  0.60830000  0.39170000  0.32230000  1.0 -0.0255533434
H  H85  1  0.60830000  0.39170000  0.67770000  1.0 -0.0255533434
H  H86  1  0.32230000  0.67770000  0.39170000  1.0 -0.0255533434
H  H87  1  0.39170000  0.60830000  0.32230000  1.0 -0.0255533434
H  H88  1  0.67770000  0.32230000  0.60830000  1.0 -0.0255533434
H  H89  1  0.67770000  0.60830000  0.32230000  1.0 -0.0255533434
H  H90  1  0.32230000  0.39170000  0.67770000  1.0 -0.0255533434
H  H91  1  0.60830000  0.67770000  0.39170000  1.0 -0.0255533434
H  H92  1  0.39170000  0.32230000  0.60830000  1.0 -0.0255533434
H  H93  1  0.39170000  0.32230000  0.67770000  1.0 -0.0255533434
H  H94  1  0.60830000  0.67770000  0.32230000  1.0 -0.0255533434
H  H95  1  0.67770000  0.60830000  0.39170000  1.0 -0.0255533434
H  H96  1  0.32230000  0.39170000  0.60830000  1.0 -0.0255533434
H  H97  1  0.69050000  0.34430000  0.59550000  1.0 -0.0244881373
H  H98  1  0.36970000  0.59550000  0.34430000  1.0 -0.0255533434
H  H99  1  0.34430000  0.69050000  0.36970000  1.0 -0.0255533434
H  H100  1  0.59550000  0.36970000  0.69050000  1.0 -0.0244881373
H  H101  1  0.63030000  0.40450000  0.30950000  1.0 -0.0244881373
H  H102  1  0.30950000  0.65570000  0.63030000  1.0 -0.0244881373
H  H103  1  0.40450000  0.63030000  0.65570000  1.0 -0.0244881373
H  H104  1  0.65570000  0.30950000  0.40450000  1.0 -0.0244881373
H  H105  1  0.34430000  0.59550000  0.69050000  1.0 -0.0244881373
H  H106  1  0.59550000  0.34430000  0.36970000  1.0 -0.0244881373
H  H107  1  0.36970000  0.69050000  0.59550000  1.0 -0.0244881373
H  H108  1  0.69050000  0.36970000  0.34430000  1.0 -0.0244881373
H  H109  1  0.63030000  0.30950000  0.65570000  1.0 -0.0244881373
H  H110  1  0.40450000  0.65570000  0.30950000  1.0 -0.0255533434
H  H111  1  0.30950000  0.63030000  0.40450000  1.0 -0.0255533434
H  H112  1  0.65570000  0.40450000  0.63030000  1.0 -0.0244881373
H  H113  1  0.59550000  0.69050000  0.34430000  1.0 -0.0255533434
H  H114  1  0.34430000  0.36970000  0.59550000  1.0 -0.0244881373
H  H115  1  0.69050000  0.59550000  0.36970000  1.0 -0.0255533434
H  H116  1  0.36970000  0.34430000  0.69050000  1.0 -0.0244881373
H  H117  1  0.30950000  0.40450000  0.65570000  1.0 -0.0244881373
H  H118  1  0.63030000  0.65570000  0.40450000  1.0 -0.0255533434
H  H119  1  0.65570000  0.63030000  0.30950000  1.0 -0.0255533434
H  H120  1  0.40450000  0.30950000  0.63030000  1.0 -0.0244881373
H  H121  1  0.30950000  0.65570000  0.40450000  1.0 -0.0255533434
H  H122  1  0.63030000  0.40450000  0.65570000  1.0 -0.0244881373
H  H123  1  0.65570000  0.30950000  0.63030000  1.0 -0.0244881373
H  H124  1  0.40450000  0.63030000  0.30950000  1.0 -0.0244881373
H  H125  1  0.36970000  0.59550000  0.69050000  1.0 -0.0244881373
H  H126  1  0.69050000  0.34430000  0.36970000  1.0 -0.0244881373
H  H127  1  0.59550000  0.36970000  0.34430000  1.0 -0.0244881373
H  H128  1  0.34430000  0.69050000  0.59550000  1.0 -0.0244881373
H  H129  1  0.65570000  0.40450000  0.30950000  1.0 -0.0244881373
H  H130  1  0.40450000  0.65570000  0.63030000  1.0 -0.0244881373
H  H131  1  0.63030000  0.30950000  0.40450000  1.0 -0.0244881373
H  H132  1  0.30950000  0.63030000  0.65570000  1.0 -0.0244881373
H  H133  1  0.36970000  0.69050000  0.34430000  1.0 -0.0244881373
H  H134  1  0.59550000  0.34430000  0.69050000  1.0 -0.0244881373
H  H135  1  0.69050000  0.36970000  0.59550000  1.0 -0.0244881373
H  H136  1  0.34430000  0.59550000  0.36970000  1.0 -0.0255533434
H  H137  1  0.40450000  0.30950000  0.65570000  1.0 -0.0244881373
H  H138  1  0.65570000  0.63030000  0.40450000  1.0 -0.0255533434
H  H139  1  0.30950000  0.40450000  0.63030000  1.0 -0.0244881373
H  H140  1  0.63030000  0.65570000  0.30950000  1.0 -0.0255533434
H  H141  1  0.69050000  0.59550000  0.34430000  1.0 -0.0255533434
H  H142  1  0.36970000  0.34430000  0.59550000  1.0 -0.0244881373
H  H143  1  0.34430000  0.36970000  0.69050000  1.0 -0.0244881373
H  H144  1  0.59550000  0.69050000  0.36970000  1.0 -0.0255533434
H  H145  1  0.52910000  0.01230000  0.22930000  1.0 0.1179492757
H  H146  1  0.22930000  0.22930000  0.01230000  1.0 0.1179492757
H  H147  1  0.01230000  0.52910000  0.22930000  1.0 0.1179492757
H  H148  1  0.22930000  0.22930000  0.52910000  1.0 0.1179492757
H  H149  1  0.77070000  0.77070000  0.47090000  1.0 0.1179492757
H  H150  1  0.47090000  0.98770000  0.77070000  1.0 0.1179492757
H  H151  1  0.77070000  0.77070000  0.98770000  1.0 0.1179492757
H  H152  1  0.98770000  0.47090000  0.77070000  1.0 0.1179492757
H  H153  1  0.01230000  0.22930000  0.52910000  1.0 0.1179492757
H  H154  1  0.22930000  0.01230000  0.22930000  1.0 0.1179492757
H  H155  1  0.22930000  0.52910000  0.22930000  1.0 0.1179492757
H  H156  1  0.52910000  0.22930000  0.01230000  1.0 0.1179492757
H  H157  1  0.77070000  0.47090000  0.98770000  1.0 0.1179492757
H  H158  1  0.77070000  0.98770000  0.47090000  1.0 0.1179492757
H  H159  1  0.47090000  0.77070000  0.77070000  1.0 0.1179492757
H  H160  1  0.98770000  0.77070000  0.77070000  1.0 0.1179492757
H  H161  1  0.22930000  0.52910000  0.01230000  1.0 0.1179492757
H  H162  1  0.01230000  0.22930000  0.22930000  1.0 0.1179492757
H  H163  1  0.52910000  0.22930000  0.22930000  1.0 0.1179492757
H  H164  1  0.22930000  0.01230000  0.52910000  1.0 0.1179492757
H  H165  1  0.47090000  0.77070000  0.98770000  1.0 0.1179492757
H  H166  1  0.77070000  0.98770000  0.77070000  1.0 0.1179492757
H  H167  1  0.98770000  0.77070000  0.47090000  1.0 0.1179492757
H  H168  1  0.77070000  0.47090000  0.77070000  1.0 0.1179492757
C  C1  1  0.87050000  0.12950000  0.87050000  1.0 0.0443328326
C  C2  1  0.12950000  0.87050000  0.12950000  1.0 0.0443328326
C  C3  1  0.87050000  0.12950000  0.12950000  1.0 0.0443328326
C  C4  1  0.12950000  0.87050000  0.87050000  1.0 0.0443328326
C  C5  1  0.87050000  0.87050000  0.12950000  1.0 0.0443328326
C  C6  1  0.12950000  0.12950000  0.87050000  1.0 0.0443328326
C  C7  1  0.81490000  0.18510000  0.81490000  1.0 0.0536785451
C  C8  1  0.18510000  0.81490000  0.18510000  1.0 0.0536785451
C  C9  1  0.81490000  0.18510000  0.18510000  1.0 0.0536785451
C  C10  1  0.18510000  0.81490000  0.81490000  1.0 0.0536785451
C  C11  1  0.81490000  0.81490000  0.18510000  1.0 0.0536785451
C  C12  1  0.18510000  0.18510000  0.81490000  1.0 0.0536785451
C  C13  1  0.74290000  0.25710000  0.83150000  1.0 -0.1082436242
C  C14  1  0.16850000  0.83150000  0.25710000  1.0 -0.1082436242
C  C15  1  0.25710000  0.74290000  0.16850000  1.0 -0.1082436242
C  C16  1  0.83150000  0.16850000  0.74290000  1.0 -0.1082436242
C  C17  1  0.83150000  0.16850000  0.25710000  1.0 -0.1082436242
C  C18  1  0.25710000  0.74290000  0.83150000  1.0 -0.1082436242
C  C19  1  0.16850000  0.83150000  0.74290000  1.0 -0.1082436242
C  C20  1  0.74290000  0.25710000  0.16850000  1.0 -0.1082436242
C  C21  1  0.25710000  0.83150000  0.74290000  1.0 -0.1082436242
C  C22  1  0.83150000  0.25710000  0.16850000  1.0 -0.1082436242
C  C23  1  0.16850000  0.74290000  0.83150000  1.0 -0.1082436242
C  C24  1  0.74290000  0.16850000  0.25710000  1.0 -0.1082436242
C  C25  1  0.83150000  0.25710000  0.74290000  1.0 -0.1082436242
C  C26  1  0.16850000  0.74290000  0.25710000  1.0 -0.1082436242
C  C27  1  0.25710000  0.83150000  0.16850000  1.0 -0.1082436242
C  C28  1  0.74290000  0.16850000  0.83150000  1.0 -0.1082436242
C  C29  1  0.83150000  0.74290000  0.25710000  1.0 -0.1082436242
C  C30  1  0.25710000  0.16850000  0.83150000  1.0 -0.1082436242
C  C31  1  0.74290000  0.83150000  0.16850000  1.0 -0.1082436242
C  C32  1  0.16850000  0.25710000  0.74290000  1.0 -0.1082436242
C  C33  1  0.25710000  0.16850000  0.74290000  1.0 -0.1082436242
C  C34  1  0.83150000  0.74290000  0.16850000  1.0 -0.1082436242
C  C35  1  0.74290000  0.83150000  0.25710000  1.0 -0.1082436242
C  C36  1  0.16850000  0.25710000  0.83150000  1.0 -0.1082436242
C  C37  1  0.69340000  0.30660000  0.77920000  1.0 -0.0420723646
C  C38  1  0.22080000  0.77920000  0.30660000  1.0 -0.0420723646
C  C39  1  0.30660000  0.69340000  0.22080000  1.0 -0.0420723646
C  C40  1  0.77920000  0.22080000  0.69340000  1.0 -0.0420723646
C  C41  1  0.77920000  0.22080000  0.30660000  1.0 -0.0420723646
C  C42  1  0.30660000  0.69340000  0.77920000  1.0 -0.0452888678
C  C43  1  0.22080000  0.77920000  0.69340000  1.0 -0.0452888678
C  C44  1  0.69340000  0.30660000  0.22080000  1.0 -0.0420723646
C  C45  1  0.30660000  0.77920000  0.69340000  1.0 -0.0452888678
C  C46  1  0.77920000  0.30660000  0.22080000  1.0 -0.0420723646
C  C47  1  0.22080000  0.69340000  0.77920000  1.0 -0.0452888678
C  C48  1  0.69340000  0.22080000  0.30660000  1.0 -0.0420723646
C  C49  1  0.77920000  0.30660000  0.69340000  1.0 -0.0420723646
C  C50  1  0.22080000  0.69340000  0.30660000  1.0 -0.0420723646
C  C51  1  0.30660000  0.77920000  0.22080000  1.0 -0.0420723646
C  C52  1  0.69340000  0.22080000  0.77920000  1.0 -0.0420723646
C  C53  1  0.77920000  0.69340000  0.30660000  1.0 -0.0420723646
C  C54  1  0.30660000  0.22080000  0.77920000  1.0 -0.0452888678
C  C55  1  0.69340000  0.77920000  0.22080000  1.0 -0.0420723646
C  C56  1  0.22080000  0.30660000  0.69340000  1.0 -0.0452888678
C  C57  1  0.30660000  0.22080000  0.69340000  1.0 -0.0452888678
C  C58  1  0.77920000  0.69340000  0.22080000  1.0 -0.0420723646
C  C59  1  0.69340000  0.77920000  0.30660000  1.0 -0.0420723646
C  C60  1  0.22080000  0.30660000  0.77920000  1.0 -0.0452888678
C  C61  1  0.94220000  0.05780000  0.84820000  1.0 0.0897261559
C  C62  1  0.15180000  0.84820000  0.05780000  1.0 0.0897261559
C  C63  1  0.05780000  0.94220000  0.15180000  1.0 0.0846909364
C  C64  1  0.84820000  0.15180000  0.94220000  1.0 0.0897261559
C  C65  1  0.84820000  0.15180000  0.05780000  1.0 0.0897261559
C  C66  1  0.05780000  0.94220000  0.84820000  1.0 0.0846909364
C  C67  1  0.15180000  0.84820000  0.94220000  1.0 0.0897261559
C  C68  1  0.94220000  0.05780000  0.15180000  1.0 0.0897261559
C  C69  1  0.05780000  0.84820000  0.94220000  1.0 0.0846909364
C  C70  1  0.84820000  0.05780000  0.15180000  1.0 0.0897261559
C  C71  1  0.15180000  0.94220000  0.84820000  1.0 0.0846909364
C  C72  1  0.94220000  0.15180000  0.05780000  1.0 0.0897261559
C  C73  1  0.84820000  0.05780000  0.94220000  1.0 0.0897261559
C  C74  1  0.15180000  0.94220000  0.05780000  1.0 0.0846909364
C  C75  1  0.05780000  0.84820000  0.15180000  1.0 0.0846909364
C  C76  1  0.94220000  0.15180000  0.84820000  1.0 0.0897261559
C  C77  1  0.84820000  0.94220000  0.05780000  1.0 0.0897261559
C  C78  1  0.05780000  0.15180000  0.84820000  1.0 0.0846909364
C  C79  1  0.94220000  0.84820000  0.15180000  1.0 0.0897261559
C  C80  1  0.15180000  0.05780000  0.94220000  1.0 0.0897261559
C  C81  1  0.05780000  0.15180000  0.94220000  1.0 0.0846909364
C  C82  1  0.84820000  0.94220000  0.15180000  1.0 0.0897261559
C  C83  1  0.94220000  0.84820000  0.05780000  1.0 0.0897261559
C  C84  1  0.15180000  0.05780000  0.84820000  1.0 0.0897261559
C  C85  1  0.96390000  0.03610000  0.77530000  1.0 -0.2177701538
C  C86  1  0.22470000  0.77530000  0.03610000  1.0 -0.2177701538
C  C87  1  0.03610000  0.96390000  0.22470000  1.0 -0.2177701538
C  C88  1  0.77530000  0.22470000  0.96390000  1.0 -0.2177701538
C  C89  1  0.77530000  0.22470000  0.03610000  1.0 -0.2177701538
C  C90  1  0.03610000  0.96390000  0.77530000  1.0 -0.2177701538
C  C91  1  0.22470000  0.77530000  0.96390000  1.0 -0.2177701538
C  C92  1  0.96390000  0.03610000  0.22470000  1.0 -0.2177701538
C  C93  1  0.03610000  0.77530000  0.96390000  1.0 -0.2177701538
C  C94  1  0.77530000  0.03610000  0.22470000  1.0 -0.2177701538
C  C95  1  0.22470000  0.96390000  0.77530000  1.0 -0.2177701538
C  C96  1  0.96390000  0.22470000  0.03610000  1.0 -0.2177701538
C  C97  1  0.77530000  0.03610000  0.96390000  1.0 -0.2177701538
C  C98  1  0.22470000  0.96390000  0.03610000  1.0 -0.2177701538
C  C99  1  0.03610000  0.77530000  0.22470000  1.0 -0.2177701538
C  C100  1  0.96390000  0.22470000  0.77530000  1.0 -0.2177701538
C  C101  1  0.77530000  0.96390000  0.03610000  1.0 -0.2177701538
C  C102  1  0.03610000  0.22470000  0.77530000  1.0 -0.2177701538
C  C103  1  0.96390000  0.77530000  0.22470000  1.0 -0.2177701538
C  C104  1  0.22470000  0.03610000  0.96390000  1.0 -0.2177701538
C  C105  1  0.03610000  0.22470000  0.96390000  1.0 -0.2177701538
C  C106  1  0.77530000  0.96390000  0.22470000  1.0 -0.2177701538
C  C107  1  0.96390000  0.77530000  0.03610000  1.0 -0.2177701538
C  C108  1  0.22470000  0.03610000  0.77530000  1.0 -0.2177701538
C  C109  1  0.65530000  0.34470000  0.65530000  1.0 -0.2010890688
C  C110  1  0.34470000  0.65530000  0.34470000  1.0 -0.2010890688
C  C111  1  0.65530000  0.34470000  0.34470000  1.0 -0.2010890688
C  C112  1  0.34470000  0.65530000  0.65530000  1.0 -0.2010890688
C  C113  1  0.65530000  0.65530000  0.34470000  1.0 -0.2010890688
C  C114  1  0.34470000  0.34470000  0.65530000  1.0 -0.2010890688
C  C115  1  0.52930000  0.07050000  0.20010000  1.0 -0.1015491555
C  C116  1  0.20010000  0.20010000  0.07050000  1.0 -0.1015491555
C  C117  1  0.07050000  0.52930000  0.20010000  1.0 -0.1015491555
C  C118  1  0.20010000  0.20010000  0.52930000  1.0 -0.1015491555
C  C119  1  0.79990000  0.79990000  0.47070000  1.0 -0.1015491555
C  C120  1  0.47070000  0.92950000  0.79990000  1.0 -0.1015491555
C  C121  1  0.79990000  0.79990000  0.92950000  1.0 -0.1015491555
C  C122  1  0.92950000  0.47070000  0.79990000  1.0 -0.1015491555
C  C123  1  0.07050000  0.20010000  0.52930000  1.0 -0.1015491555
C  C124  1  0.20010000  0.07050000  0.20010000  1.0 -0.1015491555
C  C125  1  0.20010000  0.52930000  0.20010000  1.0 -0.1015491555
C  C126  1  0.52930000  0.20010000  0.07050000  1.0 -0.1015491555
C  C127  1  0.79990000  0.47070000  0.92950000  1.0 -0.1015491555
C  C128  1  0.79990000  0.92950000  0.47070000  1.0 -0.1015491555
C  C129  1  0.47070000  0.79990000  0.79990000  1.0 -0.1015491555
C  C130  1  0.92950000  0.79990000  0.79990000  1.0 -0.1015491555
C  C131  1  0.20010000  0.52930000  0.07050000  1.0 -0.1015491555
C  C132  1  0.07050000  0.20010000  0.20010000  1.0 -0.1015491555
C  C133  1  0.52930000  0.20010000  0.20010000  1.0 -0.1015491555
C  C134  1  0.20010000  0.07050000  0.52930000  1.0 -0.1015491555
C  C135  1  0.47070000  0.79990000  0.92950000  1.0 -0.1015491555
C  C136  1  0.79990000  0.92950000  0.79990000  1.0 -0.1015491555
C  C137  1  0.92950000  0.79990000  0.47070000  1.0 -0.1015491555
C  C138  1  0.79990000  0.47070000  0.79990000  1.0 -0.1015491555
C  C139  1  0.52950000  0.11390000  0.24270000  1.0 -0.0420723646
C  C140  1  0.11390000  0.24270000  0.11390000  1.0 -0.0420723646
C  C141  1  0.11390000  0.52950000  0.11390000  1.0 -0.0420723646
C  C142  1  0.24270000  0.11390000  0.52950000  1.0 -0.0420723646
C  C143  1  0.88610000  0.75730000  0.47050000  1.0 -0.0420723646
C  C144  1  0.47050000  0.88610000  0.88610000  1.0 -0.0420723646
C  C145  1  0.75730000  0.88610000  0.88610000  1.0 -0.0420723646
C  C146  1  0.88610000  0.47050000  0.75730000  1.0 -0.0420723646
C  C147  1  0.11390000  0.24270000  0.52950000  1.0 -0.0420723646
C  C148  1  0.24270000  0.11390000  0.11390000  1.0 -0.0420723646
C  C149  1  0.11390000  0.52950000  0.24270000  1.0 -0.0420723646
C  C150  1  0.52950000  0.11390000  0.11390000  1.0 -0.0420723646
C  C151  1  0.88610000  0.47050000  0.88610000  1.0 -0.0420723646
C  C152  1  0.75730000  0.88610000  0.47050000  1.0 -0.0420723646
C  C153  1  0.47050000  0.88610000  0.75730000  1.0 -0.0420723646
C  C154  1  0.88610000  0.75730000  0.88610000  1.0 -0.0420723646
C  C155  1  0.24270000  0.52950000  0.11390000  1.0 -0.0420723646
C  C156  1  0.11390000  0.11390000  0.24270000  1.0 -0.0420723646
C  C157  1  0.52950000  0.24270000  0.11390000  1.0 -0.0420723646
C  C158  1  0.11390000  0.11390000  0.52950000  1.0 -0.0420723646
C  C159  1  0.47050000  0.75730000  0.88610000  1.0 -0.0420723646
C  C160  1  0.88610000  0.88610000  0.75730000  1.0 -0.0420723646
C  C161  1  0.88610000  0.88610000  0.47050000  1.0 -0.0420723646
C  C162  1  0.75730000  0.47050000  0.88610000  1.0 -0.0420723646
C  C163  1  0.52640000  0.06980000  0.33400000  1.0 0.5776882325
C  C164  1  0.06980000  0.33400000  0.06980000  1.0 0.5776882325
C  C165  1  0.06980000  0.52640000  0.06980000  1.0 0.5776882325
C  C166  1  0.33400000  0.06980000  0.52640000  1.0 0.5776882325
C  C167  1  0.93020000  0.66600000  0.47360000  1.0 0.5776882325
C  C168  1  0.47360000  0.93020000  0.93020000  1.0 0.5776882325
C  C169  1  0.66600000  0.93020000  0.93020000  1.0 0.5776882325
C  C170  1  0.93020000  0.47360000  0.66600000  1.0 0.5776882325
C  C171  1  0.06980000  0.33400000  0.52640000  1.0 0.5776882325
C  C172  1  0.33400000  0.06980000  0.06980000  1.0 0.5776882325
C  C173  1  0.06980000  0.52640000  0.33400000  1.0 0.5776882325
C  C174  1  0.52640000  0.06980000  0.06980000  1.0 0.5776882325
C  C175  1  0.93020000  0.47360000  0.93020000  1.0 0.5776882325
C  C176  1  0.66600000  0.93020000  0.47360000  1.0 0.5776882325
C  C177  1  0.47360000  0.93020000  0.66600000  1.0 0.5776882325
C  C178  1  0.93020000  0.66600000  0.93020000  1.0 0.5776882325
C  C179  1  0.33400000  0.52640000  0.06980000  1.0 0.5776882325
C  C180  1  0.06980000  0.06980000  0.33400000  1.0 0.5776882325
C  C181  1  0.52640000  0.33400000  0.06980000  1.0 0.5776882325
C  C182  1  0.06980000  0.06980000  0.52640000  1.0 0.5776882325
C  C183  1  0.47360000  0.66600000  0.93020000  1.0 0.5776882325
C  C184  1  0.93020000  0.93020000  0.66600000  1.0 0.5776882325
C  C185  1  0.93020000  0.93020000  0.47360000  1.0 0.5776882325
C  C186  1  0.66600000  0.47360000  0.93020000  1.0 0.5776882325
N  N1  1  0.71040000  0.28960000  0.71040000  1.0 -0.0244881373
N  N2  1  0.28960000  0.71040000  0.28960000  1.0 -0.0244881373
N  N3  1  0.71040000  0.28960000  0.28960000  1.0 -0.0244881373
N  N4  1  0.28960000  0.71040000  0.71040000  1.0 -0.0244881373
N  N5  1  0.71040000  0.71040000  0.28960000  1.0 -0.0244881373
N  N6  1  0.28960000  0.28960000  0.71040000  1.0 -0.0244881373
N  N7  1  0.00000000  0.00000000  0.89300000  1.0 -0.1082436242
N  N8  1  0.10700000  0.89300000  0.00000000  1.0 -0.1082436242
N  N9  1  0.00000000  0.00000000  0.10700000  1.0 -0.1082436242
N  N10  1  0.89300000  0.10700000  0.00000000  1.0 -0.1082436242
N  N11  1  0.00000000  0.89300000  0.00000000  1.0 -0.1082436242
N  N12  1  0.89300000  0.00000000  0.10700000  1.0 -0.1154390271
N  N13  1  0.10700000  0.00000000  0.89300000  1.0 -0.1082436242
N  N14  1  0.00000000  0.10700000  0.00000000  1.0 -0.1082436242
N  N15  1  0.89300000  0.00000000  0.00000000  1.0 -0.1082436242
N  N16  1  0.10700000  0.00000000  0.00000000  1.0 -0.1082436242
N  N17  1  0.00000000  0.89300000  0.10700000  1.0 -0.1082436242
N  N18  1  0.00000000  0.10700000  0.89300000  1.0 -0.1082436242
Cl  Cl1  1  0.91600000  0.08400000  0.91600000  1.0 0.1716606696
Cl  Cl2  1  0.08400000  0.91600000  0.08400000  1.0 0.1797732865
Cl  Cl3  1  0.91600000  0.08400000  0.08400000  1.0 0.1797732865
Cl  Cl4  1  0.08400000  0.91600000  0.91600000  1.0 0.1797732865
Cl  Cl5  1  0.91600000  0.91600000  0.08400000  1.0 0.1797732865
Cl  Cl6  1  0.08400000  0.08400000  0.91600000  1.0 0.1716606696
Cl  Cl7  1  0.87900000  0.70700000  0.70700000  1.0 -0.4525130945
Cl  Cl8  1  0.70700000  0.70700000  0.87900000  1.0 -0.4525130945
Cl  Cl9  1  0.70700000  0.87900000  0.70700000  1.0 -0.4525130945
Cl  Cl10  1  0.70700000  0.70700000  0.70700000  1.0 -0.4525130945
Cl  Cl11  1  0.29300000  0.29300000  0.29300000  1.0 -0.4525130945
Cl  Cl12  1  0.12100000  0.29300000  0.29300000  1.0 -0.4525130945
Cl  Cl13  1  0.29300000  0.29300000  0.12100000  1.0 -0.4525130945
Cl  Cl14  1  0.29300000  0.12100000  0.29300000  1.0 -0.4525130945
O  O1  1  0.52320000  0.99440000  0.36960000  1.0 -0.5487481649
O  O2  1  0.11280000  0.36960000  0.99440000  1.0 -0.5487481649
O  O3  1  0.99440000  0.52320000  0.11280000  1.0 -0.5487481649
O  O4  1  0.36960000  0.11280000  0.52320000  1.0 -0.5487481649
O  O5  1  0.88720000  0.63040000  0.47680000  1.0 -0.5487481649
O  O6  1  0.47680000  0.00560000  0.88720000  1.0 -0.5487481649
O  O7  1  0.63040000  0.88720000  0.00560000  1.0 -0.5487481649
O  O8  1  0.00560000  0.47680000  0.63040000  1.0 -0.5487481649
O  O9  1  0.99440000  0.36960000  0.52320000  1.0 -0.5487481649
O  O10  1  0.36960000  0.99440000  0.11280000  1.0 -0.5487481649
O  O11  1  0.11280000  0.52320000  0.36960000  1.0 -0.5487481649
O  O12  1  0.52320000  0.11280000  0.99440000  1.0 -0.5487481649
O  O13  1  0.88720000  0.47680000  0.00560000  1.0 -0.5487481649
O  O14  1  0.63040000  0.00560000  0.47680000  1.0 -0.5487481649
O  O15  1  0.47680000  0.88720000  0.63040000  1.0 -0.5487481649
O  O16  1  0.00560000  0.63040000  0.88720000  1.0 -0.5487481649
O  O17  1  0.36960000  0.52320000  0.99440000  1.0 -0.5487481649
O  O18  1  0.99440000  0.11280000  0.36960000  1.0 -0.5487481649
O  O19  1  0.52320000  0.36960000  0.11280000  1.0 -0.5487481649
O  O20  1  0.11280000  0.99440000  0.52320000  1.0 -0.5487481649
O  O21  1  0.47680000  0.63040000  0.00560000  1.0 -0.5487481649
O  O22  1  0.88720000  0.00560000  0.63040000  1.0 -0.5487481649
O  O23  1  0.00560000  0.88720000  0.47680000  1.0 -0.5487481649
O  O24  1  0.63040000  0.47680000  0.88720000  1.0 -0.5487481649
O  O25  1  0.47680000  0.00560000  0.63040000  1.0 -0.5487481649
O  O26  1  0.88720000  0.63040000  0.00560000  1.0 -0.5487481649
O  O27  1  0.00560000  0.47680000  0.88720000  1.0 -0.5487481649
O  O28  1  0.63040000  0.88720000  0.47680000  1.0 -0.5487481649
O  O29  1  0.11280000  0.36960000  0.52320000  1.0 -0.5487481649
O  O30  1  0.52320000  0.99440000  0.11280000  1.0 -0.5487481649
O  O31  1  0.36960000  0.11280000  0.99440000  1.0 -0.5487481649
O  O32  1  0.99440000  0.52320000  0.36960000  1.0 -0.5487481649
O  O33  1  0.00560000  0.63040000  0.47680000  1.0 -0.5487481649
O  O34  1  0.63040000  0.00560000  0.88720000  1.0 -0.5487481649
O  O35  1  0.88720000  0.47680000  0.63040000  1.0 -0.5487481649
O  O36  1  0.47680000  0.88720000  0.00560000  1.0 -0.5487481649
O  O37  1  0.11280000  0.52320000  0.99440000  1.0 -0.5487481649
O  O38  1  0.36960000  0.99440000  0.52320000  1.0 -0.5487481649
O  O39  1  0.52320000  0.11280000  0.36960000  1.0 -0.5487481649
O  O40  1  0.99440000  0.36960000  0.11280000  1.0 -0.5487481649
O  O41  1  0.63040000  0.47680000  0.00560000  1.0 -0.5487481649
O  O42  1  0.00560000  0.88720000  0.63040000  1.0 -0.5487481649
O  O43  1  0.47680000  0.63040000  0.88720000  1.0 -0.5487481649
O  O44  1  0.88720000  0.00560000  0.47680000  1.0 -0.5487481649
O  O45  1  0.52320000  0.36960000  0.99440000  1.0 -0.5487481649
O  O46  1  0.11280000  0.99440000  0.36960000  1.0 -0.5487481649
O  O47  1  0.99440000  0.11280000  0.52320000  1.0 -0.5487481649
O  O48  1  0.36960000  0.52320000  0.11280000  1.0 -0.5487481649
O  O49  1  0.52240000  0.77000000  0.52240000  1.0 0.1873716537
O  O50  1  0.18520000  0.52240000  0.77000000  1.0 0.1873716537
O  O51  1  0.77000000  0.52240000  0.18520000  1.0 0.1873716537
O  O52  1  0.52240000  0.18520000  0.52240000  1.0 0.1873716537
O  O53  1  0.81480000  0.47760000  0.47760000  1.0 0.1873716537
O  O54  1  0.47760000  0.23000000  0.81480000  1.0 0.1873716537
O  O55  1  0.47760000  0.81480000  0.23000000  1.0 0.1873716537
O  O56  1  0.23000000  0.47760000  0.47760000  1.0 0.1873716537
O  O57  1  0.77000000  0.52240000  0.52240000  1.0 0.1873716537
O  O58  1  0.52240000  0.77000000  0.18520000  1.0 0.1873716537
O  O59  1  0.18520000  0.52240000  0.52240000  1.0 0.1873716537
O  O60  1  0.52240000  0.18520000  0.77000000  1.0 0.1873716537
O  O61  1  0.81480000  0.47760000  0.23000000  1.0 0.1873716537
O  O62  1  0.47760000  0.23000000  0.47760000  1.0 0.1873716537
O  O63  1  0.47760000  0.81480000  0.47760000  1.0 0.1873716537
O  O64  1  0.23000000  0.47760000  0.81480000  1.0 0.1873716537
O  O65  1  0.52240000  0.52240000  0.77000000  1.0 0.1873716537
O  O66  1  0.77000000  0.18520000  0.52240000  1.0 0.1873716537
O  O67  1  0.52240000  0.52240000  0.18520000  1.0 0.1873716537
O  O68  1  0.18520000  0.77000000  0.52240000  1.0 0.1873716537
O  O69  1  0.47760000  0.47760000  0.23000000  1.0 0.1873716537
O  O70  1  0.81480000  0.23000000  0.47760000  1.0 0.1873716537
O  O71  1  0.23000000  0.81480000  0.47760000  1.0 0.1873716537
O  O72  1  0.47760000  0.47760000  0.81480000  1.0 0.1873716537
O  O73  1  0.79020000  0.20980000  0.48040000  1.0 0.2442189994
O  O74  1  0.51960000  0.48040000  0.20980000  1.0 0.2442189994
O  O75  1  0.20980000  0.79020000  0.51960000  1.0 0.2442189994
O  O76  1  0.48040000  0.51960000  0.79020000  1.0 0.2442189994
O  O77  1  0.48040000  0.51960000  0.20980000  1.0 0.2442189994
O  O78  1  0.20980000  0.79020000  0.48040000  1.0 0.2442189994
O  O79  1  0.51960000  0.48040000  0.79020000  1.0 0.2442189994
O  O80  1  0.79020000  0.20980000  0.51960000  1.0 0.2442189994
O  O81  1  0.20980000  0.48040000  0.79020000  1.0 0.2442189994
O  O82  1  0.48040000  0.20980000  0.51960000  1.0 0.2442189994
O  O83  1  0.51960000  0.79020000  0.48040000  1.0 0.2442189994
O  O84  1  0.79020000  0.51960000  0.20980000  1.0 0.2442189994
O  O85  1  0.48040000  0.20980000  0.79020000  1.0 0.2442189994
O  O86  1  0.51960000  0.79020000  0.20980000  1.0 0.2442189994
O  O87  1  0.20980000  0.48040000  0.51960000  1.0 0.2442189994
O  O88  1  0.79020000  0.51960000  0.48040000  1.0 0.2442189994
O  O89  1  0.48040000  0.79020000  0.20980000  1.0 0.2442189994
O  O90  1  0.20980000  0.51960000  0.48040000  1.0 0.2442189994
O  O91  1  0.79020000  0.48040000  0.51960000  1.0 0.2442189994
O  O92  1  0.51960000  0.20980000  0.79020000  1.0 0.2442189994
O  O93  1  0.20980000  0.51960000  0.79020000  1.0 0.2442189994
O  O94  1  0.48040000  0.79020000  0.51960000  1.0 0.2442189994
O  O95  1  0.79020000  0.48040000  0.20980000  1.0 0.2442189994
O  O96  1  0.51960000  0.20980000  0.48040000  1.0 0.2442189994
