# DDEC6 charges by PACMAN v1.1 (https://github.com/mtap-research/PACMAN-charge/)
data_DAPBIH_ASR_pacman
_symmetry_space_group_name_H-M   'P 1'
_cell_length_a   18.68830000
_cell_length_b   18.68830000
_cell_length_c   18.68830000
_cell_angle_alpha   60.00000000
_cell_angle_beta   60.00000000
_cell_angle_gamma   60.00000000
_symmetry_Int_Tables_number   1
_chemical_formula_structural   Co13H168C186(N3O16)6
_chemical_formula_sum   'Co13 H168 C186 N18 O96'
_cell_volume   4615.24110119
_cell_formula_units_Z   1
loop_
 _symmetry_equiv_pos_site_id
 _symmetry_equiv_pos_as_xyz
  1  'x, y, z'
loop_
 _atom_site_type_symbol
 _atom_site_label
 _atom_site_symmetry_multiplicity
 _atom_site_fract_x
 _atom_site_fract_y
 _atom_site_fract_z
 _atom_site_occupancy
 _atom_site_charge
Co  Co1  1  0.00000000  0.00000000  0.00000000  1.0 0.3668812627
Co  Co2  1  0.50000000  0.92096000  0.50000000  1.0 0.7105383838
Co  Co3  1  0.92096000  0.50000000  0.07904000  1.0 0.7105383838
Co  Co4  1  0.50000000  0.07904000  0.50000000  1.0 0.7105383838
Co  Co5  1  0.07904000  0.50000000  0.92096000  1.0 0.7105383838
Co  Co6  1  0.50000000  0.50000000  0.92096000  1.0 0.7105383838
Co  Co7  1  0.07904000  0.92096000  0.50000000  1.0 0.7105383838
Co  Co8  1  0.50000000  0.50000000  0.07904000  1.0 0.7105383838
Co  Co9  1  0.92096000  0.07904000  0.50000000  1.0 0.7105383838
Co  Co10  1  0.92096000  0.50000000  0.50000000  1.0 0.7105383838
Co  Co11  1  0.50000000  0.07904000  0.92096000  1.0 0.7105383838
Co  Co12  1  0.07904000  0.50000000  0.50000000  1.0 0.7105383838
Co  Co13  1  0.50000000  0.92096000  0.07904000  1.0 0.7105383838
H  H1  1  0.72710000  0.27290000  0.87950000  1.0 0.0866635171
H  H2  1  0.27290000  0.72710000  0.12050000  1.0 0.0866635171
H  H3  1  0.87950000  0.12050000  0.72710000  1.0 0.0866635171
H  H4  1  0.12050000  0.87950000  0.27290000  1.0 0.0866635171
H  H5  1  0.87950000  0.72710000  0.27290000  1.0 0.0866635171
H  H6  1  0.12050000  0.27290000  0.72710000  1.0 0.0866635171
H  H7  1  0.72710000  0.87950000  0.12050000  1.0 0.0866635171
H  H8  1  0.27290000  0.12050000  0.87950000  1.0 0.0866635171
H  H9  1  0.27290000  0.87950000  0.72710000  1.0 0.0866635171
H  H10  1  0.72710000  0.12050000  0.27290000  1.0 0.0866635171
H  H11  1  0.12050000  0.72710000  0.87950000  1.0 0.0866635171
H  H12  1  0.87950000  0.27290000  0.12050000  1.0 0.0866635171
H  H13  1  0.27290000  0.72710000  0.87950000  1.0 0.0866635171
H  H14  1  0.72710000  0.27290000  0.12050000  1.0 0.0866635171
H  H15  1  0.12050000  0.87950000  0.72710000  1.0 0.0866635171
H  H16  1  0.87950000  0.12050000  0.27290000  1.0 0.0866635171
H  H17  1  0.12050000  0.27290000  0.87950000  1.0 0.0866635171
H  H18  1  0.87950000  0.72710000  0.12050000  1.0 0.0866635171
H  H19  1  0.27290000  0.12050000  0.72710000  1.0 0.0866635171
H  H20  1  0.72710000  0.87950000  0.27290000  1.0 0.0866635171
H  H21  1  0.72710000  0.12050000  0.87950000  1.0 0.0866635171
H  H22  1  0.27290000  0.87950000  0.12050000  1.0 0.0866635171
H  H23  1  0.87950000  0.27290000  0.72710000  1.0 0.0866635171
H  H24  1  0.12050000  0.72710000  0.27290000  1.0 0.0866635171
H  H25  1  0.64260000  0.35740000  0.79140000  1.0 0.0490392158
H  H26  1  0.35740000  0.64260000  0.20860000  1.0 0.0490392158
H  H27  1  0.79140000  0.20860000  0.64260000  1.0 0.0490392158
H  H28  1  0.20860000  0.79140000  0.35740000  1.0 0.0490392158
H  H29  1  0.79140000  0.64260000  0.35740000  1.0 0.0490392158
H  H30  1  0.20860000  0.35740000  0.64260000  1.0 0.0490392158
H  H31  1  0.64260000  0.79140000  0.20860000  1.0 0.0490392158
H  H32  1  0.35740000  0.20860000  0.79140000  1.0 0.0490392158
H  H33  1  0.35740000  0.79140000  0.64260000  1.0 0.0490392158
H  H34  1  0.64260000  0.20860000  0.35740000  1.0 0.0490392158
H  H35  1  0.20860000  0.64260000  0.79140000  1.0 0.0490392158
H  H36  1  0.79140000  0.35740000  0.20860000  1.0 0.0490392158
H  H37  1  0.35740000  0.64260000  0.79140000  1.0 0.0490392158
H  H38  1  0.64260000  0.35740000  0.20860000  1.0 0.0490392158
H  H39  1  0.20860000  0.79140000  0.64260000  1.0 0.0490392158
H  H40  1  0.79140000  0.20860000  0.35740000  1.0 0.0490392158
H  H41  1  0.20860000  0.35740000  0.79140000  1.0 0.0490392158
H  H42  1  0.79140000  0.64260000  0.20860000  1.0 0.0490392158
H  H43  1  0.35740000  0.20860000  0.64260000  1.0 0.0490392158
H  H44  1  0.64260000  0.79140000  0.35740000  1.0 0.0490392158
H  H45  1  0.64260000  0.20860000  0.79140000  1.0 0.0490392158
H  H46  1  0.35740000  0.79140000  0.20860000  1.0 0.0490392158
H  H47  1  0.79140000  0.35740000  0.64260000  1.0 0.0490392158
H  H48  1  0.20860000  0.64260000  0.35740000  1.0 0.0490392158
H  H49  1  0.93390000  0.06610000  0.73450000  1.0 0.0811422648
H  H50  1  0.06610000  0.93390000  0.26550000  1.0 0.0811422648
H  H51  1  0.73450000  0.26550000  0.93390000  1.0 0.0811422648
H  H52  1  0.26550000  0.73450000  0.06610000  1.0 0.0811422648
H  H53  1  0.73450000  0.93390000  0.06610000  1.0 0.0811422648
H  H54  1  0.26550000  0.06610000  0.93390000  1.0 0.0811422648
H  H55  1  0.93390000  0.73450000  0.26550000  1.0 0.0811422648
H  H56  1  0.06610000  0.26550000  0.73450000  1.0 0.0811422648
H  H57  1  0.06610000  0.73450000  0.93390000  1.0 0.0811422648
H  H58  1  0.93390000  0.26550000  0.06610000  1.0 0.0811422648
H  H59  1  0.26550000  0.93390000  0.73450000  1.0 0.0811422648
H  H60  1  0.73450000  0.06610000  0.26550000  1.0 0.0811422648
H  H61  1  0.06610000  0.93390000  0.73450000  1.0 0.0811422648
H  H62  1  0.93390000  0.06610000  0.26550000  1.0 0.0811422648
H  H63  1  0.26550000  0.73450000  0.93390000  1.0 0.0811422648
H  H64  1  0.73450000  0.26550000  0.06610000  1.0 0.0811422648
H  H65  1  0.26550000  0.06610000  0.73450000  1.0 0.0811422648
H  H66  1  0.73450000  0.93390000  0.26550000  1.0 0.0811422648
H  H67  1  0.06610000  0.26550000  0.93390000  1.0 0.0811422648
H  H68  1  0.93390000  0.73450000  0.06610000  1.0 0.0811422648
H  H69  1  0.93390000  0.26550000  0.73450000  1.0 0.0811422648
H  H70  1  0.06610000  0.73450000  0.26550000  1.0 0.0811422648
H  H71  1  0.73450000  0.06610000  0.93390000  1.0 0.0811422648
H  H72  1  0.26550000  0.93390000  0.06610000  1.0 0.0811422648
H  H73  1  0.60640000  0.32460000  0.67540000  1.0 -0.0234529672
H  H74  1  0.32460000  0.60640000  0.39360000  1.0 -0.0234529672
H  H75  1  0.67540000  0.39360000  0.60640000  1.0 -0.0234529672
H  H76  1  0.39360000  0.67540000  0.32460000  1.0 -0.0234529672
H  H77  1  0.67540000  0.60640000  0.32460000  1.0 -0.0234529672
H  H78  1  0.39360000  0.32460000  0.60640000  1.0 -0.0234529672
H  H79  1  0.60640000  0.67540000  0.39360000  1.0 -0.0234529672
H  H80  1  0.32460000  0.39360000  0.67540000  1.0 -0.0234529672
H  H81  1  0.32460000  0.67540000  0.60640000  1.0 -0.0234529672
H  H82  1  0.60640000  0.39360000  0.32460000  1.0 -0.0234529672
H  H83  1  0.39360000  0.60640000  0.67540000  1.0 -0.0234529672
H  H84  1  0.67540000  0.32460000  0.39360000  1.0 -0.0234529672
H  H85  1  0.39360000  0.67540000  0.60640000  1.0 -0.0234529672
H  H86  1  0.67540000  0.39360000  0.32460000  1.0 -0.0234529672
H  H87  1  0.32460000  0.60640000  0.67540000  1.0 -0.0234529672
H  H88  1  0.60640000  0.32460000  0.39360000  1.0 -0.0234529672
H  H89  1  0.32460000  0.39360000  0.60640000  1.0 -0.0234529672
H  H90  1  0.60640000  0.67540000  0.32460000  1.0 -0.0234529672
H  H91  1  0.39360000  0.32460000  0.67540000  1.0 -0.0234529672
H  H92  1  0.67540000  0.60640000  0.39360000  1.0 -0.0234529672
H  H93  1  0.67540000  0.32460000  0.60640000  1.0 -0.0234529672
H  H94  1  0.39360000  0.60640000  0.32460000  1.0 -0.0234529672
H  H95  1  0.60640000  0.39360000  0.67540000  1.0 -0.0234529672
H  H96  1  0.32460000  0.67540000  0.39360000  1.0 -0.0234529672
H  H97  1  0.68800000  0.34640000  0.59380000  1.0 -0.0234529672
H  H98  1  0.34640000  0.68800000  0.37180000  1.0 -0.0234529672
H  H99  1  0.59380000  0.37180000  0.68800000  1.0 -0.0234529672
H  H100  1  0.37180000  0.59380000  0.34640000  1.0 -0.0234529672
H  H101  1  0.59380000  0.68800000  0.34640000  1.0 -0.0234529672
H  H102  1  0.37180000  0.34640000  0.68800000  1.0 -0.0234529672
H  H103  1  0.68800000  0.59380000  0.37180000  1.0 -0.0234529672
H  H104  1  0.34640000  0.37180000  0.59380000  1.0 -0.0234529672
H  H105  1  0.34640000  0.59380000  0.68800000  1.0 -0.0234529672
H  H106  1  0.68800000  0.37180000  0.34640000  1.0 -0.0234529672
H  H107  1  0.37180000  0.68800000  0.59380000  1.0 -0.0234529672
H  H108  1  0.59380000  0.34640000  0.37180000  1.0 -0.0234529672
H  H109  1  0.31200000  0.65360000  0.62820000  1.0 -0.0234529672
H  H110  1  0.65360000  0.31200000  0.40620000  1.0 -0.0234529672
H  H111  1  0.40620000  0.62820000  0.65360000  1.0 -0.0234529672
H  H112  1  0.62820000  0.40620000  0.31200000  1.0 -0.0234529672
H  H113  1  0.40620000  0.31200000  0.62820000  1.0 -0.0234529672
H  H114  1  0.62820000  0.65360000  0.40620000  1.0 -0.0234529672
H  H115  1  0.31200000  0.40620000  0.65360000  1.0 -0.0234529672
H  H116  1  0.65360000  0.62820000  0.31200000  1.0 -0.0234529672
H  H117  1  0.65360000  0.40620000  0.62820000  1.0 -0.0234529672
H  H118  1  0.31200000  0.62820000  0.40620000  1.0 -0.0234529672
H  H119  1  0.62820000  0.31200000  0.65360000  1.0 -0.0234529672
H  H120  1  0.40620000  0.65360000  0.31200000  1.0 -0.0234529672
H  H121  1  0.31200000  0.65360000  0.40620000  1.0 -0.0234529672
H  H122  1  0.65360000  0.31200000  0.62820000  1.0 -0.0234529672
H  H123  1  0.40620000  0.62820000  0.31200000  1.0 -0.0234529672
H  H124  1  0.62820000  0.40620000  0.65360000  1.0 -0.0234529672
H  H125  1  0.40620000  0.31200000  0.65360000  1.0 -0.0234529672
H  H126  1  0.62820000  0.65360000  0.31200000  1.0 -0.0234529672
H  H127  1  0.31200000  0.40620000  0.62820000  1.0 -0.0234529672
H  H128  1  0.65360000  0.62820000  0.40620000  1.0 -0.0234529672
H  H129  1  0.65360000  0.40620000  0.31200000  1.0 -0.0234529672
H  H130  1  0.31200000  0.62820000  0.65360000  1.0 -0.0234529672
H  H131  1  0.62820000  0.31200000  0.40620000  1.0 -0.0234529672
H  H132  1  0.40620000  0.65360000  0.62820000  1.0 -0.0234529672
H  H133  1  0.68800000  0.34640000  0.37180000  1.0 -0.0234529672
H  H134  1  0.34640000  0.68800000  0.59380000  1.0 -0.0234529672
H  H135  1  0.59380000  0.37180000  0.34640000  1.0 -0.0234529672
H  H136  1  0.37180000  0.59380000  0.68800000  1.0 -0.0234529672
H  H137  1  0.59380000  0.68800000  0.37180000  1.0 -0.0234529672
H  H138  1  0.37180000  0.34640000  0.59380000  1.0 -0.0234529672
H  H139  1  0.68800000  0.59380000  0.34640000  1.0 -0.0234529672
H  H140  1  0.34640000  0.37180000  0.68800000  1.0 -0.0234529672
H  H141  1  0.34640000  0.59380000  0.37180000  1.0 -0.0234529672
H  H142  1  0.68800000  0.37180000  0.59380000  1.0 -0.0234529672
H  H143  1  0.37180000  0.68800000  0.34640000  1.0 -0.0234529672
H  H144  1  0.59380000  0.34640000  0.68800000  1.0 -0.0234529672
H  H145  1  0.53060000  0.01060000  0.22940000  1.0 0.1211427266
H  H146  1  0.01060000  0.53060000  0.22940000  1.0 0.1211427266
H  H147  1  0.22940000  0.22940000  0.53060000  1.0 0.1211427266
H  H148  1  0.22940000  0.22940000  0.01060000  1.0 0.1211427266
H  H149  1  0.22940000  0.53060000  0.01060000  1.0 0.1211427266
H  H150  1  0.22940000  0.01060000  0.53060000  1.0 0.1211427266
H  H151  1  0.53060000  0.22940000  0.22940000  1.0 0.1211427266
H  H152  1  0.01060000  0.22940000  0.22940000  1.0 0.1211427266
H  H153  1  0.01060000  0.22940000  0.53060000  1.0 0.1211427266
H  H154  1  0.53060000  0.22940000  0.01060000  1.0 0.1211427266
H  H155  1  0.22940000  0.53060000  0.22940000  1.0 0.1211427266
H  H156  1  0.22940000  0.01060000  0.22940000  1.0 0.1211427266
H  H157  1  0.46940000  0.98940000  0.77060000  1.0 0.1211427266
H  H158  1  0.98940000  0.46940000  0.77060000  1.0 0.1211427266
H  H159  1  0.77060000  0.77060000  0.98940000  1.0 0.1211427266
H  H160  1  0.77060000  0.77060000  0.46940000  1.0 0.1211427266
H  H161  1  0.77060000  0.46940000  0.77060000  1.0 0.1211427266
H  H162  1  0.77060000  0.98940000  0.77060000  1.0 0.1211427266
H  H163  1  0.46940000  0.77060000  0.98940000  1.0 0.1211427266
H  H164  1  0.98940000  0.77060000  0.46940000  1.0 0.1211427266
H  H165  1  0.98940000  0.77060000  0.77060000  1.0 0.1211427266
H  H166  1  0.46940000  0.77060000  0.77060000  1.0 0.1211427266
H  H167  1  0.77060000  0.46940000  0.98940000  1.0 0.1211427266
H  H168  1  0.77060000  0.98940000  0.46940000  1.0 0.1211427266
C  C1  1  0.86990000  0.13010000  0.86990000  1.0 -0.0234529672
C  C2  1  0.13010000  0.86990000  0.13010000  1.0 -0.0234529672
C  C3  1  0.86990000  0.86990000  0.13010000  1.0 -0.0234529672
C  C4  1  0.13010000  0.13010000  0.86990000  1.0 -0.0234529672
C  C5  1  0.13010000  0.86990000  0.86990000  1.0 -0.0234529672
C  C6  1  0.86990000  0.13010000  0.13010000  1.0 -0.0234529672
C  C7  1  0.81410000  0.18590000  0.81410000  1.0 0.061383363
C  C8  1  0.18590000  0.81410000  0.18590000  1.0 0.061383363
C  C9  1  0.81410000  0.81410000  0.18590000  1.0 0.061383363
C  C10  1  0.18590000  0.18590000  0.81410000  1.0 0.061383363
C  C11  1  0.18590000  0.81410000  0.81410000  1.0 0.061383363
C  C12  1  0.81410000  0.18590000  0.18590000  1.0 0.061383363
C  C13  1  0.74160000  0.25840000  0.83080000  1.0 -0.1046525065
C  C14  1  0.25840000  0.74160000  0.16920000  1.0 -0.1046525065
C  C15  1  0.83080000  0.16920000  0.74160000  1.0 -0.1046525065
C  C16  1  0.16920000  0.83080000  0.25840000  1.0 -0.1046525065
C  C17  1  0.83080000  0.74160000  0.25840000  1.0 -0.1046525065
C  C18  1  0.16920000  0.25840000  0.74160000  1.0 -0.1046525065
C  C19  1  0.74160000  0.83080000  0.16920000  1.0 -0.1046525065
C  C20  1  0.25840000  0.16920000  0.83080000  1.0 -0.1046525065
C  C21  1  0.25840000  0.83080000  0.74160000  1.0 -0.1046525065
C  C22  1  0.74160000  0.16920000  0.25840000  1.0 -0.1046525065
C  C23  1  0.16920000  0.74160000  0.83080000  1.0 -0.1046525065
C  C24  1  0.83080000  0.25840000  0.16920000  1.0 -0.1046525065
C  C25  1  0.25840000  0.74160000  0.83080000  1.0 -0.1046525065
C  C26  1  0.74160000  0.25840000  0.16920000  1.0 -0.1046525065
C  C27  1  0.16920000  0.83080000  0.74160000  1.0 -0.1046525065
C  C28  1  0.83080000  0.16920000  0.25840000  1.0 -0.1046525065
C  C29  1  0.16920000  0.25840000  0.83080000  1.0 -0.1046525065
C  C30  1  0.83080000  0.74160000  0.16920000  1.0 -0.1046525065
C  C31  1  0.25840000  0.16920000  0.74160000  1.0 -0.1046525065
C  C32  1  0.74160000  0.83080000  0.25840000  1.0 -0.1046525065
C  C33  1  0.74160000  0.16920000  0.83080000  1.0 -0.1046525065
C  C34  1  0.25840000  0.83080000  0.16920000  1.0 -0.1046525065
C  C35  1  0.83080000  0.25840000  0.74160000  1.0 -0.1046525065
C  C36  1  0.16920000  0.74160000  0.25840000  1.0 -0.1046525065
C  C37  1  0.69180000  0.30820000  0.77840000  1.0 -0.0507371626
C  C38  1  0.30820000  0.69180000  0.22160000  1.0 -0.0507371626
C  C39  1  0.77840000  0.22160000  0.69180000  1.0 -0.0507371626
C  C40  1  0.22160000  0.77840000  0.30820000  1.0 -0.0507371626
C  C41  1  0.77840000  0.69180000  0.30820000  1.0 -0.0507371626
C  C42  1  0.22160000  0.30820000  0.69180000  1.0 -0.0507371626
C  C43  1  0.69180000  0.77840000  0.22160000  1.0 -0.0507371626
C  C44  1  0.30820000  0.22160000  0.77840000  1.0 -0.0507371626
C  C45  1  0.30820000  0.77840000  0.69180000  1.0 -0.0507371626
C  C46  1  0.69180000  0.22160000  0.30820000  1.0 -0.0507371626
C  C47  1  0.22160000  0.69180000  0.77840000  1.0 -0.0507371626
C  C48  1  0.77840000  0.30820000  0.22160000  1.0 -0.0507371626
C  C49  1  0.30820000  0.69180000  0.77840000  1.0 -0.0507371626
C  C50  1  0.69180000  0.30820000  0.22160000  1.0 -0.0507371626
C  C51  1  0.22160000  0.77840000  0.69180000  1.0 -0.0507371626
C  C52  1  0.77840000  0.22160000  0.30820000  1.0 -0.0507371626
C  C53  1  0.22160000  0.30820000  0.77840000  1.0 -0.0507371626
C  C54  1  0.77840000  0.69180000  0.22160000  1.0 -0.0507371626
C  C55  1  0.30820000  0.22160000  0.69180000  1.0 -0.0507371626
C  C56  1  0.69180000  0.77840000  0.30820000  1.0 -0.0507371626
C  C57  1  0.69180000  0.22160000  0.77840000  1.0 -0.0507371626
C  C58  1  0.30820000  0.77840000  0.22160000  1.0 -0.0507371626
C  C59  1  0.77840000  0.30820000  0.69180000  1.0 -0.0507371626
C  C60  1  0.22160000  0.69180000  0.30820000  1.0 -0.0507371626
C  C61  1  0.94240000  0.05760000  0.84840000  1.0 0.0811422648
C  C62  1  0.05760000  0.94240000  0.15160000  1.0 0.0811422648
C  C63  1  0.84840000  0.15160000  0.94240000  1.0 0.0811422648
C  C64  1  0.15160000  0.84840000  0.05760000  1.0 0.0811422648
C  C65  1  0.84840000  0.94240000  0.05760000  1.0 0.0811422648
C  C66  1  0.15160000  0.05760000  0.94240000  1.0 0.0811422648
C  C67  1  0.94240000  0.84840000  0.15160000  1.0 0.0811422648
C  C68  1  0.05760000  0.15160000  0.84840000  1.0 0.0811422648
C  C69  1  0.05760000  0.84840000  0.94240000  1.0 0.0811422648
C  C70  1  0.94240000  0.15160000  0.05760000  1.0 0.0811422648
C  C71  1  0.15160000  0.94240000  0.84840000  1.0 0.0811422648
C  C72  1  0.84840000  0.05760000  0.15160000  1.0 0.0811422648
C  C73  1  0.05760000  0.94240000  0.84840000  1.0 0.0811422648
C  C74  1  0.94240000  0.05760000  0.15160000  1.0 0.0811422648
C  C75  1  0.15160000  0.84840000  0.94240000  1.0 0.0811422648
C  C76  1  0.84840000  0.15160000  0.05760000  1.0 0.0811422648
C  C77  1  0.15160000  0.05760000  0.84840000  1.0 0.0811422648
C  C78  1  0.84840000  0.94240000  0.15160000  1.0 0.0811422648
C  C79  1  0.05760000  0.15160000  0.94240000  1.0 0.0811422648
C  C80  1  0.94240000  0.84840000  0.05760000  1.0 0.0811422648
C  C81  1  0.94240000  0.15160000  0.84840000  1.0 0.0811422648
C  C82  1  0.05760000  0.84840000  0.15160000  1.0 0.0811422648
C  C83  1  0.84840000  0.05760000  0.94240000  1.0 0.0811422648
C  C84  1  0.15160000  0.94240000  0.05760000  1.0 0.0811422648
C  C85  1  0.96360000  0.03640000  0.77480000  1.0 -0.1915040387
C  C86  1  0.03640000  0.96360000  0.22520000  1.0 -0.1915040387
C  C87  1  0.77480000  0.22520000  0.96360000  1.0 -0.1915040387
C  C88  1  0.22520000  0.77480000  0.03640000  1.0 -0.1915040387
C  C89  1  0.77480000  0.96360000  0.03640000  1.0 -0.1915040387
C  C90  1  0.22520000  0.03640000  0.96360000  1.0 -0.1915040387
C  C91  1  0.96360000  0.77480000  0.22520000  1.0 -0.1915040387
C  C92  1  0.03640000  0.22520000  0.77480000  1.0 -0.1915040387
C  C93  1  0.03640000  0.77480000  0.96360000  1.0 -0.1915040387
C  C94  1  0.96360000  0.22520000  0.03640000  1.0 -0.1915040387
C  C95  1  0.22520000  0.96360000  0.77480000  1.0 -0.1915040387
C  C96  1  0.77480000  0.03640000  0.22520000  1.0 -0.1915040387
C  C97  1  0.03640000  0.96360000  0.77480000  1.0 -0.1915040387
C  C98  1  0.96360000  0.03640000  0.22520000  1.0 -0.1915040387
C  C99  1  0.22520000  0.77480000  0.96360000  1.0 -0.1915040387
C  C100  1  0.77480000  0.22520000  0.03640000  1.0 -0.1915040387
C  C101  1  0.22520000  0.03640000  0.77480000  1.0 -0.1915040387
C  C102  1  0.77480000  0.96360000  0.22520000  1.0 -0.1915040387
C  C103  1  0.03640000  0.22520000  0.96360000  1.0 -0.1915040387
C  C104  1  0.96360000  0.77480000  0.03640000  1.0 -0.1915040387
C  C105  1  0.96360000  0.22520000  0.77480000  1.0 -0.1915040387
C  C106  1  0.03640000  0.77480000  0.22520000  1.0 -0.1915040387
C  C107  1  0.77480000  0.03640000  0.96360000  1.0 -0.1915040387
C  C108  1  0.22520000  0.96360000  0.03640000  1.0 -0.1915040387
C  C109  1  0.65310000  0.34690000  0.65310000  1.0 -0.2132319595
C  C110  1  0.34690000  0.65310000  0.34690000  1.0 -0.2132319595
C  C111  1  0.65310000  0.65310000  0.34690000  1.0 -0.2132319595
C  C112  1  0.34690000  0.34690000  0.65310000  1.0 -0.2132319595
C  C113  1  0.34690000  0.65310000  0.65310000  1.0 -0.2132319595
C  C114  1  0.65310000  0.34690000  0.34690000  1.0 -0.2132319595
C  C115  1  0.53250000  0.11210000  0.24330000  1.0 -0.0365402892
C  C116  1  0.11210000  0.53250000  0.11210000  1.0 -0.0365402892
C  C117  1  0.24330000  0.11210000  0.53250000  1.0 -0.0365402892
C  C118  1  0.11210000  0.24330000  0.11210000  1.0 -0.0365402892
C  C119  1  0.24330000  0.53250000  0.11210000  1.0 -0.0365402892
C  C120  1  0.11210000  0.11210000  0.53250000  1.0 -0.0365402892
C  C121  1  0.53250000  0.24330000  0.11210000  1.0 -0.0365402892
C  C122  1  0.11210000  0.11210000  0.24330000  1.0 -0.0365402892
C  C123  1  0.11210000  0.24330000  0.53250000  1.0 -0.0365402892
C  C124  1  0.53250000  0.11210000  0.11210000  1.0 -0.0365402892
C  C125  1  0.11210000  0.53250000  0.24330000  1.0 -0.0365402892
C  C126  1  0.24330000  0.11210000  0.11210000  1.0 -0.0365402892
C  C127  1  0.46750000  0.88790000  0.88790000  1.0 -0.0365402892
C  C128  1  0.88790000  0.46750000  0.75670000  1.0 -0.0365402892
C  C129  1  0.75670000  0.88790000  0.88790000  1.0 -0.0365402892
C  C130  1  0.88790000  0.75670000  0.46750000  1.0 -0.0365402892
C  C131  1  0.75670000  0.46750000  0.88790000  1.0 -0.0365402892
C  C132  1  0.88790000  0.88790000  0.75670000  1.0 -0.0365402892
C  C133  1  0.46750000  0.75670000  0.88790000  1.0 -0.0365402892
C  C134  1  0.88790000  0.88790000  0.46750000  1.0 -0.0365402892
C  C135  1  0.88790000  0.75670000  0.88790000  1.0 -0.0365402892
C  C136  1  0.46750000  0.88790000  0.75670000  1.0 -0.0365402892
C  C137  1  0.88790000  0.46750000  0.88790000  1.0 -0.0365402892
C  C138  1  0.75670000  0.88790000  0.46750000  1.0 -0.0365402892
C  C139  1  0.53170000  0.06890000  0.19970000  1.0 -0.1075398343
C  C140  1  0.06890000  0.53170000  0.19970000  1.0 -0.1075398343
C  C141  1  0.19970000  0.19970000  0.53170000  1.0 -0.1075398343
C  C142  1  0.19970000  0.19970000  0.06890000  1.0 -0.1075398343
C  C143  1  0.19970000  0.53170000  0.06890000  1.0 -0.1075398343
C  C144  1  0.19970000  0.06890000  0.53170000  1.0 -0.1075398343
C  C145  1  0.53170000  0.19970000  0.19970000  1.0 -0.1075398343
C  C146  1  0.06890000  0.19970000  0.19970000  1.0 -0.1075398343
C  C147  1  0.06890000  0.19970000  0.53170000  1.0 -0.1075398343
C  C148  1  0.53170000  0.19970000  0.06890000  1.0 -0.1075398343
C  C149  1  0.19970000  0.53170000  0.19970000  1.0 -0.1075398343
C  C150  1  0.19970000  0.06890000  0.19970000  1.0 -0.1075398343
C  C151  1  0.46830000  0.93110000  0.80030000  1.0 -0.1075398343
C  C152  1  0.93110000  0.46830000  0.80030000  1.0 -0.1075398343
C  C153  1  0.80030000  0.80030000  0.93110000  1.0 -0.1075398343
C  C154  1  0.80030000  0.80030000  0.46830000  1.0 -0.1075398343
C  C155  1  0.80030000  0.46830000  0.80030000  1.0 -0.1075398343
C  C156  1  0.80030000  0.93110000  0.80030000  1.0 -0.1075398343
C  C157  1  0.46830000  0.80030000  0.93110000  1.0 -0.1075398343
C  C158  1  0.93110000  0.80030000  0.46830000  1.0 -0.1075398343
C  C159  1  0.93110000  0.80030000  0.80030000  1.0 -0.1075398343
C  C160  1  0.46830000  0.80030000  0.80030000  1.0 -0.1075398343
C  C161  1  0.80030000  0.46830000  0.93110000  1.0 -0.1075398343
C  C162  1  0.80030000  0.93110000  0.46830000  1.0 -0.1075398343
C  C163  1  0.52550000  0.06930000  0.33590000  1.0 0.5583080763
C  C164  1  0.06930000  0.52550000  0.06930000  1.0 0.5583080763
C  C165  1  0.33590000  0.06930000  0.52550000  1.0 0.5583080763
C  C166  1  0.06930000  0.33590000  0.06930000  1.0 0.5583080763
C  C167  1  0.33590000  0.52550000  0.06930000  1.0 0.5583080763
C  C168  1  0.06930000  0.06930000  0.52550000  1.0 0.5583080763
C  C169  1  0.52550000  0.33590000  0.06930000  1.0 0.5583080763
C  C170  1  0.06930000  0.06930000  0.33590000  1.0 0.5583080763
C  C171  1  0.06930000  0.33590000  0.52550000  1.0 0.5583080763
C  C172  1  0.52550000  0.06930000  0.06930000  1.0 0.5583080763
C  C173  1  0.06930000  0.52550000  0.33590000  1.0 0.5583080763
C  C174  1  0.33590000  0.06930000  0.06930000  1.0 0.5583080763
C  C175  1  0.47450000  0.93070000  0.93070000  1.0 0.5583080763
C  C176  1  0.93070000  0.47450000  0.66410000  1.0 0.5583080763
C  C177  1  0.66410000  0.93070000  0.93070000  1.0 0.5583080763
C  C178  1  0.93070000  0.66410000  0.47450000  1.0 0.5583080763
C  C179  1  0.66410000  0.47450000  0.93070000  1.0 0.5583080763
C  C180  1  0.93070000  0.93070000  0.66410000  1.0 0.5583080763
C  C181  1  0.47450000  0.66410000  0.93070000  1.0 0.5583080763
C  C182  1  0.93070000  0.93070000  0.47450000  1.0 0.5583080763
C  C183  1  0.93070000  0.66410000  0.93070000  1.0 0.5583080763
C  C184  1  0.47450000  0.93070000  0.66410000  1.0 0.5583080763
C  C185  1  0.93070000  0.47450000  0.93070000  1.0 0.5583080763
C  C186  1  0.66410000  0.93070000  0.47450000  1.0 0.5583080763
N  N1  1  0.00000000  0.00000000  0.89480000  1.0 -0.1257692313
N  N2  1  0.00000000  0.00000000  0.10520000  1.0 -0.1257692313
N  N3  1  0.89480000  0.10520000  0.00000000  1.0 -0.1248946151
N  N4  1  0.10520000  0.89480000  0.00000000  1.0 -0.1248946151
N  N5  1  0.89480000  0.00000000  0.00000000  1.0 -0.1248946151
N  N6  1  0.10520000  0.00000000  0.00000000  1.0 -0.1248946151
N  N7  1  0.00000000  0.89480000  0.10520000  1.0 -0.1248946151
N  N8  1  0.00000000  0.10520000  0.89480000  1.0 -0.1257692313
N  N9  1  0.00000000  0.89480000  0.00000000  1.0 -0.1248946151
N  N10  1  0.00000000  0.10520000  0.00000000  1.0 -0.1248946151
N  N11  1  0.10520000  0.00000000  0.89480000  1.0 -0.1257692313
N  N12  1  0.89480000  0.00000000  0.10520000  1.0 -0.1248946151
N  N13  1  0.70890000  0.29110000  0.70890000  1.0 -0.0507371626
N  N14  1  0.29110000  0.70890000  0.29110000  1.0 -0.0507371626
N  N15  1  0.70890000  0.70890000  0.29110000  1.0 -0.0507371626
N  N16  1  0.29110000  0.29110000  0.70890000  1.0 -0.0507371626
N  N17  1  0.29110000  0.70890000  0.70890000  1.0 -0.0507371626
N  N18  1  0.70890000  0.29110000  0.29110000  1.0 -0.0507371626
O  O1  1  0.52210000  0.99310000  0.37150000  1.0 -0.5613982365
O  O2  1  0.99310000  0.52210000  0.11330000  1.0 -0.5613982365
O  O3  1  0.37150000  0.11330000  0.52210000  1.0 -0.5613982365
O  O4  1  0.11330000  0.37150000  0.99310000  1.0 -0.5613982365
O  O5  1  0.37150000  0.52210000  0.99310000  1.0 -0.5613982365
O  O6  1  0.11330000  0.99310000  0.52210000  1.0 -0.5613982365
O  O7  1  0.52210000  0.37150000  0.11330000  1.0 -0.5613982365
O  O8  1  0.99310000  0.11330000  0.37150000  1.0 -0.5613982365
O  O9  1  0.99310000  0.37150000  0.52210000  1.0 -0.5613982365
O  O10  1  0.52210000  0.11330000  0.99310000  1.0 -0.5613982365
O  O11  1  0.11330000  0.52210000  0.37150000  1.0 -0.5613982365
O  O12  1  0.37150000  0.99310000  0.11330000  1.0 -0.5613982365
O  O13  1  0.47790000  0.00690000  0.88670000  1.0 -0.5613982365
O  O14  1  0.00690000  0.47790000  0.62850000  1.0 -0.5613982365
O  O15  1  0.62850000  0.88670000  0.00690000  1.0 -0.5613982365
O  O16  1  0.88670000  0.62850000  0.47790000  1.0 -0.5613982365
O  O17  1  0.62850000  0.47790000  0.88670000  1.0 -0.5613982365
O  O18  1  0.88670000  0.00690000  0.62850000  1.0 -0.5613982365
O  O19  1  0.47790000  0.62850000  0.00690000  1.0 -0.5613982365
O  O20  1  0.00690000  0.88670000  0.47790000  1.0 -0.5613982365
O  O21  1  0.00690000  0.62850000  0.88670000  1.0 -0.5613982365
O  O22  1  0.47790000  0.88670000  0.62850000  1.0 -0.5613982365
O  O23  1  0.88670000  0.47790000  0.00690000  1.0 -0.5613982365
O  O24  1  0.62850000  0.00690000  0.47790000  1.0 -0.5613982365
O  O25  1  0.47790000  0.00690000  0.62850000  1.0 -0.5613982365
O  O26  1  0.00690000  0.47790000  0.88670000  1.0 -0.5613982365
O  O27  1  0.62850000  0.88670000  0.47790000  1.0 -0.5613982365
O  O28  1  0.88670000  0.62850000  0.00690000  1.0 -0.5613982365
O  O29  1  0.62850000  0.47790000  0.00690000  1.0 -0.5613982365
O  O30  1  0.88670000  0.00690000  0.47790000  1.0 -0.5613982365
O  O31  1  0.47790000  0.62850000  0.88670000  1.0 -0.5613982365
O  O32  1  0.00690000  0.88670000  0.62850000  1.0 -0.5613982365
O  O33  1  0.00690000  0.62850000  0.47790000  1.0 -0.5613982365
O  O34  1  0.47790000  0.88670000  0.00690000  1.0 -0.5613982365
O  O35  1  0.88670000  0.47790000  0.62850000  1.0 -0.5613982365
O  O36  1  0.62850000  0.00690000  0.88670000  1.0 -0.5613982365
O  O37  1  0.52210000  0.99310000  0.11330000  1.0 -0.5613982365
O  O38  1  0.99310000  0.52210000  0.37150000  1.0 -0.5613982365
O  O39  1  0.37150000  0.11330000  0.99310000  1.0 -0.5613982365
O  O40  1  0.11330000  0.37150000  0.52210000  1.0 -0.5613982365
O  O41  1  0.37150000  0.52210000  0.11330000  1.0 -0.5613982365
O  O42  1  0.11330000  0.99310000  0.37150000  1.0 -0.5613982365
O  O43  1  0.52210000  0.37150000  0.99310000  1.0 -0.5613982365
O  O44  1  0.99310000  0.11330000  0.52210000  1.0 -0.5613982365
O  O45  1  0.99310000  0.37150000  0.11330000  1.0 -0.5613982365
O  O46  1  0.52210000  0.11330000  0.37150000  1.0 -0.5613982365
O  O47  1  0.11330000  0.52210000  0.99310000  1.0 -0.5613982365
O  O48  1  0.37150000  0.99310000  0.52210000  1.0 -0.5613982365
O  O49  1  0.52320000  0.78180000  0.52320000  1.0 0.202822994
O  O50  1  0.78180000  0.52320000  0.17180000  1.0 0.202822994
O  O51  1  0.52320000  0.17180000  0.52320000  1.0 0.202822994
O  O52  1  0.17180000  0.52320000  0.78180000  1.0 0.202822994
O  O53  1  0.52320000  0.52320000  0.78180000  1.0 0.202822994
O  O54  1  0.17180000  0.78180000  0.52320000  1.0 0.202822994
O  O55  1  0.52320000  0.52320000  0.17180000  1.0 0.202822994
O  O56  1  0.78180000  0.17180000  0.52320000  1.0 0.202822994
O  O57  1  0.78180000  0.52320000  0.52320000  1.0 0.202822994
O  O58  1  0.52320000  0.17180000  0.78180000  1.0 0.202822994
O  O59  1  0.17180000  0.52320000  0.52320000  1.0 0.202822994
O  O60  1  0.52320000  0.78180000  0.17180000  1.0 0.202822994
O  O61  1  0.47680000  0.21820000  0.82820000  1.0 0.202822994
O  O62  1  0.21820000  0.47680000  0.47680000  1.0 0.202822994
O  O63  1  0.47680000  0.82820000  0.21820000  1.0 0.202822994
O  O64  1  0.82820000  0.47680000  0.47680000  1.0 0.202822994
O  O65  1  0.47680000  0.47680000  0.82820000  1.0 0.202822994
O  O66  1  0.82820000  0.21820000  0.47680000  1.0 0.202822994
O  O67  1  0.47680000  0.47680000  0.21820000  1.0 0.202822994
O  O68  1  0.21820000  0.82820000  0.47680000  1.0 0.202822994
O  O69  1  0.21820000  0.47680000  0.82820000  1.0 0.202822994
O  O70  1  0.47680000  0.82820000  0.47680000  1.0 0.202822994
O  O71  1  0.82820000  0.47680000  0.21820000  1.0 0.202822994
O  O72  1  0.47680000  0.21820000  0.47680000  1.0 0.202822994
O  O73  1  0.79520000  0.20480000  0.48700000  1.0 0.2524149941
O  O74  1  0.20480000  0.79520000  0.51300000  1.0 0.2524149941
O  O75  1  0.48700000  0.51300000  0.79520000  1.0 0.2524149941
O  O76  1  0.51300000  0.48700000  0.20480000  1.0 0.2524149941
O  O77  1  0.48700000  0.79520000  0.20480000  1.0 0.2524149941
O  O78  1  0.51300000  0.20480000  0.79520000  1.0 0.2524149941
O  O79  1  0.79520000  0.48700000  0.51300000  1.0 0.2524149941
O  O80  1  0.20480000  0.51300000  0.48700000  1.0 0.2524149941
O  O81  1  0.20480000  0.48700000  0.79520000  1.0 0.2524149941
O  O82  1  0.79520000  0.51300000  0.20480000  1.0 0.2524149941
O  O83  1  0.51300000  0.79520000  0.48700000  1.0 0.2524149941
O  O84  1  0.48700000  0.20480000  0.51300000  1.0 0.2524149941
O  O85  1  0.20480000  0.79520000  0.48700000  1.0 0.2524149941
O  O86  1  0.79520000  0.20480000  0.51300000  1.0 0.2524149941
O  O87  1  0.51300000  0.48700000  0.79520000  1.0 0.2524149941
O  O88  1  0.48700000  0.51300000  0.20480000  1.0 0.2524149941
O  O89  1  0.51300000  0.20480000  0.48700000  1.0 0.2524149941
O  O90  1  0.48700000  0.79520000  0.51300000  1.0 0.2524149941
O  O91  1  0.20480000  0.51300000  0.79520000  1.0 0.2524149941
O  O92  1  0.79520000  0.48700000  0.20480000  1.0 0.2524149941
O  O93  1  0.79520000  0.51300000  0.48700000  1.0 0.2524149941
O  O94  1  0.20480000  0.48700000  0.51300000  1.0 0.2524149941
O  O95  1  0.48700000  0.20480000  0.79520000  1.0 0.2524149941
O  O96  1  0.51300000  0.79520000  0.20480000  1.0 0.2524149941
