# DDEC6 charges by PACMAN v1.1 (https://github.com/mtap-research/PACMAN-charge/)
data_DAPHOU_ASR_pacman
_symmetry_space_group_name_H-M   'P 1'
_cell_length_a   24.22890000
_cell_length_b   24.22890000
_cell_length_c   24.22890000
_cell_angle_alpha   105.48600000
_cell_angle_beta   105.48600000
_cell_angle_gamma   105.48600000
_symmetry_Int_Tables_number   1
_chemical_formula_structural   ZnH3C8NO4
_chemical_formula_sum   'Zn24 H72 C192 N24 O96'
_cell_volume   12301.80820716
_cell_formula_units_Z   24
loop_
 _symmetry_equiv_pos_site_id
 _symmetry_equiv_pos_as_xyz
  1  'x, y, z'
loop_
 _atom_site_type_symbol
 _atom_site_label
 _atom_site_symmetry_multiplicity
 _atom_site_fract_x
 _atom_site_fract_y
 _atom_site_fract_z
 _atom_site_occupancy
 _atom_site_charge
Zn  Zn1  1  0.97598000  0.17281000  0.21132000  1.0 0.9500661439
Zn  Zn2  1  0.17281000  0.21132000  0.97598000  1.0 0.9500661439
Zn  Zn3  1  0.21132000  0.97598000  0.17281000  1.0 0.9500661439
Zn  Zn4  1  0.02402000  0.82719000  0.78868000  1.0 0.9500661439
Zn  Zn5  1  0.82719000  0.78868000  0.02402000  1.0 0.9500661439
Zn  Zn6  1  0.78868000  0.02402000  0.82719000  1.0 0.9500661439
Zn  Zn7  1  0.02227000  0.28257000  0.32692000  1.0 0.9500661439
Zn  Zn8  1  0.28257000  0.32692000  0.02227000  1.0 0.9500661439
Zn  Zn9  1  0.32692000  0.02227000  0.28257000  1.0 0.9500661439
Zn  Zn10  1  0.97773000  0.71743000  0.67308000  1.0 0.9500661439
Zn  Zn11  1  0.71743000  0.67308000  0.97773000  1.0 0.9500661439
Zn  Zn12  1  0.67308000  0.97773000  0.71743000  1.0 0.9500661439
Zn  Zn13  1  0.81285000  0.51942000  0.31701000  1.0 0.9500661439
Zn  Zn14  1  0.51942000  0.31701000  0.81285000  1.0 0.9500661439
Zn  Zn15  1  0.31701000  0.81285000  0.51942000  1.0 0.9500661439
Zn  Zn16  1  0.18715000  0.48058000  0.68299000  1.0 0.9500661439
Zn  Zn17  1  0.48058000  0.68299000  0.18715000  1.0 0.9500661439
Zn  Zn18  1  0.68299000  0.18715000  0.48058000  1.0 0.9500661439
Zn  Zn19  1  0.70359000  0.47547000  0.20136000  1.0 0.9599907808
Zn  Zn20  1  0.47547000  0.20136000  0.70359000  1.0 0.9599907808
Zn  Zn21  1  0.20136000  0.70359000  0.47547000  1.0 0.9599907808
Zn  Zn22  1  0.29641000  0.52453000  0.79864000  1.0 0.9599907808
Zn  Zn23  1  0.52453000  0.79864000  0.29641000  1.0 0.9599907808
Zn  Zn24  1  0.79864000  0.29641000  0.52453000  1.0 0.9599907808
H  H1  1  0.84880000  0.22700000  0.11400000  1.0 0.130941205
H  H2  1  0.22700000  0.11400000  0.84880000  1.0 0.130941205
H  H3  1  0.11400000  0.84880000  0.22700000  1.0 0.130941205
H  H4  1  0.15120000  0.77300000  0.88600000  1.0 0.130941205
H  H5  1  0.77300000  0.88600000  0.15120000  1.0 0.130941205
H  H6  1  0.88600000  0.15120000  0.77300000  1.0 0.130941205
H  H7  1  0.75040000  0.33630000  0.10610000  1.0 0.130941205
H  H8  1  0.33630000  0.10610000  0.75040000  1.0 0.130941205
H  H9  1  0.10610000  0.75040000  0.33630000  1.0 0.130941205
H  H10  1  0.24960000  0.66370000  0.89390000  1.0 0.130941205
H  H11  1  0.66370000  0.89390000  0.24960000  1.0 0.130941205
H  H12  1  0.89390000  0.24960000  0.66370000  1.0 0.130941205
H  H13  1  0.89180000  0.37480000  0.26400000  1.0 0.130941205
H  H14  1  0.37480000  0.26400000  0.89180000  1.0 0.130941205
H  H15  1  0.26400000  0.89180000  0.37480000  1.0 0.130941205
H  H16  1  0.10820000  0.62520000  0.73600000  1.0 0.130941205
H  H17  1  0.62520000  0.73600000  0.10820000  1.0 0.130941205
H  H18  1  0.73600000  0.10820000  0.62520000  1.0 0.130941205
H  H19  1  0.73850000  0.15450000  0.94130000  1.0 0.130941205
H  H20  1  0.15450000  0.94130000  0.73850000  1.0 0.130941205
H  H21  1  0.94130000  0.73850000  0.15450000  1.0 0.130941205
H  H22  1  0.26150000  0.84550000  0.05870000  1.0 0.130941205
H  H23  1  0.84550000  0.05870000  0.26150000  1.0 0.130941205
H  H24  1  0.05870000  0.26150000  0.84550000  1.0 0.130941205
H  H25  1  0.60380000  0.12060000  0.78260000  1.0 0.130941205
H  H26  1  0.12060000  0.78260000  0.60380000  1.0 0.130941205
H  H27  1  0.78260000  0.60380000  0.12060000  1.0 0.130941205
H  H28  1  0.39620000  0.87940000  0.21740000  1.0 0.130941205
H  H29  1  0.87940000  0.21740000  0.39620000  1.0 0.130941205
H  H30  1  0.21740000  0.39620000  0.87940000  1.0 0.130941205
H  H31  1  0.64130000  0.26580000  0.93350000  1.0 0.1370305965
H  H32  1  0.26580000  0.93350000  0.64130000  1.0 0.1370305965
H  H33  1  0.93350000  0.64130000  0.26580000  1.0 0.1370305965
H  H34  1  0.35870000  0.73420000  0.06650000  1.0 0.1370305965
H  H35  1  0.73420000  0.06650000  0.35870000  1.0 0.1370305965
H  H36  1  0.06650000  0.35870000  0.73420000  1.0 0.1370305965
H  H37  1  0.58600000  0.34420000  0.24640000  1.0 0.130941205
H  H38  1  0.34420000  0.24640000  0.58600000  1.0 0.130941205
H  H39  1  0.24640000  0.58600000  0.34420000  1.0 0.130941205
H  H40  1  0.41400000  0.65580000  0.75360000  1.0 0.130941205
H  H41  1  0.65580000  0.75360000  0.41400000  1.0 0.130941205
H  H42  1  0.75360000  0.41400000  0.65580000  1.0 0.130941205
H  H43  1  0.58470000  0.22890000  0.33960000  1.0 0.1370305965
H  H44  1  0.22890000  0.33960000  0.58470000  1.0 0.1370305965
H  H45  1  0.33960000  0.58470000  0.22890000  1.0 0.1370305965
H  H46  1  0.41530000  0.77110000  0.66040000  1.0 0.1370305965
H  H47  1  0.77110000  0.66040000  0.41530000  1.0 0.1370305965
H  H48  1  0.66040000  0.41530000  0.77110000  1.0 0.1370305965
H  H49  1  0.73730000  0.38010000  0.38890000  1.0 0.130941205
H  H50  1  0.38010000  0.38890000  0.73730000  1.0 0.130941205
H  H51  1  0.38890000  0.73730000  0.38010000  1.0 0.130941205
H  H52  1  0.26270000  0.61990000  0.61110000  1.0 0.130941205
H  H53  1  0.61990000  0.61110000  0.26270000  1.0 0.130941205
H  H54  1  0.61110000  0.26270000  0.61990000  1.0 0.130941205
H  H55  1  0.40140000  0.27760000  0.14120000  1.0 0.1370305965
H  H56  1  0.27760000  0.14120000  0.40140000  1.0 0.1370305965
H  H57  1  0.14120000  0.40140000  0.27760000  1.0 0.1370305965
H  H58  1  0.59860000  0.72240000  0.85880000  1.0 0.1370305965
H  H59  1  0.72240000  0.85880000  0.59860000  1.0 0.1370305965
H  H60  1  0.85880000  0.59860000  0.72240000  1.0 0.1370305965
H  H61  1  0.25490000  0.12380000  0.10220000  1.0 0.1370305965
H  H62  1  0.12380000  0.10220000  0.25490000  1.0 0.1370305965
H  H63  1  0.10220000  0.25490000  0.12380000  1.0 0.1370305965
H  H64  1  0.74510000  0.87620000  0.89780000  1.0 0.1370305965
H  H65  1  0.87620000  0.89780000  0.74510000  1.0 0.1370305965
H  H66  1  0.89780000  0.74510000  0.87620000  1.0 0.1370305965
H  H67  1  0.41640000  0.15860000  0.23170000  1.0 0.130941205
H  H68  1  0.15860000  0.23170000  0.41640000  1.0 0.130941205
H  H69  1  0.23170000  0.41640000  0.15860000  1.0 0.130941205
H  H70  1  0.58360000  0.84140000  0.76830000  1.0 0.130941205
H  H71  1  0.84140000  0.76830000  0.58360000  1.0 0.130941205
H  H72  1  0.76830000  0.58360000  0.84140000  1.0 0.130941205
C  C1  1  0.87620000  0.29800000  0.19440000  1.0 -0.041069184
C  C2  1  0.29800000  0.19440000  0.87620000  1.0 -0.0319802711
C  C3  1  0.19440000  0.87620000  0.29800000  1.0 -0.041069184
C  C4  1  0.12380000  0.70200000  0.80560000  1.0 -0.0319802711
C  C5  1  0.70200000  0.80560000  0.12380000  1.0 -0.0319802711
C  C6  1  0.80560000  0.12380000  0.70200000  1.0 -0.0319802711
C  C7  1  0.84110000  0.26210000  0.13370000  1.0 -0.1311799747
C  C8  1  0.26210000  0.13370000  0.84110000  1.0 -0.1311799747
C  C9  1  0.13370000  0.84110000  0.26210000  1.0 -0.1311799747
C  C10  1  0.15890000  0.73790000  0.86630000  1.0 -0.1311799747
C  C11  1  0.73790000  0.86630000  0.15890000  1.0 -0.1311799747
C  C12  1  0.86630000  0.15890000  0.73790000  1.0 -0.1311799747
C  C13  1  0.79550000  0.27670000  0.10200000  1.0 0.1469887508
C  C14  1  0.27670000  0.10200000  0.79550000  1.0 0.1469887508
C  C15  1  0.10200000  0.79550000  0.27670000  1.0 0.1469887508
C  C16  1  0.20450000  0.72330000  0.89800000  1.0 0.1469887508
C  C17  1  0.72330000  0.89800000  0.20450000  1.0 0.1469887508
C  C18  1  0.89800000  0.20450000  0.72330000  1.0 0.1469887508
C  C19  1  0.78310000  0.32730000  0.12890000  1.0 -0.1482419245
C  C20  1  0.32730000  0.12890000  0.78310000  1.0 -0.1482419245
C  C21  1  0.12890000  0.78310000  0.32730000  1.0 -0.1482419245
C  C22  1  0.21690000  0.67270000  0.87110000  1.0 -0.1482419245
C  C23  1  0.67270000  0.87110000  0.21690000  1.0 -0.1482419245
C  C24  1  0.87110000  0.21690000  0.67270000  1.0 -0.1482419245
C  C25  1  0.81910000  0.36590000  0.19050000  1.0 -0.0225583185
C  C26  1  0.36590000  0.19050000  0.81910000  1.0 -0.0225583185
C  C27  1  0.19050000  0.81910000  0.36590000  1.0 -0.0225583185
C  C28  1  0.18090000  0.63410000  0.80950000  1.0 -0.0225583185
C  C29  1  0.63410000  0.80950000  0.18090000  1.0 -0.0225583185
C  C30  1  0.80950000  0.18090000  0.63410000  1.0 -0.0225583185
C  C31  1  0.86650000  0.34970000  0.22260000  1.0 -0.0901199077
C  C32  1  0.34970000  0.22260000  0.86650000  1.0 -0.0901199077
C  C33  1  0.22260000  0.86650000  0.34970000  1.0 -0.0901199077
C  C34  1  0.13350000  0.65030000  0.77740000  1.0 -0.0901199077
C  C35  1  0.65030000  0.77740000  0.13350000  1.0 -0.0901199077
C  C36  1  0.77740000  0.13350000  0.65030000  1.0 -0.0901199077
C  C37  1  0.92400000  0.27950000  0.22810000  1.0 0.5907747985
C  C38  1  0.27950000  0.22810000  0.92400000  1.0 0.5907747985
C  C39  1  0.22810000  0.92400000  0.27950000  1.0 0.5907747985
C  C40  1  0.07600000  0.72050000  0.77190000  1.0 0.5907747985
C  C41  1  0.72050000  0.77190000  0.07600000  1.0 0.5907747985
C  C42  1  0.77190000  0.07600000  0.72050000  1.0 0.5907747985
C  C43  1  0.80460000  0.41840000  0.22210000  1.0 0.5907747985
C  C44  1  0.41840000  0.22210000  0.80460000  1.0 0.5907747985
C  C45  1  0.22210000  0.80460000  0.41840000  1.0 0.5907747985
C  C46  1  0.19540000  0.58160000  0.77790000  1.0 0.5907747985
C  C47  1  0.58160000  0.77790000  0.19540000  1.0 0.5907747985
C  C48  1  0.77790000  0.19540000  0.58160000  1.0 0.5907747985
C  C49  1  0.69440000  0.21470000  0.94710000  1.0 0.1612728971
C  C50  1  0.21470000  0.94710000  0.69440000  1.0 0.1612728971
C  C51  1  0.94710000  0.69440000  0.21470000  1.0 0.1612728971
C  C52  1  0.30560000  0.78530000  0.05290000  1.0 0.1612728971
C  C53  1  0.78530000  0.05290000  0.30560000  1.0 0.1612728971
C  C54  1  0.05290000  0.30560000  0.78530000  1.0 0.1612728971
C  C55  1  0.70710000  0.16500000  0.91870000  1.0 -0.1482419245
C  C56  1  0.16500000  0.91870000  0.70710000  1.0 -0.1482419245
C  C57  1  0.91870000  0.70710000  0.16500000  1.0 -0.1482419245
C  C58  1  0.29290000  0.83500000  0.08130000  1.0 -0.1482419245
C  C59  1  0.83500000  0.08130000  0.29290000  1.0 -0.1482419245
C  C60  1  0.08130000  0.29290000  0.83500000  1.0 -0.1482419245
C  C61  1  0.67270000  0.12900000  0.85500000  1.0 -0.041069184
C  C62  1  0.12900000  0.85500000  0.67270000  1.0 -0.0458934965
C  C63  1  0.85500000  0.67270000  0.12900000  1.0 -0.041069184
C  C64  1  0.32730000  0.87100000  0.14500000  1.0 -0.041069184
C  C65  1  0.87100000  0.14500000  0.32730000  1.0 -0.041069184
C  C66  1  0.14500000  0.32730000  0.87100000  1.0 -0.041069184
C  C67  1  0.62810000  0.14540000  0.82440000  1.0 -0.0848475105
C  C68  1  0.14540000  0.82440000  0.62810000  1.0 -0.0848475105
C  C69  1  0.82440000  0.62810000  0.14540000  1.0 -0.0848475105
C  C70  1  0.37190000  0.85460000  0.17560000  1.0 -0.0901199077
C  C71  1  0.85460000  0.17560000  0.37190000  1.0 -0.0901199077
C  C72  1  0.17560000  0.37190000  0.85460000  1.0 -0.0848475105
C  C73  1  0.61660000  0.19780000  0.85220000  1.0 -0.0225583185
C  C74  1  0.19780000  0.85220000  0.61660000  1.0 -0.0225583185
C  C75  1  0.85220000  0.61660000  0.19780000  1.0 -0.0225583185
C  C76  1  0.38340000  0.80220000  0.14780000  1.0 -0.0225583185
C  C77  1  0.80220000  0.14780000  0.38340000  1.0 -0.0225583185
C  C78  1  0.14780000  0.38340000  0.80220000  1.0 -0.0225583185
C  C79  1  0.64930000  0.23100000  0.91350000  1.0 -0.1482419245
C  C80  1  0.23100000  0.91350000  0.64930000  1.0 -0.1482419245
C  C81  1  0.91350000  0.64930000  0.23100000  1.0 -0.1482419245
C  C82  1  0.35070000  0.76900000  0.08650000  1.0 -0.1482419245
C  C83  1  0.76900000  0.08650000  0.35070000  1.0 -0.1482419245
C  C84  1  0.08650000  0.35070000  0.76900000  1.0 -0.1482419245
C  C85  1  0.68760000  0.07660000  0.82590000  1.0 0.5979654205
C  C86  1  0.07660000  0.82590000  0.68760000  1.0 0.5979654205
C  C87  1  0.82590000  0.68760000  0.07660000  1.0 0.5979654205
C  C88  1  0.31240000  0.92340000  0.17410000  1.0 0.5979654205
C  C89  1  0.92340000  0.17410000  0.31240000  1.0 0.5979654205
C  C90  1  0.17410000  0.31240000  0.92340000  1.0 0.5979654205
C  C91  1  0.56900000  0.21730000  0.81730000  1.0 0.5907747985
C  C92  1  0.21730000  0.81730000  0.56900000  1.0 0.5907747985
C  C93  1  0.81730000  0.56900000  0.21730000  1.0 0.5907747985
C  C94  1  0.43100000  0.78270000  0.18270000  1.0 0.5907747985
C  C95  1  0.78270000  0.18270000  0.43100000  1.0 0.5907747985
C  C96  1  0.18270000  0.43100000  0.78270000  1.0 0.5907747985
C  C97  1  0.66610000  0.36820000  0.31180000  1.0 -0.041069184
C  C98  1  0.36820000  0.31180000  0.66610000  1.0 -0.041069184
C  C99  1  0.31180000  0.66610000  0.36820000  1.0 -0.041069184
C  C100  1  0.33390000  0.63180000  0.68820000  1.0 -0.041069184
C  C101  1  0.63180000  0.68820000  0.33390000  1.0 -0.041069184
C  C102  1  0.68820000  0.33390000  0.63180000  1.0 -0.041069184
C  C103  1  0.60690000  0.33460000  0.27950000  1.0 -0.1161757087
C  C104  1  0.33460000  0.27950000  0.60690000  1.0 -0.1161757087
C  C105  1  0.27950000  0.60690000  0.33460000  1.0 -0.1161757087
C  C106  1  0.39310000  0.66540000  0.72050000  1.0 -0.1161757087
C  C107  1  0.66540000  0.72050000  0.39310000  1.0 -0.1161757087
C  C108  1  0.72050000  0.39310000  0.66540000  1.0 -0.1161757087
C  C109  1  0.57410000  0.28530000  0.29230000  1.0 0.1612728971
C  C110  1  0.28530000  0.29230000  0.57410000  1.0 0.1612728971
C  C111  1  0.29230000  0.57410000  0.28530000  1.0 0.1612728971
C  C112  1  0.42590000  0.71470000  0.70770000  1.0 0.1612728971
C  C113  1  0.71470000  0.70770000  0.42590000  1.0 0.1612728971
C  C114  1  0.70770000  0.42590000  0.71470000  1.0 0.1612728971
C  C115  1  0.60410000  0.26630000  0.33530000  1.0 -0.1567523849
C  C116  1  0.26630000  0.33530000  0.60410000  1.0 -0.1567523849
C  C117  1  0.33530000  0.60410000  0.26630000  1.0 -0.1567523849
C  C118  1  0.39590000  0.73370000  0.66470000  1.0 -0.1567523849
C  C119  1  0.73370000  0.66470000  0.39590000  1.0 -0.1567523849
C  C120  1  0.66470000  0.39590000  0.73370000  1.0 -0.1567523849
C  C121  1  0.66580000  0.30440000  0.37320000  1.0 -0.0225583185
C  C122  1  0.30440000  0.37320000  0.66580000  1.0 -0.0225583185
C  C123  1  0.37320000  0.66580000  0.30440000  1.0 -0.0225583185
C  C124  1  0.33420000  0.69560000  0.62680000  1.0 -0.0225583185
C  C125  1  0.69560000  0.62680000  0.33420000  1.0 -0.0225583185
C  C126  1  0.62680000  0.33420000  0.69560000  1.0 -0.0225583185
C  C127  1  0.69620000  0.35460000  0.36250000  1.0 -0.0901199077
C  C128  1  0.35460000  0.36250000  0.69620000  1.0 -0.0901199077
C  C129  1  0.36250000  0.69620000  0.35460000  1.0 -0.0901199077
C  C130  1  0.30380000  0.64540000  0.63750000  1.0 -0.0901199077
C  C131  1  0.64540000  0.63750000  0.30380000  1.0 -0.0901199077
C  C132  1  0.63750000  0.30380000  0.64540000  1.0 -0.0901199077
C  C133  1  0.69870000  0.41900000  0.29710000  1.0 0.5907747985
C  C134  1  0.41900000  0.29710000  0.69870000  1.0 0.5907747985
C  C135  1  0.29710000  0.69870000  0.41900000  1.0 0.5907747985
C  C136  1  0.30130000  0.58100000  0.70290000  1.0 0.5907747985
C  C137  1  0.58100000  0.70290000  0.30130000  1.0 0.5907747985
C  C138  1  0.70290000  0.30130000  0.58100000  1.0 0.5907747985
C  C139  1  0.69710000  0.28640000  0.42380000  1.0 0.5907747985
C  C140  1  0.28640000  0.42380000  0.69710000  1.0 0.5907747985
C  C141  1  0.42380000  0.69710000  0.28640000  1.0 0.5907747985
C  C142  1  0.30290000  0.71360000  0.57620000  1.0 0.5907747985
C  C143  1  0.71360000  0.57620000  0.30290000  1.0 0.5907747985
C  C144  1  0.57620000  0.30290000  0.71360000  1.0 0.5907747985
C  C145  1  0.38380000  0.24060000  0.14720000  1.0 -0.1567523849
C  C146  1  0.24060000  0.14720000  0.38380000  1.0 -0.1567523849
C  C147  1  0.14720000  0.38380000  0.24060000  1.0 -0.1567523849
C  C148  1  0.61620000  0.75940000  0.85280000  1.0 -0.1567523849
C  C149  1  0.75940000  0.85280000  0.61620000  1.0 -0.1567523849
C  C150  1  0.85280000  0.61620000  0.75940000  1.0 -0.1567523849
C  C151  1  0.32250000  0.20490000  0.11460000  1.0 -0.0319802711
C  C152  1  0.20490000  0.11460000  0.32250000  1.0 -0.0319802711
C  C153  1  0.11460000  0.32250000  0.20490000  1.0 -0.0319802711
C  C154  1  0.67750000  0.79510000  0.88540000  1.0 -0.0319802711
C  C155  1  0.79510000  0.88540000  0.67750000  1.0 -0.0319802711
C  C156  1  0.88540000  0.67750000  0.79510000  1.0 -0.0319802711
C  C157  1  0.29680000  0.14950000  0.12490000  1.0 -0.0973950599
C  C158  1  0.14950000  0.12490000  0.29680000  1.0 -0.0973950599
C  C159  1  0.12490000  0.29680000  0.14950000  1.0 -0.0973950599
C  C160  1  0.70320000  0.85050000  0.87510000  1.0 -0.0973950599
C  C161  1  0.85050000  0.87510000  0.70320000  1.0 -0.0973950599
C  C162  1  0.87510000  0.70320000  0.85050000  1.0 -0.0973950599
C  C163  1  0.33170000  0.13450000  0.16620000  1.0 0.0081879707
C  C164  1  0.13450000  0.16620000  0.33170000  1.0 0.0081879707
C  C165  1  0.16620000  0.33170000  0.13450000  1.0 0.0081879707
C  C166  1  0.66830000  0.86550000  0.83380000  1.0 0.0081879707
C  C167  1  0.86550000  0.83380000  0.66830000  1.0 0.0081879707
C  C168  1  0.83380000  0.66830000  0.86550000  1.0 0.0081879707
C  C169  1  0.39320000  0.16960000  0.20100000  1.0 -0.1567523849
C  C170  1  0.16960000  0.20100000  0.39320000  1.0 -0.1482419245
C  C171  1  0.20100000  0.39320000  0.16960000  1.0 -0.1567523849
C  C172  1  0.60680000  0.83040000  0.79900000  1.0 -0.1567523849
C  C173  1  0.83040000  0.79900000  0.60680000  1.0 -0.1482419245
C  C174  1  0.79900000  0.60680000  0.83040000  1.0 -0.1567523849
C  C175  1  0.42020000  0.22230000  0.18880000  1.0 0.1777036426
C  C176  1  0.22230000  0.18880000  0.42020000  1.0 0.1777036426
C  C177  1  0.18880000  0.42020000  0.22230000  1.0 0.1777036426
C  C178  1  0.57980000  0.77770000  0.81120000  1.0 0.1777036426
C  C179  1  0.77770000  0.81120000  0.57980000  1.0 0.1777036426
C  C180  1  0.81120000  0.57980000  0.77770000  1.0 0.1777036426
C  C181  1  0.28550000  0.22660000  0.07260000  1.0 0.5907747985
C  C182  1  0.22660000  0.07260000  0.28550000  1.0 0.5907747985
C  C183  1  0.07260000  0.28550000  0.22660000  1.0 0.5907747985
C  C184  1  0.71450000  0.77340000  0.92740000  1.0 0.5907747985
C  C185  1  0.77340000  0.92740000  0.71450000  1.0 0.5907747985
C  C186  1  0.92740000  0.71450000  0.77340000  1.0 0.5907747985
C  C187  1  0.30410000  0.07630000  0.18210000  1.0 0.5907747985
C  C188  1  0.07630000  0.18210000  0.30410000  1.0 0.5907747985
C  C189  1  0.18210000  0.30410000  0.07630000  1.0 0.5907747985
C  C190  1  0.69590000  0.92370000  0.81790000  1.0 0.5907747985
C  C191  1  0.92370000  0.81790000  0.69590000  1.0 0.5907747985
C  C192  1  0.81790000  0.69590000  0.92370000  1.0 0.5907747985
N  N1  1  0.76260000  0.23630000  0.03730000  1.0 -0.1311799747
N  N2  1  0.23630000  0.03730000  0.76260000  1.0 -0.1311799747
N  N3  1  0.03730000  0.76260000  0.23630000  1.0 -0.1311799747
N  N4  1  0.23740000  0.76370000  0.96270000  1.0 -0.1311799747
N  N5  1  0.76370000  0.96270000  0.23740000  1.0 -0.1311799747
N  N6  1  0.96270000  0.23740000  0.76370000  1.0 -0.1311799747
N  N7  1  0.72440000  0.25390000  0.00840000  1.0 -0.1397660014
N  N8  1  0.25390000  0.00840000  0.72440000  1.0 -0.1397660014
N  N9  1  0.00840000  0.72440000  0.25390000  1.0 -0.1397660014
N  N10  1  0.27560000  0.74610000  0.99160000  1.0 -0.1397660014
N  N11  1  0.74610000  0.99160000  0.27560000  1.0 -0.1397660014
N  N12  1  0.99160000  0.27560000  0.74610000  1.0 -0.1397660014
N  N13  1  0.51190000  0.24740000  0.25920000  1.0 -0.1311799747
N  N14  1  0.24740000  0.25920000  0.51190000  1.0 -0.1311799747
N  N15  1  0.25920000  0.51190000  0.24740000  1.0 -0.1311799747
N  N16  1  0.48810000  0.75260000  0.74080000  1.0 -0.1311799747
N  N17  1  0.75260000  0.74080000  0.48810000  1.0 -0.1311799747
N  N18  1  0.74080000  0.48810000  0.75260000  1.0 -0.1311799747
N  N19  1  0.48030000  0.26180000  0.21970000  1.0 -0.1482419245
N  N20  1  0.26180000  0.21970000  0.48030000  1.0 -0.1482419245
N  N21  1  0.21970000  0.48030000  0.26180000  1.0 -0.1482419245
N  N22  1  0.51970000  0.73820000  0.78030000  1.0 -0.1482419245
N  N23  1  0.73820000  0.78030000  0.51970000  1.0 -0.1482419245
N  N24  1  0.78030000  0.51970000  0.73820000  1.0 -0.1482419245
O  O1  1  0.92626000  0.22844000  0.20190000  1.0 -0.5506866529
O  O2  1  0.22844000  0.20190000  0.92626000  1.0 -0.5506866529
O  O3  1  0.20190000  0.92626000  0.22844000  1.0 -0.5506866529
O  O4  1  0.07374000  0.77156000  0.79810000  1.0 -0.5506866529
O  O5  1  0.77156000  0.79810000  0.07374000  1.0 -0.5506866529
O  O6  1  0.79810000  0.07374000  0.77156000  1.0 -0.5506866529
O  O7  1  0.95812000  0.31278000  0.28490000  1.0 -0.5321110052
O  O8  1  0.31278000  0.28490000  0.95812000  1.0 -0.5321110052
O  O9  1  0.28490000  0.95812000  0.31278000  1.0 -0.5321110052
O  O10  1  0.04188000  0.68722000  0.71510000  1.0 -0.5321110052
O  O11  1  0.68722000  0.71510000  0.04188000  1.0 -0.5321110052
O  O12  1  0.71510000  0.04188000  0.68722000  1.0 -0.5321110052
O  O13  1  0.75657000  0.42243000  0.19080000  1.0 -0.555235931
O  O14  1  0.42243000  0.19080000  0.75657000  1.0 -0.555235931
O  O15  1  0.19080000  0.75657000  0.42243000  1.0 -0.555235931
O  O16  1  0.24343000  0.57757000  0.80920000  1.0 -0.555235931
O  O17  1  0.57757000  0.80920000  0.24343000  1.0 -0.555235931
O  O18  1  0.80920000  0.24343000  0.57757000  1.0 -0.555235931
O  O19  1  0.84021000  0.45375000  0.27543000  1.0 -0.51888618
O  O20  1  0.45375000  0.27543000  0.84021000  1.0 -0.51888618
O  O21  1  0.27543000  0.84021000  0.45375000  1.0 -0.51888618
O  O22  1  0.15979000  0.54625000  0.72457000  1.0 -0.51888618
O  O23  1  0.54625000  0.72457000  0.15979000  1.0 -0.51888618
O  O24  1  0.72457000  0.15979000  0.54625000  1.0 -0.51888618
O  O25  1  0.73641000  0.07261000  0.85509000  1.0 -0.5379416235
O  O26  1  0.07261000  0.85509000  0.73641000  1.0 -0.5379416235
O  O27  1  0.85509000  0.73641000  0.07261000  1.0 -0.5379416235
O  O28  1  0.26359000  0.92739000  0.14491000  1.0 -0.5379416235
O  O29  1  0.92739000  0.14491000  0.26359000  1.0 -0.5379416235
O  O30  1  0.14491000  0.26359000  0.92739000  1.0 -0.5379416235
O  O31  1  0.65416000  0.04361000  0.77143000  1.0 -0.51888618
O  O32  1  0.04361000  0.77143000  0.65416000  1.0 -0.51888618
O  O33  1  0.77143000  0.65416000  0.04361000  1.0 -0.51888618
O  O34  1  0.34584000  0.95639000  0.22857000  1.0 -0.51888618
O  O35  1  0.95639000  0.22857000  0.34584000  1.0 -0.51888618
O  O36  1  0.22857000  0.34584000  0.95639000  1.0 -0.51888618
O  O37  1  0.53839000  0.18161000  0.76030000  1.0 -0.5506866529
O  O38  1  0.18161000  0.76030000  0.53839000  1.0 -0.5506866529
O  O39  1  0.76030000  0.53839000  0.18161000  1.0 -0.5506866529
O  O40  1  0.46161000  0.81839000  0.23970000  1.0 -0.5506866529
O  O41  1  0.81839000  0.23970000  0.46161000  1.0 -0.5506866529
O  O42  1  0.23970000  0.46161000  0.81839000  1.0 -0.5506866529
O  O43  1  0.56912000  0.26615000  0.84183000  1.0 -0.4817326155
O  O44  1  0.26615000  0.84183000  0.56912000  1.0 -0.4817326155
O  O45  1  0.84183000  0.56912000  0.26615000  1.0 -0.4817326155
O  O46  1  0.43088000  0.73385000  0.15817000  1.0 -0.4817326155
O  O47  1  0.73385000  0.15817000  0.43088000  1.0 -0.4817326155
O  O48  1  0.15817000  0.43088000  0.73385000  1.0 -0.4817326155
O  O49  1  0.67218000  0.42443000  0.24577000  1.0 -0.5667703536
O  O50  1  0.42443000  0.24577000  0.67218000  1.0 -0.5667703536
O  O51  1  0.24577000  0.67218000  0.42443000  1.0 -0.5667703536
O  O52  1  0.32782000  0.57557000  0.75423000  1.0 -0.5667703536
O  O53  1  0.57557000  0.75423000  0.32782000  1.0 -0.5667703536
O  O54  1  0.75423000  0.32782000  0.57557000  1.0 -0.5667703536
O  O55  1  0.75509000  0.45068000  0.33173000  1.0 -0.5321110052
O  O56  1  0.45068000  0.33173000  0.75509000  1.0 -0.5321110052
O  O57  1  0.33173000  0.75509000  0.45068000  1.0 -0.5321110052
O  O58  1  0.24491000  0.54932000  0.66827000  1.0 -0.5321110052
O  O59  1  0.54932000  0.66827000  0.24491000  1.0 -0.5321110052
O  O60  1  0.66827000  0.24491000  0.54932000  1.0 -0.5321110052
O  O61  1  0.75308000  0.31970000  0.45632000  1.0 -0.5321110052
O  O62  1  0.31970000  0.45632000  0.75308000  1.0 -0.5321110052
O  O63  1  0.45632000  0.75308000  0.31970000  1.0 -0.5321110052
O  O64  1  0.24692000  0.68030000  0.54368000  1.0 -0.5321110052
O  O65  1  0.68030000  0.54368000  0.24692000  1.0 -0.5321110052
O  O66  1  0.54368000  0.24692000  0.68030000  1.0 -0.5321110052
O  O67  1  0.66724000  0.24086000  0.42900000  1.0 -0.51888618
O  O68  1  0.24086000  0.42900000  0.66724000  1.0 -0.51888618
O  O69  1  0.42900000  0.66724000  0.24086000  1.0 -0.51888618
O  O70  1  0.33276000  0.75914000  0.57100000  1.0 -0.51888618
O  O71  1  0.75914000  0.57100000  0.33276000  1.0 -0.51888618
O  O72  1  0.57100000  0.33276000  0.75914000  1.0 -0.51888618
O  O73  1  0.30952000  0.27706000  0.07132000  1.0 -0.51888618
O  O74  1  0.27706000  0.07132000  0.30952000  1.0 -0.51888618
O  O75  1  0.07132000  0.30952000  0.27706000  1.0 -0.51888618
O  O76  1  0.69048000  0.72294000  0.92868000  1.0 -0.51888618
O  O77  1  0.72294000  0.92868000  0.69048000  1.0 -0.51888618
O  O78  1  0.92868000  0.69048000  0.72294000  1.0 -0.51888618
O  O79  1  0.22996000  0.18995000  0.03819000  1.0 -0.5506866529
O  O80  1  0.18995000  0.03819000  0.22996000  1.0 -0.5506866529
O  O81  1  0.03819000  0.22996000  0.18995000  1.0 -0.5506866529
O  O82  1  0.77004000  0.81005000  0.96181000  1.0 -0.5506866529
O  O83  1  0.81005000  0.96181000  0.77004000  1.0 -0.5506866529
O  O84  1  0.96181000  0.77004000  0.81005000  1.0 -0.5506866529
O  O85  1  0.25101000  0.04339000  0.14750000  1.0 -0.5044152128
O  O86  1  0.04339000  0.14750000  0.25101000  1.0 -0.5044152128
O  O87  1  0.14750000  0.25101000  0.04339000  1.0 -0.5067999052
O  O88  1  0.74899000  0.95661000  0.85250000  1.0 -0.5044152128
O  O89  1  0.95661000  0.85250000  0.74899000  1.0 -0.5067999052
O  O90  1  0.85250000  0.74899000  0.95661000  1.0 -0.5044152128
O  O91  1  0.33913000  0.07292000  0.22725000  1.0 -0.5321110052
O  O92  1  0.07292000  0.22725000  0.33913000  1.0 -0.5321110052
O  O93  1  0.22725000  0.33913000  0.07292000  1.0 -0.5321110052
O  O94  1  0.66087000  0.92708000  0.77275000  1.0 -0.5321110052
O  O95  1  0.92708000  0.77275000  0.66087000  1.0 -0.5321110052
O  O96  1  0.77275000  0.66087000  0.92708000  1.0 -0.5321110052
