# DDEC6 charges by PACMAN v1.1 (https://github.com/mtap-research/PACMAN-charge/)
data_DAPXID_FSR_pacman
_symmetry_space_group_name_H-M   'P 1'
_cell_length_a   36.35100000
_cell_length_b   36.35100000
_cell_length_c   14.94300000
_cell_angle_alpha   90.00000000
_cell_angle_beta   90.00000000
_cell_angle_gamma   90.00000000
_symmetry_Int_Tables_number   1
_chemical_formula_structural   Na8Mn4Cu10H24C60(N4O21)3
_chemical_formula_sum   'Na32 Mn16 Cu40 H96 C240 N48 O252'
_cell_volume   19745.60848854
_cell_formula_units_Z   4
loop_
 _symmetry_equiv_pos_site_id
 _symmetry_equiv_pos_as_xyz
  1  'x, y, z'
loop_
 _atom_site_type_symbol
 _atom_site_label
 _atom_site_symmetry_multiplicity
 _atom_site_fract_x
 _atom_site_fract_y
 _atom_site_fract_z
 _atom_site_occupancy
 _atom_site_charge
Na  Na1  1  0.16348000  0.29973000  0.00000000  1.0 0.8054710805
Na  Na2  1  0.33652000  0.79973000  0.50000000  1.0 0.8054710805
Na  Na3  1  0.83652000  0.70027000  0.00000000  1.0 0.8054710805
Na  Na4  1  0.66348000  0.20027000  0.50000000  1.0 0.8054710805
Na  Na5  1  0.29973000  0.16348000  0.00000000  1.0 0.8054710805
Na  Na6  1  0.20027000  0.66348000  0.50000000  1.0 0.8054710805
Na  Na7  1  0.79973000  0.33652000  0.50000000  1.0 0.8054710805
Na  Na8  1  0.70027000  0.83652000  0.00000000  1.0 0.8054710805
Na  Na9  1  0.24174000  0.24174000  0.07140000  1.0 0.6661608845
Na  Na10  1  0.25826000  0.74174000  0.42860000  1.0 0.6637586286
Na  Na11  1  0.75826000  0.75826000  0.07140000  1.0 0.6661608845
Na  Na12  1  0.74174000  0.25826000  0.42860000  1.0 0.6637586286
Na  Na13  1  0.24174000  0.24174000  0.92860000  1.0 0.6637586286
Na  Na14  1  0.25826000  0.74174000  0.57140000  1.0 0.6637586286
Na  Na15  1  0.74174000  0.25826000  0.57140000  1.0 0.6637586286
Na  Na16  1  0.75826000  0.75826000  0.92860000  1.0 0.6637586286
Na  Na17  1  0.12480000  0.46720000  0.93770000  1.0 0.5037493736
Na  Na18  1  0.37520000  0.96720000  0.56230000  1.0 0.5073583318
Na  Na19  1  0.87520000  0.53280000  0.93770000  1.0 0.5037493736
Na  Na20  1  0.62480000  0.03280000  0.56230000  1.0 0.5073583318
Na  Na21  1  0.46720000  0.12480000  0.06230000  1.0 0.5073583318
Na  Na22  1  0.03280000  0.62480000  0.43770000  1.0 0.5073583318
Na  Na23  1  0.96720000  0.37520000  0.43770000  1.0 0.5073583318
Na  Na24  1  0.53280000  0.87520000  0.06230000  1.0 0.5073583318
Na  Na25  1  0.87520000  0.53280000  0.06230000  1.0 0.5073583318
Na  Na26  1  0.62480000  0.03280000  0.43770000  1.0 0.5073583318
Na  Na27  1  0.12480000  0.46720000  0.06230000  1.0 0.5037493736
Na  Na28  1  0.37520000  0.96720000  0.43770000  1.0 0.5073583318
Na  Na29  1  0.53280000  0.87520000  0.93770000  1.0 0.5037493736
Na  Na30  1  0.96720000  0.37520000  0.56230000  1.0 0.5073583318
Na  Na31  1  0.03280000  0.62480000  0.56230000  1.0 0.5073583318
Na  Na32  1  0.46720000  0.12480000  0.93770000  1.0 0.5037493736
Mn  Mn1  1  0.11688000  0.32614000  0.25393000  1.0 0.9787153706
Mn  Mn2  1  0.38312000  0.82614000  0.24607000  1.0 0.9787153706
Mn  Mn3  1  0.88312000  0.67386000  0.25393000  1.0 0.9787153706
Mn  Mn4  1  0.61688000  0.17386000  0.24607000  1.0 0.9787153706
Mn  Mn5  1  0.32614000  0.11688000  0.74607000  1.0 0.9787153706
Mn  Mn6  1  0.17386000  0.61688000  0.75393000  1.0 0.9787153706
Mn  Mn7  1  0.82614000  0.38312000  0.75393000  1.0 0.9787153706
Mn  Mn8  1  0.67386000  0.88312000  0.74607000  1.0 0.9787153706
Mn  Mn9  1  0.88312000  0.67386000  0.74607000  1.0 0.9787153706
Mn  Mn10  1  0.61688000  0.17386000  0.75393000  1.0 0.9787153706
Mn  Mn11  1  0.11688000  0.32614000  0.74607000  1.0 0.9787153706
Mn  Mn12  1  0.38312000  0.82614000  0.75393000  1.0 0.9787153706
Mn  Mn13  1  0.67386000  0.88312000  0.25393000  1.0 0.9787153706
Mn  Mn14  1  0.82614000  0.38312000  0.24607000  1.0 0.9787153706
Mn  Mn15  1  0.17386000  0.61688000  0.24607000  1.0 0.9787153706
Mn  Mn16  1  0.32614000  0.11688000  0.25393000  1.0 0.9787153706
Cu  Cu1  1  0.96779000  0.33538000  0.23322000  1.0 0.4419562936
Cu  Cu2  1  0.53221000  0.83538000  0.26678000  1.0 0.4419562936
Cu  Cu3  1  0.03221000  0.66462000  0.23322000  1.0 0.4451106518
Cu  Cu4  1  0.46779000  0.16462000  0.26678000  1.0 0.4419562936
Cu  Cu5  1  0.33538000  0.96779000  0.76678000  1.0 0.4451106518
Cu  Cu6  1  0.16462000  0.46779000  0.73322000  1.0 0.4451106518
Cu  Cu7  1  0.83538000  0.53221000  0.73322000  1.0 0.4419562936
Cu  Cu8  1  0.66462000  0.03221000  0.76678000  1.0 0.4419562936
Cu  Cu9  1  0.03221000  0.66462000  0.76678000  1.0 0.4451106518
Cu  Cu10  1  0.46779000  0.16462000  0.73322000  1.0 0.4419562936
Cu  Cu11  1  0.96779000  0.33538000  0.76678000  1.0 0.4419562936
Cu  Cu12  1  0.53221000  0.83538000  0.73322000  1.0 0.4451106518
Cu  Cu13  1  0.66462000  0.03221000  0.23322000  1.0 0.4419562936
Cu  Cu14  1  0.83538000  0.53221000  0.26678000  1.0 0.4419562936
Cu  Cu15  1  0.16462000  0.46779000  0.26678000  1.0 0.4419562936
Cu  Cu16  1  0.33538000  0.96779000  0.23322000  1.0 0.4451106518
Cu  Cu17  1  0.20803000  0.20803000  0.26671000  1.0 0.6321510504
Cu  Cu18  1  0.29197000  0.70803000  0.23329000  1.0 0.6321510504
Cu  Cu19  1  0.79197000  0.79197000  0.26671000  1.0 0.6357764929
Cu  Cu20  1  0.70803000  0.29197000  0.23329000  1.0 0.6321510504
Cu  Cu21  1  0.20803000  0.20803000  0.73329000  1.0 0.6321510504
Cu  Cu22  1  0.29197000  0.70803000  0.76671000  1.0 0.6321510504
Cu  Cu23  1  0.70803000  0.29197000  0.76671000  1.0 0.6321510504
Cu  Cu24  1  0.79197000  0.79197000  0.73329000  1.0 0.6357764929
Cu  Cu25  1  0.96478000  0.31597000  0.23140000  1.0 0.3814951062
Cu  Cu26  1  0.53522000  0.81597000  0.26860000  1.0 0.3814951062
Cu  Cu27  1  0.03522000  0.68403000  0.23140000  1.0 0.3814951062
Cu  Cu28  1  0.46478000  0.18403000  0.26860000  1.0 0.3814951062
Cu  Cu29  1  0.31597000  0.96478000  0.76860000  1.0 0.3814951062
Cu  Cu30  1  0.18403000  0.46478000  0.73140000  1.0 0.3814951062
Cu  Cu31  1  0.81597000  0.53522000  0.73140000  1.0 0.3814951062
Cu  Cu32  1  0.68403000  0.03522000  0.76860000  1.0 0.3814951062
Cu  Cu33  1  0.03522000  0.68403000  0.76860000  1.0 0.3814951062
Cu  Cu34  1  0.46478000  0.18403000  0.73140000  1.0 0.3814951062
Cu  Cu35  1  0.96478000  0.31597000  0.76860000  1.0 0.3814951062
Cu  Cu36  1  0.53522000  0.81597000  0.73140000  1.0 0.3814951062
Cu  Cu37  1  0.68403000  0.03522000  0.23140000  1.0 0.3814951062
Cu  Cu38  1  0.81597000  0.53522000  0.26860000  1.0 0.3814951062
Cu  Cu39  1  0.18403000  0.46478000  0.26860000  1.0 0.3814951062
Cu  Cu40  1  0.31597000  0.96478000  0.23140000  1.0 0.3814951062
H  H1  1  0.00890000  0.24010000  0.13540000  1.0 0.1386079964
H  H2  1  0.49110000  0.74010000  0.36460000  1.0 0.1386079964
H  H3  1  0.99110000  0.75990000  0.13540000  1.0 0.1386079964
H  H4  1  0.50890000  0.25990000  0.36460000  1.0 0.1386079964
H  H5  1  0.24010000  0.00890000  0.86460000  1.0 0.1386079964
H  H6  1  0.25990000  0.50890000  0.63540000  1.0 0.1386079964
H  H7  1  0.74010000  0.49110000  0.63540000  1.0 0.1386079964
H  H8  1  0.75990000  0.99110000  0.86460000  1.0 0.1386079964
H  H9  1  0.99110000  0.75990000  0.86460000  1.0 0.1386079964
H  H10  1  0.50890000  0.25990000  0.63540000  1.0 0.1386079964
H  H11  1  0.00890000  0.24010000  0.86460000  1.0 0.1386079964
H  H12  1  0.49110000  0.74010000  0.63540000  1.0 0.1386079964
H  H13  1  0.75990000  0.99110000  0.13540000  1.0 0.1386079964
H  H14  1  0.74010000  0.49110000  0.36460000  1.0 0.1386079964
H  H15  1  0.25990000  0.50890000  0.36460000  1.0 0.1386079964
H  H16  1  0.24010000  0.00890000  0.13540000  1.0 0.1386079964
H  H17  1  0.00980000  0.20870000  0.00000000  1.0 0.1023687489
H  H18  1  0.49020000  0.70870000  0.50000000  1.0 0.1023687489
H  H19  1  0.99020000  0.79130000  0.00000000  1.0 0.1023687489
H  H20  1  0.50980000  0.29130000  0.50000000  1.0 0.1023687489
H  H21  1  0.20870000  0.00980000  0.00000000  1.0 0.1023687489
H  H22  1  0.29130000  0.50980000  0.50000000  1.0 0.1023687489
H  H23  1  0.70870000  0.49020000  0.50000000  1.0 0.1023687489
H  H24  1  0.79130000  0.99020000  0.00000000  1.0 0.1023687489
H  H25  1  0.00690000  0.33550000  0.00000000  1.0 0.1514765402
H  H26  1  0.49310000  0.83550000  0.50000000  1.0 0.1514765402
H  H27  1  0.99310000  0.66450000  0.00000000  1.0 0.1514765402
H  H28  1  0.50690000  0.16450000  0.50000000  1.0 0.1514765402
H  H29  1  0.33550000  0.00690000  0.00000000  1.0 0.1514765402
H  H30  1  0.16450000  0.50690000  0.50000000  1.0 0.1514765402
H  H31  1  0.83550000  0.49310000  0.50000000  1.0 0.1514765402
H  H32  1  0.66450000  0.99310000  0.00000000  1.0 0.1514765402
H  H33  1  0.11190000  0.18380000  0.36580000  1.0 0.1386079964
H  H34  1  0.38810000  0.68380000  0.13420000  1.0 0.1386079964
H  H35  1  0.88810000  0.81620000  0.36580000  1.0 0.1386079964
H  H36  1  0.61190000  0.31620000  0.13420000  1.0 0.1386079964
H  H37  1  0.18380000  0.11190000  0.63420000  1.0 0.1386079964
H  H38  1  0.31620000  0.61190000  0.86580000  1.0 0.1386079964
H  H39  1  0.68380000  0.38810000  0.86580000  1.0 0.1386079964
H  H40  1  0.81620000  0.88810000  0.63420000  1.0 0.1386079964
H  H41  1  0.88810000  0.81620000  0.63420000  1.0 0.1386079964
H  H42  1  0.61190000  0.31620000  0.86580000  1.0 0.1386079964
H  H43  1  0.11190000  0.18380000  0.63420000  1.0 0.1386079964
H  H44  1  0.38810000  0.68380000  0.86580000  1.0 0.1386079964
H  H45  1  0.81620000  0.88810000  0.36580000  1.0 0.1386079964
H  H46  1  0.68380000  0.38810000  0.13420000  1.0 0.1386079964
H  H47  1  0.31620000  0.61190000  0.13420000  1.0 0.1386079964
H  H48  1  0.18380000  0.11190000  0.36580000  1.0 0.1386079964
H  H49  1  0.08580000  0.16630000  0.50000000  1.0 0.1119022325
H  H50  1  0.41420000  0.66630000  0.00000000  1.0 0.1119022325
H  H51  1  0.91420000  0.83370000  0.50000000  1.0 0.1119022325
H  H52  1  0.58580000  0.33370000  0.00000000  1.0 0.1119022325
H  H53  1  0.16630000  0.08580000  0.50000000  1.0 0.1119022325
H  H54  1  0.33370000  0.58580000  0.00000000  1.0 0.1119022325
H  H55  1  0.66630000  0.41420000  0.00000000  1.0 0.1119022325
H  H56  1  0.83370000  0.91420000  0.50000000  1.0 0.1119022325
H  H57  1  0.18540000  0.24490000  0.50000000  1.0 0.1514765402
H  H58  1  0.31460000  0.74490000  0.00000000  1.0 0.1514765402
H  H59  1  0.81460000  0.75510000  0.50000000  1.0 0.1514765402
H  H60  1  0.68540000  0.25510000  0.00000000  1.0 0.1514765402
H  H61  1  0.24490000  0.18540000  0.50000000  1.0 0.1514765402
H  H62  1  0.25510000  0.68540000  0.00000000  1.0 0.1514765402
H  H63  1  0.74490000  0.31460000  0.00000000  1.0 0.1514765402
H  H64  1  0.75510000  0.81460000  0.50000000  1.0 0.1514765402
H  H65  1  0.24190000  0.41170000  0.36480000  1.0 0.1386079964
H  H66  1  0.25810000  0.91170000  0.13520000  1.0 0.1386079964
H  H67  1  0.75810000  0.58830000  0.36480000  1.0 0.1386079964
H  H68  1  0.74190000  0.08830000  0.13520000  1.0 0.1386079964
H  H69  1  0.41170000  0.24190000  0.63520000  1.0 0.1386079964
H  H70  1  0.08830000  0.74190000  0.86480000  1.0 0.1386079964
H  H71  1  0.91170000  0.25810000  0.86480000  1.0 0.1386079964
H  H72  1  0.58830000  0.75810000  0.63520000  1.0 0.1386079964
H  H73  1  0.75810000  0.58830000  0.63520000  1.0 0.1386079964
H  H74  1  0.74190000  0.08830000  0.86480000  1.0 0.1386079964
H  H75  1  0.24190000  0.41170000  0.63520000  1.0 0.1386079964
H  H76  1  0.25810000  0.91170000  0.86480000  1.0 0.1386079964
H  H77  1  0.58830000  0.75810000  0.36480000  1.0 0.1386079964
H  H78  1  0.91170000  0.25810000  0.13520000  1.0 0.1386079964
H  H79  1  0.08830000  0.74190000  0.13520000  1.0 0.1386079964
H  H80  1  0.41170000  0.24190000  0.36480000  1.0 0.1386079964
H  H81  1  0.27240000  0.41050000  0.50000000  1.0 0.1162839143
H  H82  1  0.22760000  0.91050000  0.00000000  1.0 0.1162839143
H  H83  1  0.72760000  0.58950000  0.50000000  1.0 0.1162839143
H  H84  1  0.77240000  0.08950000  0.00000000  1.0 0.1162839143
H  H85  1  0.41050000  0.27240000  0.50000000  1.0 0.1162839143
H  H86  1  0.08950000  0.77240000  0.00000000  1.0 0.1162839143
H  H87  1  0.91050000  0.22760000  0.00000000  1.0 0.1162839143
H  H88  1  0.58950000  0.72760000  0.50000000  1.0 0.1162839143
H  H89  1  0.14710000  0.42160000  0.50000000  1.0 0.1590275794
H  H90  1  0.35290000  0.92160000  0.00000000  1.0 0.1590275794
H  H91  1  0.85290000  0.57840000  0.50000000  1.0 0.1590275794
H  H92  1  0.64710000  0.07840000  0.00000000  1.0 0.1590275794
H  H93  1  0.42160000  0.14710000  0.50000000  1.0 0.1590275794
H  H94  1  0.07840000  0.64710000  0.00000000  1.0 0.1590275794
H  H95  1  0.92160000  0.35290000  0.00000000  1.0 0.1590275794
H  H96  1  0.57840000  0.85290000  0.50000000  1.0 0.1590275794
C  C1  1  0.03848000  0.33725000  0.28940000  1.0 0.4681422933
C  C2  1  0.46152000  0.83725000  0.21060000  1.0 0.4681422933
C  C3  1  0.96152000  0.66275000  0.28940000  1.0 0.4681422933
C  C4  1  0.53848000  0.16275000  0.21060000  1.0 0.4681422933
C  C5  1  0.33725000  0.03848000  0.71060000  1.0 0.4681422933
C  C6  1  0.16275000  0.53848000  0.78940000  1.0 0.4681422933
C  C7  1  0.83725000  0.46152000  0.78940000  1.0 0.4681422933
C  C8  1  0.66275000  0.96152000  0.71060000  1.0 0.4681422933
C  C9  1  0.96152000  0.66275000  0.71060000  1.0 0.4681422933
C  C10  1  0.53848000  0.16275000  0.78940000  1.0 0.4681422933
C  C11  1  0.03848000  0.33725000  0.71060000  1.0 0.4681422933
C  C12  1  0.46152000  0.83725000  0.78940000  1.0 0.4681422933
C  C13  1  0.66275000  0.96152000  0.28940000  1.0 0.4681422933
C  C14  1  0.83725000  0.46152000  0.21060000  1.0 0.4681422933
C  C15  1  0.16275000  0.53848000  0.21060000  1.0 0.4681422933
C  C16  1  0.33725000  0.03848000  0.28940000  1.0 0.4681422933
C  C17  1  0.03992000  0.31588000  0.20060000  1.0 0.344582529
C  C18  1  0.46008000  0.81588000  0.29940000  1.0 0.344582529
C  C19  1  0.96008000  0.68412000  0.20060000  1.0 0.344582529
C  C20  1  0.53992000  0.18412000  0.29940000  1.0 0.344582529
C  C21  1  0.31588000  0.03992000  0.79940000  1.0 0.344582529
C  C22  1  0.18412000  0.53992000  0.70060000  1.0 0.344582529
C  C23  1  0.81588000  0.46008000  0.70060000  1.0 0.344582529
C  C24  1  0.68412000  0.96008000  0.79940000  1.0 0.344582529
C  C25  1  0.96008000  0.68412000  0.79940000  1.0 0.344582529
C  C26  1  0.53992000  0.18412000  0.70060000  1.0 0.344582529
C  C27  1  0.03992000  0.31588000  0.79940000  1.0 0.344582529
C  C28  1  0.46008000  0.81588000  0.70060000  1.0 0.344582529
C  C29  1  0.68412000  0.96008000  0.20060000  1.0 0.344582529
C  C30  1  0.81588000  0.46008000  0.29940000  1.0 0.344582529
C  C31  1  0.18412000  0.53992000  0.29940000  1.0 0.344582529
C  C32  1  0.31588000  0.03992000  0.20060000  1.0 0.344582529
C  C33  1  0.00775000  0.29072000  0.08000000  1.0 0.1933506682
C  C34  1  0.49225000  0.79072000  0.42000000  1.0 0.1933506682
C  C35  1  0.99225000  0.70928000  0.08000000  1.0 0.1933506682
C  C36  1  0.50775000  0.20928000  0.42000000  1.0 0.1933506682
C  C37  1  0.29072000  0.00775000  0.92000000  1.0 0.1933506682
C  C38  1  0.20928000  0.50775000  0.58000000  1.0 0.1933506682
C  C39  1  0.79072000  0.49225000  0.58000000  1.0 0.1933506682
C  C40  1  0.70928000  0.99225000  0.92000000  1.0 0.1933506682
C  C41  1  0.99225000  0.70928000  0.92000000  1.0 0.1933506682
C  C42  1  0.50775000  0.20928000  0.58000000  1.0 0.1933506682
C  C43  1  0.00775000  0.29072000  0.92000000  1.0 0.1933506682
C  C44  1  0.49225000  0.79072000  0.58000000  1.0 0.1933506682
C  C45  1  0.70928000  0.99225000  0.08000000  1.0 0.1933506682
C  C46  1  0.79072000  0.49225000  0.42000000  1.0 0.1933506682
C  C47  1  0.20928000  0.50775000  0.42000000  1.0 0.1933506682
C  C48  1  0.29072000  0.00775000  0.08000000  1.0 0.1933506682
C  C49  1  0.00862000  0.25290000  0.08150000  1.0 -0.1880801492
C  C50  1  0.49138000  0.75290000  0.41850000  1.0 -0.1880801492
C  C51  1  0.99138000  0.74710000  0.08150000  1.0 -0.1880801492
C  C52  1  0.50862000  0.24710000  0.41850000  1.0 -0.1880801492
C  C53  1  0.25290000  0.00862000  0.91850000  1.0 -0.1880801492
C  C54  1  0.24710000  0.50862000  0.58150000  1.0 -0.1880801492
C  C55  1  0.75290000  0.49138000  0.58150000  1.0 -0.1880801492
C  C56  1  0.74710000  0.99138000  0.91850000  1.0 -0.1880801492
C  C57  1  0.99138000  0.74710000  0.91850000  1.0 -0.1880801492
C  C58  1  0.50862000  0.24710000  0.58150000  1.0 -0.1880801492
C  C59  1  0.00862000  0.25290000  0.91850000  1.0 -0.1880801492
C  C60  1  0.49138000  0.75290000  0.58150000  1.0 -0.1880801492
C  C61  1  0.74710000  0.99138000  0.08150000  1.0 -0.1880801492
C  C62  1  0.75290000  0.49138000  0.41850000  1.0 -0.1880801492
C  C63  1  0.24710000  0.50862000  0.41850000  1.0 -0.1880801492
C  C64  1  0.25290000  0.00862000  0.08150000  1.0 -0.1880801492
C  C65  1  0.00910000  0.23429000  0.00000000  1.0 -0.0664776068
C  C66  1  0.49090000  0.73429000  0.50000000  1.0 -0.0664776068
C  C67  1  0.99090000  0.76571000  0.00000000  1.0 -0.0664776068
C  C68  1  0.50910000  0.26571000  0.50000000  1.0 -0.0664776068
C  C69  1  0.23429000  0.00910000  0.00000000  1.0 -0.0664776068
C  C70  1  0.26571000  0.50910000  0.50000000  1.0 -0.0664776068
C  C71  1  0.73429000  0.49090000  0.50000000  1.0 -0.0664776068
C  C72  1  0.76571000  0.99090000  0.00000000  1.0 -0.0664776068
C  C73  1  0.00736000  0.30995000  0.00000000  1.0 -0.262065728
C  C74  1  0.49264000  0.80995000  0.50000000  1.0 -0.262065728
C  C75  1  0.99264000  0.69005000  0.00000000  1.0 -0.262065728
C  C76  1  0.50736000  0.19005000  0.50000000  1.0 -0.262065728
C  C77  1  0.30995000  0.00736000  0.00000000  1.0 -0.262065728
C  C78  1  0.19005000  0.50736000  0.50000000  1.0 -0.262065728
C  C79  1  0.80995000  0.49264000  0.50000000  1.0 -0.262065728
C  C80  1  0.69005000  0.99264000  0.00000000  1.0 -0.262065728
C  C81  1  0.17037000  0.26896000  0.21260000  1.0 0.4681422933
C  C82  1  0.32963000  0.76896000  0.28740000  1.0 0.4681422933
C  C83  1  0.82963000  0.73104000  0.21260000  1.0 0.4681422933
C  C84  1  0.67037000  0.23104000  0.28740000  1.0 0.4681422933
C  C85  1  0.26896000  0.17037000  0.78740000  1.0 0.4681422933
C  C86  1  0.23104000  0.67037000  0.71260000  1.0 0.4681422933
C  C87  1  0.76896000  0.32963000  0.71260000  1.0 0.4681422933
C  C88  1  0.73104000  0.82963000  0.78740000  1.0 0.4681422933
C  C89  1  0.82963000  0.73104000  0.78740000  1.0 0.4681422933
C  C90  1  0.67037000  0.23104000  0.71260000  1.0 0.4681422933
C  C91  1  0.17037000  0.26896000  0.78740000  1.0 0.4681422933
C  C92  1  0.32963000  0.76896000  0.71260000  1.0 0.4681422933
C  C93  1  0.73104000  0.82963000  0.21260000  1.0 0.4681422933
C  C94  1  0.76896000  0.32963000  0.28740000  1.0 0.4681422933
C  C95  1  0.23104000  0.67037000  0.28740000  1.0 0.4681422933
C  C96  1  0.26896000  0.17037000  0.21260000  1.0 0.4681422933
C  C97  1  0.15298000  0.25802000  0.30230000  1.0 0.3688086897
C  C98  1  0.34702000  0.75802000  0.19770000  1.0 0.3688086897
C  C99  1  0.84702000  0.74198000  0.30230000  1.0 0.3688086897
C  C100  1  0.65298000  0.24198000  0.19770000  1.0 0.3688086897
C  C101  1  0.25802000  0.15298000  0.69770000  1.0 0.3688086897
C  C102  1  0.24198000  0.65298000  0.80230000  1.0 0.3688086897
C  C103  1  0.75802000  0.34702000  0.80230000  1.0 0.3688086897
C  C104  1  0.74198000  0.84702000  0.69770000  1.0 0.3688086897
C  C105  1  0.84702000  0.74198000  0.69770000  1.0 0.3688086897
C  C106  1  0.65298000  0.24198000  0.80230000  1.0 0.3688086897
C  C107  1  0.15298000  0.25802000  0.69770000  1.0 0.3688086897
C  C108  1  0.34702000  0.75802000  0.80230000  1.0 0.3688086897
C  C109  1  0.74198000  0.84702000  0.30230000  1.0 0.3688086897
C  C110  1  0.75802000  0.34702000  0.19770000  1.0 0.3688086897
C  C111  1  0.24198000  0.65298000  0.19770000  1.0 0.3688086897
C  C112  1  0.25802000  0.15298000  0.30230000  1.0 0.3688086897
C  C113  1  0.15085000  0.21607000  0.41980000  1.0 0.2319953322
C  C114  1  0.34915000  0.71607000  0.08020000  1.0 0.2319953322
C  C115  1  0.84915000  0.78393000  0.41980000  1.0 0.2319953322
C  C116  1  0.65085000  0.28393000  0.08020000  1.0 0.2319953322
C  C117  1  0.21607000  0.15085000  0.58020000  1.0 0.2319953322
C  C118  1  0.28393000  0.65085000  0.91980000  1.0 0.2319953322
C  C119  1  0.71607000  0.34915000  0.91980000  1.0 0.2319953322
C  C120  1  0.78393000  0.84915000  0.58020000  1.0 0.2319953322
C  C121  1  0.84915000  0.78393000  0.58020000  1.0 0.2319953322
C  C122  1  0.65085000  0.28393000  0.91980000  1.0 0.2319953322
C  C123  1  0.15085000  0.21607000  0.58020000  1.0 0.2319953322
C  C124  1  0.34915000  0.71607000  0.91980000  1.0 0.2319953322
C  C125  1  0.78393000  0.84915000  0.41980000  1.0 0.2319953322
C  C126  1  0.71607000  0.34915000  0.08020000  1.0 0.2319953322
C  C127  1  0.28393000  0.65085000  0.08020000  1.0 0.2319953322
C  C128  1  0.21607000  0.15085000  0.41980000  1.0 0.2319953322
C  C129  1  0.12150000  0.19236000  0.41950000  1.0 -0.1880801492
C  C130  1  0.37850000  0.69236000  0.08050000  1.0 -0.1880801492
C  C131  1  0.87850000  0.80764000  0.41950000  1.0 -0.1880801492
C  C132  1  0.62150000  0.30764000  0.08050000  1.0 -0.1880801492
C  C133  1  0.19236000  0.12150000  0.58050000  1.0 -0.1880801492
C  C134  1  0.30764000  0.62150000  0.91950000  1.0 -0.1880801492
C  C135  1  0.69236000  0.37850000  0.91950000  1.0 -0.1880801492
C  C136  1  0.80764000  0.87850000  0.58050000  1.0 -0.1880801492
C  C137  1  0.87850000  0.80764000  0.58050000  1.0 -0.1880801492
C  C138  1  0.62150000  0.30764000  0.91950000  1.0 -0.1880801492
C  C139  1  0.12150000  0.19236000  0.58050000  1.0 -0.1880801492
C  C140  1  0.37850000  0.69236000  0.91950000  1.0 -0.1880801492
C  C141  1  0.80764000  0.87850000  0.41950000  1.0 -0.1880801492
C  C142  1  0.69236000  0.37850000  0.08050000  1.0 -0.1880801492
C  C143  1  0.30764000  0.62150000  0.08050000  1.0 -0.1880801492
C  C144  1  0.19236000  0.12150000  0.41950000  1.0 -0.1880801492
C  C145  1  0.10650000  0.18140000  0.50000000  1.0 -0.0664776068
C  C146  1  0.39350000  0.68140000  0.00000000  1.0 -0.0664776068
C  C147  1  0.89350000  0.81860000  0.50000000  1.0 -0.0664776068
C  C148  1  0.60650000  0.31860000  0.00000000  1.0 -0.0664776068
C  C149  1  0.18140000  0.10650000  0.50000000  1.0 -0.0664776068
C  C150  1  0.31860000  0.60650000  0.00000000  1.0 -0.0664776068
C  C151  1  0.68140000  0.39350000  0.00000000  1.0 -0.0664776068
C  C152  1  0.81860000  0.89350000  0.50000000  1.0 -0.0664776068
C  C153  1  0.16579000  0.22854000  0.50000000  1.0 -0.2288437817
C  C154  1  0.33421000  0.72854000  0.00000000  1.0 -0.2288437817
C  C155  1  0.83421000  0.77146000  0.50000000  1.0 -0.2288437817
C  C156  1  0.66579000  0.27146000  0.00000000  1.0 -0.2288437817
C  C157  1  0.22854000  0.16579000  0.50000000  1.0 -0.2288437817
C  C158  1  0.27146000  0.66579000  0.00000000  1.0 -0.2288437817
C  C159  1  0.72854000  0.33421000  0.00000000  1.0 -0.2288437817
C  C160  1  0.77146000  0.83421000  0.50000000  1.0 -0.2288437817
C  C161  1  0.13430000  0.40266000  0.21490000  1.0 0.4681422933
C  C162  1  0.36570000  0.90266000  0.28510000  1.0 0.4681422933
C  C163  1  0.86570000  0.59734000  0.21490000  1.0 0.4681422933
C  C164  1  0.63430000  0.09734000  0.28510000  1.0 0.4681422933
C  C165  1  0.40266000  0.13430000  0.78510000  1.0 0.4681422933
C  C166  1  0.09734000  0.63430000  0.71490000  1.0 0.4681422933
C  C167  1  0.90266000  0.36570000  0.71490000  1.0 0.4681422933
C  C168  1  0.59734000  0.86570000  0.78510000  1.0 0.4681422933
C  C169  1  0.86570000  0.59734000  0.78510000  1.0 0.4681422933
C  C170  1  0.63430000  0.09734000  0.71490000  1.0 0.4681422933
C  C171  1  0.13430000  0.40266000  0.78510000  1.0 0.4681422933
C  C172  1  0.36570000  0.90266000  0.71490000  1.0 0.4681422933
C  C173  1  0.59734000  0.86570000  0.21490000  1.0 0.4681422933
C  C174  1  0.90266000  0.36570000  0.28510000  1.0 0.4681422933
C  C175  1  0.09734000  0.63430000  0.28510000  1.0 0.4681422933
C  C176  1  0.40266000  0.13430000  0.21490000  1.0 0.4681422933
C  C177  1  0.15451000  0.39408000  0.30280000  1.0 0.352469097
C  C178  1  0.34549000  0.89408000  0.19720000  1.0 0.352469097
C  C179  1  0.84549000  0.60592000  0.30280000  1.0 0.352469097
C  C180  1  0.65451000  0.10592000  0.19720000  1.0 0.352469097
C  C181  1  0.39408000  0.15451000  0.69720000  1.0 0.352469097
C  C182  1  0.10592000  0.65451000  0.80280000  1.0 0.352469097
C  C183  1  0.89408000  0.34549000  0.80280000  1.0 0.352469097
C  C184  1  0.60592000  0.84549000  0.69720000  1.0 0.352469097
C  C185  1  0.84549000  0.60592000  0.69720000  1.0 0.352469097
C  C186  1  0.65451000  0.10592000  0.80280000  1.0 0.352469097
C  C187  1  0.15451000  0.39408000  0.69720000  1.0 0.352469097
C  C188  1  0.34549000  0.89408000  0.80280000  1.0 0.352469097
C  C189  1  0.60592000  0.84549000  0.30280000  1.0 0.352469097
C  C190  1  0.89408000  0.34549000  0.19720000  1.0 0.352469097
C  C191  1  0.10592000  0.65451000  0.19720000  1.0 0.352469097
C  C192  1  0.39408000  0.15451000  0.30280000  1.0 0.352469097
C  C193  1  0.19127000  0.41731000  0.41870000  1.0 0.2057188034
C  C194  1  0.30873000  0.91731000  0.08130000  1.0 0.2057188034
C  C195  1  0.80873000  0.58269000  0.41870000  1.0 0.2057188034
C  C196  1  0.69127000  0.08269000  0.08130000  1.0 0.2057188034
C  C197  1  0.41731000  0.19127000  0.58130000  1.0 0.2046166614
C  C198  1  0.08269000  0.69127000  0.91870000  1.0 0.2046166614
C  C199  1  0.91731000  0.30873000  0.91870000  1.0 0.2046166614
C  C200  1  0.58269000  0.80873000  0.58130000  1.0 0.2046166614
C  C201  1  0.80873000  0.58269000  0.58130000  1.0 0.2046166614
C  C202  1  0.69127000  0.08269000  0.91870000  1.0 0.2046166614
C  C203  1  0.19127000  0.41731000  0.58130000  1.0 0.2046166614
C  C204  1  0.30873000  0.91731000  0.91870000  1.0 0.2057188034
C  C205  1  0.58269000  0.80873000  0.41870000  1.0 0.2057188034
C  C206  1  0.91731000  0.30873000  0.08130000  1.0 0.2057188034
C  C207  1  0.08269000  0.69127000  0.08130000  1.0 0.2057188034
C  C208  1  0.41731000  0.19127000  0.41870000  1.0 0.2046166614
C  C209  1  0.22891000  0.41344000  0.41830000  1.0 -0.1880801492
C  C210  1  0.27109000  0.91344000  0.08170000  1.0 -0.1880801492
C  C211  1  0.77109000  0.58656000  0.41830000  1.0 -0.1880801492
C  C212  1  0.72891000  0.08656000  0.08170000  1.0 -0.1880801492
C  C213  1  0.41344000  0.22891000  0.58170000  1.0 -0.1880801492
C  C214  1  0.08656000  0.72891000  0.91830000  1.0 -0.1880801492
C  C215  1  0.91344000  0.27109000  0.91830000  1.0 -0.1880801492
C  C216  1  0.58656000  0.77109000  0.58170000  1.0 -0.1880801492
C  C217  1  0.77109000  0.58656000  0.58170000  1.0 -0.1880801492
C  C218  1  0.72891000  0.08656000  0.91830000  1.0 -0.1880801492
C  C219  1  0.22891000  0.41344000  0.58170000  1.0 -0.1880801492
C  C220  1  0.27109000  0.91344000  0.91830000  1.0 -0.1880801492
C  C221  1  0.58656000  0.77109000  0.41830000  1.0 -0.1880801492
C  C222  1  0.91344000  0.27109000  0.08170000  1.0 -0.1880801492
C  C223  1  0.08656000  0.72891000  0.08170000  1.0 -0.1880801492
C  C224  1  0.41344000  0.22891000  0.41830000  1.0 -0.1880801492
C  C225  1  0.24690000  0.41220000  0.50000000  1.0 -0.0513644673
C  C226  1  0.25310000  0.91220000  0.00000000  1.0 -0.0513644673
C  C227  1  0.75310000  0.58780000  0.50000000  1.0 -0.0513644673
C  C228  1  0.74690000  0.08780000  0.00000000  1.0 -0.0513644673
C  C229  1  0.41220000  0.24690000  0.50000000  1.0 -0.0513644673
C  C230  1  0.08780000  0.74690000  0.00000000  1.0 -0.0513644673
C  C231  1  0.91220000  0.25310000  0.00000000  1.0 -0.0513644673
C  C232  1  0.58780000  0.75310000  0.50000000  1.0 -0.0513644673
C  C233  1  0.17256000  0.41912000  0.50000000  1.0 -0.2174375698
C  C234  1  0.32744000  0.91912000  0.00000000  1.0 -0.2174375698
C  C235  1  0.82744000  0.58088000  0.50000000  1.0 -0.2174375698
C  C236  1  0.67256000  0.08088000  0.00000000  1.0 -0.2174375698
C  C237  1  0.41912000  0.17256000  0.50000000  1.0 -0.2174375698
C  C238  1  0.08088000  0.67256000  0.00000000  1.0 -0.2174375698
C  C239  1  0.91912000  0.32744000  0.00000000  1.0 -0.2174375698
C  C240  1  0.58088000  0.82744000  0.50000000  1.0 -0.2174375698
N  N1  1  0.00807000  0.31029000  0.16380000  1.0 -0.3777715124
N  N2  1  0.49193000  0.81029000  0.33620000  1.0 -0.3777715124
N  N3  1  0.99193000  0.68971000  0.16380000  1.0 -0.3777715124
N  N4  1  0.50807000  0.18971000  0.33620000  1.0 -0.3777715124
N  N5  1  0.31029000  0.00807000  0.83620000  1.0 -0.3777715124
N  N6  1  0.18971000  0.50807000  0.66380000  1.0 -0.3777715124
N  N7  1  0.81029000  0.49193000  0.66380000  1.0 -0.3777715124
N  N8  1  0.68971000  0.99193000  0.83620000  1.0 -0.3777715124
N  N9  1  0.99193000  0.68971000  0.83620000  1.0 -0.3777715124
N  N10  1  0.50807000  0.18971000  0.66380000  1.0 -0.3777715124
N  N11  1  0.00807000  0.31029000  0.83620000  1.0 -0.3777715124
N  N12  1  0.49193000  0.81029000  0.66380000  1.0 -0.3777715124
N  N13  1  0.68971000  0.99193000  0.16380000  1.0 -0.3777715124
N  N14  1  0.81029000  0.49193000  0.33620000  1.0 -0.3777715124
N  N15  1  0.18971000  0.50807000  0.33620000  1.0 -0.3777715124
N  N16  1  0.31029000  0.00807000  0.16380000  1.0 -0.3777715124
N  N17  1  0.16666000  0.22811000  0.33697000  1.0 -0.4676024362
N  N18  1  0.33333333  0.72811000  0.16303000  1.0 -0.4676024362
N  N19  1  0.83334000  0.77189000  0.33697000  1.0 -0.4676024362
N  N20  1  0.66666667  0.27189000  0.16303000  1.0 -0.4676024362
N  N21  1  0.22811000  0.16666000  0.66303000  1.0 -0.4676024362
N  N22  1  0.27189000  0.66666667  0.83697000  1.0 -0.4676024362
N  N23  1  0.72811000  0.33333333  0.83697000  1.0 -0.4676024362
N  N24  1  0.77189000  0.83334000  0.66303000  1.0 -0.4676024362
N  N25  1  0.83334000  0.77189000  0.66303000  1.0 -0.4676024362
N  N26  1  0.66666667  0.27189000  0.83697000  1.0 -0.4676024362
N  N27  1  0.16666000  0.22811000  0.66303000  1.0 -0.4676024362
N  N28  1  0.33333333  0.72811000  0.83697000  1.0 -0.4676024362
N  N29  1  0.77189000  0.83334000  0.33697000  1.0 -0.4676024362
N  N30  1  0.72811000  0.33333333  0.16303000  1.0 -0.4676024362
N  N31  1  0.27189000  0.66666667  0.16303000  1.0 -0.4676024362
N  N32  1  0.22811000  0.16666000  0.33697000  1.0 -0.4676024362
N  N33  1  0.17229000  0.42212000  0.33660000  1.0 -0.3592117251
N  N34  1  0.32771000  0.92212000  0.16340000  1.0 -0.3592117251
N  N35  1  0.82771000  0.57788000  0.33660000  1.0 -0.3592117251
N  N36  1  0.67229000  0.07788000  0.16340000  1.0 -0.3592117251
N  N37  1  0.42212000  0.17229000  0.66340000  1.0 -0.3592117251
N  N38  1  0.07788000  0.67229000  0.83660000  1.0 -0.3592117251
N  N39  1  0.92212000  0.32771000  0.83660000  1.0 -0.3592117251
N  N40  1  0.57788000  0.82771000  0.66340000  1.0 -0.3592117251
N  N41  1  0.82771000  0.57788000  0.66340000  1.0 -0.3592117251
N  N42  1  0.67229000  0.07788000  0.83660000  1.0 -0.3592117251
N  N43  1  0.17229000  0.42212000  0.66340000  1.0 -0.3592117251
N  N44  1  0.32771000  0.92212000  0.83660000  1.0 -0.3592117251
N  N45  1  0.57788000  0.82771000  0.33660000  1.0 -0.3592117251
N  N46  1  0.92212000  0.32771000  0.16340000  1.0 -0.3592117251
N  N47  1  0.07788000  0.67229000  0.16340000  1.0 -0.3592117251
N  N48  1  0.42212000  0.17229000  0.33660000  1.0 -0.3592117251
O  O1  1  0.06814000  0.34254000  0.32894000  1.0 -0.4367763476
O  O2  1  0.43186000  0.84254000  0.17106000  1.0 -0.4367763476
O  O3  1  0.93186000  0.65746000  0.32894000  1.0 -0.4367763476
O  O4  1  0.56814000  0.15746000  0.17106000  1.0 -0.4367763476
O  O5  1  0.34254000  0.06814000  0.67106000  1.0 -0.4285344171
O  O6  1  0.15746000  0.56814000  0.82894000  1.0 -0.4367763476
O  O7  1  0.84254000  0.43186000  0.82894000  1.0 -0.4367763476
O  O8  1  0.65746000  0.93186000  0.67106000  1.0 -0.4367763476
O  O9  1  0.93186000  0.65746000  0.67106000  1.0 -0.4367763476
O  O10  1  0.56814000  0.15746000  0.82894000  1.0 -0.4367763476
O  O11  1  0.06814000  0.34254000  0.67106000  1.0 -0.4367763476
O  O12  1  0.43186000  0.84254000  0.82894000  1.0 -0.4367763476
O  O13  1  0.65746000  0.93186000  0.32894000  1.0 -0.4367763476
O  O14  1  0.84254000  0.43186000  0.17106000  1.0 -0.4367763476
O  O15  1  0.15746000  0.56814000  0.17106000  1.0 -0.4367763476
O  O16  1  0.34254000  0.06814000  0.32894000  1.0 -0.4367763476
O  O17  1  0.07150000  0.30650000  0.17042000  1.0 -0.4206143066
O  O18  1  0.42850000  0.80650000  0.32958000  1.0 -0.4206143066
O  O19  1  0.92850000  0.69350000  0.17042000  1.0 -0.4206143066
O  O20  1  0.57150000  0.19350000  0.32958000  1.0 -0.4206143066
O  O21  1  0.30650000  0.07150000  0.82958000  1.0 -0.4206143066
O  O22  1  0.19350000  0.57150000  0.67042000  1.0 -0.4206143066
O  O23  1  0.80650000  0.42850000  0.67042000  1.0 -0.4206143066
O  O24  1  0.69350000  0.92850000  0.82958000  1.0 -0.4206143066
O  O25  1  0.92850000  0.69350000  0.82958000  1.0 -0.4206143066
O  O26  1  0.57150000  0.19350000  0.67042000  1.0 -0.4206143066
O  O27  1  0.07150000  0.30650000  0.82958000  1.0 -0.4206143066
O  O28  1  0.42850000  0.80650000  0.67042000  1.0 -0.4206143066
O  O29  1  0.69350000  0.92850000  0.17042000  1.0 -0.4206143066
O  O30  1  0.80650000  0.42850000  0.32958000  1.0 -0.4206143066
O  O31  1  0.19350000  0.57150000  0.32958000  1.0 -0.4206143066
O  O32  1  0.30650000  0.07150000  0.17042000  1.0 -0.4206143066
O  O33  1  0.00781000  0.34875000  0.31660000  1.0 -0.3931124032
O  O34  1  0.49219000  0.84875000  0.18340000  1.0 -0.3931124032
O  O35  1  0.99219000  0.65125000  0.31660000  1.0 -0.3931124032
O  O36  1  0.50781000  0.15125000  0.18340000  1.0 -0.3931124032
O  O37  1  0.34875000  0.00781000  0.68340000  1.0 -0.3931124032
O  O38  1  0.15125000  0.50781000  0.81660000  1.0 -0.3931124032
O  O39  1  0.84875000  0.49219000  0.81660000  1.0 -0.3931124032
O  O40  1  0.65125000  0.99219000  0.68340000  1.0 -0.3931124032
O  O41  1  0.99219000  0.65125000  0.68340000  1.0 -0.3931124032
O  O42  1  0.50781000  0.15125000  0.81660000  1.0 -0.3931124032
O  O43  1  0.00781000  0.34875000  0.68340000  1.0 -0.3931124032
O  O44  1  0.49219000  0.84875000  0.81660000  1.0 -0.3931124032
O  O45  1  0.65125000  0.99219000  0.31660000  1.0 -0.3931124032
O  O46  1  0.84875000  0.49219000  0.18340000  1.0 -0.3931124032
O  O47  1  0.15125000  0.50781000  0.18340000  1.0 -0.3931124032
O  O48  1  0.34875000  0.00781000  0.31660000  1.0 -0.3931124032
O  O49  1  0.15833000  0.29689000  0.17459000  1.0 -0.510457699
O  O50  1  0.34167000  0.79689000  0.32541000  1.0 -0.510457699
O  O51  1  0.84167000  0.70311000  0.17459000  1.0 -0.510457699
O  O52  1  0.65833000  0.20311000  0.32541000  1.0 -0.510457699
O  O53  1  0.29689000  0.15833000  0.82541000  1.0 -0.510457699
O  O54  1  0.20311000  0.65833000  0.67459000  1.0 -0.510457699
O  O55  1  0.79689000  0.34167000  0.67459000  1.0 -0.510457699
O  O56  1  0.70311000  0.84167000  0.82541000  1.0 -0.510457699
O  O57  1  0.84167000  0.70311000  0.82541000  1.0 -0.510457699
O  O58  1  0.65833000  0.20311000  0.67459000  1.0 -0.510457699
O  O59  1  0.15833000  0.29689000  0.82541000  1.0 -0.510457699
O  O60  1  0.34167000  0.79689000  0.67459000  1.0 -0.510457699
O  O61  1  0.70311000  0.84167000  0.17459000  1.0 -0.510457699
O  O62  1  0.79689000  0.34167000  0.32541000  1.0 -0.510457699
O  O63  1  0.20311000  0.65833000  0.32541000  1.0 -0.510457699
O  O64  1  0.29689000  0.15833000  0.17459000  1.0 -0.510457699
O  O65  1  0.12761000  0.27835000  0.33232000  1.0 -0.4367763476
O  O66  1  0.37239000  0.77835000  0.16768000  1.0 -0.4367763476
O  O67  1  0.87239000  0.72165000  0.33232000  1.0 -0.4367763476
O  O68  1  0.62761000  0.22165000  0.16768000  1.0 -0.4367763476
O  O69  1  0.27835000  0.12761000  0.66768000  1.0 -0.4367763476
O  O70  1  0.22165000  0.62761000  0.83232000  1.0 -0.4367763476
O  O71  1  0.77835000  0.37239000  0.83232000  1.0 -0.4367763476
O  O72  1  0.72165000  0.87239000  0.66768000  1.0 -0.4367763476
O  O73  1  0.87239000  0.72165000  0.66768000  1.0 -0.4367763476
O  O74  1  0.62761000  0.22165000  0.83232000  1.0 -0.4367763476
O  O75  1  0.12761000  0.27835000  0.66768000  1.0 -0.4367763476
O  O76  1  0.37239000  0.77835000  0.83232000  1.0 -0.4367763476
O  O77  1  0.72165000  0.87239000  0.33232000  1.0 -0.4367763476
O  O78  1  0.77835000  0.37239000  0.16768000  1.0 -0.4367763476
O  O79  1  0.22165000  0.62761000  0.16768000  1.0 -0.4367763476
O  O80  1  0.27835000  0.12761000  0.33232000  1.0 -0.4367763476
O  O81  1  0.19580000  0.24911000  0.18337000  1.0 -0.4620744379
O  O82  1  0.30420000  0.74911000  0.31663000  1.0 -0.4620744379
O  O83  1  0.80420000  0.75089000  0.18337000  1.0 -0.4620744379
O  O84  1  0.69580000  0.25089000  0.31663000  1.0 -0.4620744379
O  O85  1  0.24911000  0.19580000  0.81663000  1.0 -0.4620744379
O  O86  1  0.25089000  0.69580000  0.68337000  1.0 -0.4620744379
O  O87  1  0.74911000  0.30420000  0.68337000  1.0 -0.4620744379
O  O88  1  0.75089000  0.80420000  0.81663000  1.0 -0.4620744379
O  O89  1  0.80420000  0.75089000  0.81663000  1.0 -0.4620744379
O  O90  1  0.69580000  0.25089000  0.68337000  1.0 -0.4620744379
O  O91  1  0.19580000  0.24911000  0.81663000  1.0 -0.4620744379
O  O92  1  0.30420000  0.74911000  0.68337000  1.0 -0.4620744379
O  O93  1  0.75089000  0.80420000  0.18337000  1.0 -0.4620744379
O  O94  1  0.74911000  0.30420000  0.31663000  1.0 -0.4620744379
O  O95  1  0.25089000  0.69580000  0.31663000  1.0 -0.4620744379
O  O96  1  0.24911000  0.19580000  0.18337000  1.0 -0.4620744379
O  O97  1  0.11742000  0.37718000  0.17840000  1.0 -0.4620744379
O  O98  1  0.38258000  0.87718000  0.32160000  1.0 -0.4620744379
O  O99  1  0.88258000  0.62282000  0.17840000  1.0 -0.4620744379
O  O100  1  0.61742000  0.12282000  0.32160000  1.0 -0.4620744379
O  O101  1  0.37718000  0.11742000  0.82160000  1.0 -0.4620744379
O  O102  1  0.12282000  0.61742000  0.67840000  1.0 -0.4620744379
O  O103  1  0.87718000  0.38258000  0.67840000  1.0 -0.4620744379
O  O104  1  0.62282000  0.88258000  0.82160000  1.0 -0.4620744379
O  O105  1  0.88258000  0.62282000  0.82160000  1.0 -0.4620744379
O  O106  1  0.61742000  0.12282000  0.67840000  1.0 -0.4620744379
O  O107  1  0.11742000  0.37718000  0.82160000  1.0 -0.4620744379
O  O108  1  0.38258000  0.87718000  0.67840000  1.0 -0.4620744379
O  O109  1  0.62282000  0.88258000  0.17840000  1.0 -0.4620744379
O  O110  1  0.87718000  0.38258000  0.32160000  1.0 -0.4620744379
O  O111  1  0.12282000  0.61742000  0.32160000  1.0 -0.4620744379
O  O112  1  0.37718000  0.11742000  0.17840000  1.0 -0.4620744379
O  O113  1  0.15247000  0.36152000  0.33329000  1.0 -0.4285344171
O  O114  1  0.34753000  0.86152000  0.16671000  1.0 -0.4285344171
O  O115  1  0.84753000  0.63848000  0.33329000  1.0 -0.4285344171
O  O116  1  0.65247000  0.13848000  0.16671000  1.0 -0.4285344171
O  O117  1  0.36152000  0.15247000  0.66666667  1.0 -0.4285344171
O  O118  1  0.13848000  0.65247000  0.83329000  1.0 -0.4285344171
O  O119  1  0.86152000  0.34753000  0.83329000  1.0 -0.4285344171
O  O120  1  0.63848000  0.84753000  0.66666667  1.0 -0.4285344171
O  O121  1  0.84753000  0.63848000  0.66666667  1.0 -0.4285344171
O  O122  1  0.65247000  0.13848000  0.83329000  1.0 -0.4285344171
O  O123  1  0.15247000  0.36152000  0.66666667  1.0 -0.4285344171
O  O124  1  0.34753000  0.86152000  0.83329000  1.0 -0.4285344171
O  O125  1  0.63848000  0.84753000  0.33329000  1.0 -0.4285344171
O  O126  1  0.86152000  0.34753000  0.16671000  1.0 -0.4285344171
O  O127  1  0.13848000  0.65247000  0.16671000  1.0 -0.4285344171
O  O128  1  0.36152000  0.15247000  0.33329000  1.0 -0.4285344171
O  O129  1  0.13661000  0.43497000  0.18540000  1.0 -0.4206143066
O  O130  1  0.36339000  0.93497000  0.31460000  1.0 -0.4206143066
O  O131  1  0.86339000  0.56503000  0.18540000  1.0 -0.4206143066
O  O132  1  0.63661000  0.06503000  0.31460000  1.0 -0.4206143066
O  O133  1  0.43497000  0.13661000  0.81460000  1.0 -0.4206143066
O  O134  1  0.06503000  0.63661000  0.68540000  1.0 -0.4206143066
O  O135  1  0.93497000  0.36339000  0.68540000  1.0 -0.4206143066
O  O136  1  0.56503000  0.86339000  0.81460000  1.0 -0.4206143066
O  O137  1  0.86339000  0.56503000  0.81460000  1.0 -0.4206143066
O  O138  1  0.63661000  0.06503000  0.68540000  1.0 -0.4206143066
O  O139  1  0.13661000  0.43497000  0.81460000  1.0 -0.4206143066
O  O140  1  0.36339000  0.93497000  0.68540000  1.0 -0.4206143066
O  O141  1  0.56503000  0.86339000  0.18540000  1.0 -0.4206143066
O  O142  1  0.93497000  0.36339000  0.31460000  1.0 -0.4206143066
O  O143  1  0.06503000  0.63661000  0.31460000  1.0 -0.4206143066
O  O144  1  0.43497000  0.13661000  0.18540000  1.0 -0.4206143066
O  O145  1  0.95000000  0.28167000  0.32630000  1.0 -0.5217951755
O  O146  1  0.55000000  0.78167000  0.17370000  1.0 -0.5217951755
O  O147  1  0.05000000  0.71833000  0.32630000  1.0 -0.5217951755
O  O148  1  0.45000000  0.21833000  0.17370000  1.0 -0.5217951755
O  O149  1  0.28167000  0.95000000  0.67370000  1.0 -0.5369798958
O  O150  1  0.21833000  0.45000000  0.82630000  1.0 -0.5217951755
O  O151  1  0.78167000  0.55000000  0.82630000  1.0 -0.5217951755
O  O152  1  0.71833000  0.05000000  0.67370000  1.0 -0.5369798958
O  O153  1  0.05000000  0.71833000  0.67370000  1.0 -0.5369798958
O  O154  1  0.45000000  0.21833000  0.82630000  1.0 -0.5217951755
O  O155  1  0.95000000  0.28167000  0.67370000  1.0 -0.5369798958
O  O156  1  0.55000000  0.78167000  0.82630000  1.0 -0.5217951755
O  O157  1  0.71833000  0.05000000  0.32630000  1.0 -0.5217951755
O  O158  1  0.78167000  0.55000000  0.17370000  1.0 -0.5217951755
O  O159  1  0.21833000  0.45000000  0.17370000  1.0 -0.5217951755
O  O160  1  0.28167000  0.95000000  0.32630000  1.0 -0.5217951755
O  O161  1  0.10249000  0.31960000  0.00000000  1.0 0.1514765402
O  O162  1  0.39751000  0.81960000  0.50000000  1.0 0.1514765402
O  O163  1  0.89751000  0.68040000  0.00000000  1.0 0.1514765402
O  O164  1  0.60249000  0.18040000  0.50000000  1.0 0.1514765402
O  O165  1  0.31960000  0.10249000  0.00000000  1.0 0.1514765402
O  O166  1  0.18040000  0.60249000  0.50000000  1.0 0.1514765402
O  O167  1  0.81960000  0.39751000  0.50000000  1.0 0.1514765402
O  O168  1  0.68040000  0.89751000  0.00000000  1.0 0.1514765402
O  O169  1  0.13780000  0.23990000  0.00000000  1.0 -0.2383929089
O  O170  1  0.36220000  0.73990000  0.50000000  1.0 -0.2288437817
O  O171  1  0.86220000  0.76010000  0.00000000  1.0 -0.2288437817
O  O172  1  0.63780000  0.26010000  0.50000000  1.0 -0.2288437817
O  O173  1  0.23990000  0.13780000  0.00000000  1.0 -0.2383929089
O  O174  1  0.26010000  0.63780000  0.50000000  1.0 -0.2288437817
O  O175  1  0.73990000  0.36220000  0.50000000  1.0 -0.2288437817
O  O176  1  0.76010000  0.86220000  0.00000000  1.0 -0.2288437817
O  O177  1  0.16530000  0.36360000  0.00000000  1.0 -0.3017070055
O  O178  1  0.33470000  0.86360000  0.50000000  1.0 -0.3017070055
O  O179  1  0.83470000  0.63640000  0.00000000  1.0 -0.3017070055
O  O180  1  0.66530000  0.13640000  0.50000000  1.0 -0.3017070055
O  O181  1  0.36360000  0.16530000  0.00000000  1.0 -0.3017070055
O  O182  1  0.13640000  0.66530000  0.50000000  1.0 -0.3017070055
O  O183  1  0.86360000  0.33470000  0.50000000  1.0 -0.3017070055
O  O184  1  0.63640000  0.83470000  0.00000000  1.0 -0.3017070055
O  O185  1  0.19940000  0.19940000  0.00000000  1.0 -0.2000355728
O  O186  1  0.30060000  0.69940000  0.50000000  1.0 -0.2000355728
O  O187  1  0.80060000  0.80060000  0.00000000  1.0 -0.2000355728
O  O188  1  0.69940000  0.30060000  0.50000000  1.0 -0.2000355728
O  O189  1  0.28590000  0.22540000  0.02910000  1.0 -0.0973067217
O  O190  1  0.21410000  0.72540000  0.47090000  1.0 -0.0973067217
O  O191  1  0.71410000  0.77460000  0.02910000  1.0 -0.0973067217
O  O192  1  0.78590000  0.27460000  0.47090000  1.0 -0.0973067217
O  O193  1  0.22540000  0.28590000  0.97090000  1.0 -0.0936025286
O  O194  1  0.27460000  0.78590000  0.52910000  1.0 -0.0936025286
O  O195  1  0.72540000  0.21410000  0.52910000  1.0 -0.0936025286
O  O196  1  0.77460000  0.71410000  0.97090000  1.0 -0.0936025286
O  O197  1  0.71410000  0.77460000  0.97090000  1.0 -0.0936025286
O  O198  1  0.78590000  0.27460000  0.52910000  1.0 -0.0936025286
O  O199  1  0.28590000  0.22540000  0.97090000  1.0 -0.0936025286
O  O200  1  0.21410000  0.72540000  0.52910000  1.0 -0.0936025286
O  O201  1  0.77460000  0.71410000  0.02910000  1.0 -0.0973067217
O  O202  1  0.72540000  0.21410000  0.47090000  1.0 -0.0973067217
O  O203  1  0.27460000  0.78590000  0.47090000  1.0 -0.0973067217
O  O204  1  0.22540000  0.28590000  0.02910000  1.0 -0.0973067217
O  O205  1  0.27990000  0.27990000  0.16100000  1.0 -0.2805474271
O  O206  1  0.22010000  0.77990000  0.33900000  1.0 -0.2727719516
O  O207  1  0.72010000  0.72010000  0.16100000  1.0 -0.2805474271
O  O208  1  0.77990000  0.22010000  0.33900000  1.0 -0.2727719516
O  O209  1  0.27990000  0.27990000  0.83900000  1.0 -0.2930460423
O  O210  1  0.22010000  0.77990000  0.66100000  1.0 -0.2727719516
O  O211  1  0.77990000  0.22010000  0.66100000  1.0 -0.2727719516
O  O212  1  0.72010000  0.72010000  0.83900000  1.0 -0.2805474271
O  O213  1  0.97970000  0.29290000  0.50000000  1.0 0.3271539002
O  O214  1  0.52030000  0.79290000  0.00000000  1.0 0.3271539002
O  O215  1  0.02030000  0.70710000  0.50000000  1.0 0.3231609891
O  O216  1  0.47970000  0.20710000  0.00000000  1.0 0.3271539002
O  O217  1  0.29290000  0.97970000  0.50000000  1.0 0.3231609891
O  O218  1  0.20710000  0.47970000  0.00000000  1.0 0.3231609891
O  O219  1  0.79290000  0.52030000  0.00000000  1.0 0.3271539002
O  O220  1  0.70710000  0.02030000  0.50000000  1.0 0.3271539002
O  O221  1  0.98120000  0.31840000  0.50000000  1.0 -0.037120137
O  O222  1  0.51880000  0.81840000  0.00000000  1.0 -0.037120137
O  O223  1  0.01880000  0.68160000  0.50000000  1.0 -0.037120137
O  O224  1  0.48120000  0.18160000  0.00000000  1.0 -0.037120137
O  O225  1  0.31840000  0.98120000  0.50000000  1.0 -0.037120137
O  O226  1  0.18160000  0.48120000  0.00000000  1.0 -0.037120137
O  O227  1  0.81840000  0.51880000  0.00000000  1.0 -0.037120137
O  O228  1  0.68160000  0.01880000  0.50000000  1.0 -0.037120137
O  O229  1  0.10850000  0.50520000  0.93350000  1.0 -0.3017070055
O  O230  1  0.39150000  0.00520000  0.56650000  1.0 -0.3017070055
O  O231  1  0.89150000  0.49480000  0.93350000  1.0 -0.3017070055
O  O232  1  0.60850000  0.99480000  0.56650000  1.0 -0.3017070055
O  O233  1  0.50520000  0.10850000  0.06650000  1.0 -0.3017070055
O  O234  1  0.99480000  0.60850000  0.43350000  1.0 -0.2930460423
O  O235  1  0.00520000  0.39150000  0.43350000  1.0 -0.2930460423
O  O236  1  0.49480000  0.89150000  0.06650000  1.0 -0.3017070055
O  O237  1  0.89150000  0.49480000  0.06650000  1.0 -0.3017070055
O  O238  1  0.60850000  0.99480000  0.43350000  1.0 -0.2930460423
O  O239  1  0.10850000  0.50520000  0.06650000  1.0 -0.3017070055
O  O240  1  0.39150000  0.00520000  0.43350000  1.0 -0.2930460423
O  O241  1  0.49480000  0.89150000  0.93350000  1.0 -0.3017070055
O  O242  1  0.00520000  0.39150000  0.56650000  1.0 -0.3017070055
O  O243  1  0.99480000  0.60850000  0.56650000  1.0 -0.3017070055
O  O244  1  0.50520000  0.10850000  0.93350000  1.0 -0.3017070055
O  O245  1  0.13060000  0.39900000  0.00000000  1.0 0.1386079964
O  O246  1  0.36940000  0.89900000  0.50000000  1.0 0.1331222459
O  O247  1  0.86940000  0.60100000  0.00000000  1.0 0.1386079964
O  O248  1  0.63060000  0.10100000  0.50000000  1.0 0.1331222459
O  O249  1  0.39900000  0.13060000  0.00000000  1.0 0.1386079964
O  O250  1  0.10100000  0.63060000  0.50000000  1.0 0.1331222459
O  O251  1  0.89900000  0.36940000  0.50000000  1.0 0.1331222459
O  O252  1  0.60100000  0.86940000  0.00000000  1.0 0.1386079964
