# DDEC6 charges by PACMAN v1.1 (https://github.com/mtap-research/PACMAN-charge/)
data_DAPZAW_ASR_pacman
_symmetry_space_group_name_H-M   'P 1'
_cell_length_a   16.00400000
_cell_length_b   16.06400000
_cell_length_c   19.53200000
_cell_angle_alpha   103.72800000
_cell_angle_beta   100.69600000
_cell_angle_gamma   117.94000000
_symmetry_Int_Tables_number   1
_chemical_formula_structural   Ag13H32C62N8(O2F3)9
_chemical_formula_sum   'Ag26 H64 C124 N16 O36 F54'
_cell_volume   4043.51557958
_cell_formula_units_Z   2
loop_
 _symmetry_equiv_pos_site_id
 _symmetry_equiv_pos_as_xyz
  1  'x, y, z'
loop_
 _atom_site_type_symbol
 _atom_site_label
 _atom_site_symmetry_multiplicity
 _atom_site_fract_x
 _atom_site_fract_y
 _atom_site_fract_z
 _atom_site_occupancy
 _atom_site_charge
Ag  Ag1  1  0.51310000  0.69796000  0.37700000  1.0 0.3699596243
Ag  Ag2  1  0.48690000  0.30204000  0.62300000  1.0 0.3699596243
Ag  Ag3  1  0.55266000  0.54561000  0.45659000  1.0 0.4386662162
Ag  Ag4  1  0.44734000  0.45439000  0.54341000  1.0 0.4386662162
Ag  Ag5  1  0.69157000  0.49705000  0.38433000  1.0 0.4212019778
Ag  Ag6  1  0.30843000  0.50295000  0.61567000  1.0 0.4212019778
Ag  Ag7  1  0.65268000  0.54132000  0.24215000  1.0 0.3699596243
Ag  Ag8  1  0.34732000  0.45868000  0.75785000  1.0 0.3699596243
Ag  Ag9  1  0.61712000  0.69799000  0.25942000  1.0 0.3780508927
Ag  Ag10  1  0.38288000  0.30201000  0.74058000  1.0 0.3780508927
Ag  Ag11  1  0.76299000  0.76520000  0.45188000  1.0 0.4130011565
Ag  Ag12  1  0.23701000  0.23480000  0.54812000  1.0 0.4130011565
Ag  Ag13  1  0.44965000  0.49881000  0.27433000  1.0 0.464435584
Ag  Ag14  1  0.55035000  0.50119000  0.72567000  1.0 0.464435584
Ag  Ag15  1  0.66417000  0.76169000  0.13010000  1.0 0.4386662162
Ag  Ag16  1  0.33583000  0.23831000  0.86990000  1.0 0.4386662162
Ag  Ag17  1  0.77220000  0.67464000  0.16810000  1.0 0.4881495304
Ag  Ag18  1  0.22780000  0.32536000  0.83190000  1.0 0.4881495304
Ag  Ag19  1  0.46160000  0.40144000  0.01507000  1.0 0.4298212296
Ag  Ag20  1  0.53840000  0.59856000  0.98493000  1.0 0.4298212296
Ag  Ag21  1  0.45724000  0.62942000  0.11503000  1.0 0.3163496322
Ag  Ag22  1  0.54276000  0.37058000  0.88497000  1.0 0.3163496322
Ag  Ag23  1  0.66359000  0.45720000  0.09070000  1.0 0.3699596243
Ag  Ag24  1  0.33641000  0.54280000  0.90930000  1.0 0.3699596243
Ag  Ag25  1  0.98751000  0.97607000  0.17683000  1.0 0.3780508927
Ag  Ag26  1  0.01249000  0.02393000  0.82317000  1.0 0.3780508927
H  H1  1  0.02979000  0.83527000  0.24438000  1.0 0.1098264425
H  H2  1  0.97021000  0.16473000  0.75562000  1.0 0.1098264425
H  H3  1  0.13839000  0.76532000  0.24012000  1.0 0.1182363201
H  H4  1  0.86161000  0.23468000  0.75988000  1.0 0.1182363201
H  H5  1  0.15839000  0.65065000  0.16612000  1.0 0.1182363201
H  H6  1  0.84161000  0.34935000  0.83388000  1.0 0.1182363201
H  H7  1  0.26126000  0.57568000  0.15069000  1.0 0.0994860417
H  H8  1  0.73874000  0.42432000  0.84931000  1.0 0.0994860417
H  H9  1  0.47966000  0.82958000  0.12229000  1.0 0.1098264425
H  H10  1  0.52034000  0.17042000  0.87771000  1.0 0.1098264425
H  H11  1  0.39131000  0.91957000  0.14586000  1.0 0.1182363201
H  H12  1  0.60869000  0.08043000  0.85414000  1.0 0.1182363201
H  H13  1  0.25833000  0.93214000  0.09936000  1.0 0.1182363201
H  H14  1  0.74167000  0.06786000  0.90064000  1.0 0.1182363201
H  H15  1  0.15033000  0.00077000  0.11394000  1.0 0.0914463808
H  H16  1  0.84967000  0.99923000  0.88606000  1.0 0.0914463808
H  H17  1  0.85678000  0.04460000  0.24297000  1.0 0.0994860417
H  H18  1  0.14322000  0.95540000  0.75703000  1.0 0.0994860417
H  H19  1  0.78141000  0.14255000  0.22125000  1.0 0.1098264425
H  H20  1  0.21859000  0.85745000  0.77875000  1.0 0.1098264425
H  H21  1  0.70197000  0.20013000  0.18686000  1.0 0.1182363201
H  H22  1  0.29803000  0.79987000  0.81314000  1.0 0.1182363201
H  H23  1  0.63251000  0.30142000  0.16073000  1.0 0.1098264425
H  H24  1  0.36749000  0.69858000  0.83927000  1.0 0.1098264425
H  H25  1  0.79765000  0.38985000  0.02143000  1.0 0.0994860417
H  H26  1  0.20235000  0.61015000  0.97857000  1.0 0.0994860417
H  H27  1  0.87816000  0.29488000  0.04421000  1.0 0.1098264425
H  H28  1  0.12184000  0.70512000  0.95579000  1.0 0.1098264425
H  H29  1  0.92598000  0.20025000  0.05473000  1.0 0.1182363201
H  H30  1  0.07402000  0.79975000  0.94527000  1.0 0.1182363201
H  H31  1  0.99465000  0.09928000  0.08301000  1.0 0.0914463808
H  H32  1  0.00535000  0.90072000  0.91699000  1.0 0.0914463808
H  H33  1  0.78399000  0.45860000  0.52939000  1.0 0.0994860417
H  H34  1  0.21601000  0.54140000  0.47061000  1.0 0.0994860417
H  H35  1  0.88902000  0.38988000  0.56071000  1.0 0.1098264425
H  H36  1  0.11098000  0.61012000  0.43929000  1.0 0.1098264425
H  H37  1  0.93093000  0.27895000  0.56284000  1.0 0.1098264425
H  H38  1  0.06907000  0.72105000  0.43716000  1.0 0.1098264425
H  H39  1  0.05287000  0.22899000  0.59286000  1.0 0.0994860417
H  H40  1  0.94713000  0.77101000  0.40714000  1.0 0.0994860417
H  H41  1  0.14786000  0.28120000  0.41351000  1.0 0.0914463808
H  H42  1  0.85214000  0.71880000  0.58649000  1.0 0.0914463808
H  H43  1  0.03272000  0.33690000  0.37760000  1.0 0.1182363201
H  H44  1  0.96728000  0.66310000  0.62240000  1.0 0.1182363201
H  H45  1  0.89507000  0.32939000  0.33266000  1.0 0.1182363201
H  H46  1  0.10493000  0.67061000  0.66734000  1.0 0.1182363201
H  H47  1  0.79508000  0.40619000  0.31149000  1.0 0.0994860417
H  H48  1  0.20492000  0.59381000  0.68851000  1.0 0.0994860417
H  H49  1  0.41470000  0.74232000  0.49270000  1.0 0.1098264425
H  H50  1  0.58530000  0.25768000  0.50730000  1.0 0.1098264425
H  H51  1  0.34854000  0.85036000  0.52711000  1.0 0.1182363201
H  H52  1  0.65146000  0.14964000  0.47289000  1.0 0.1182363201
H  H53  1  0.22960000  0.89036000  0.51443000  1.0 0.1098264425
H  H54  1  0.77040000  0.10964000  0.48557000  1.0 0.1098264425
H  H55  1  0.18233000  0.01531000  0.55223000  1.0 0.0914463808
H  H56  1  0.81767000  0.98469000  0.44777000  1.0 0.0914463808
H  H57  1  0.33915000  0.18223000  0.43495000  1.0 0.0994860417
H  H58  1  0.66085000  0.81777000  0.56505000  1.0 0.0994860417
H  H59  1  0.39517000  0.06714000  0.39410000  1.0 0.1182363201
H  H60  1  0.60483000  0.93286000  0.60590000  1.0 0.1182363201
H  H61  1  0.37721000  0.92229000  0.32787000  1.0 0.1182363201
H  H62  1  0.62279000  0.07771000  0.67213000  1.0 0.1182363201
H  H63  1  0.44659000  0.81425000  0.30270000  1.0 0.0914463808
H  H64  1  0.55341000  0.18575000  0.69730000  1.0 0.0914463808
C  C1  1  0.64368000  0.58763000  0.35509000  1.0 -0.3617254429
C  C2  1  0.35632000  0.41237000  0.64491000  1.0 -0.3617254429
C  C3  1  0.60398000  0.64169000  0.36299000  1.0 -0.4050227039
C  C4  1  0.39602000  0.35831000  0.63701000  1.0 -0.4050227039
C  C5  1  0.61192000  0.55144000  0.13064000  1.0 -0.368248918
C  C6  1  0.38808000  0.44856000  0.86936000  1.0 -0.368248918
C  C7  1  0.55570000  0.58325000  0.10692000  1.0 -0.4050227039
C  C8  1  0.44430000  0.41675000  0.89308000  1.0 -0.404089176
C  C9  1  0.08295000  0.85652000  0.21403000  1.0 0.1098264425
C  C10  1  0.91705000  0.14348000  0.78597000  1.0 0.1098264425
C  C11  1  0.14311000  0.81626000  0.21019000  1.0 -0.1614847444
C  C12  1  0.85689000  0.18374000  0.78981000  1.0 -0.1614847444
C  C13  1  0.20699000  0.84031000  0.16770000  1.0 0.0914463808
C  C14  1  0.79301000  0.15969000  0.83230000  1.0 0.0914463808
C  C15  1  0.26567000  0.79283000  0.15791000  1.0 0.0994860417
C  C16  1  0.73433000  0.20717000  0.84209000  1.0 0.0994860417
C  C17  1  0.23070000  0.69488000  0.15921000  1.0 -0.1614847444
C  C18  1  0.76930000  0.30512000  0.84079000  1.0 -0.1614847444
C  C19  1  0.28697000  0.65117000  0.14893000  1.0 0.0994860417
C  C20  1  0.71303000  0.34883000  0.85107000  1.0 0.0994860417
C  C21  1  0.40940000  0.79369000  0.13432000  1.0 0.0914463808
C  C22  1  0.59060000  0.20631000  0.86568000  1.0 0.0914463808
C  C23  1  0.35804000  0.84260000  0.14599000  1.0 -0.1614847444
C  C24  1  0.64196000  0.15740000  0.85401000  1.0 -0.1614847444
C  C25  1  0.21045000  0.90908000  0.13320000  1.0 -0.1614847444
C  C26  1  0.78955000  0.09092000  0.86680000  1.0 -0.1614847444
C  C27  1  0.14934000  0.94747000  0.14056000  1.0 0.0914463808
C  C28  1  0.85066000  0.05253000  0.85944000  1.0 0.0914463808
C  C29  1  0.87227000  0.08213000  0.20297000  1.0 0.0994860417
C  C30  1  0.12773000  0.91787000  0.79703000  1.0 0.0994860417
C  C31  1  0.82920000  0.13703000  0.18947000  1.0 -0.1614847444
C  C32  1  0.17080000  0.86297000  0.81053000  1.0 -0.1614847444
C  C33  1  0.84575000  0.18167000  0.13541000  1.0 0.0994860417
C  C34  1  0.15425000  0.81833000  0.86459000  1.0 0.0994860417
C  C35  1  0.79926000  0.23872000  0.11911000  1.0 0.0994860417
C  C36  1  0.20074000  0.76128000  0.88089000  1.0 0.0994860417
C  C37  1  0.72818000  0.24188000  0.15065000  1.0 -0.1614847444
C  C38  1  0.27182000  0.75812000  0.84935000  1.0 -0.1614847444
C  C39  1  0.68750000  0.29822000  0.13578000  1.0 0.0994860417
C  C40  1  0.31250000  0.70178000  0.86422000  1.0 0.0994860417
C  C41  1  0.77904000  0.34649000  0.05797000  1.0 0.0914463808
C  C42  1  0.22096000  0.65351000  0.94203000  1.0 0.0914463808
C  C43  1  0.82343000  0.29260000  0.07126000  1.0 -0.1614847444
C  C44  1  0.17657000  0.70740000  0.92874000  1.0 -0.1614847444
C  C45  1  0.90790000  0.16822000  0.09731000  1.0 -0.1614847444
C  C46  1  0.09210000  0.83178000  0.90269000  1.0 -0.1614847444
C  C47  1  0.94810000  0.11197000  0.11314000  1.0 0.0914463808
C  C48  1  0.05190000  0.88803000  0.88686000  1.0 0.0914463808
C  C49  1  0.81024000  0.42943000  0.48687000  1.0 0.0914463808
C  C50  1  0.18976000  0.57057000  0.51313000  1.0 0.0914463808
C  C51  1  0.86860000  0.38896000  0.50374000  1.0 -0.169053612
C  C52  1  0.13140000  0.61104000  0.49626000  1.0 -0.169053612
C  C53  1  0.90267000  0.35193000  0.44945000  1.0 0.0994860417
C  C54  1  0.09733000  0.64807000  0.55055000  1.0 0.0994860417
C  C55  1  0.96909000  0.31355000  0.46663000  1.0 0.0994860417
C  C56  1  0.03091000  0.68645000  0.53337000  1.0 0.0994860417
C  C57  1  0.97654000  0.28091000  0.52725000  1.0 -0.169053612
C  C58  1  0.02346000  0.71909000  0.47275000  1.0 -0.169053612
C  C59  1  0.04476000  0.25146000  0.54430000  1.0 0.0994860417
C  C60  1  0.95524000  0.74854000  0.45570000  1.0 0.0994860417
C  C61  1  0.09750000  0.28057000  0.44501000  1.0 0.0994860417
C  C62  1  0.90250000  0.71943000  0.55499000  1.0 0.0994860417
C  C63  1  0.03126000  0.31131000  0.42465000  1.0 -0.1614847444
C  C64  1  0.96874000  0.68869000  0.57535000  1.0 -0.1614847444
C  C65  1  0.87310000  0.35679000  0.37858000  1.0 -0.1614847444
C  C66  1  0.12690000  0.64321000  0.62142000  1.0 -0.1614847444
C  C67  1  0.81549000  0.39891000  0.36568000  1.0 0.0914463808
C  C68  1  0.18451000  0.60109000  0.63432000  1.0 0.0914463808
C  C69  1  0.40285000  0.78110000  0.45597000  1.0 0.0994860417
C  C70  1  0.59715000  0.21890000  0.54403000  1.0 0.0994860417
C  C71  1  0.36456000  0.84218000  0.47464000  1.0 -0.1614847444
C  C72  1  0.63544000  0.15782000  0.52536000  1.0 -0.1614847444
C  C73  1  0.35352000  0.89603000  0.42979000  1.0 0.0994860417
C  C74  1  0.64648000  0.10397000  0.57021000  1.0 0.0994860417
C  C75  1  0.31775000  0.96551000  0.45013000  1.0 0.0994860417
C  C76  1  0.68225000  0.03449000  0.54987000  1.0 0.0994860417
C  C77  1  0.25621000  0.95346000  0.49482000  1.0 -0.169053612
C  C78  1  0.74379000  0.04654000  0.50518000  1.0 -0.169053612
C  C79  1  0.22847000  0.02344000  0.51617000  1.0 0.0994860417
C  C80  1  0.77153000  0.97656000  0.48383000  1.0 0.0994860417
C  C81  1  0.31508000  0.11589000  0.45108000  1.0 0.0914463808
C  C82  1  0.68492000  0.88411000  0.54892000  1.0 0.0914463808
C  C83  1  0.34590000  0.04904000  0.42748000  1.0 -0.1614847444
C  C84  1  0.65410000  0.95096000  0.57252000  1.0 -0.1614847444
C  C85  1  0.38192000  0.88308000  0.36578000  1.0 -0.169053612
C  C86  1  0.61808000  0.11692000  0.63422000  1.0 -0.169053612
C  C87  1  0.42012000  0.82137000  0.35040000  1.0 0.0914463808
C  C88  1  0.57988000  0.17863000  0.64960000  1.0 0.0914463808
C  C89  1  0.26687000  0.49773000  0.31689000  1.0 0.4212019778
C  C90  1  0.73313000  0.50227000  0.68311000  1.0 0.4212019778
C  C91  1  0.15784000  0.46855000  0.27589000  1.0 0.5877166059
C  C92  1  0.84216000  0.53145000  0.72411000  1.0 0.5877166059
C  C93  1  0.87169000  0.86967000  0.30412000  1.0 0.4386662162
C  C94  1  0.12831000  0.13033000  0.69588000  1.0 0.4386662162
C  C95  1  0.96288000  0.97439000  0.36196000  1.0 0.5805372424
C  C96  1  0.03712000  0.02561000  0.63804000  1.0 0.5805372424
C  C97  1  0.65632000  0.90572000  0.27177000  1.0 0.4212019778
C  C98  1  0.34368000  0.09428000  0.72823000  1.0 0.4212019778
C  C99  1  0.66247000  0.00828000  0.30174000  1.0 0.5805372424
C  C100  1  0.33753000  0.99172000  0.69826000  1.0 0.5805372424
C  C101  1  0.23976000  0.24280000  0.99542000  1.0 0.4298212296
C  C102  1  0.76024000  0.75720000  0.00458000  1.0 0.4298212296
C  C103  1  0.16552000  0.19331000  0.03560000  1.0 0.5877166059
C  C104  1  0.83448000  0.80669000  0.96440000  1.0 0.5877166059
C  C105  1  0.84809000  0.60204000  0.04083000  1.0 0.4212019778
C  C106  1  0.15191000  0.39796000  0.95917000  1.0 0.4212019778
C  C107  1  0.93296000  0.61641000  0.00725000  1.0 0.5805372424
C  C108  1  0.06704000  0.38359000  0.99275000  1.0 0.5805372424
C  C109  1  0.34564000  0.33889000  0.37405000  1.0 0.4386662162
C  C110  1  0.65436000  0.66111000  0.62595000  1.0 0.4386662162
C  C111  1  0.25975000  0.25213000  0.29969000  1.0 0.5877166059
C  C112  1  0.74025000  0.74787000  0.70031000  1.0 0.5877166059
C  C113  1  0.87593000  0.59182000  0.26052000  1.0 0.4130011565
C  C114  1  0.12407000  0.40818000  0.73948000  1.0 0.4130011565
C  C115  1  0.96491000  0.57575000  0.26203000  1.0 0.5805372424
C  C116  1  0.03509000  0.42425000  0.73797000  1.0 0.5805372424
C  C117  1  0.43537000  0.18664000  0.99881000  1.0 0.4212019778
C  C118  1  0.56463000  0.81336000  0.00119000  1.0 0.4212019778
C  C119  1  0.41191000  0.09087000  0.01888000  1.0 0.5960065193
C  C120  1  0.58809000  0.90913000  0.98112000  1.0 0.5960065193
C  C121  1  0.52555000  0.25971000  0.33677000  1.0 0.4298212296
C  C122  1  0.47445000  0.74029000  0.66323000  1.0 0.4298212296
C  C123  1  0.48806000  0.15460000  0.27576000  1.0 0.5805372424
C  C124  1  0.51194000  0.84540000  0.72424000  1.0 0.5805372424
N  N1  1  0.93105000  0.06867000  0.16527000  1.0 -0.1823701941
N  N2  1  0.06895000  0.93133000  0.83473000  1.0 -0.1823701941
N  N3  1  0.71203000  0.35079000  0.09004000  1.0 -0.169053612
N  N4  1  0.28797000  0.64921000  0.90996000  1.0 -0.169053612
N  N5  1  0.78437000  0.43623000  0.41878000  1.0 -0.2016659137
N  N6  1  0.21563000  0.56377000  0.58122000  1.0 -0.2016659137
N  N7  1  0.10636000  0.25160000  0.50464000  1.0 -0.227985435
N  N8  1  0.89364000  0.74840000  0.49536000  1.0 -0.227985435
N  N9  1  0.43183000  0.77079000  0.39466000  1.0 -0.1899915644
N  N10  1  0.56817000  0.22921000  0.60534000  1.0 -0.1899915644
N  N11  1  0.25767000  0.10543000  0.49576000  1.0 -0.2199474805
N  N12  1  0.74233000  0.89457000  0.50424000  1.0 -0.2199474805
N  N13  1  0.08479000  0.92105000  0.17935000  1.0 -0.1899915644
N  N14  1  0.91521000  0.07895000  0.82065000  1.0 -0.1899915644
N  N15  1  0.37479000  0.69870000  0.13546000  1.0 -0.1614847444
N  N16  1  0.62521000  0.30130000  0.86454000  1.0 -0.1614847444
O  O1  1  0.29182000  0.51207000  0.38481000  1.0 -0.5006702178
O  O2  1  0.70818000  0.48793000  0.61519000  1.0 -0.5006702178
O  O3  1  0.31643000  0.50778000  0.27140000  1.0 -0.5187878542
O  O4  1  0.68357000  0.49222000  0.72860000  1.0 -0.5187878542
O  O5  1  0.80535000  0.82012000  0.32932000  1.0 -0.5094500118
O  O6  1  0.19465000  0.17988000  0.67068000  1.0 -0.5094500118
O  O7  1  0.87490000  0.84875000  0.23806000  1.0 -0.4881347749
O  O8  1  0.12510000  0.15125000  0.76194000  1.0 -0.4881347749
O  O9  1  0.71305000  0.90744000  0.23449000  1.0 -0.4729005926
O  O10  1  0.28695000  0.09256000  0.76551000  1.0 -0.4729005926
O  O11  1  0.59380000  0.83331000  0.28661000  1.0 -0.5094500118
O  O12  1  0.40620000  0.16669000  0.71339000  1.0 -0.5094500118
O  O13  1  0.22301000  0.18136000  0.93250000  1.0 -0.4881347749
O  O14  1  0.77699000  0.81864000  0.06750000  1.0 -0.4881347749
O  O15  1  0.30775000  0.33507000  0.03188000  1.0 -0.4615488284
O  O16  1  0.69225000  0.66493000  0.96812000  1.0 -0.4615488284
O  O17  1  0.77079000  0.51279000  0.01281000  1.0 -0.5187878542
O  O18  1  0.22921000  0.48721000  0.98719000  1.0 -0.5187878542
O  O19  1  0.87060000  0.68038000  0.09341000  1.0 -0.4787501627
O  O20  1  0.12940000  0.31962000  0.90659000  1.0 -0.4787501627
O  O21  1  0.41990000  0.40758000  0.36499000  1.0 -0.4615488284
O  O22  1  0.58010000  0.59242000  0.63501000  1.0 -0.4615488284
O  O23  1  0.33065000  0.33103000  0.43429000  1.0 -0.4787501627
O  O24  1  0.66935000  0.66897000  0.56571000  1.0 -0.4787501627
O  O25  1  0.89604000  0.67744000  0.26007000  1.0 -0.4881347749
O  O26  1  0.10396000  0.32256000  0.73993000  1.0 -0.4881347749
O  O27  1  0.79488000  0.51697000  0.25747000  1.0 -0.533290916
O  O28  1  0.20512000  0.48303000  0.74253000  1.0 -0.533290916
O  O29  1  0.42035000  0.17065000  0.92956000  1.0 -0.5006702178
O  O30  1  0.57965000  0.82935000  0.07044000  1.0 -0.5006702178
O  O31  1  0.46262000  0.26615000  0.05274000  1.0 -0.5187878542
O  O32  1  0.53738000  0.73385000  0.94726000  1.0 -0.5187878542
O  O33  1  0.55779000  0.32993000  0.31123000  1.0 -0.5094500118
O  O34  1  0.44221000  0.67007000  0.68877000  1.0 -0.5094500118
O  O35  1  0.51861000  0.26086000  0.39992000  1.0 -0.5187878542
O  O36  1  0.48139000  0.73914000  0.60008000  1.0 -0.5187878542
F  F1  1  0.12650000  0.42552000  0.19979000  1.0 -0.1823701941
F  F2  1  0.87350000  0.57448000  0.80021000  1.0 -0.1823701941
F  F3  1  0.08608000  0.40106000  0.29770000  1.0 -0.2016659137
F  F4  1  0.91392000  0.59894000  0.70230000  1.0 -0.2016659137
F  F5  1  0.15627000  0.55666000  0.29354000  1.0 -0.2107967851
F  F6  1  0.84373000  0.44334000  0.70646000  1.0 -0.2107967851
F  F7  1  0.04978000  0.00616000  0.34508000  1.0 -0.2107967851
F  F8  1  0.95022000  0.99384000  0.65492000  1.0 -0.2107967851
F  F9  1  0.98533000  0.97358000  0.43285000  1.0 -0.2016659137
F  F10  1  0.01467000  0.02642000  0.56715000  1.0 -0.2016659137
F  F11  1  0.93935000  0.04789000  0.36470000  1.0 -0.2016659137
F  F12  1  0.06065000  0.95211000  0.63530000  1.0 -0.2016659137
F  F13  1  0.62831000  0.02965000  0.24235000  1.0 -0.2016659137
F  F14  1  0.37169000  0.97035000  0.75765000  1.0 -0.2016659137
F  F15  1  0.76059000  0.08856000  0.34302000  1.0 -0.2107967851
F  F16  1  0.23941000  0.91144000  0.65698000  1.0 -0.2107967851
F  F17  1  0.60646000  0.00802000  0.34711000  1.0 -0.2016659137
F  F18  1  0.39354000  0.99198000  0.65289000  1.0 -0.2016659137
F  F19  1  0.19028000  0.13475000  0.06582000  1.0 -0.2016659137
F  F20  1  0.80972000  0.86525000  0.93418000  1.0 -0.2016659137
F  F21  1  0.06654000  0.12855000  0.98695000  1.0 -0.2199474805
F  F22  1  0.93346000  0.87145000  0.01305000  1.0 -0.2199474805
F  F23  1  0.16681000  0.26297000  0.09262000  1.0 -0.2016659137
F  F24  1  0.83319000  0.73703000  0.90738000  1.0 -0.2016659137
F  F25  1  0.89770000  0.56924000  0.93064000  1.0 -0.1899915644
F  F26  1  0.10230000  0.43076000  0.06936000  1.0 -0.1899915644
F  F27  1  0.98447000  0.57636000  0.03664000  1.0 -0.2107967851
F  F28  1  0.01553000  0.42364000  0.96336000  1.0 -0.2107967851
F  F29  1  0.00317000  0.71732000  0.02388000  1.0 -0.2016659137
F  F30  1  0.99683000  0.28268000  0.97612000  1.0 -0.2016659137
F  F31  1  0.29145000  0.24828000  0.23944000  1.0 -0.1899915644
F  F32  1  0.70855000  0.75172000  0.76056000  1.0 -0.1899915644
F  F33  1  0.22180000  0.15888000  0.30573000  1.0 -0.2016659137
F  F34  1  0.77820000  0.84112000  0.69427000  1.0 -0.2016659137
F  F35  1  0.18114000  0.26719000  0.28389000  1.0 -0.2107967851
F  F36  1  0.81886000  0.73281000  0.71611000  1.0 -0.2107967851
F  F37  1  0.97574000  0.55891000  0.19256000  1.0 -0.2016659137
F  F38  1  0.02426000  0.44109000  0.80744000  1.0 -0.2016659137
F  F39  1  0.05528000  0.66163000  0.31291000  1.0 -0.2199474805
F  F40  1  0.94472000  0.33837000  0.68709000  1.0 -0.2107967851
F  F41  1  0.95299000  0.49510000  0.28106000  1.0 -0.2016659137
F  F42  1  0.04701000  0.50490000  0.71894000  1.0 -0.2016659137
F  F43  1  0.31811000  0.04816000  0.02684000  1.0 -0.2016659137
F  F44  1  0.68189000  0.95184000  0.97316000  1.0 -0.2016659137
F  F45  1  0.48027000  0.11194000  0.08444000  1.0 -0.2016659137
F  F46  1  0.51973000  0.88806000  0.91556000  1.0 -0.2016659137
F  F47  1  0.40894000  0.01745000  0.96369000  1.0 -0.2016659137
F  F48  1  0.59106000  0.98255000  0.03631000  1.0 -0.2016659137
F  F49  1  0.55929000  0.16079000  0.24348000  1.0 -0.2016659137
F  F50  1  0.44071000  0.83921000  0.75652000  1.0 -0.2016659137
F  F51  1  0.46724000  0.07779000  0.30356000  1.0 -0.2107967851
F  F52  1  0.53276000  0.92221000  0.69644000  1.0 -0.2107967851
F  F53  1  0.40081000  0.12067000  0.21923000  1.0 -0.2016659137
F  F54  1  0.59919000  0.87933000  0.78077000  1.0 -0.2016659137
