# DDEC6 charges by PACMAN v1.1 (https://github.com/mtap-research/PACMAN-charge/)
data_DARHUD_ASR_pacman
_symmetry_space_group_name_H-M   'P 1'
_cell_length_a   12.06450000
_cell_length_b   22.37570000
_cell_length_c   37.84900000
_cell_angle_alpha   90.00000000
_cell_angle_beta   90.00000000
_cell_angle_gamma   90.00000000
_symmetry_Int_Tables_number   1
_chemical_formula_structural   Y3H38C62N8O27
_chemical_formula_sum   'Y12 H152 C248 N32 O108'
_cell_volume   10217.39934417
_cell_formula_units_Z   4
loop_
 _symmetry_equiv_pos_site_id
 _symmetry_equiv_pos_as_xyz
  1  'x, y, z'
loop_
 _atom_site_type_symbol
 _atom_site_label
 _atom_site_symmetry_multiplicity
 _atom_site_fract_x
 _atom_site_fract_y
 _atom_site_fract_z
 _atom_site_occupancy
 _atom_site_charge
Y  Y1  1  0.45523000  0.29078000  0.03557000  1.0 1.8940268048
Y  Y2  1  0.38979000  0.75425000  0.54901000  1.0 1.9002560862
Y  Y3  1  0.19588000  0.81796000  0.47958000  1.0 1.8842181154
Y  Y4  1  0.04477000  0.70922000  0.53557000  1.0 1.8940268048
Y  Y5  1  0.11021000  0.24575000  0.04901000  1.0 1.9002560862
Y  Y6  1  0.30412000  0.18204000  0.97958000  1.0 1.8842181154
Y  Y7  1  0.54477000  0.79078000  0.46443000  1.0 1.8940268048
Y  Y8  1  0.61021000  0.25425000  0.95099000  1.0 1.9002560862
Y  Y9  1  0.80412000  0.31796000  0.02042000  1.0 1.8842181154
Y  Y10  1  0.95523000  0.20922000  0.96443000  1.0 1.8940268048
Y  Y11  1  0.88979000  0.74575000  0.45099000  1.0 1.9002560862
Y  Y12  1  0.69588000  0.68204000  0.52042000  1.0 1.8842181154
H  H1  1  0.34957000  0.55170000  0.49268000  1.0 0.1187810223
H  H2  1  0.34235000  0.36378000  0.60221000  1.0 0.2948357352
H  H3  1  0.53333000  0.54417000  0.38556000  1.0 0.1303293722
H  H4  1  0.35042000  0.46339000  0.46000000  1.0 0.1303293722
H  H5  1  0.50867000  0.44140000  0.38814000  1.0 0.2573917099
H  H6  1  0.36646000  0.24945000  0.26671000  1.0 0.2829840668
H  H7  1  0.53963000  0.62850000  0.41975000  1.0 0.1187810223
H  H8  1  0.19792000  0.99348000  0.53061000  1.0 0.1187810223
H  H9  1  0.04509000  0.30228000  0.86678000  1.0 0.108429323
H  H10  1  0.43431000  0.34801000  0.14539000  1.0 0.1392845931
H  H11  1  0.46734000  0.35256000  0.20544000  1.0 0.1303293722
H  H12  1  0.21591000  0.16375000  0.68252000  1.0 0.0819886296
H  H13  1  0.34467000  0.16987000  0.40457000  1.0 0.1830486022
H  H14  1  0.23531000  0.50115000  0.61967000  1.0 0.1303293722
H  H15  1  0.23108000  0.21122000  0.16104000  1.0 0.1303293722
H  H16  1  0.26093000  0.28384000  0.60578000  1.0 0.0819886296
H  H17  1  0.42566000  0.27602000  0.41084000  1.0 0.0819886296
H  H18  1  0.15984000  0.30047000  0.75338000  1.0 0.2829840668
H  H19  1  0.55288000  0.96814000  0.41305000  1.0 0.1187810223
H  H20  1  0.05273000  0.31313000  0.80596000  1.0 0.1303293722
H  H21  1  0.29543000  0.58949000  0.59648000  1.0 0.1303293722
H  H22  1  0.18241000  0.08355000  0.56140000  1.0 0.1187810223
H  H23  1  0.32055000  0.20746000  0.86523000  1.0 0.1303293722
H  H24  1  0.55358000  0.06473000  0.39008000  1.0 0.0933086332
H  H25  1  0.36945000  0.01761000  0.63765000  1.0 0.1187810223
H  H26  1  0.32723000  0.21404000  0.80393000  1.0 0.1392845931
H  H27  1  0.27478000  0.20984000  0.21939000  1.0 0.1392845931
H  H28  1  0.24450000  0.33588000  0.70609000  1.0 0.108429323
H  H29  1  0.41573000  0.39207000  0.33272000  1.0 0.108429323
H  H30  1  0.49247000  0.41931000  0.57467000  1.0 0.1392845931
H  H31  1  0.55434000  0.50886000  0.55380000  1.0 0.1303293722
H  H32  1  0.44912000  0.21881000  0.31129000  1.0 0.1029799991
H  H33  1  0.25679000  0.00175000  0.45541000  1.0 0.1187810223
H  H34  1  0.38627000  0.92924000  0.60672000  1.0 0.1187810223
H  H35  1  0.26673000  0.09881000  0.43444000  1.0 0.108429323
H  H36  1  0.30867000  0.11370000  0.64073000  1.0 0.2104664582
H  H37  1  0.18335000  0.10061000  0.63662000  1.0 0.1632949748
H  H38  1  0.52047000  0.16085000  0.40955000  1.0 0.1632949748
H  H39  1  0.15043000  0.44830000  0.99268000  1.0 0.1187810223
H  H40  1  0.15765000  0.63622000  0.10221000  1.0 0.2948357352
H  H41  1  0.96667000  0.45583000  0.88556000  1.0 0.1303293722
H  H42  1  0.14958000  0.53661000  0.96000000  1.0 0.1303293722
H  H43  1  0.99133000  0.55860000  0.88814000  1.0 0.2573917099
H  H44  1  0.13354000  0.75055000  0.76671000  1.0 0.2829840668
H  H45  1  0.96037000  0.37150000  0.91975000  1.0 0.1187810223
H  H46  1  0.30208000  0.00652000  0.03061000  1.0 0.1187810223
H  H47  1  0.45491000  0.69772000  0.36678000  1.0 0.108429323
H  H48  1  0.06569000  0.65199000  0.64539000  1.0 0.1392845931
H  H49  1  0.03266000  0.64744000  0.70544000  1.0 0.1303293722
H  H50  1  0.28409000  0.83625000  0.18252000  1.0 0.0819886296
H  H51  1  0.15533000  0.83013000  0.90457000  1.0 0.1830486022
H  H52  1  0.26469000  0.49885000  0.11967000  1.0 0.1303293722
H  H53  1  0.26892000  0.78878000  0.66104000  1.0 0.1303293722
H  H54  1  0.23907000  0.71616000  0.10578000  1.0 0.0819886296
H  H55  1  0.07434000  0.72398000  0.91084000  1.0 0.0819886296
H  H56  1  0.34016000  0.69953000  0.25338000  1.0 0.2829840668
H  H57  1  0.94712000  0.03186000  0.91305000  1.0 0.1187810223
H  H58  1  0.44727000  0.68687000  0.30596000  1.0 0.1303293722
H  H59  1  0.20457000  0.41051000  0.09648000  1.0 0.1303293722
H  H60  1  0.31759000  0.91645000  0.06140000  1.0 0.1187810223
H  H61  1  0.17945000  0.79254000  0.36523000  1.0 0.1303293722
H  H62  1  0.94642000  0.93527000  0.89008000  1.0 0.0933086332
H  H63  1  0.13055000  0.98239000  0.13765000  1.0 0.1187810223
H  H64  1  0.17277000  0.78596000  0.30393000  1.0 0.1392845931
H  H65  1  0.22522000  0.79016000  0.71939000  1.0 0.1392845931
H  H66  1  0.25550000  0.66412000  0.20609000  1.0 0.108429323
H  H67  1  0.08427000  0.60793000  0.83272000  1.0 0.108429323
H  H68  1  0.00753000  0.58069000  0.07467000  1.0 0.1392845931
H  H69  1  0.94566000  0.49114000  0.05380000  1.0 0.1303293722
H  H70  1  0.05088000  0.78119000  0.81129000  1.0 0.1029799991
H  H71  1  0.24321000  0.99825000  0.95541000  1.0 0.1187810223
H  H72  1  0.11373000  0.07076000  0.10672000  1.0 0.1187810223
H  H73  1  0.23327000  0.90119000  0.93444000  1.0 0.108429323
H  H74  1  0.19133000  0.88630000  0.14073000  1.0 0.2104664582
H  H75  1  0.31665000  0.89939000  0.13662000  1.0 0.165099565
H  H76  1  0.97953000  0.83915000  0.90955000  1.0 0.1632949748
H  H77  1  0.65043000  0.05170000  0.00732000  1.0 0.1187810223
H  H78  1  0.65765000  0.86378000  0.89779000  1.0 0.2948357352
H  H79  1  0.46667000  0.04417000  0.11444000  1.0 0.1303293722
H  H80  1  0.64958000  0.96339000  0.04000000  1.0 0.1303293722
H  H81  1  0.49133000  0.94140000  0.11186000  1.0 0.2573917099
H  H82  1  0.63354000  0.74945000  0.23329000  1.0 0.2829840668
H  H83  1  0.46037000  0.12850000  0.08025000  1.0 0.1187810223
H  H84  1  0.80208000  0.49348000  0.96939000  1.0 0.1187810223
H  H85  1  0.95491000  0.80228000  0.63322000  1.0 0.108429323
H  H86  1  0.56569000  0.84801000  0.35461000  1.0 0.1392845931
H  H87  1  0.53266000  0.85256000  0.29456000  1.0 0.1303293722
H  H88  1  0.78409000  0.66375000  0.81748000  1.0 0.0819886296
H  H89  1  0.65533000  0.66987000  0.09543000  1.0 0.1830486022
H  H90  1  0.76469000  0.00115000  0.88033000  1.0 0.1303293722
H  H91  1  0.76892000  0.71122000  0.33896000  1.0 0.1303293722
H  H92  1  0.73907000  0.78384000  0.89422000  1.0 0.0819886296
H  H93  1  0.57434000  0.77602000  0.08916000  1.0 0.0819886296
H  H94  1  0.84016000  0.80047000  0.74662000  1.0 0.2829840668
H  H95  1  0.44712000  0.46814000  0.08695000  1.0 0.1187810223
H  H96  1  0.94727000  0.81313000  0.69404000  1.0 0.1303293722
H  H97  1  0.70457000  0.08949000  0.90352000  1.0 0.1303293722
H  H98  1  0.81759000  0.58355000  0.93860000  1.0 0.1187810223
H  H99  1  0.67945000  0.70746000  0.63477000  1.0 0.1303293722
H  H100  1  0.44642000  0.56473000  0.10992000  1.0 0.0933086332
H  H101  1  0.63055000  0.51761000  0.86235000  1.0 0.1187810223
H  H102  1  0.67277000  0.71404000  0.69607000  1.0 0.1392845931
H  H103  1  0.72522000  0.70984000  0.28061000  1.0 0.1392845931
H  H104  1  0.75550000  0.83588000  0.79391000  1.0 0.108429323
H  H105  1  0.58427000  0.89207000  0.16728000  1.0 0.108429323
H  H106  1  0.50753000  0.91931000  0.92533000  1.0 0.1392845931
H  H107  1  0.44566000  0.00886000  0.94620000  1.0 0.1303293722
H  H108  1  0.55088000  0.71881000  0.18871000  1.0 0.1029799991
H  H109  1  0.74321000  0.50175000  0.04459000  1.0 0.1187810223
H  H110  1  0.61373000  0.42924000  0.89328000  1.0 0.1187810223
H  H111  1  0.73327000  0.59881000  0.06556000  1.0 0.108429323
H  H112  1  0.69133000  0.61370000  0.85927000  1.0 0.2104664582
H  H113  1  0.81665000  0.60061000  0.86338000  1.0 0.1632949748
H  H114  1  0.47953000  0.66085000  0.09045000  1.0 0.1632949748
H  H115  1  0.84957000  0.94830000  0.50732000  1.0 0.1187810223
H  H116  1  0.84235000  0.13622000  0.39779000  1.0 0.2948357352
H  H117  1  0.03333000  0.95583000  0.61444000  1.0 0.1303293722
H  H118  1  0.85042000  0.03661000  0.54000000  1.0 0.1303293722
H  H119  1  0.00867000  0.05860000  0.61186000  1.0 0.2573917099
H  H120  1  0.86646000  0.25055000  0.73329000  1.0 0.2829840668
H  H121  1  0.03963000  0.87150000  0.58025000  1.0 0.1187810223
H  H122  1  0.69792000  0.50652000  0.46939000  1.0 0.1187810223
H  H123  1  0.54509000  0.19772000  0.13322000  1.0 0.108429323
H  H124  1  0.93431000  0.15199000  0.85461000  1.0 0.1392845931
H  H125  1  0.96734000  0.14744000  0.79456000  1.0 0.1303293722
H  H126  1  0.71591000  0.33625000  0.31748000  1.0 0.0819886296
H  H127  1  0.84467000  0.33013000  0.59543000  1.0 0.1830486022
H  H128  1  0.73531000  0.99885000  0.38033000  1.0 0.1303293722
H  H129  1  0.73108000  0.28878000  0.83896000  1.0 0.1303293722
H  H130  1  0.76093000  0.21616000  0.39422000  1.0 0.0819886296
H  H131  1  0.92566000  0.22398000  0.58916000  1.0 0.0819886296
H  H132  1  0.65984000  0.19953000  0.24662000  1.0 0.2829840668
H  H133  1  0.05288000  0.53186000  0.58695000  1.0 0.1187810223
H  H134  1  0.55273000  0.18687000  0.19404000  1.0 0.1303293722
H  H135  1  0.79543000  0.91051000  0.40352000  1.0 0.1303293722
H  H136  1  0.68241000  0.41645000  0.43860000  1.0 0.1187810223
H  H137  1  0.82055000  0.29254000  0.13477000  1.0 0.1303293722
H  H138  1  0.05358000  0.43527000  0.60992000  1.0 0.0933086332
H  H139  1  0.86945000  0.48239000  0.36235000  1.0 0.1187810223
H  H140  1  0.82723000  0.28596000  0.19607000  1.0 0.1392845931
H  H141  1  0.77478000  0.29016000  0.78061000  1.0 0.1392845931
H  H142  1  0.74450000  0.16412000  0.29391000  1.0 0.108429323
H  H143  1  0.91573000  0.10793000  0.66728000  1.0 0.108429323
H  H144  1  0.99247000  0.08069000  0.42533000  1.0 0.1392845931
H  H145  1  0.05434000  0.99114000  0.44620000  1.0 0.1303293722
H  H146  1  0.94912000  0.28119000  0.68871000  1.0 0.1029799991
H  H147  1  0.75679000  0.49825000  0.54459000  1.0 0.1187810223
H  H148  1  0.88627000  0.57076000  0.39328000  1.0 0.1187810223
H  H149  1  0.76673000  0.40119000  0.56556000  1.0 0.108429323
H  H150  1  0.80867000  0.38630000  0.35927000  1.0 0.2104664582
H  H151  1  0.68335000  0.39939000  0.36338000  1.0 0.1632949748
H  H152  1  0.02047000  0.33915000  0.59045000  1.0 0.1632949748
C  C1  1  0.38720000  0.54990000  0.47130000  1.0 -0.0684191592
C  C2  1  0.44260000  0.59910000  0.45892000  1.0 -0.0182153207
C  C3  1  0.18090000  0.25180000  0.87221000  1.0 -0.0495336894
C  C4  1  0.49750000  0.54480000  0.40730000  1.0 -0.1875272477
C  C5  1  0.38740000  0.49690000  0.45150000  1.0 -0.2381543647
C  C6  1  0.32680000  0.28060000  0.14682000  1.0 -0.0374864401
C  C7  1  0.29830000  0.89320000  0.54740000  1.0 0.6273999699
C  C8  1  0.17250000  0.24380000  0.91067000  1.0 0.60251439
C  C9  1  0.44260000  0.49430000  0.41920000  1.0 0.1994181546
C  C10  1  0.49920000  0.59560000  0.42750000  1.0 -0.0684191592
C  C11  1  0.29190000  0.95290000  0.56570000  1.0 -0.0344291955
C  C12  1  0.45010000  0.65530000  0.48083000  1.0 0.60251439
C  C13  1  0.23350000  0.99800000  0.55220000  1.0 -0.0813673713
C  C14  1  0.36970000  0.28310000  0.21900000  1.0 0.1994181546
C  C15  1  0.10210000  0.28420000  0.85420000  1.0 -0.0813673713
C  C16  1  0.43690000  0.55990000  0.57490000  1.0 -0.0495336894
C  C17  1  0.39870000  0.32130000  0.16040000  1.0 -0.0813673713
C  C18  1  0.47780000  0.61880000  0.56360000  1.0 0.6199722775
C  C19  1  0.41960000  0.32370000  0.19640000  1.0 -0.2010509697
C  C20  1  0.38400000  0.90860000  0.44220000  1.0 0.6199722775
C  C21  1  0.42610000  0.34190000  0.37582000  1.0 -0.0568639152
C  C22  1  0.27630000  0.38470000  0.64410000  1.0 0.4172606543
C  C23  1  0.22460000  0.20320000  0.67530000  1.0 -0.2174844605
C  C24  1  0.30180000  0.50270000  0.60730000  1.0 -0.1875272477
C  C25  1  0.28010000  0.23960000  0.16990000  1.0 -0.0813673713
C  C26  1  0.25120000  0.27440000  0.62950000  1.0 -0.2381543647
C  C27  1  0.42970000  0.28420000  0.38680000  1.0 -0.2679956518
C  C28  1  0.23310000  0.21520000  0.63980000  1.0 0.0035284196
C  C29  1  0.19100000  0.26170000  0.79932000  1.0 0.2104664582
C  C30  1  0.27940000  0.06050000  0.60150000  1.0 0.2104664582
C  C31  1  0.49270000  0.99350000  0.41640000  1.0 -0.0995923311
C  C32  1  0.43910000  0.32380000  0.27670000  1.0 0.4172606543
C  C33  1  0.10560000  0.29050000  0.81780000  1.0 -0.2010509697
C  C34  1  0.33830000  0.55540000  0.59340000  1.0 -0.0684191592
C  C35  1  0.22530000  0.05270000  0.57060000  1.0 -0.2755154284
C  C36  1  0.40540000  0.38690000  0.40480000  1.0 0.4024671428
C  C37  1  0.22830000  0.24660000  0.70005000  1.0 -0.0182153207
C  C38  1  0.26440000  0.22760000  0.85330000  1.0 -0.0684191592
C  C39  1  0.25450000  0.31860000  0.65470000  1.0 -0.0344291955
C  C40  1  0.49530000  0.05270000  0.40450000  1.0 -0.2499202191
C  C41  1  0.43030000  0.30880000  0.31540000  1.0 -0.0495336894
C  C42  1  0.33610000  0.01370000  0.61560000  1.0 -0.2270952146
C  C43  1  0.26950000  0.23190000  0.81630000  1.0 -0.1714215539
C  C44  1  0.30340000  0.27640000  0.10790000  1.0 0.60251439
C  C45  1  0.30370000  0.23960000  0.20490000  1.0 -0.180188366
C  C46  1  0.22660000  0.22830000  0.73850000  1.0 0.4489455931
C  C47  1  0.24280000  0.30550000  0.68940000  1.0 -0.180188366
C  C48  1  0.36270000  0.45290000  0.60280000  1.0 0.1994181546
C  C49  1  0.42310000  0.35270000  0.34030000  1.0 -0.2010509697
C  C50  1  0.39570000  0.97340000  0.43380000  1.0 -0.0344291955
C  C51  1  0.41690000  0.09290000  0.41300000  1.0 0.1994181546
C  C52  1  0.43960000  0.23610000  0.36260000  1.0 0.0093778619
C  C53  1  0.45560000  0.45440000  0.58060000  1.0 -0.180188366
C  C54  1  0.49110000  0.50780000  0.56780000  1.0 -0.0813673713
C  C55  1  0.44100000  0.24950000  0.32760000  1.0 -0.2270952146
C  C56  1  0.31740000  0.01340000  0.44190000  1.0 -0.0813673713
C  C57  1  0.34450000  0.96040000  0.59730000  1.0 -0.0813673713
C  C58  1  0.46430000  0.17290000  0.37190000  1.0 0.2304601856
C  C59  1  0.32530000  0.07270000  0.43030000  1.0 -0.2142279557
C  C60  1  0.22800000  0.16820000  0.61070000  1.0 0.3166693114
C  C61  1  0.25900000  0.16510000  0.61330000  1.0 0.2969084867
C  C62  1  0.42000000  0.17120000  0.37100000  1.0 0.2104664582
C  C63  1  0.11280000  0.45010000  0.97130000  1.0 -0.0684191592
C  C64  1  0.05740000  0.40090000  0.95892000  1.0 -0.0182153207
C  C65  1  0.31910000  0.74820000  0.37221000  1.0 -0.0495336894
C  C66  1  0.00250000  0.45520000  0.90730000  1.0 -0.1875272477
C  C67  1  0.11260000  0.50310000  0.95150000  1.0 -0.2381543647
C  C68  1  0.17320000  0.71940000  0.64682000  1.0 -0.0374864401
C  C69  1  0.20170000  0.10680000  0.04740000  1.0 0.6273999699
C  C70  1  0.32750000  0.75620000  0.41067000  1.0 0.60251439
C  C71  1  0.05740000  0.50570000  0.91920000  1.0 0.1994181546
C  C72  1  0.00080000  0.40440000  0.92750000  1.0 -0.0684191592
C  C73  1  0.20810000  0.04710000  0.06570000  1.0 -0.0344291955
C  C74  1  0.04990000  0.34470000  0.98083000  1.0 0.60251439
C  C75  1  0.26650000  0.00200000  0.05220000  1.0 -0.0813673713
C  C76  1  0.13030000  0.71690000  0.71900000  1.0 0.1994181546
C  C77  1  0.39790000  0.71580000  0.35420000  1.0 -0.0813673713
C  C78  1  0.06310000  0.44010000  0.07490000  1.0 -0.0495336894
C  C79  1  0.10130000  0.67870000  0.66040000  1.0 -0.0813673713
C  C80  1  0.02220000  0.38120000  0.06360000  1.0 0.6199722775
C  C81  1  0.08040000  0.67630000  0.69640000  1.0 -0.2010509697
C  C82  1  0.11600000  0.09140000  0.94220000  1.0 0.6199722775
C  C83  1  0.07390000  0.65810000  0.87582000  1.0 -0.0568639152
C  C84  1  0.22370000  0.61530000  0.14410000  1.0 0.4172606543
C  C85  1  0.27540000  0.79680000  0.17530000  1.0 -0.2174844605
C  C86  1  0.19820000  0.49730000  0.10730000  1.0 -0.1875272477
C  C87  1  0.21990000  0.76040000  0.66990000  1.0 -0.0813673713
C  C88  1  0.24880000  0.72560000  0.12950000  1.0 -0.2381543647
C  C89  1  0.07030000  0.71580000  0.88680000  1.0 -0.2679956518
C  C90  1  0.26690000  0.78480000  0.13980000  1.0 0.0035284196
C  C91  1  0.30900000  0.73830000  0.29932000  1.0 0.2104664582
C  C92  1  0.22060000  0.93950000  0.10150000  1.0 0.2104664582
C  C93  1  0.00730000  0.00650000  0.91640000  1.0 -0.094800312
C  C94  1  0.06090000  0.67620000  0.77670000  1.0 0.4172606543
C  C95  1  0.39440000  0.70950000  0.31780000  1.0 -0.2010509697
C  C96  1  0.16170000  0.44460000  0.09340000  1.0 -0.0684191592
C  C97  1  0.27470000  0.94730000  0.07060000  1.0 -0.2755154284
C  C98  1  0.09460000  0.61310000  0.90480000  1.0 0.4024671428
C  C99  1  0.27170000  0.75340000  0.20005000  1.0 -0.0182153207
C  C100  1  0.23560000  0.77240000  0.35330000  1.0 -0.0684191592
C  C101  1  0.24550000  0.68140000  0.15470000  1.0 -0.0374864401
C  C102  1  0.00470000  0.94730000  0.90450000  1.0 -0.2499202191
C  C103  1  0.06970000  0.69120000  0.81540000  1.0 -0.0495336894
C  C104  1  0.16390000  0.98630000  0.11560000  1.0 -0.2270952146
C  C105  1  0.23050000  0.76810000  0.31630000  1.0 -0.1714215539
C  C106  1  0.19660000  0.72360000  0.60790000  1.0 0.60251439
C  C107  1  0.19630000  0.76040000  0.70490000  1.0 -0.180188366
C  C108  1  0.27340000  0.77170000  0.23850000  1.0 0.4489455931
C  C109  1  0.25720000  0.69450000  0.18940000  1.0 -0.180188366
C  C110  1  0.13730000  0.54710000  0.10280000  1.0 0.1994181546
C  C111  1  0.07690000  0.64730000  0.84030000  1.0 -0.2010509697
C  C112  1  0.10430000  0.02660000  0.93380000  1.0 -0.0344291955
C  C113  1  0.08310000  0.90710000  0.91300000  1.0 0.1994181546
C  C114  1  0.06040000  0.76390000  0.86260000  1.0 0.0093778619
C  C115  1  0.04440000  0.54560000  0.08060000  1.0 -0.180188366
C  C116  1  0.00890000  0.49220000  0.06780000  1.0 -0.0813673713
C  C117  1  0.05900000  0.75050000  0.82760000  1.0 -0.2270952146
C  C118  1  0.18260000  0.98660000  0.94190000  1.0 -0.0813673713
C  C119  1  0.15550000  0.03960000  0.09730000  1.0 -0.0813673713
C  C120  1  0.03570000  0.82710000  0.87190000  1.0 0.2304601856
C  C121  1  0.17470000  0.92730000  0.93030000  1.0 -0.2174844605
C  C122  1  0.27200000  0.83180000  0.11070000  1.0 0.3166693114
C  C123  1  0.24100000  0.83490000  0.11330000  1.0 0.2969084867
C  C124  1  0.08000000  0.82880000  0.87100000  1.0 0.2151441761
C  C125  1  0.61280000  0.04990000  0.02870000  1.0 -0.0684191592
C  C126  1  0.55740000  0.09910000  0.04108000  1.0 -0.0109171332
C  C127  1  0.81910000  0.75180000  0.62779000  1.0 -0.0495336894
C  C128  1  0.50250000  0.04480000  0.09270000  1.0 -0.1875272477
C  C129  1  0.61260000  0.99690000  0.04850000  1.0 -0.2381543647
C  C130  1  0.67320000  0.78060000  0.35318000  1.0 -0.0374864401
C  C131  1  0.70170000  0.39320000  0.95260000  1.0 0.6273999699
C  C132  1  0.82750000  0.74380000  0.58933000  1.0 0.60251439
C  C133  1  0.55740000  0.99430000  0.08080000  1.0 0.1994181546
C  C134  1  0.50080000  0.09560000  0.07250000  1.0 -0.0684191592
C  C135  1  0.70810000  0.45290000  0.93430000  1.0 -0.0344291955
C  C136  1  0.54990000  0.15530000  0.01917000  1.0 0.60251439
C  C137  1  0.76650000  0.49800000  0.94780000  1.0 -0.0813673713
C  C138  1  0.63030000  0.78310000  0.28100000  1.0 0.1994181546
C  C139  1  0.89790000  0.78420000  0.64580000  1.0 -0.0813673713
C  C140  1  0.56310000  0.05990000  0.92510000  1.0 -0.0495336894
C  C141  1  0.60130000  0.82130000  0.33960000  1.0 -0.0813673713
C  C142  1  0.52220000  0.11880000  0.93640000  1.0 0.6199722775
C  C143  1  0.58040000  0.82370000  0.30360000  1.0 -0.2010509697
C  C144  1  0.61600000  0.40860000  0.05780000  1.0 0.6199722775
C  C145  1  0.57390000  0.84190000  0.12418000  1.0 -0.0568639152
C  C146  1  0.72370000  0.88470000  0.85590000  1.0 0.4172606543
C  C147  1  0.77540000  0.70320000  0.82470000  1.0 -0.2174844605
C  C148  1  0.69820000  0.00270000  0.89270000  1.0 -0.1875272477
C  C149  1  0.71990000  0.73960000  0.33010000  1.0 -0.0813673713
C  C150  1  0.74880000  0.77440000  0.87050000  1.0 -0.2381543647
C  C151  1  0.57030000  0.78420000  0.11320000  1.0 -0.2679956518
C  C152  1  0.76690000  0.71520000  0.86020000  1.0 0.0035284196
C  C153  1  0.80900000  0.76170000  0.70068000  1.0 0.2104664582
C  C154  1  0.72060000  0.56050000  0.89850000  1.0 0.2104664582
C  C155  1  0.50730000  0.49350000  0.08360000  1.0 -0.0995923311
C  C156  1  0.56090000  0.82380000  0.22330000  1.0 0.4172606543
C  C157  1  0.89440000  0.79050000  0.68220000  1.0 -0.2010509697
C  C158  1  0.66170000  0.05540000  0.90660000  1.0 -0.0684191592
C  C159  1  0.77470000  0.55270000  0.92940000  1.0 -0.2679956518
C  C160  1  0.59460000  0.88690000  0.09520000  1.0 0.4024671428
C  C161  1  0.77170000  0.74660000  0.79995000  1.0 -0.0182153207
C  C162  1  0.73560000  0.72760000  0.64670000  1.0 -0.0684191592
C  C163  1  0.74550000  0.81860000  0.84530000  1.0 -0.0374864401
C  C164  1  0.50470000  0.55270000  0.09550000  1.0 -0.2499202191
C  C165  1  0.56970000  0.80880000  0.18460000  1.0 -0.0495336894
C  C166  1  0.66390000  0.51370000  0.88440000  1.0 -0.2270952146
C  C167  1  0.73050000  0.73190000  0.68370000  1.0 -0.1714215539
C  C168  1  0.69660000  0.77640000  0.39210000  1.0 0.60251439
C  C169  1  0.69630000  0.73960000  0.29510000  1.0 -0.180188366
C  C170  1  0.77340000  0.72830000  0.76150000  1.0 0.4489455931
C  C171  1  0.75720000  0.80550000  0.81060000  1.0 -0.180188366
C  C172  1  0.63730000  0.95290000  0.89720000  1.0 0.1994181546
C  C173  1  0.57690000  0.85270000  0.15970000  1.0 -0.2010509697
C  C174  1  0.60430000  0.47340000  0.06620000  1.0 -0.0344291955
C  C175  1  0.58310000  0.59290000  0.08700000  1.0 0.1994181546
C  C176  1  0.56040000  0.73610000  0.13740000  1.0 0.0093778619
C  C177  1  0.54440000  0.95440000  0.91940000  1.0 -0.180188366
C  C178  1  0.50890000  0.00780000  0.93220000  1.0 -0.0813673713
C  C179  1  0.55900000  0.74950000  0.17240000  1.0 -0.2270952146
C  C180  1  0.68260000  0.51340000  0.05810000  1.0 -0.0813673713
C  C181  1  0.65550000  0.46040000  0.90270000  1.0 -0.0813673713
C  C182  1  0.53570000  0.67290000  0.12810000  1.0 0.2304601856
C  C183  1  0.67470000  0.57270000  0.06970000  1.0 -0.2174844605
C  C184  1  0.77200000  0.66820000  0.88930000  1.0 0.3166693114
C  C185  1  0.74100000  0.66510000  0.88670000  1.0 0.2969084867
C  C186  1  0.58000000  0.67120000  0.12900000  1.0 0.2104664582
C  C187  1  0.88720000  0.95010000  0.52870000  1.0 -0.0684191592
C  C188  1  0.94260000  0.90090000  0.54108000  1.0 -0.0182153207
C  C189  1  0.68090000  0.24820000  0.12779000  1.0 -0.0495336894
C  C190  1  0.99750000  0.95520000  0.59270000  1.0 -0.1875272477
C  C191  1  0.88740000  0.00310000  0.54850000  1.0 -0.2381543647
C  C192  1  0.82680000  0.21940000  0.85318000  1.0 -0.0374864401
C  C193  1  0.79830000  0.60680000  0.45260000  1.0 0.6273999699
C  C194  1  0.67250000  0.25620000  0.08933000  1.0 0.60251439
C  C195  1  0.94260000  0.00570000  0.58080000  1.0 0.1994181546
C  C196  1  0.99920000  0.90440000  0.57250000  1.0 -0.0684191592
C  C197  1  0.79190000  0.54710000  0.43430000  1.0 -0.0344291955
C  C198  1  0.95010000  0.84470000  0.51917000  1.0 0.60251439
C  C199  1  0.73350000  0.50200000  0.44780000  1.0 -0.0813673713
C  C200  1  0.86970000  0.21690000  0.78100000  1.0 0.1994181546
C  C201  1  0.60210000  0.21580000  0.14580000  1.0 -0.0813673713
C  C202  1  0.93690000  0.94010000  0.42510000  1.0 -0.0495336894
C  C203  1  0.89870000  0.17870000  0.83960000  1.0 -0.0813673713
C  C204  1  0.97780000  0.88120000  0.43640000  1.0 0.6199722775
C  C205  1  0.91960000  0.17630000  0.80360000  1.0 -0.2010509697
C  C206  1  0.88400000  0.59140000  0.55780000  1.0 0.6199722775
C  C207  1  0.92610000  0.15810000  0.62418000  1.0 -0.0568639152
C  C208  1  0.77630000  0.11530000  0.35590000  1.0 0.4172606543
C  C209  1  0.72460000  0.29680000  0.32470000  1.0 -0.2174844605
C  C210  1  0.80180000  0.99730000  0.39270000  1.0 -0.1875272477
C  C211  1  0.78010000  0.26040000  0.83010000  1.0 -0.0813673713
C  C212  1  0.75120000  0.22560000  0.37050000  1.0 -0.2381543647
C  C213  1  0.92970000  0.21580000  0.61320000  1.0 -0.2647881917
C  C214  1  0.73310000  0.28480000  0.36020000  1.0 0.0035284196
C  C215  1  0.69100000  0.23830000  0.20068000  1.0 0.2104664582
C  C216  1  0.77940000  0.43950000  0.39850000  1.0 0.2104664582
C  C217  1  0.99270000  0.50650000  0.58360000  1.0 -0.0995923311
C  C218  1  0.93910000  0.17620000  0.72330000  1.0 0.4172606543
C  C219  1  0.60560000  0.20950000  0.18220000  1.0 -0.2010509697
C  C220  1  0.83830000  0.94460000  0.40660000  1.0 -0.0684191592
C  C221  1  0.72530000  0.44730000  0.42940000  1.0 -0.2755154284
C  C222  1  0.90540000  0.11310000  0.59520000  1.0 0.4024671428
C  C223  1  0.72830000  0.25340000  0.29995000  1.0 -0.0182153207
C  C224  1  0.76440000  0.27240000  0.14670000  1.0 -0.0684191592
C  C225  1  0.75450000  0.18140000  0.34530000  1.0 -0.0344291955
C  C226  1  0.99530000  0.44730000  0.59550000  1.0 -0.2499202191
C  C227  1  0.93030000  0.19120000  0.68460000  1.0 -0.0495336894
C  C228  1  0.83610000  0.48630000  0.38440000  1.0 -0.2270952146
C  C229  1  0.76950000  0.26810000  0.18370000  1.0 -0.1714215539
C  C230  1  0.80340000  0.22360000  0.89210000  1.0 0.60251439
C  C231  1  0.80370000  0.26040000  0.79510000  1.0 -0.180188366
C  C232  1  0.72660000  0.27170000  0.26150000  1.0 0.4489455931
C  C233  1  0.74280000  0.19450000  0.31060000  1.0 -0.180188366
C  C234  1  0.86270000  0.04710000  0.39720000  1.0 0.1994181546
C  C235  1  0.92310000  0.14730000  0.65970000  1.0 -0.2010509697
C  C236  1  0.89570000  0.52660000  0.56620000  1.0 -0.0344291955
C  C237  1  0.91690000  0.40710000  0.58700000  1.0 0.1994181546
C  C238  1  0.93960000  0.26390000  0.63740000  1.0 0.0093778619
C  C239  1  0.95560000  0.04560000  0.41940000  1.0 -0.180188366
C  C240  1  0.99110000  0.99220000  0.43220000  1.0 -0.0813673713
C  C241  1  0.94100000  0.25050000  0.67240000  1.0 -0.2270952146
C  C242  1  0.81740000  0.48660000  0.55810000  1.0 -0.0813673713
C  C243  1  0.84450000  0.53960000  0.40270000  1.0 -0.0813673713
C  C244  1  0.96430000  0.32710000  0.62810000  1.0 0.2304601856
C  C245  1  0.82530000  0.42730000  0.56970000  1.0 -0.2142279557
C  C246  1  0.72800000  0.33180000  0.38930000  1.0 0.3166693114
C  C247  1  0.75900000  0.33490000  0.38670000  1.0 0.2969084867
C  C248  1  0.92000000  0.32880000  0.62900000  1.0 0.2104664582
N  N1  1  0.32740000  0.39420000  0.61530000  1.0 -0.4091111831
N  N2  1  0.44310000  0.44460000  0.39684000  1.0 -0.4640039764
N  N3  1  0.38890000  0.28110000  0.25597000  1.0 -0.446504604
N  N4  1  0.41130000  0.15630000  0.40320000  1.0 -0.180188366
N  N5  1  0.18840000  0.26820000  0.76170000  1.0 -0.4165411703
N  N6  1  0.27640000  0.11410000  0.62050000  1.0 -0.2010509697
N  N7  1  0.24700000  0.10700000  0.62690000  1.0 -0.1491585113
N  N8  1  0.45100000  0.15520000  0.40580000  1.0 -0.180188366
N  N9  1  0.17260000  0.60580000  0.11530000  1.0 -0.4091111831
N  N10  1  0.05690000  0.55540000  0.89684000  1.0 -0.4640039764
N  N11  1  0.11110000  0.71890000  0.75597000  1.0 -0.446504604
N  N12  1  0.08870000  0.84370000  0.90320000  1.0 -0.1875272477
N  N13  1  0.31160000  0.73180000  0.26170000  1.0 -0.4165411703
N  N14  1  0.22360000  0.88590000  0.12050000  1.0 -0.2010509697
N  N15  1  0.25300000  0.89300000  0.12690000  1.0 -0.1491585113
N  N16  1  0.04900000  0.84480000  0.90580000  1.0 -0.180188366
N  N17  1  0.67260000  0.89420000  0.88470000  1.0 -0.4091111831
N  N18  1  0.55690000  0.94460000  0.10316000  1.0 -0.4640039764
N  N19  1  0.61110000  0.78110000  0.24403000  1.0 -0.446504604
N  N20  1  0.58870000  0.65630000  0.09680000  1.0 -0.1875272477
N  N21  1  0.81160000  0.76820000  0.73830000  1.0 -0.4165411703
N  N22  1  0.72360000  0.61410000  0.87950000  1.0 -0.2010509697
N  N23  1  0.75300000  0.60700000  0.87310000  1.0 -0.1491585113
N  N24  1  0.54900000  0.65520000  0.09420000  1.0 -0.180188366
N  N25  1  0.82740000  0.10580000  0.38470000  1.0 -0.4091111831
N  N26  1  0.94310000  0.05540000  0.60316000  1.0 -0.4640039764
N  N27  1  0.88890000  0.21890000  0.74403000  1.0 -0.446504604
N  N28  1  0.91130000  0.34370000  0.59680000  1.0 -0.1875272477
N  N29  1  0.68840000  0.23180000  0.23830000  1.0 -0.4165411703
N  N30  1  0.77640000  0.38590000  0.37950000  1.0 -0.2010509697
N  N31  1  0.74700000  0.39300000  0.37310000  1.0 -0.1491585113
N  N32  1  0.95100000  0.34480000  0.59420000  1.0 -0.180188366
O  O1  1  0.21810000  0.75180000  0.52543000  1.0 -0.9506011866
O  O2  1  0.61950000  0.29602000  0.00662000  1.0 -0.9781669788
O  O3  1  0.56240000  0.76166000  0.52665000  1.0 -0.9315530024
O  O4  1  0.53880000  0.68671000  0.47644000  1.0 -0.6002183593
O  O5  1  0.07840000  0.24970000  0.92472000  1.0 -0.5791721157
O  O6  1  0.47470000  0.88020000  0.44644000  1.0 -0.5912758149
O  O7  1  0.23560000  0.88610000  0.52111000  1.0 -0.5640473775
O  O8  1  0.37620000  0.66930000  0.50249000  1.0 -0.4901970885
O  O9  1  0.42440000  0.66460000  0.57361000  1.0 -0.6002183593
O  O10  1  0.22110000  0.24620000  0.09897000  1.0 -0.5791721157
O  O11  1  0.56360000  0.62120000  0.54451000  1.0 -0.5912758149
O  O12  1  0.36210000  0.85380000  0.55892000  1.0 -0.5500041954
O  O13  1  0.29220000  0.88860000  0.44791000  1.0 -0.5500041954
O  O14  1  0.36230000  0.30520000  0.08729000  1.0 -0.5664803497
O  O15  1  0.26010000  0.23220000  0.92693000  1.0 -0.5290651731
O  O16  1  0.28300000  0.18500000  0.74720000  1.0 -0.3049053363
O  O17  1  0.23600000  0.42390000  0.66420000  1.0 -0.0684191592
O  O18  1  0.50160000  0.13860000  0.35030000  1.0 -0.2499202191
O  O19  1  0.18800000  0.17980000  0.58150000  1.0 -0.1614888906
O  O20  1  0.44800000  0.37560000  0.26670000  1.0 0.0093778619
O  O21  1  0.36800000  0.37280000  0.43330000  1.0 -0.0109171332
O  O22  1  0.32900000  0.38000000  0.42500000  1.0 0.024594998
O  O23  1  0.25300000  0.17600000  0.58130000  1.0 -0.0995923311
O  O24  1  0.50500000  0.36100000  0.26540000  1.0 -0.0995923311
O  O25  1  0.29200000  0.42130000  0.66900000  1.0 0.0093778619
O  O26  1  0.38200000  0.13340000  0.35090000  1.0 -0.180188366
O  O27  1  0.25400000  0.17740000  0.74690000  1.0 -0.3177034072
O  O28  1  0.28190000  0.24820000  0.02543000  1.0 -0.9506011866
O  O29  1  0.88050000  0.70398000  0.50662000  1.0 -0.9781669788
O  O30  1  0.93760000  0.23834000  0.02665000  1.0 -0.9315530024
O  O31  1  0.96120000  0.31329000  0.97644000  1.0 -0.6002183593
O  O32  1  0.42160000  0.75030000  0.42472000  1.0 -0.5791721157
O  O33  1  0.02530000  0.11980000  0.94644000  1.0 -0.5912758149
O  O34  1  0.26440000  0.11390000  0.02111000  1.0 -0.5640473775
O  O35  1  0.12380000  0.33070000  0.00249000  1.0 -0.4901970885
O  O36  1  0.07560000  0.33540000  0.07361000  1.0 -0.6002183593
O  O37  1  0.27890000  0.75380000  0.59897000  1.0 -0.5791721157
O  O38  1  0.93640000  0.37880000  0.04451000  1.0 -0.5912758149
O  O39  1  0.13790000  0.14620000  0.05892000  1.0 -0.5500041954
O  O40  1  0.20780000  0.11140000  0.94791000  1.0 -0.5500041954
O  O41  1  0.13770000  0.69480000  0.58729000  1.0 -0.5664803497
O  O42  1  0.23990000  0.76780000  0.42693000  1.0 -0.5290651731
O  O43  1  0.21700000  0.81500000  0.24720000  1.0 -0.3056502354
O  O44  1  0.26400000  0.57610000  0.16420000  1.0 -0.0684191592
O  O45  1  0.99840000  0.86140000  0.85030000  1.0 -0.2499202191
O  O46  1  0.31200000  0.82020000  0.08150000  1.0 -0.1614888906
O  O47  1  0.05200000  0.62440000  0.76670000  1.0 0.0093778619
O  O48  1  0.13200000  0.62720000  0.93330000  1.0 -0.0109171332
O  O49  1  0.17100000  0.62000000  0.92500000  1.0 0.024594998
O  O50  1  0.24700000  0.82400000  0.08130000  1.0 -0.0995923311
O  O51  1  0.99500000  0.63900000  0.76540000  1.0 -0.0995923311
O  O52  1  0.20800000  0.57870000  0.16900000  1.0 0.0093778619
O  O53  1  0.11800000  0.86660000  0.85090000  1.0 -0.1714215539
O  O54  1  0.24600000  0.82260000  0.24690000  1.0 -0.3177034072
O  O55  1  0.78190000  0.25180000  0.97457000  1.0 -0.9506011866
O  O56  1  0.38050000  0.79602000  0.49338000  1.0 -0.9781669788
O  O57  1  0.43760000  0.26166000  0.97335000  1.0 -0.9315530024
O  O58  1  0.46120000  0.18671000  0.02356000  1.0 -0.6002183593
O  O59  1  0.92160000  0.74970000  0.57528000  1.0 -0.5791721157
O  O60  1  0.52530000  0.38020000  0.05356000  1.0 -0.5912758149
O  O61  1  0.76440000  0.38610000  0.97889000  1.0 -0.5640473775
O  O62  1  0.62380000  0.16930000  0.99751000  1.0 -0.4901970885
O  O63  1  0.57560000  0.16460000  0.92639000  1.0 -0.6002183593
O  O64  1  0.77890000  0.74620000  0.40103000  1.0 -0.5791721157
O  O65  1  0.43640000  0.12120000  0.95549000  1.0 -0.5912758149
O  O66  1  0.63790000  0.35380000  0.94108000  1.0 -0.5500041954
O  O67  1  0.70780000  0.38860000  0.05209000  1.0 -0.5500041954
O  O68  1  0.63770000  0.80520000  0.41271000  1.0 -0.5664803497
O  O69  1  0.73990000  0.73220000  0.57307000  1.0 -0.5290651731
O  O70  1  0.71700000  0.68500000  0.75280000  1.0 -0.3056502354
O  O71  1  0.76400000  0.92390000  0.83580000  1.0 -0.0684191592
O  O72  1  0.49840000  0.63860000  0.14970000  1.0 -0.2499202191
O  O73  1  0.81200000  0.67980000  0.91850000  1.0 -0.1614888906
O  O74  1  0.55200000  0.87560000  0.23330000  1.0 0.0093778619
O  O75  1  0.63200000  0.87280000  0.06670000  1.0 -0.0109171332
O  O76  1  0.67100000  0.88000000  0.07500000  1.0 0.025098987
O  O77  1  0.74700000  0.67600000  0.91870000  1.0 -0.0995923311
O  O78  1  0.49500000  0.86100000  0.23460000  1.0 -0.0995923311
O  O79  1  0.70800000  0.92130000  0.83100000  1.0 0.0093778619
O  O80  1  0.61800000  0.63340000  0.14910000  1.0 -0.180188366
O  O81  1  0.74600000  0.67740000  0.75310000  1.0 -0.3177034072
O  O82  1  0.71810000  0.74820000  0.47457000  1.0 -0.9506011866
O  O83  1  0.11950000  0.20398000  0.99338000  1.0 -0.9781669788
O  O84  1  0.06240000  0.73834000  0.47335000  1.0 -0.9315530024
O  O85  1  0.03880000  0.81329000  0.52356000  1.0 -0.6002183593
O  O86  1  0.57840000  0.25030000  0.07528000  1.0 -0.5791721157
O  O87  1  0.97470000  0.61980000  0.55356000  1.0 -0.5912758149
O  O88  1  0.73560000  0.61390000  0.47889000  1.0 -0.5640473775
O  O89  1  0.87620000  0.83070000  0.49751000  1.0 -0.4901970885
O  O90  1  0.92440000  0.83540000  0.42639000  1.0 -0.6002183593
O  O91  1  0.72110000  0.25380000  0.90103000  1.0 -0.5791721157
O  O92  1  0.06360000  0.87880000  0.45549000  1.0 -0.5912758149
O  O93  1  0.86210000  0.64620000  0.44108000  1.0 -0.5500041954
O  O94  1  0.79220000  0.61140000  0.55209000  1.0 -0.5500041954
O  O95  1  0.86230000  0.19480000  0.91271000  1.0 -0.5664803497
O  O96  1  0.76010000  0.26780000  0.07307000  1.0 -0.5290651731
O  O97  1  0.78300000  0.31500000  0.25280000  1.0 -0.3056502354
O  O98  1  0.73600000  0.07610000  0.33580000  1.0 -0.0684191592
O  O99  1  0.00160000  0.36140000  0.64970000  1.0 -0.2499202191
O  O100  1  0.68800000  0.32020000  0.41850000  1.0 -0.1614888906
O  O101  1  0.94800000  0.12440000  0.73330000  1.0 0.0035284196
O  O102  1  0.86800000  0.12720000  0.56670000  1.0 -0.0109171332
O  O103  1  0.82900000  0.12000000  0.57500000  1.0 0.024594998
O  O104  1  0.75300000  0.32400000  0.41870000  1.0 -0.0995923311
O  O105  1  0.00500000  0.13900000  0.73460000  1.0 -0.0995923311
O  O106  1  0.79200000  0.07870000  0.33100000  1.0 0.0093778619
O  O107  1  0.88200000  0.36660000  0.64910000  1.0 -0.180188366
O  O108  1  0.75400000  0.32260000  0.25310000  1.0 -0.3177034072
