# DDEC6 charges by PACMAN v1.1 (https://github.com/mtap-research/PACMAN-charge/)
data_DARJOX_FSR_pacman
_symmetry_space_group_name_H-M   'P 1'
_cell_length_a   8.90240000
_cell_length_b   14.27960000
_cell_length_c   15.06370000
_cell_angle_alpha   90.00000000
_cell_angle_beta   95.06800000
_cell_angle_gamma   90.00000000
_symmetry_Int_Tables_number   1
_chemical_formula_structural   Al3Co(PO4)4
_chemical_formula_sum   'Al12 Co4 P16 O64'
_cell_volume   1907.45204176
_cell_formula_units_Z   4
loop_
 _symmetry_equiv_pos_site_id
 _symmetry_equiv_pos_as_xyz
  1  'x, y, z'
loop_
 _atom_site_type_symbol
 _atom_site_label
 _atom_site_symmetry_multiplicity
 _atom_site_fract_x
 _atom_site_fract_y
 _atom_site_fract_z
 _atom_site_occupancy
 _atom_site_charge
Al  Al1  1  0.38083000  0.06020000  0.09068000  1.0 1.7417883873
Al  Al2  1  0.61917000  0.56020000  0.40932000  1.0 1.7417883873
Al  Al3  1  0.61917000  0.93980000  0.90932000  1.0 1.7417883873
Al  Al4  1  0.38083000  0.43980000  0.59068000  1.0 1.7417883873
Al  Al5  1  0.36042000  0.92956000  0.38532000  1.0 1.7417883873
Al  Al6  1  0.63958000  0.42956000  0.11468000  1.0 1.7417883873
Al  Al7  1  0.63958000  0.07044000  0.61468000  1.0 1.7417883873
Al  Al8  1  0.36042000  0.57044000  0.88532000  1.0 1.7417883873
Al  Al9  1  0.57402000  0.78615000  0.66416000  1.0 1.7417883873
Al  Al10  1  0.42598000  0.28615000  0.83584000  1.0 1.7417883873
Al  Al11  1  0.42598000  0.21385000  0.33584000  1.0 1.7417883873
Al  Al12  1  0.57402000  0.71385000  0.16416000  1.0 1.7417883873
Co  Co1  1  0.17743000  0.94114000  0.75677000  1.0 1.1609059373
Co  Co2  1  0.82257000  0.44114000  0.74323000  1.0 1.1609059373
Co  Co3  1  0.82257000  0.05886000  0.24323000  1.0 1.1609059373
Co  Co4  1  0.17743000  0.55886000  0.25677000  1.0 1.1609059373
P  P1  1  0.39909000  0.78166000  0.83783000  1.0 1.4818179409
P  P2  1  0.60091000  0.28166000  0.66217000  1.0 1.4818179409
P  P3  1  0.60091000  0.21834000  0.16217000  1.0 1.4818179409
P  P4  1  0.39909000  0.71834000  0.33783000  1.0 1.4818179409
P  P5  1  0.35906000  0.94461000  0.58707000  1.0 1.5022074233
P  P6  1  0.64094000  0.44461000  0.91293000  1.0 1.5022074233
P  P7  1  0.64094000  0.05539000  0.41293000  1.0 1.5022074233
P  P8  1  0.35906000  0.55539000  0.08707000  1.0 1.5022074233
P  P9  1  0.35049000  0.08051000  0.88875000  1.0 1.5022074233
P  P10  1  0.64951000  0.58051000  0.61125000  1.0 1.5022074233
P  P11  1  0.64951000  0.91949000  0.11125000  1.0 1.5022074233
P  P12  1  0.35049000  0.41949000  0.38875000  1.0 1.5022074233
P  P13  1  0.81206000  0.93372000  0.74585000  1.0 1.4629298548
P  P14  1  0.18794000  0.43372000  0.75415000  1.0 1.4673466782
P  P15  1  0.18794000  0.06628000  0.25415000  1.0 1.4673466782
P  P16  1  0.81206000  0.56628000  0.24585000  1.0 1.4629298548
O  O1  1  0.29940000  0.05470000  0.97999000  1.0 -0.7988587518
O  O2  1  0.70060000  0.55470000  0.52001000  1.0 -0.7988587518
O  O3  1  0.70060000  0.94530000  0.02001000  1.0 -0.7988587518
O  O4  1  0.29940000  0.44530000  0.47999000  1.0 -0.7988587518
O  O5  1  0.30030000  0.96130000  0.49041000  1.0 -0.7820367565
O  O6  1  0.69970000  0.46130000  0.00959000  1.0 -0.7820367565
O  O7  1  0.69970000  0.03870000  0.50959000  1.0 -0.7820367565
O  O8  1  0.30030000  0.53870000  0.99041000  1.0 -0.7820367565
O  O9  1  0.50310000  0.03720000  0.87840000  1.0 -0.8359783533
O  O10  1  0.49690000  0.53720000  0.62160000  1.0 -0.8359783533
O  O11  1  0.49690000  0.96280000  0.12160000  1.0 -0.8359783533
O  O12  1  0.50310000  0.46280000  0.37840000  1.0 -0.8359783533
O  O13  1  0.76940000  0.93620000  0.84052000  1.0 -0.7911427347
O  O14  1  0.23060000  0.43620000  0.65948000  1.0 -0.7911427347
O  O15  1  0.23060000  0.06380000  0.15948000  1.0 -0.7911427347
O  O16  1  0.76940000  0.56380000  0.34052000  1.0 -0.7911427347
O  O17  1  0.23430000  0.04770000  0.81640000  1.0 -0.6973073085
O  O18  1  0.76570000  0.54770000  0.68360000  1.0 -0.6973073085
O  O19  1  0.76570000  0.95230000  0.18360000  1.0 -0.6973073085
O  O20  1  0.23430000  0.45230000  0.31640000  1.0 -0.6973073085
O  O21  1  0.76480000  0.02460000  0.69884000  1.0 -0.7911427347
O  O22  1  0.23520000  0.52460000  0.80116000  1.0 -0.7911427347
O  O23  1  0.23520000  0.97540000  0.30116000  1.0 -0.7911427347
O  O24  1  0.76480000  0.47540000  0.19884000  1.0 -0.7988587518
O  O25  1  0.22470000  0.93520000  0.64070000  1.0 -0.676791509
O  O26  1  0.77530000  0.43520000  0.85930000  1.0 -0.676791509
O  O27  1  0.77530000  0.06480000  0.35930000  1.0 -0.676791509
O  O28  1  0.22470000  0.56480000  0.14070000  1.0 -0.676791509
O  O29  1  0.45360000  0.85510000  0.59120000  1.0 -0.8301767872
O  O30  1  0.54640000  0.35510000  0.90880000  1.0 -0.8301767872
O  O31  1  0.54640000  0.14490000  0.40880000  1.0 -0.8301767872
O  O32  1  0.45360000  0.64490000  0.09120000  1.0 -0.8301767872
O  O33  1  0.36420000  0.18648000  0.88510000  1.0 -0.7368033131
O  O34  1  0.63580000  0.68648000  0.61490000  1.0 -0.7368033131
O  O35  1  0.63580000  0.81352000  0.11490000  1.0 -0.7368033131
O  O36  1  0.36420000  0.31352000  0.38510000  1.0 -0.7368033131
O  O37  1  0.45510000  0.02650000  0.62270000  1.0 -0.8301767872
O  O38  1  0.54490000  0.52650000  0.87730000  1.0 -0.8301767872
O  O39  1  0.54490000  0.97350000  0.37730000  1.0 -0.8301767872
O  O40  1  0.45510000  0.47350000  0.12270000  1.0 -0.8301767872
O  O41  1  0.35490000  0.69226000  0.88250000  1.0 -0.7519429078
O  O42  1  0.64510000  0.19226000  0.61750000  1.0 -0.7519429078
O  O43  1  0.64510000  0.30774000  0.11750000  1.0 -0.7519429078
O  O44  1  0.35490000  0.80774000  0.38250000  1.0 -0.7519429078
O  O45  1  0.46960000  0.75570000  0.75340000  1.0 -0.8359783533
O  O46  1  0.53040000  0.25570000  0.74660000  1.0 -0.8301767872
O  O47  1  0.53040000  0.24430000  0.24660000  1.0 -0.8359783533
O  O48  1  0.46960000  0.74430000  0.25340000  1.0 -0.8359783533
O  O49  1  0.25800000  0.83830000  0.81780000  1.0 -0.7231227359
O  O50  1  0.74200000  0.33830000  0.68220000  1.0 -0.7231227359
O  O51  1  0.74200000  0.16170000  0.18220000  1.0 -0.7231227359
O  O52  1  0.25800000  0.66170000  0.31780000  1.0 -0.7231227359
O  O53  1  0.51070000  0.83480000  0.89960000  1.0 -0.8211740975
O  O54  1  0.48930000  0.33480000  0.60040000  1.0 -0.8211740975
O  O55  1  0.48930000  0.16520000  0.10040000  1.0 -0.8211740975
O  O56  1  0.51070000  0.66520000  0.39960000  1.0 -0.8211740975
O  O57  1  0.97840000  0.92020000  0.74800000  1.0 -0.6133563121
O  O58  1  0.02160000  0.42020000  0.75200000  1.0 -0.6133563121
O  O59  1  0.02160000  0.07980000  0.25200000  1.0 -0.6133563121
O  O60  1  0.97840000  0.57980000  0.24800000  1.0 -0.6133563121
O  O61  1  0.73360000  0.85230000  0.69710000  1.0 -0.8211740975
O  O62  1  0.26640000  0.35230000  0.80290000  1.0 -0.8211740975
O  O63  1  0.26640000  0.14770000  0.30290000  1.0 -0.8211740975
O  O64  1  0.73360000  0.64770000  0.19710000  1.0 -0.8211740975
