# DDEC6 charges by PACMAN v1.1 (https://github.com/mtap-research/PACMAN-charge/)
data_DARJUD_FSR_pacman
_symmetry_space_group_name_H-M   'P 1'
_cell_length_a   8.88500000
_cell_length_b   14.23100000
_cell_length_c   15.04900000
_cell_angle_alpha   90.00000000
_cell_angle_beta   94.95700000
_cell_angle_gamma   90.00000000
_symmetry_Int_Tables_number   1
_chemical_formula_structural   Al3Zn(PO4)4
_chemical_formula_sum   'Al12 Zn4 P16 O64'
_cell_volume   1895.71528304
_cell_formula_units_Z   4
loop_
 _symmetry_equiv_pos_site_id
 _symmetry_equiv_pos_as_xyz
  1  'x, y, z'
loop_
 _atom_site_type_symbol
 _atom_site_label
 _atom_site_symmetry_multiplicity
 _atom_site_fract_x
 _atom_site_fract_y
 _atom_site_fract_z
 _atom_site_occupancy
 _atom_site_charge
Al  Al1  1  0.12114000  0.05971000  0.90992000  1.0 1.7487975172
Al  Al2  1  0.87886000  0.55971000  0.59008000  1.0 1.7487975172
Al  Al3  1  0.87886000  0.94029000  0.09008000  1.0 1.7487975172
Al  Al4  1  0.12114000  0.44029000  0.40992000  1.0 1.7487975172
Al  Al5  1  0.85933000  0.07051000  0.38493000  1.0 1.7391297631
Al  Al6  1  0.14067000  0.57051000  0.11507000  1.0 1.7391297631
Al  Al7  1  0.14067000  0.92949000  0.61507000  1.0 1.7391297631
Al  Al8  1  0.85933000  0.42949000  0.88493000  1.0 1.7391297631
Al  Al9  1  0.07589000  0.21420000  0.66429000  1.0 1.7487975172
Al  Al10  1  0.92411000  0.71420000  0.83571000  1.0 1.7487975172
Al  Al11  1  0.92411000  0.78580000  0.33571000  1.0 1.7487975172
Al  Al12  1  0.07589000  0.28580000  0.16429000  1.0 1.7487975172
Zn  Zn1  1  0.67876000  0.05903000  0.75636000  1.0 1.1307548396
Zn  Zn2  1  0.32124000  0.55903000  0.74364000  1.0 1.1307548396
Zn  Zn3  1  0.32124000  0.94097000  0.24364000  1.0 1.1307548396
Zn  Zn4  1  0.67876000  0.44097000  0.25636000  1.0 1.1307548396
P  P1  1  0.90075000  0.21818000  0.83773000  1.0 1.4992224686
P  P2  1  0.09925000  0.71818000  0.66227000  1.0 1.4992224686
P  P3  1  0.09925000  0.78182000  0.16227000  1.0 1.4992224686
P  P4  1  0.90075000  0.28182000  0.33773000  1.0 1.4992224686
P  P5  1  0.85045000  0.92018000  0.88781000  1.0 1.5123156719
P  P6  1  0.14955000  0.42018000  0.61219000  1.0 1.5123156719
P  P7  1  0.14955000  0.07982000  0.11219000  1.0 1.5123156719
P  P8  1  0.85045000  0.57982000  0.38781000  1.0 1.5123156719
P  P9  1  0.85968000  0.05580000  0.58717000  1.0 1.5123156719
P  P10  1  0.14032000  0.55580000  0.91283000  1.0 1.5123156719
P  P11  1  0.14032000  0.94420000  0.41283000  1.0 1.5123156719
P  P12  1  0.85968000  0.44420000  0.08717000  1.0 1.5123156719
P  P13  1  0.31439000  0.06616000  0.74639000  1.0 1.4772938602
P  P14  1  0.68561000  0.56616000  0.75361000  1.0 1.4772938602
P  P15  1  0.68561000  0.93384000  0.25361000  1.0 1.4772938602
P  P16  1  0.31439000  0.43384000  0.24639000  1.0 1.4772938602
O  O1  1  0.00370000  0.96210000  0.87760000  1.0 -0.8290103513
O  O2  1  0.99630000  0.46210000  0.62240000  1.0 -0.8290103513
O  O3  1  0.99630000  0.03790000  0.12240000  1.0 -0.8290103513
O  O4  1  0.00370000  0.53790000  0.37760000  1.0 -0.8290103513
O  O5  1  0.79970000  0.03930000  0.49070000  1.0 -0.7795358189
O  O6  1  0.20030000  0.53930000  0.00930000  1.0 -0.7795358189
O  O7  1  0.20030000  0.96070000  0.50930000  1.0 -0.7795358189
O  O8  1  0.79970000  0.46070000  0.99070000  1.0 -0.7795358189
O  O9  1  0.79870000  0.94690000  0.97850000  1.0 -0.7991885729
O  O10  1  0.20130000  0.44690000  0.52150000  1.0 -0.7991885729
O  O11  1  0.20130000  0.05310000  0.02150000  1.0 -0.7991885729
O  O12  1  0.79870000  0.55310000  0.47850000  1.0 -0.7991885729
O  O13  1  0.73460000  0.95330000  0.81490000  1.0 -0.706345696
O  O14  1  0.26540000  0.45330000  0.68510000  1.0 -0.706345696
O  O15  1  0.26540000  0.04670000  0.18510000  1.0 -0.706345696
O  O16  1  0.73460000  0.54670000  0.31490000  1.0 -0.706345696
O  O17  1  0.26580000  0.97540000  0.69910000  1.0 -0.7878399677
O  O18  1  0.73420000  0.47540000  0.80090000  1.0 -0.7878399677
O  O19  1  0.73420000  0.02460000  0.30090000  1.0 -0.7878399677
O  O20  1  0.26580000  0.52460000  0.19910000  1.0 -0.7878399677
O  O21  1  0.85400000  0.30730000  0.88220000  1.0 -0.7504882701
O  O22  1  0.14600000  0.80730000  0.61780000  1.0 -0.7504882701
O  O23  1  0.14600000  0.69270000  0.11780000  1.0 -0.7504882701
O  O24  1  0.85400000  0.19270000  0.38220000  1.0 -0.7504882701
O  O25  1  0.95430000  0.14500000  0.59140000  1.0 -0.821683187
O  O26  1  0.04570000  0.64500000  0.90860000  1.0 -0.821683187
O  O27  1  0.04570000  0.85500000  0.40860000  1.0 -0.821683187
O  O28  1  0.95430000  0.35500000  0.09140000  1.0 -0.821683187
O  O29  1  0.27350000  0.06370000  0.84160000  1.0 -0.7878399677
O  O30  1  0.72650000  0.56370000  0.65840000  1.0 -0.7878399677
O  O31  1  0.72650000  0.93630000  0.15840000  1.0 -0.7878399677
O  O32  1  0.27350000  0.43630000  0.34160000  1.0 -0.7878399677
O  O33  1  0.95580000  0.97360000  0.62240000  1.0 -0.8290103513
O  O34  1  0.04420000  0.47360000  0.87760000  1.0 -0.8290103513
O  O35  1  0.04420000  0.02640000  0.37760000  1.0 -0.8290103513
O  O36  1  0.95580000  0.52640000  0.12240000  1.0 -0.8290103513
O  O37  1  0.72550000  0.06560000  0.64130000  1.0 -0.6907703318
O  O38  1  0.27450000  0.56560000  0.85870000  1.0 -0.6907703318
O  O39  1  0.27450000  0.93440000  0.35870000  1.0 -0.6907703318
O  O40  1  0.72550000  0.43440000  0.14130000  1.0 -0.6907703318
O  O41  1  0.01300000  0.16550000  0.90020000  1.0 -0.821683187
O  O42  1  0.98700000  0.66550000  0.59980000  1.0 -0.821683187
O  O43  1  0.98700000  0.83450000  0.09980000  1.0 -0.821683187
O  O44  1  0.01300000  0.33450000  0.40020000  1.0 -0.821683187
O  O45  1  0.23530000  0.14730000  0.69690000  1.0 -0.821683187
O  O46  1  0.76470000  0.64730000  0.80310000  1.0 -0.821683187
O  O47  1  0.76470000  0.85270000  0.30310000  1.0 -0.821683187
O  O48  1  0.23530000  0.35270000  0.19690000  1.0 -0.821683187
O  O49  1  0.48090000  0.07960000  0.74830000  1.0 -0.636493776
O  O50  1  0.51910000  0.57960000  0.75170000  1.0 -0.636493776
O  O51  1  0.51910000  0.92040000  0.25170000  1.0 -0.636493776
O  O52  1  0.48090000  0.42040000  0.24830000  1.0 -0.636493776
O  O53  1  0.97180000  0.24410000  0.75390000  1.0 -0.8290103513
O  O54  1  0.02820000  0.74410000  0.74610000  1.0 -0.8290103513
O  O55  1  0.02820000  0.75590000  0.24610000  1.0 -0.8290103513
O  O56  1  0.97180000  0.25590000  0.25390000  1.0 -0.8290103513
O  O57  1  0.86140000  0.81410000  0.88450000  1.0 -0.7390221469
O  O58  1  0.13860000  0.31410000  0.61550000  1.0 -0.7390221469
O  O59  1  0.13860000  0.18590000  0.11550000  1.0 -0.7390221469
O  O60  1  0.86140000  0.68590000  0.38450000  1.0 -0.7390221469
O  O61  1  0.76110000  0.16050000  0.81710000  1.0 -0.7390221469
O  O62  1  0.23890000  0.66050000  0.68290000  1.0 -0.7390221469
O  O63  1  0.23890000  0.83950000  0.18290000  1.0 -0.7390221469
O  O64  1  0.76110000  0.33950000  0.31710000  1.0 -0.7390221469
