# DDEC6 charges by PACMAN v1.1 (https://github.com/mtap-research/PACMAN-charge/)
data_DARSEV_FSR_pacman
_symmetry_space_group_name_H-M   'P 1'
_cell_length_a   10.23430000
_cell_length_b   19.11800000
_cell_length_c   20.92870000
_cell_angle_alpha   67.55300000
_cell_angle_beta   86.75300000
_cell_angle_gamma   83.63000000
_symmetry_Int_Tables_number   1
_chemical_formula_structural   CdH16C30N2(Cl2O)2
_chemical_formula_sum   'Cd3 H48 C90 N6 Cl12 O6'
_cell_volume   3760.81815263
_cell_formula_units_Z   3
loop_
 _symmetry_equiv_pos_site_id
 _symmetry_equiv_pos_as_xyz
  1  'x, y, z'
loop_
 _atom_site_type_symbol
 _atom_site_label
 _atom_site_symmetry_multiplicity
 _atom_site_fract_x
 _atom_site_fract_y
 _atom_site_fract_z
 _atom_site_occupancy
 _atom_site_charge
Cd  Cd1  1  0.00925000  0.83542000  0.90585000  1.0 0.7499125489
Cd  Cd2  1  0.27911000  0.90064000  0.99168000  1.0 0.7499125489
Cd  Cd3  1  0.64464000  0.87225000  0.94727000  1.0 0.7499125489
H  H1  1  0.54520000  0.76540000  0.87660000  1.0 0.1206044477
H  H2  1  0.48440000  0.77120000  0.76970000  1.0 0.1402868544
H  H3  1  0.47080000  0.00020000  0.69230000  1.0 0.1493000662
H  H4  1  0.54450000  0.98910000  0.79950000  1.0 0.1206044477
H  H5  1  0.24130000  0.96870000  0.68040000  1.0 0.1402868544
H  H6  1  0.03600000  0.02620000  0.50590000  1.0 0.1402868544
H  H7  1  0.18770000  0.96040000  0.46130000  1.0 0.1206044477
H  H8  1  0.59190000  0.79970000  0.65700000  1.0 0.1299708185
H  H9  1  0.34860000  0.73820000  0.54950000  1.0 0.1299708185
H  H10  1  0.31750000  0.62570000  0.54400000  1.0 0.1402868544
H  H11  1  0.32280000  0.72100000  0.33370000  1.0 0.1299708185
H  H12  1  0.41190000  0.96960000  0.28250000  1.0 0.1299708185
H  H13  1  0.47230000  0.93100000  0.09120000  1.0 0.1015265746
H  H14  1  0.51300000  0.91820000  0.20430000  1.0 0.1402868544
H  H15  1  0.17190000  0.82320000  0.26320000  1.0 0.1493000662
H  H16  1  0.14180000  0.83700000  0.15030000  1.0 0.1096398551
H  H17  1  0.75940000  0.76160000  0.09670000  1.0 0.1299708185
H  H18  1  0.81060000  0.76160000  0.20180000  1.0 0.1493000662
H  H19  1  0.77490000  0.99210000  0.12050000  1.0 0.1493000662
H  H20  1  0.71730000  0.98340000  0.01790000  1.0 0.1096398551
H  H21  1  0.97050000  0.97470000  0.16120000  1.0 0.1299708185
H  H22  1  0.13320000  0.03180000  0.30060000  1.0 0.1493000662
H  H23  1  0.02040000  0.95260000  0.38600000  1.0 0.1206044477
H  H24  1  0.68100000  0.80010000  0.28700000  1.0 0.1402868544
H  H25  1  0.95430000  0.72470000  0.44010000  1.0 0.1299708185
H  H26  1  0.02710000  0.61340000  0.51950000  1.0 0.1402868544
H  H27  1  0.01310000  0.70360000  0.66666667  1.0 0.1299708185
H  H28  1  0.82250000  0.94900000  0.55910000  1.0 0.1299708185
H  H29  1  0.79900000  0.89180000  0.78490000  1.0 0.1015265746
H  H30  1  0.75340000  0.88990000  0.67700000  1.0 0.1402868544
H  H31  1  0.12990000  0.79890000  0.66890000  1.0 0.1402868544
H  H32  1  0.16360000  0.80320000  0.77550000  1.0 0.1096398551
H  H33  1  0.28920000  0.74630000  0.95680000  1.0 0.1096398551
H  H34  1  0.43590000  0.64190000  0.96610000  1.0 0.1493000662
H  H35  1  0.14390000  0.56460000  0.88800000  1.0 0.1493000662
H  H36  1  0.01660000  0.67390000  0.88200000  1.0 0.1206044477
H  H37  1  0.36990000  0.52780000  0.83950000  1.0 0.1299708185
H  H38  1  0.36100000  0.52690000  0.05920000  1.0 0.1206044477
H  H39  1  0.62660000  0.35290000  0.16520000  1.0 0.1299708185
H  H40  1  0.67310000  0.32600000  0.06570000  1.0 0.1206044477
H  H41  1  0.98550000  0.96670000  0.99670000  1.0 0.1096398551
H  H42  1  0.84370000  0.07100000  0.97560000  1.0 0.1402868544
H  H43  1  0.13400000  0.18920000  0.96800000  1.0 0.1299708185
H  H44  1  0.27860000  0.07550000  0.98630000  1.0 0.1096398551
H  H45  1  0.72560000  0.14640000  0.00480000  1.0 0.1299708185
H  H46  1  0.77730000  0.46210000  0.88860000  1.0 0.1206044477
H  H47  1  0.98920000  0.48730000  0.84360000  1.0 0.1299708185
H  H48  1  0.09490000  0.26120000  0.90220000  1.0 0.1096398551
C  C1  1  0.53350000  0.81270000  0.83870000  1.0 0.0660111359
C  C2  1  0.49650000  0.81710000  0.77520000  1.0 -0.1833922701
C  C3  1  0.47550000  0.88610000  0.71780000  1.0 0.1096398551
C  C4  1  0.48910000  0.95160000  0.72790000  1.0 -0.188453193
C  C5  1  0.53110000  0.94390000  0.79300000  1.0 0.1299708185
C  C6  1  0.44540000  0.88570000  0.65000000  1.0 0.0317117836
C  C7  1  0.32890000  0.92500000  0.61080000  1.0 0.0414251475
C  C8  1  0.23280000  0.96730000  0.63600000  1.0 -0.2095918071
C  C9  1  0.12980000  0.00520000  0.59700000  1.0 0.1592446653
C  C10  1  0.11200000  0.00040000  0.53160000  1.0 -0.1465254636
C  C11  1  0.19930000  0.96110000  0.50580000  1.0 -0.0984025398
C  C12  1  0.31140000  0.91960000  0.54640000  1.0 0.0479664061
C  C13  1  0.40870000  0.88030000  0.51710000  1.0 -0.01722897
C  C14  1  0.51470000  0.83180000  0.56170000  1.0 0.317366132
C  C15  1  0.52700000  0.83390000  0.62680000  1.0 -0.2930546017
C  C16  1  0.39080000  0.87320000  0.44900000  1.0 -0.07949769
C  C17  1  0.35910000  0.80060000  0.44630000  1.0 0.0896732969
C  C18  1  0.34430000  0.73500000  0.50550000  1.0 -0.0895297604
C  C19  1  0.32480000  0.66960000  0.50300000  1.0 -0.1398590417
C  C20  1  0.31480000  0.66700000  0.43670000  1.0 0.1402868544
C  C21  1  0.32800000  0.72680000  0.37660000  1.0 -0.2095918071
C  C22  1  0.34950000  0.79820000  0.37790000  1.0 0.0479664061
C  C23  1  0.36850000  0.86210000  0.31910000  1.0 0.0317117836
C  C24  1  0.39710000  0.92720000  0.32370000  1.0 -0.2095918071
C  C25  1  0.40610000  0.93430000  0.39190000  1.0 0.2786524979
C  C26  1  0.41140000  0.90800000  0.12710000  1.0 0.1096398551
C  C27  1  0.43610000  0.90040000  0.19480000  1.0 -0.188453193
C  C28  1  0.34770000  0.86670000  0.24820000  1.0 0.1299708185
C  C29  1  0.23680000  0.84470000  0.22910000  1.0 -0.188453193
C  C30  1  0.21860000  0.85340000  0.16150000  1.0 0.1015265746
C  C31  1  0.75870000  0.80870000  0.10230000  1.0 0.1096398551
C  C32  1  0.79160000  0.80850000  0.16410000  1.0 -0.1833922701
C  C33  1  0.79750000  0.87570000  0.17260000  1.0 0.1299708185
C  C34  1  0.77020000  0.94420000  0.11720000  1.0 -0.188453193
C  C35  1  0.73550000  0.93770000  0.05700000  1.0 0.0789586393
C  C36  1  0.81600000  0.87580000  0.24460000  1.0 0.023846717
C  C37  1  0.90050000  0.91860000  0.25940000  1.0 0.0414251475
C  C38  1  0.97930000  0.96880000  0.20790000  1.0 -0.2179432796
C  C39  1  0.06650000  0.00880000  0.22270000  1.0 0.1493000662
C  C40  1  0.07500000  0.00210000  0.29020000  1.0 -0.1398590417
C  C41  1  0.00750000  0.95630000  0.34020000  1.0 -0.0895297604
C  C42  1  0.91700000  0.91270000  0.32980000  1.0 0.0414251475
C  C43  1  0.84740000  0.86760000  0.38050000  1.0 -0.0095054559
C  C44  1  0.75440000  0.81850000  0.36830000  1.0 0.3296585171
C  C45  1  0.74200000  0.82770000  0.29790000  1.0 -0.2614868792
C  C46  1  0.86540000  0.85400000  0.45470000  1.0 -0.0471819179
C  C47  1  0.92500000  0.78110000  0.50670000  1.0 0.0635642701
C  C48  1  0.96150000  0.71930000  0.48690000  1.0 -0.07949769
C  C49  1  0.00500000  0.65570000  0.53260000  1.0 -0.1289696755
C  C50  1  0.02000000  0.64620000  0.60500000  1.0 0.1592446653
C  C51  1  0.99420000  0.70780000  0.62140000  1.0 -0.2095918071
C  C52  1  0.93940000  0.77890000  0.57360000  1.0 0.0479664061
C  C53  1  0.90810000  0.84100000  0.59320000  1.0 0.0317117836
C  C54  1  0.84690000  0.90660000  0.54630000  1.0 -0.2371654423
C  C55  1  0.81940000  0.91150000  0.47810000  1.0 0.2862452058
C  C56  1  0.86520000  0.87120000  0.76160000  1.0 0.1096398551
C  C57  1  0.83730000  0.86990000  0.69680000  1.0 -0.1744383337
C  C58  1  0.93250000  0.83940000  0.66190000  1.0 0.1299708185
C  C59  1  0.05930000  0.81630000  0.69230000  1.0 -0.188453193
C  C60  1  0.07880000  0.81930000  0.75580000  1.0 0.0789586393
C  C61  1  0.26130000  0.70760000  0.94430000  1.0 0.1096398551
C  C62  1  0.34920000  0.64630000  0.95010000  1.0 -0.188453193
C  C63  1  0.30200000  0.58610000  0.92990000  1.0 0.1299708185
C  C64  1  0.17720000  0.59960000  0.90370000  1.0 -0.2003420901
C  C65  1  0.10200000  0.66490000  0.90080000  1.0 0.1015265746
C  C66  1  0.38680000  0.51390000  0.94030000  1.0 0.023846717
C  C67  1  0.41440000  0.49800000  0.88130000  1.0 -0.2278437676
C  C68  1  0.50710000  0.43830000  0.88320000  1.0 0.2634467272
C  C69  1  0.57220000  0.39460000  0.94420000  1.0 -0.01722897
C  C70  1  0.54460000  0.41050000  0.00330000  1.0 0.0414251475
C  C71  1  0.45190000  0.47020000  0.00140000  1.0 0.0414251475
C  C72  1  0.42430000  0.48610000  0.06050000  1.0 -0.188453193
C  C73  1  0.48900000  0.44240000  0.12150000  1.0 0.1402868544
C  C74  1  0.58210000  0.38270000  0.12350000  1.0 -0.1398590417
C  C75  1  0.60970000  0.36680000  0.06440000  1.0 -0.0895297604
C  C76  1  0.02100000  0.01380000  0.98520000  1.0 0.0789586393
C  C77  1  0.93500000  0.07740000  0.97380000  1.0 -0.1398590417
C  C78  1  0.96400000  0.13990000  0.96170000  1.0 0.1206044477
C  C79  1  0.10100000  0.14390000  0.96960000  1.0 -0.2179432796
C  C80  1  0.18800000  0.07480000  0.98010000  1.0 0.1096398551
C  C81  1  0.68440000  0.33170000  0.94890000  1.0 -0.0400327021
C  C82  1  0.65280000  0.25710000  0.97970000  1.0 0.2786524979
C  C83  1  0.74710000  0.19740000  0.98370000  1.0 -0.2614868792
C  C84  1  0.87300000  0.21240000  0.95700000  1.0 0.0635642701
C  C85  1  0.90450000  0.28700000  0.92620000  1.0 0.0317117836
C  C86  1  0.81020000  0.34670000  0.92210000  1.0 0.0479664061
C  C87  1  0.84170000  0.42130000  0.89140000  1.0 -0.0984025398
C  C88  1  0.96760000  0.43630000  0.86460000  1.0 -0.1619439783
C  C89  1  0.06190000  0.37660000  0.86870000  1.0 0.1402868544
C  C90  1  0.03040000  0.30200000  0.89940000  1.0 -0.1619439783
N  N1  1  0.55310000  0.88000000  0.84510000  1.0 -0.2179432796
N  N2  1  0.30500000  0.88400000  0.11210000  1.0 -0.2003420901
N  N3  1  0.72580000  0.87240000  0.04980000  1.0 -0.2003420901
N  N4  1  0.98330000  0.84390000  0.79120000  1.0 -0.2179432796
N  N5  1  0.13970000  0.71620000  0.92220000  1.0 -0.2095918071
N  N6  1  0.14770000  0.01310000  0.98150000  1.0 -0.2095918071
Cl  Cl1  1  0.46340000  0.78550000  0.01960000  1.0 -0.5005496851
Cl  Cl2  1  0.07670000  0.81960000  0.02980000  1.0 -0.5005496851
Cl  Cl3  1  0.16680000  0.06760000  0.15820000  1.0 -0.0691407906
Cl  Cl4  1  0.21560000  0.91090000  0.86680000  1.0 -0.4866900356
Cl  Cl5  1  0.00870000  0.05580000  0.62770000  1.0 -0.0691407906
Cl  Cl6  1  0.83320000  0.95510000  0.87890000  1.0 -0.5005496851
Cl  Cl7  1  0.29840000  0.57600000  0.43310000  1.0 -0.0895297604
Cl  Cl8  1  0.47270000  0.98830000  0.94310000  1.0 -0.522390029
Cl  Cl9  1  0.08070000  0.55670000  0.66470000  1.0 -0.1204697253
Cl  Cl10  1  0.80760000  0.75400000  0.95060000  1.0 -0.522390029
Cl  Cl11  1  0.42640000  0.44190000  0.20180000  1.0 -0.0895297604
Cl  Cl12  1  0.21290000  0.40320000  0.83310000  1.0 -0.0607695194
O  O1  1  0.60080000  0.78570000  0.54430000  1.0 -0.3930657716
O  O2  1  0.43100000  0.00050000  0.39430000  1.0 -0.3930657716
O  O3  1  0.67970000  0.77260000  0.41890000  1.0 -0.4218053134
O  O4  1  0.75750000  0.97530000  0.43220000  1.0 -0.3930657716
O  O5  1  0.53790000  0.42370000  0.82270000  1.0 -0.4505184205
O  O6  1  0.53100000  0.24140000  0.00920000  1.0 -0.4505184205
