# DDEC6 charges by PACMAN v1.1 (https://github.com/mtap-research/PACMAN-charge/)
data_DAWZUA_ASR_pacman
_symmetry_space_group_name_H-M   'P 1'
_cell_length_a   40.40250000
_cell_length_b   40.40250000
_cell_length_c   11.39580000
_cell_angle_alpha   90.00000000
_cell_angle_beta   90.00000000
_cell_angle_gamma   120.00000000
_symmetry_Int_Tables_number   1
_chemical_formula_structural   Zr3Mo2H16C34(BrO9)2
_chemical_formula_sum   'Zr18 Mo12 H96 C204 Br12 O108'
_cell_volume   16109.86600641
_cell_formula_units_Z   6
loop_
 _symmetry_equiv_pos_site_id
 _symmetry_equiv_pos_as_xyz
  1  'x, y, z'
loop_
 _atom_site_type_symbol
 _atom_site_label
 _atom_site_symmetry_multiplicity
 _atom_site_fract_x
 _atom_site_fract_y
 _atom_site_fract_z
 _atom_site_occupancy
 _atom_site_charge
Zr  Zr1  1  0.54385000  0.00000000  0.34546000  1.0 2.0841846606
Zr  Zr2  1  0.45615000  0.45615000  0.34546000  1.0 2.0850868895
Zr  Zr3  1  0.00000000  0.54385000  0.34546000  1.0 2.0850868895
Zr  Zr4  1  0.45615000  0.00000000  0.34546000  1.0 2.0841846606
Zr  Zr5  1  0.54385000  0.54385000  0.34546000  1.0 2.0841846606
Zr  Zr6  1  0.00000000  0.45615000  0.34546000  1.0 2.0850868895
Zr  Zr7  1  0.54385000  0.00000000  0.65454000  1.0 2.0841846606
Zr  Zr8  1  0.00000000  0.54385000  0.65454000  1.0 2.0841846606
Zr  Zr9  1  0.45615000  0.45615000  0.65454000  1.0 2.0841846606
Zr  Zr10  1  0.45615000  0.00000000  0.65454000  1.0 2.0841846606
Zr  Zr11  1  0.00000000  0.45615000  0.65454000  1.0 2.0841846606
Zr  Zr12  1  0.54385000  0.54385000  0.65454000  1.0 2.0841846606
Zr  Zr13  1  0.46496000  0.92992000  0.50000000  1.0 2.0182803347
Zr  Zr14  1  0.46496000  0.53504000  0.50000000  1.0 2.0125902369
Zr  Zr15  1  0.07008000  0.53504000  0.50000000  1.0 2.0125902369
Zr  Zr16  1  0.53504000  0.07008000  0.50000000  1.0 2.0182803347
Zr  Zr17  1  0.53504000  0.46496000  0.50000000  1.0 2.0182803347
Zr  Zr18  1  0.92992000  0.46496000  0.50000000  1.0 2.0182803347
Mo  Mo1  1  0.64128000  0.00000000  0.33800000  1.0 0.9802840426
Mo  Mo2  1  0.35872000  0.35872000  0.33800000  1.0 0.9802840426
Mo  Mo3  1  0.00000000  0.64128000  0.33800000  1.0 0.9802840426
Mo  Mo4  1  0.35872000  0.00000000  0.33800000  1.0 0.9802840426
Mo  Mo5  1  0.64128000  0.64128000  0.33800000  1.0 0.9802840426
Mo  Mo6  1  0.00000000  0.35872000  0.33800000  1.0 0.9802840426
Mo  Mo7  1  0.64128000  0.00000000  0.66200000  1.0 0.9802840426
Mo  Mo8  1  0.00000000  0.64128000  0.66200000  1.0 0.9749780967
Mo  Mo9  1  0.35872000  0.35872000  0.66200000  1.0 0.9802840426
Mo  Mo10  1  0.35872000  0.00000000  0.66200000  1.0 0.9802840426
Mo  Mo11  1  0.00000000  0.35872000  0.66200000  1.0 0.9802840426
Mo  Mo12  1  0.64128000  0.64128000  0.66200000  1.0 0.9802840426
H  H1  1  0.57196000  0.85925000  0.88550000  1.0 0.0996715364
H  H2  1  0.56754000  0.90899000  0.79332000  1.0 0.0996715364
H  H3  1  0.45461000  0.83694000  0.73748000  1.0 0.0996715364
H  H4  1  0.45853000  0.78946000  0.84405000  1.0 0.0996715364
H  H5  1  0.28729000  0.42804000  0.88550000  1.0 0.0996715364
H  H6  1  0.34145000  0.43246000  0.79332000  1.0 0.0996715364
H  H7  1  0.38233000  0.54539000  0.73748000  1.0 0.0996715364
H  H8  1  0.33093000  0.54147000  0.84405000  1.0 0.0996715364
H  H9  1  0.14075000  0.71271000  0.88550000  1.0 0.0996715364
H  H10  1  0.09101000  0.65855000  0.79332000  1.0 0.0996715364
H  H11  1  0.16306000  0.61767000  0.73748000  1.0 0.0996715364
H  H12  1  0.21054000  0.66907000  0.84405000  1.0 0.0996715364
H  H13  1  0.42804000  0.14075000  0.88550000  1.0 0.0996715364
H  H14  1  0.43246000  0.09101000  0.79332000  1.0 0.0996715364
H  H15  1  0.54539000  0.16306000  0.73748000  1.0 0.0996715364
H  H16  1  0.54147000  0.21054000  0.84405000  1.0 0.0996715364
H  H17  1  0.71271000  0.57196000  0.88550000  1.0 0.0996715364
H  H18  1  0.65855000  0.56754000  0.79332000  1.0 0.0996715364
H  H19  1  0.61767000  0.45461000  0.73748000  1.0 0.0996715364
H  H20  1  0.66907000  0.45853000  0.84405000  1.0 0.0996715364
H  H21  1  0.85925000  0.28729000  0.88550000  1.0 0.0996715364
H  H22  1  0.90899000  0.34145000  0.79332000  1.0 0.0996715364
H  H23  1  0.83694000  0.38233000  0.73748000  1.0 0.0996715364
H  H24  1  0.78946000  0.33093000  0.84405000  1.0 0.0996715364
H  H25  1  0.71271000  0.14075000  0.11450000  1.0 0.0996715364
H  H26  1  0.65855000  0.09101000  0.20668000  1.0 0.0996715364
H  H27  1  0.61767000  0.16306000  0.26252000  1.0 0.0996715364
H  H28  1  0.66907000  0.21054000  0.15595000  1.0 0.0996715364
H  H29  1  0.85925000  0.57196000  0.11450000  1.0 0.0996715364
H  H30  1  0.90899000  0.56754000  0.20668000  1.0 0.0996715364
H  H31  1  0.83694000  0.45461000  0.26252000  1.0 0.0996715364
H  H32  1  0.78946000  0.45853000  0.15595000  1.0 0.0996715364
H  H33  1  0.42804000  0.28729000  0.11450000  1.0 0.0996715364
H  H34  1  0.43246000  0.34145000  0.20668000  1.0 0.0996715364
H  H35  1  0.54539000  0.38233000  0.26252000  1.0 0.0996715364
H  H36  1  0.54147000  0.33093000  0.15595000  1.0 0.0996715364
H  H37  1  0.28729000  0.85925000  0.11450000  1.0 0.0996715364
H  H38  1  0.34145000  0.90899000  0.20668000  1.0 0.0996715364
H  H39  1  0.38233000  0.83694000  0.26252000  1.0 0.0996715364
H  H40  1  0.33093000  0.78946000  0.15595000  1.0 0.0996715364
H  H41  1  0.14075000  0.42804000  0.11450000  1.0 0.0996715364
H  H42  1  0.09101000  0.43246000  0.20668000  1.0 0.0996715364
H  H43  1  0.16306000  0.54539000  0.26252000  1.0 0.0996715364
H  H44  1  0.21054000  0.54147000  0.15595000  1.0 0.0996715364
H  H45  1  0.57196000  0.71271000  0.11450000  1.0 0.0996715364
H  H46  1  0.56754000  0.65855000  0.20668000  1.0 0.0996715364
H  H47  1  0.45461000  0.61767000  0.26252000  1.0 0.0996715364
H  H48  1  0.45853000  0.66907000  0.15595000  1.0 0.0996715364
H  H49  1  0.42804000  0.14075000  0.11450000  1.0 0.0996715364
H  H50  1  0.43246000  0.09101000  0.20668000  1.0 0.0996715364
H  H51  1  0.54539000  0.16306000  0.26252000  1.0 0.0996715364
H  H52  1  0.54147000  0.21054000  0.15595000  1.0 0.0996715364
H  H53  1  0.71271000  0.57196000  0.11450000  1.0 0.0996715364
H  H54  1  0.65855000  0.56754000  0.20668000  1.0 0.0996715364
H  H55  1  0.61767000  0.45461000  0.26252000  1.0 0.0996715364
H  H56  1  0.66907000  0.45853000  0.15595000  1.0 0.0996715364
H  H57  1  0.85925000  0.28729000  0.11450000  1.0 0.0996715364
H  H58  1  0.90899000  0.34145000  0.20668000  1.0 0.0996715364
H  H59  1  0.83694000  0.38233000  0.26252000  1.0 0.0996715364
H  H60  1  0.78946000  0.33093000  0.15595000  1.0 0.0996715364
H  H61  1  0.57196000  0.85925000  0.11450000  1.0 0.0996715364
H  H62  1  0.56754000  0.90899000  0.20668000  1.0 0.0996715364
H  H63  1  0.45461000  0.83694000  0.26252000  1.0 0.0996715364
H  H64  1  0.45853000  0.78946000  0.15595000  1.0 0.0996715364
H  H65  1  0.28729000  0.42804000  0.11450000  1.0 0.0996715364
H  H66  1  0.34145000  0.43246000  0.20668000  1.0 0.0996715364
H  H67  1  0.38233000  0.54539000  0.26252000  1.0 0.0996715364
H  H68  1  0.33093000  0.54147000  0.15595000  1.0 0.0996715364
H  H69  1  0.14075000  0.71271000  0.11450000  1.0 0.0996715364
H  H70  1  0.09101000  0.65855000  0.20668000  1.0 0.0996715364
H  H71  1  0.16306000  0.61767000  0.26252000  1.0 0.0996715364
H  H72  1  0.21054000  0.66907000  0.15595000  1.0 0.0996715364
H  H73  1  0.28729000  0.85925000  0.88550000  1.0 0.0996715364
H  H74  1  0.34145000  0.90899000  0.79332000  1.0 0.0996715364
H  H75  1  0.38233000  0.83694000  0.73748000  1.0 0.0996715364
H  H76  1  0.33093000  0.78946000  0.84405000  1.0 0.0996715364
H  H77  1  0.14075000  0.42804000  0.88550000  1.0 0.0996715364
H  H78  1  0.09101000  0.43246000  0.79332000  1.0 0.0996715364
H  H79  1  0.16306000  0.54539000  0.73748000  1.0 0.0996715364
H  H80  1  0.21054000  0.54147000  0.84405000  1.0 0.0996715364
H  H81  1  0.57196000  0.71271000  0.88550000  1.0 0.0996715364
H  H82  1  0.56754000  0.65855000  0.79332000  1.0 0.0996715364
H  H83  1  0.45461000  0.61767000  0.73748000  1.0 0.0996715364
H  H84  1  0.45853000  0.66907000  0.84405000  1.0 0.0996715364
H  H85  1  0.71271000  0.14075000  0.88550000  1.0 0.0996715364
H  H86  1  0.65855000  0.09101000  0.79332000  1.0 0.0996715364
H  H87  1  0.61767000  0.16306000  0.73748000  1.0 0.0996715364
H  H88  1  0.66907000  0.21054000  0.84405000  1.0 0.0996715364
H  H89  1  0.85925000  0.57196000  0.88550000  1.0 0.0996715364
H  H90  1  0.90899000  0.56754000  0.79332000  1.0 0.0996715364
H  H91  1  0.83694000  0.45461000  0.73748000  1.0 0.0996715364
H  H92  1  0.78946000  0.45853000  0.84405000  1.0 0.0996715364
H  H93  1  0.42804000  0.28729000  0.88550000  1.0 0.0996715364
H  H94  1  0.43246000  0.34145000  0.79332000  1.0 0.0996715364
H  H95  1  0.54539000  0.38233000  0.73748000  1.0 0.0996715364
H  H96  1  0.54147000  0.33093000  0.84405000  1.0 0.0996715364
C  C1  1  0.51079000  0.87771000  0.75570000  1.0 -0.0522363082
C  C2  1  0.50800000  0.90859000  0.69110000  1.0 0.6210406645
C  C3  1  0.51554000  0.82010000  0.87270000  1.0 0.0563501566
C  C4  1  0.51805000  0.78940000  0.93830000  1.0 -0.0334646114
C  C5  1  0.54801000  0.85508000  0.85760000  1.0 -0.1715788246
C  C6  1  0.54547000  0.88442000  0.80090000  1.0 -0.1089160304
C  C7  1  0.47835000  0.84192000  0.76970000  1.0 -0.1089160304
C  C8  1  0.48084000  0.81349000  0.83100000  1.0 -0.1715788246
C  C9  1  0.36692000  0.48921000  0.75570000  1.0 -0.0522363082
C  C10  1  0.40059000  0.49200000  0.69110000  1.0 0.6210406645
C  C11  1  0.30456000  0.48446000  0.87270000  1.0 0.0545915752
C  C12  1  0.27135000  0.48195000  0.93830000  1.0 -0.0334646114
C  C13  1  0.30707000  0.45199000  0.85760000  1.0 -0.1715788246
C  C14  1  0.33895000  0.45453000  0.80090000  1.0 -0.1089160304
C  C15  1  0.36357000  0.52165000  0.76970000  1.0 -0.1089160304
C  C16  1  0.33265000  0.51916000  0.83100000  1.0 -0.1715788246
C  C17  1  0.12229000  0.63308000  0.75570000  1.0 -0.0522363082
C  C18  1  0.09141000  0.59941000  0.69110000  1.0 0.6210406645
C  C19  1  0.17990000  0.69544000  0.87270000  1.0 0.0545915752
C  C20  1  0.21060000  0.72865000  0.93830000  1.0 -0.0334646114
C  C21  1  0.14492000  0.69293000  0.85760000  1.0 -0.1715788246
C  C22  1  0.11558000  0.66105000  0.80090000  1.0 -0.1089160304
C  C23  1  0.15808000  0.63643000  0.76970000  1.0 -0.1089160304
C  C24  1  0.18651000  0.66735000  0.83100000  1.0 -0.1715788246
C  C25  1  0.48921000  0.12229000  0.75570000  1.0 -0.0522363082
C  C26  1  0.49200000  0.09141000  0.69110000  1.0 0.6210406645
C  C27  1  0.48446000  0.17990000  0.87270000  1.0 0.0563501566
C  C28  1  0.48195000  0.21060000  0.93830000  1.0 -0.0334646114
C  C29  1  0.45199000  0.14492000  0.85760000  1.0 -0.1715788246
C  C30  1  0.45453000  0.11558000  0.80090000  1.0 -0.1089160304
C  C31  1  0.52165000  0.15808000  0.76970000  1.0 -0.1089160304
C  C32  1  0.51916000  0.18651000  0.83100000  1.0 -0.1715788246
C  C33  1  0.63308000  0.51079000  0.75570000  1.0 -0.0522363082
C  C34  1  0.59941000  0.50800000  0.69110000  1.0 0.6210406645
C  C35  1  0.69544000  0.51554000  0.87270000  1.0 0.0545915752
C  C36  1  0.72865000  0.51805000  0.93830000  1.0 -0.0334646114
C  C37  1  0.69293000  0.54801000  0.85760000  1.0 -0.1715788246
C  C38  1  0.66105000  0.54547000  0.80090000  1.0 -0.1089160304
C  C39  1  0.63643000  0.47835000  0.76970000  1.0 -0.1089160304
C  C40  1  0.66735000  0.48084000  0.83100000  1.0 -0.1715788246
C  C41  1  0.87771000  0.36692000  0.75570000  1.0 -0.0522363082
C  C42  1  0.90859000  0.40059000  0.69110000  1.0 0.6210406645
C  C43  1  0.82010000  0.30456000  0.87270000  1.0 0.0563501566
C  C44  1  0.78940000  0.27135000  0.93830000  1.0 -0.0334646114
C  C45  1  0.85508000  0.30707000  0.85760000  1.0 -0.1715788246
C  C46  1  0.88442000  0.33895000  0.80090000  1.0 -0.1089160304
C  C47  1  0.84192000  0.36357000  0.76970000  1.0 -0.1089160304
C  C48  1  0.81349000  0.33265000  0.83100000  1.0 -0.1715788246
C  C49  1  0.63308000  0.12229000  0.24430000  1.0 -0.0522363082
C  C50  1  0.59941000  0.09141000  0.30890000  1.0 0.6210406645
C  C51  1  0.69544000  0.17990000  0.12730000  1.0 0.0563501566
C  C52  1  0.72865000  0.21060000  0.06170000  1.0 -0.0334646114
C  C53  1  0.69293000  0.14492000  0.14240000  1.0 -0.1715788246
C  C54  1  0.66105000  0.11558000  0.19910000  1.0 -0.1089160304
C  C55  1  0.63643000  0.15808000  0.23030000  1.0 -0.1089160304
C  C56  1  0.66735000  0.18651000  0.16900000  1.0 -0.1715788246
C  C57  1  0.87771000  0.51079000  0.24430000  1.0 -0.0522363082
C  C58  1  0.90859000  0.50800000  0.30890000  1.0 0.6210406645
C  C59  1  0.82010000  0.51554000  0.12730000  1.0 0.0563501566
C  C60  1  0.78940000  0.51805000  0.06170000  1.0 -0.0334646114
C  C61  1  0.85508000  0.54801000  0.14240000  1.0 -0.1715788246
C  C62  1  0.88442000  0.54547000  0.19910000  1.0 -0.1089160304
C  C63  1  0.84192000  0.47835000  0.23030000  1.0 -0.1089160304
C  C64  1  0.81349000  0.48084000  0.16900000  1.0 -0.1715788246
C  C65  1  0.48921000  0.36692000  0.24430000  1.0 -0.0522363082
C  C66  1  0.49200000  0.40059000  0.30890000  1.0 0.6210406645
C  C67  1  0.48446000  0.30456000  0.12730000  1.0 0.0545915752
C  C68  1  0.48195000  0.27135000  0.06170000  1.0 -0.0334646114
C  C69  1  0.45199000  0.30707000  0.14240000  1.0 -0.1715788246
C  C70  1  0.45453000  0.33895000  0.19910000  1.0 -0.1089160304
C  C71  1  0.52165000  0.36357000  0.23030000  1.0 -0.1089160304
C  C72  1  0.51916000  0.33265000  0.16900000  1.0 -0.1715788246
C  C73  1  0.36692000  0.87771000  0.24430000  1.0 -0.0522363082
C  C74  1  0.40059000  0.90859000  0.30890000  1.0 0.6210406645
C  C75  1  0.30456000  0.82010000  0.12730000  1.0 0.0563501566
C  C76  1  0.27135000  0.78940000  0.06170000  1.0 -0.0334646114
C  C77  1  0.30707000  0.85508000  0.14240000  1.0 -0.1715788246
C  C78  1  0.33895000  0.88442000  0.19910000  1.0 -0.1089160304
C  C79  1  0.36357000  0.84192000  0.23030000  1.0 -0.1089160304
C  C80  1  0.33265000  0.81349000  0.16900000  1.0 -0.1715788246
C  C81  1  0.12229000  0.48921000  0.24430000  1.0 -0.0522363082
C  C82  1  0.09141000  0.49200000  0.30890000  1.0 0.6210406645
C  C83  1  0.17990000  0.48446000  0.12730000  1.0 0.0545915752
C  C84  1  0.21060000  0.48195000  0.06170000  1.0 -0.0334646114
C  C85  1  0.14492000  0.45199000  0.14240000  1.0 -0.1715788246
C  C86  1  0.11558000  0.45453000  0.19910000  1.0 -0.1089160304
C  C87  1  0.15808000  0.52165000  0.23030000  1.0 -0.1089160304
C  C88  1  0.18651000  0.51916000  0.16900000  1.0 -0.1715788246
C  C89  1  0.51079000  0.63308000  0.24430000  1.0 -0.0522363082
C  C90  1  0.50800000  0.59941000  0.30890000  1.0 0.6210406645
C  C91  1  0.51554000  0.69544000  0.12730000  1.0 0.0563501566
C  C92  1  0.51805000  0.72865000  0.06170000  1.0 -0.0334646114
C  C93  1  0.54801000  0.69293000  0.14240000  1.0 -0.1715788246
C  C94  1  0.54547000  0.66105000  0.19910000  1.0 -0.1089160304
C  C95  1  0.47835000  0.63643000  0.23030000  1.0 -0.1089160304
C  C96  1  0.48084000  0.66735000  0.16900000  1.0 -0.1715788246
C  C97  1  0.48921000  0.12229000  0.24430000  1.0 -0.0522363082
C  C98  1  0.49200000  0.09141000  0.30890000  1.0 0.6210406645
C  C99  1  0.48446000  0.17990000  0.12730000  1.0 0.0563501566
C  C100  1  0.48195000  0.21060000  0.06170000  1.0 -0.0334646114
C  C101  1  0.45199000  0.14492000  0.14240000  1.0 -0.1715788246
C  C102  1  0.45453000  0.11558000  0.19910000  1.0 -0.1089160304
C  C103  1  0.52165000  0.15808000  0.23030000  1.0 -0.1089160304
C  C104  1  0.51916000  0.18651000  0.16900000  1.0 -0.1715788246
C  C105  1  0.63308000  0.51079000  0.24430000  1.0 -0.0522363082
C  C106  1  0.59941000  0.50800000  0.30890000  1.0 0.6210406645
C  C107  1  0.69544000  0.51554000  0.12730000  1.0 0.0545915752
C  C108  1  0.72865000  0.51805000  0.06170000  1.0 -0.0334646114
C  C109  1  0.69293000  0.54801000  0.14240000  1.0 -0.1715788246
C  C110  1  0.66105000  0.54547000  0.19910000  1.0 -0.1089160304
C  C111  1  0.63643000  0.47835000  0.23030000  1.0 -0.1089160304
C  C112  1  0.66735000  0.48084000  0.16900000  1.0 -0.1715788246
C  C113  1  0.87771000  0.36692000  0.24430000  1.0 -0.0522363082
C  C114  1  0.90859000  0.40059000  0.30890000  1.0 0.6210406645
C  C115  1  0.82010000  0.30456000  0.12730000  1.0 0.0563501566
C  C116  1  0.78940000  0.27135000  0.06170000  1.0 -0.0334646114
C  C117  1  0.85508000  0.30707000  0.14240000  1.0 -0.1715788246
C  C118  1  0.88442000  0.33895000  0.19910000  1.0 -0.1089160304
C  C119  1  0.84192000  0.36357000  0.23030000  1.0 -0.1089160304
C  C120  1  0.81349000  0.33265000  0.16900000  1.0 -0.1715788246
C  C121  1  0.51079000  0.87771000  0.24430000  1.0 -0.0522363082
C  C122  1  0.50800000  0.90859000  0.30890000  1.0 0.6210406645
C  C123  1  0.51554000  0.82010000  0.12730000  1.0 0.0563501566
C  C124  1  0.51805000  0.78940000  0.06170000  1.0 -0.0334646114
C  C125  1  0.54801000  0.85508000  0.14240000  1.0 -0.1715788246
C  C126  1  0.54547000  0.88442000  0.19910000  1.0 -0.1089160304
C  C127  1  0.47835000  0.84192000  0.23030000  1.0 -0.1089160304
C  C128  1  0.48084000  0.81349000  0.16900000  1.0 -0.1715788246
C  C129  1  0.36692000  0.48921000  0.24430000  1.0 -0.0522363082
C  C130  1  0.40059000  0.49200000  0.30890000  1.0 0.6210406645
C  C131  1  0.30456000  0.48446000  0.12730000  1.0 0.0545915752
C  C132  1  0.27135000  0.48195000  0.06170000  1.0 -0.0334646114
C  C133  1  0.30707000  0.45199000  0.14240000  1.0 -0.1715788246
C  C134  1  0.33895000  0.45453000  0.19910000  1.0 -0.1089160304
C  C135  1  0.36357000  0.52165000  0.23030000  1.0 -0.1089160304
C  C136  1  0.33265000  0.51916000  0.16900000  1.0 -0.1715788246
C  C137  1  0.12229000  0.63308000  0.24430000  1.0 -0.0522363082
C  C138  1  0.09141000  0.59941000  0.30890000  1.0 0.6210406645
C  C139  1  0.17990000  0.69544000  0.12730000  1.0 0.0545915752
C  C140  1  0.21060000  0.72865000  0.06170000  1.0 -0.0334646114
C  C141  1  0.14492000  0.69293000  0.14240000  1.0 -0.1715788246
C  C142  1  0.11558000  0.66105000  0.19910000  1.0 -0.1089160304
C  C143  1  0.15808000  0.63643000  0.23030000  1.0 -0.1089160304
C  C144  1  0.18651000  0.66735000  0.16900000  1.0 -0.1715788246
C  C145  1  0.36692000  0.87771000  0.75570000  1.0 -0.0522363082
C  C146  1  0.40059000  0.90859000  0.69110000  1.0 0.6210406645
C  C147  1  0.30456000  0.82010000  0.87270000  1.0 0.0563501566
C  C148  1  0.27135000  0.78940000  0.93830000  1.0 -0.0334646114
C  C149  1  0.30707000  0.85508000  0.85760000  1.0 -0.1715788246
C  C150  1  0.33895000  0.88442000  0.80090000  1.0 -0.1089160304
C  C151  1  0.36357000  0.84192000  0.76970000  1.0 -0.1089160304
C  C152  1  0.33265000  0.81349000  0.83100000  1.0 -0.1715788246
C  C153  1  0.12229000  0.48921000  0.75570000  1.0 -0.0522363082
C  C154  1  0.09141000  0.49200000  0.69110000  1.0 0.6210406645
C  C155  1  0.17990000  0.48446000  0.87270000  1.0 0.0545915752
C  C156  1  0.21060000  0.48195000  0.93830000  1.0 -0.0334646114
C  C157  1  0.14492000  0.45199000  0.85760000  1.0 -0.1715788246
C  C158  1  0.11558000  0.45453000  0.80090000  1.0 -0.1089160304
C  C159  1  0.15808000  0.52165000  0.76970000  1.0 -0.1089160304
C  C160  1  0.18651000  0.51916000  0.83100000  1.0 -0.1715788246
C  C161  1  0.51079000  0.63308000  0.75570000  1.0 -0.0522363082
C  C162  1  0.50800000  0.59941000  0.69110000  1.0 0.6210406645
C  C163  1  0.51554000  0.69544000  0.87270000  1.0 0.0563501566
C  C164  1  0.51805000  0.72865000  0.93830000  1.0 -0.0334646114
C  C165  1  0.54801000  0.69293000  0.85760000  1.0 -0.1715788246
C  C166  1  0.54547000  0.66105000  0.80090000  1.0 -0.1089160304
C  C167  1  0.47835000  0.63643000  0.76970000  1.0 -0.1089160304
C  C168  1  0.48084000  0.66735000  0.83100000  1.0 -0.1715788246
C  C169  1  0.63308000  0.12229000  0.75570000  1.0 -0.0522363082
C  C170  1  0.59941000  0.09141000  0.69110000  1.0 0.6210406645
C  C171  1  0.69544000  0.17990000  0.87270000  1.0 0.0563501566
C  C172  1  0.72865000  0.21060000  0.93830000  1.0 -0.0334646114
C  C173  1  0.69293000  0.14492000  0.85760000  1.0 -0.1715788246
C  C174  1  0.66105000  0.11558000  0.80090000  1.0 -0.1089160304
C  C175  1  0.63643000  0.15808000  0.76970000  1.0 -0.1089160304
C  C176  1  0.66735000  0.18651000  0.83100000  1.0 -0.1715788246
C  C177  1  0.87771000  0.51079000  0.75570000  1.0 -0.0522363082
C  C178  1  0.90859000  0.50800000  0.69110000  1.0 0.6210406645
C  C179  1  0.82010000  0.51554000  0.87270000  1.0 0.0563501566
C  C180  1  0.78940000  0.51805000  0.93830000  1.0 -0.0334646114
C  C181  1  0.85508000  0.54801000  0.85760000  1.0 -0.1715788246
C  C182  1  0.88442000  0.54547000  0.80090000  1.0 -0.1089160304
C  C183  1  0.84192000  0.47835000  0.76970000  1.0 -0.1089160304
C  C184  1  0.81349000  0.48084000  0.83100000  1.0 -0.1715788246
C  C185  1  0.48921000  0.36692000  0.75570000  1.0 -0.0522363082
C  C186  1  0.49200000  0.40059000  0.69110000  1.0 0.6210406645
C  C187  1  0.48446000  0.30456000  0.87270000  1.0 0.0545915752
C  C188  1  0.48195000  0.27135000  0.93830000  1.0 -0.0334646114
C  C189  1  0.45199000  0.30707000  0.85760000  1.0 -0.1715788246
C  C190  1  0.45453000  0.33895000  0.80090000  1.0 -0.1089160304
C  C191  1  0.52165000  0.36357000  0.76970000  1.0 -0.1089160304
C  C192  1  0.51916000  0.33265000  0.83100000  1.0 -0.1715788246
C  C193  1  0.51825000  0.75913000  0.87910000  1.0 -0.021769646
C  C194  1  0.24088000  0.48175000  0.87910000  1.0 -0.021769646
C  C195  1  0.24088000  0.75913000  0.87910000  1.0 -0.021769646
C  C196  1  0.48175000  0.24088000  0.87910000  1.0 -0.021769646
C  C197  1  0.75913000  0.51825000  0.87910000  1.0 -0.021769646
C  C198  1  0.75913000  0.24088000  0.87910000  1.0 -0.021769646
C  C199  1  0.75913000  0.24088000  0.12090000  1.0 -0.021769646
C  C200  1  0.75913000  0.51825000  0.12090000  1.0 -0.021769646
C  C201  1  0.48175000  0.24088000  0.12090000  1.0 -0.021769646
C  C202  1  0.24088000  0.75913000  0.12090000  1.0 -0.021769646
C  C203  1  0.24088000  0.48175000  0.12090000  1.0 -0.021769646
C  C204  1  0.51825000  0.75913000  0.12090000  1.0 -0.021769646
Br  Br1  1  0.51981000  0.75991000  0.71346000  1.0 -0.0758924123
Br  Br2  1  0.24009000  0.48019000  0.71346000  1.0 -0.0749685244
Br  Br3  1  0.24009000  0.75991000  0.71346000  1.0 -0.0758924123
Br  Br4  1  0.48019000  0.24010000  0.71346000  1.0 -0.0758924123
Br  Br5  1  0.75991000  0.51981000  0.71346000  1.0 -0.0758924123
Br  Br6  1  0.75991000  0.24010000  0.71346000  1.0 -0.0758924123
Br  Br7  1  0.75991000  0.24010000  0.28654000  1.0 -0.0758924123
Br  Br8  1  0.75991000  0.51981000  0.28654000  1.0 -0.0758924123
Br  Br9  1  0.48019000  0.24010000  0.28654000  1.0 -0.0758924123
Br  Br10  1  0.24009000  0.75991000  0.28654000  1.0 -0.0758924123
Br  Br11  1  0.24009000  0.48019000  0.28654000  1.0 -0.0758924123
Br  Br12  1  0.51981000  0.75991000  0.28654000  1.0 -0.0758924123
O  O1  1  0.48151000  0.89800000  0.61780000  1.0 -0.6249433086
O  O2  1  0.53277000  0.94264000  0.71510000  1.0 -0.6441764788
O  O3  1  0.41649000  0.51849000  0.61780000  1.0 -0.625972949
O  O4  1  0.40987000  0.46723000  0.71510000  1.0 -0.6441764788
O  O5  1  0.10200000  0.58351000  0.61780000  1.0 -0.625972949
O  O6  1  0.05736000  0.59013000  0.71510000  1.0 -0.6441764788
O  O7  1  0.51849000  0.10200000  0.61780000  1.0 -0.625972949
O  O8  1  0.46723000  0.05736000  0.71510000  1.0 -0.6441764788
O  O9  1  0.58351000  0.48151000  0.61780000  1.0 -0.625972949
O  O10  1  0.59013000  0.53277000  0.71510000  1.0 -0.6455770657
O  O11  1  0.89800000  0.41649000  0.61780000  1.0 -0.625972949
O  O12  1  0.94264000  0.40987000  0.71510000  1.0 -0.6441764788
O  O13  1  0.58351000  0.10200000  0.38220000  1.0 -0.625972949
O  O14  1  0.59013000  0.05736000  0.28490000  1.0 -0.6441764788
O  O15  1  0.89800000  0.48151000  0.38220000  1.0 -0.625972949
O  O16  1  0.94264000  0.53277000  0.28490000  1.0 -0.6455770657
O  O17  1  0.51849000  0.41649000  0.38220000  1.0 -0.625972949
O  O18  1  0.46723000  0.40987000  0.28490000  1.0 -0.6441764788
O  O19  1  0.41649000  0.89800000  0.38220000  1.0 -0.6249433086
O  O20  1  0.40987000  0.94264000  0.28490000  1.0 -0.6441764788
O  O21  1  0.10200000  0.51849000  0.38220000  1.0 -0.625972949
O  O22  1  0.05736000  0.46723000  0.28490000  1.0 -0.6441764788
O  O23  1  0.48151000  0.58351000  0.38220000  1.0 -0.625972949
O  O24  1  0.53277000  0.59013000  0.28490000  1.0 -0.6441764788
O  O25  1  0.51849000  0.10200000  0.38220000  1.0 -0.625972949
O  O26  1  0.46723000  0.05736000  0.28490000  1.0 -0.6441764788
O  O27  1  0.58351000  0.48151000  0.38220000  1.0 -0.625972949
O  O28  1  0.59013000  0.53277000  0.28490000  1.0 -0.6455770657
O  O29  1  0.89800000  0.41649000  0.38220000  1.0 -0.625972949
O  O30  1  0.94264000  0.40987000  0.28490000  1.0 -0.6441764788
O  O31  1  0.48151000  0.89800000  0.38220000  1.0 -0.6249433086
O  O32  1  0.53277000  0.94264000  0.28490000  1.0 -0.6441764788
O  O33  1  0.41649000  0.51849000  0.38220000  1.0 -0.625972949
O  O34  1  0.40987000  0.46723000  0.28490000  1.0 -0.6441764788
O  O35  1  0.10200000  0.58351000  0.38220000  1.0 -0.625972949
O  O36  1  0.05736000  0.59013000  0.28490000  1.0 -0.6441764788
O  O37  1  0.41649000  0.89800000  0.61780000  1.0 -0.6249433086
O  O38  1  0.40987000  0.94264000  0.71510000  1.0 -0.6441764788
O  O39  1  0.10200000  0.51849000  0.61780000  1.0 -0.625972949
O  O40  1  0.05736000  0.46723000  0.71510000  1.0 -0.6441764788
O  O41  1  0.48151000  0.58351000  0.61780000  1.0 -0.625972949
O  O42  1  0.53277000  0.59013000  0.71510000  1.0 -0.6441764788
O  O43  1  0.58351000  0.10200000  0.61780000  1.0 -0.625972949
O  O44  1  0.59013000  0.05736000  0.71510000  1.0 -0.6441764788
O  O45  1  0.89800000  0.48151000  0.61780000  1.0 -0.625972949
O  O46  1  0.94264000  0.53277000  0.71510000  1.0 -0.6455770657
O  O47  1  0.51849000  0.41649000  0.61780000  1.0 -0.625972949
O  O48  1  0.46723000  0.40987000  0.71510000  1.0 -0.6441764788
O  O49  1  0.59781000  0.00000000  0.35930000  1.0 -0.8691709068
O  O50  1  0.40219000  0.40219000  0.35930000  1.0 -0.8691709068
O  O51  1  0.00000000  0.59781000  0.35930000  1.0 -0.8691709068
O  O52  1  0.40219000  0.00000000  0.35930000  1.0 -0.8691709068
O  O53  1  0.59781000  0.59781000  0.35930000  1.0 -0.8691709068
O  O54  1  0.00000000  0.40219000  0.35930000  1.0 -0.8691709068
O  O55  1  0.59781000  0.00000000  0.64070000  1.0 -0.8691709068
O  O56  1  0.00000000  0.59781000  0.64070000  1.0 -0.8691709068
O  O57  1  0.40219000  0.40219000  0.64070000  1.0 -0.8691709068
O  O58  1  0.40219000  0.00000000  0.64070000  1.0 -0.8691709068
O  O59  1  0.00000000  0.40219000  0.64070000  1.0 -0.8691709068
O  O60  1  0.59781000  0.59781000  0.64070000  1.0 -0.8691709068
O  O61  1  0.48456000  0.96912000  0.36870000  1.0 -0.4244891033
O  O62  1  0.48127000  0.96254000  0.31860000  1.0 -0.3317578908
O  O63  1  0.48456000  0.51544000  0.36870000  1.0 -0.4244891033
O  O64  1  0.48127000  0.51873000  0.31860000  1.0 -0.3317578908
O  O65  1  0.03088000  0.51544000  0.36870000  1.0 -0.4244891033
O  O66  1  0.03746000  0.51873000  0.31860000  1.0 -0.3317578908
O  O67  1  0.51544000  0.03088000  0.36870000  1.0 -0.4244891033
O  O68  1  0.51873000  0.03746000  0.31860000  1.0 -0.3317578908
O  O69  1  0.51544000  0.48456000  0.36870000  1.0 -0.4244891033
O  O70  1  0.51873000  0.48127000  0.31860000  1.0 -0.3317578908
O  O71  1  0.96912000  0.48456000  0.36870000  1.0 -0.4244891033
O  O72  1  0.96254000  0.48127000  0.31860000  1.0 -0.3317578908
O  O73  1  0.51544000  0.03088000  0.63130000  1.0 -0.4244891033
O  O74  1  0.51873000  0.03746000  0.68140000  1.0 -0.3317578908
O  O75  1  0.96912000  0.48456000  0.63130000  1.0 -0.4244891033
O  O76  1  0.96254000  0.48127000  0.68140000  1.0 -0.3317578908
O  O77  1  0.51544000  0.48456000  0.63130000  1.0 -0.4244891033
O  O78  1  0.51873000  0.48127000  0.68140000  1.0 -0.3317578908
O  O79  1  0.48456000  0.96912000  0.63130000  1.0 -0.4244891033
O  O80  1  0.48127000  0.96254000  0.68140000  1.0 -0.3317578908
O  O81  1  0.03088000  0.51544000  0.63130000  1.0 -0.4244891033
O  O82  1  0.03746000  0.51873000  0.68140000  1.0 -0.3317578908
O  O83  1  0.48456000  0.51544000  0.63130000  1.0 -0.4244891033
O  O84  1  0.48127000  0.51873000  0.68140000  1.0 -0.3317578908
O  O85  1  0.52222000  0.97022000  0.50000000  1.0 -0.3940915127
O  O86  1  0.53106000  0.96066000  0.50000000  1.0 -0.271911913
O  O87  1  0.44800000  0.47778000  0.50000000  1.0 -0.3940915127
O  O88  1  0.42960000  0.46894000  0.50000000  1.0 -0.271911913
O  O89  1  0.02978000  0.55200000  0.50000000  1.0 -0.3940915127
O  O90  1  0.03934000  0.57040000  0.50000000  1.0 -0.271911913
O  O91  1  0.47778000  0.02978000  0.50000000  1.0 -0.3940915127
O  O92  1  0.46894000  0.03934000  0.50000000  1.0 -0.271911913
O  O93  1  0.55200000  0.52222000  0.50000000  1.0 -0.3953803406
O  O94  1  0.57040000  0.53106000  0.50000000  1.0 -0.271911913
O  O95  1  0.97022000  0.44800000  0.50000000  1.0 -0.3940915127
O  O96  1  0.96066000  0.42960000  0.50000000  1.0 -0.271911913
O  O97  1  0.55200000  0.02978000  0.50000000  1.0 -0.3940915127
O  O98  1  0.57040000  0.03934000  0.50000000  1.0 -0.271911913
O  O99  1  0.97022000  0.52222000  0.50000000  1.0 -0.3940915127
O  O100  1  0.96066000  0.53106000  0.50000000  1.0 -0.271911913
O  O101  1  0.47778000  0.44800000  0.50000000  1.0 -0.3953803406
O  O102  1  0.46894000  0.42960000  0.50000000  1.0 -0.271911913
O  O103  1  0.44800000  0.97022000  0.50000000  1.0 -0.3940915127
O  O104  1  0.42960000  0.96066000  0.50000000  1.0 -0.271911913
O  O105  1  0.02978000  0.47778000  0.50000000  1.0 -0.3940915127
O  O106  1  0.03934000  0.46894000  0.50000000  1.0 -0.271911913
O  O107  1  0.52222000  0.55200000  0.50000000  1.0 -0.3953803406
O  O108  1  0.53106000  0.57040000  0.50000000  1.0 -0.271911913
