# DDEC6 charges by PACMAN v1.1 (https://github.com/mtap-research/PACMAN-charge/)
data_DAWZOU_ASR_pacman
_symmetry_space_group_name_H-M   'P 1'
_cell_length_a   39.55890000
_cell_length_b   39.55890000
_cell_length_c   16.38310000
_cell_angle_alpha   90.00000000
_cell_angle_beta   90.00000000
_cell_angle_gamma   120.00000000
_symmetry_Int_Tables_number   1
_chemical_formula_structural   Zr3Mo2H22(C22O7)2
_chemical_formula_sum   'Zr18 Mo12 H132 C264 O84'
_cell_volume   22203.17732770
_cell_formula_units_Z   6
loop_
 _symmetry_equiv_pos_site_id
 _symmetry_equiv_pos_as_xyz
  1  'x, y, z'
loop_
 _atom_site_type_symbol
 _atom_site_label
 _atom_site_symmetry_multiplicity
 _atom_site_fract_x
 _atom_site_fract_y
 _atom_site_fract_z
 _atom_site_occupancy
 _atom_site_charge
Zr  Zr1  1  0.53609000  0.46391000  0.50000000  1.0 2.3161650084
Zr  Zr2  1  0.92782000  0.46391000  0.50000000  1.0 2.3161650084
Zr  Zr3  1  0.53609000  0.07218000  0.50000000  1.0 2.3161650084
Zr  Zr4  1  0.46391000  0.53609000  0.50000000  1.0 2.3161650084
Zr  Zr5  1  0.07218000  0.53609000  0.50000000  1.0 2.3161650084
Zr  Zr6  1  0.46391000  0.92782000  0.50000000  1.0 2.3161650084
Zr  Zr7  1  0.45549000  0.45549000  0.39251000  1.0 2.5018214632
Zr  Zr8  1  0.00000000  0.54451000  0.39251000  1.0 2.5018214632
Zr  Zr9  1  0.54451000  0.00000000  0.39251000  1.0 2.506656486
Zr  Zr10  1  0.54451000  0.54451000  0.39251000  1.0 2.506656486
Zr  Zr11  1  0.00000000  0.45549000  0.39251000  1.0 2.5018214632
Zr  Zr12  1  0.45549000  0.00000000  0.39251000  1.0 2.506656486
Zr  Zr13  1  0.00000000  0.54451000  0.60749000  1.0 2.5018214632
Zr  Zr14  1  0.45549000  0.45549000  0.60749000  1.0 2.5018214632
Zr  Zr15  1  0.54451000  0.00000000  0.60749000  1.0 2.5018214632
Zr  Zr16  1  0.00000000  0.45549000  0.60749000  1.0 2.5018214632
Zr  Zr17  1  0.54451000  0.54451000  0.60749000  1.0 2.5018214632
Zr  Zr18  1  0.45549000  0.00000000  0.60749000  1.0 2.5018214632
Mo  Mo1  1  0.44200000  0.44200000  0.16240000  1.0 0.7540467165
Mo  Mo2  1  0.00000000  0.55800000  0.16240000  1.0 0.744651892
Mo  Mo3  1  0.55800000  0.00000000  0.16240000  1.0 0.7619056287
Mo  Mo4  1  0.55800000  0.55800000  0.16240000  1.0 0.7619056287
Mo  Mo5  1  0.00000000  0.44200000  0.16240000  1.0 0.7800219141
Mo  Mo6  1  0.44200000  0.00000000  0.16240000  1.0 0.7619056287
Mo  Mo7  1  0.00000000  0.55800000  0.83760000  1.0 0.7725969933
Mo  Mo8  1  0.44200000  0.44200000  0.83760000  1.0 0.7725969933
Mo  Mo9  1  0.55800000  0.00000000  0.83760000  1.0 0.7800219141
Mo  Mo10  1  0.00000000  0.44200000  0.83760000  1.0 0.7725969933
Mo  Mo11  1  0.55800000  0.55800000  0.83760000  1.0 0.7800219141
Mo  Mo12  1  0.44200000  0.00000000  0.83760000  1.0 0.7800219141
H  H1  1  0.67715000  0.45936000  0.71669000  1.0 0.1125919267
H  H2  1  0.63058000  0.46125000  0.63307000  1.0 0.1276905655
H  H3  1  0.64579000  0.55598000  0.75178000  1.0 0.1125919267
H  H4  1  0.69523000  0.55644000  0.82719000  1.0 0.1125919267
H  H5  1  0.66952000  0.50474000  0.93000000  1.0 0.1125919267
H  H6  1  0.78221000  0.32285000  0.71669000  1.0 0.1125919267
H  H7  1  0.83067000  0.36942000  0.63307000  1.0 0.1276905655
H  H8  1  0.91019000  0.35421000  0.75178000  1.0 0.1125919267
H  H9  1  0.86121000  0.30477000  0.82719000  1.0 0.1125919267
H  H10  1  0.83522000  0.33048000  0.93000000  1.0 0.1125919267
H  H11  1  0.54064000  0.21779000  0.71669000  1.0 0.1125919267
H  H12  1  0.53875000  0.16933000  0.63307000  1.0 0.1276905655
H  H13  1  0.44402000  0.08981000  0.75178000  1.0 0.1125919267
H  H14  1  0.44356000  0.13879000  0.82719000  1.0 0.1125919267
H  H15  1  0.49526000  0.16478000  0.93000000  1.0 0.1125919267
H  H16  1  0.32285000  0.54064000  0.71669000  1.0 0.1125919267
H  H17  1  0.36942000  0.53875000  0.63307000  1.0 0.1276905655
H  H18  1  0.35421000  0.44402000  0.75178000  1.0 0.1125919267
H  H19  1  0.30477000  0.44356000  0.82719000  1.0 0.1125919267
H  H20  1  0.33048000  0.49526000  0.93000000  1.0 0.1125919267
H  H21  1  0.21779000  0.67715000  0.71669000  1.0 0.1125919267
H  H22  1  0.16933000  0.63058000  0.63307000  1.0 0.1276905655
H  H23  1  0.08981000  0.64579000  0.75178000  1.0 0.1125919267
H  H24  1  0.13879000  0.69523000  0.82719000  1.0 0.1125919267
H  H25  1  0.16478000  0.66952000  0.93000000  1.0 0.1125919267
H  H26  1  0.45936000  0.78221000  0.71669000  1.0 0.1125919267
H  H27  1  0.46125000  0.83067000  0.63307000  1.0 0.1276905655
H  H28  1  0.55598000  0.91019000  0.75178000  1.0 0.1125919267
H  H29  1  0.55644000  0.86121000  0.82719000  1.0 0.1125919267
H  H30  1  0.50474000  0.83522000  0.93000000  1.0 0.1125919267
H  H31  1  0.21779000  0.54064000  0.28331000  1.0 0.1125919267
H  H32  1  0.16933000  0.53875000  0.36693000  1.0 0.1276905655
H  H33  1  0.08981000  0.44402000  0.24822000  1.0 0.1125919267
H  H34  1  0.13879000  0.44356000  0.17281000  1.0 0.1125919267
H  H35  1  0.16478000  0.49526000  0.07000000  1.0 0.1125919267
H  H36  1  0.45936000  0.67715000  0.28331000  1.0 0.1125919267
H  H37  1  0.46125000  0.63058000  0.36693000  1.0 0.1276905655
H  H38  1  0.55598000  0.64579000  0.24822000  1.0 0.1125919267
H  H39  1  0.55644000  0.69523000  0.17281000  1.0 0.1125919267
H  H40  1  0.50474000  0.66952000  0.07000000  1.0 0.1125919267
H  H41  1  0.32285000  0.78221000  0.28331000  1.0 0.1125919267
H  H42  1  0.36942000  0.83067000  0.36693000  1.0 0.1276905655
H  H43  1  0.35421000  0.91019000  0.24822000  1.0 0.1125919267
H  H44  1  0.30477000  0.86121000  0.17281000  1.0 0.1125919267
H  H45  1  0.33048000  0.83522000  0.07000000  1.0 0.1125919267
H  H46  1  0.78221000  0.45936000  0.28331000  1.0 0.1125919267
H  H47  1  0.83067000  0.46125000  0.36693000  1.0 0.1276905655
H  H48  1  0.91019000  0.55598000  0.24822000  1.0 0.1125919267
H  H49  1  0.86121000  0.55644000  0.17281000  1.0 0.1125919267
H  H50  1  0.83522000  0.50474000  0.07000000  1.0 0.1125919267
H  H51  1  0.54064000  0.32285000  0.28331000  1.0 0.1125919267
H  H52  1  0.53875000  0.36942000  0.36693000  1.0 0.1276905655
H  H53  1  0.44402000  0.35421000  0.24822000  1.0 0.1125919267
H  H54  1  0.44356000  0.30477000  0.17281000  1.0 0.1125919267
H  H55  1  0.49526000  0.33048000  0.07000000  1.0 0.1125919267
H  H56  1  0.67715000  0.21779000  0.28331000  1.0 0.1125919267
H  H57  1  0.63058000  0.16933000  0.36693000  1.0 0.1276905655
H  H58  1  0.64579000  0.08981000  0.24822000  1.0 0.1125919267
H  H59  1  0.69523000  0.13879000  0.17281000  1.0 0.1125919267
H  H60  1  0.66952000  0.16478000  0.07000000  1.0 0.1125919267
H  H61  1  0.32285000  0.54064000  0.28331000  1.0 0.1125919267
H  H62  1  0.36942000  0.53875000  0.36693000  1.0 0.1276905655
H  H63  1  0.35421000  0.44402000  0.24822000  1.0 0.1125919267
H  H64  1  0.30477000  0.44356000  0.17281000  1.0 0.1125919267
H  H65  1  0.33048000  0.49526000  0.07000000  1.0 0.1125919267
H  H66  1  0.21779000  0.67715000  0.28331000  1.0 0.1125919267
H  H67  1  0.16933000  0.63058000  0.36693000  1.0 0.1276905655
H  H68  1  0.08981000  0.64579000  0.24822000  1.0 0.1125919267
H  H69  1  0.13879000  0.69523000  0.17281000  1.0 0.1125919267
H  H70  1  0.16478000  0.66952000  0.07000000  1.0 0.1125919267
H  H71  1  0.45936000  0.78221000  0.28331000  1.0 0.1125919267
H  H72  1  0.46125000  0.83067000  0.36693000  1.0 0.1276905655
H  H73  1  0.55598000  0.91019000  0.24822000  1.0 0.1125919267
H  H74  1  0.55644000  0.86121000  0.17281000  1.0 0.1125919267
H  H75  1  0.50474000  0.83522000  0.07000000  1.0 0.1125919267
H  H76  1  0.67715000  0.45936000  0.28331000  1.0 0.1125919267
H  H77  1  0.63058000  0.46125000  0.36693000  1.0 0.1276905655
H  H78  1  0.64579000  0.55598000  0.24822000  1.0 0.1125919267
H  H79  1  0.69523000  0.55644000  0.17281000  1.0 0.1125919267
H  H80  1  0.66952000  0.50474000  0.07000000  1.0 0.1125919267
H  H81  1  0.78221000  0.32285000  0.28331000  1.0 0.1125919267
H  H82  1  0.83067000  0.36942000  0.36693000  1.0 0.1276905655
H  H83  1  0.91019000  0.35421000  0.24822000  1.0 0.1125919267
H  H84  1  0.86121000  0.30477000  0.17281000  1.0 0.1125919267
H  H85  1  0.83522000  0.33048000  0.07000000  1.0 0.1125919267
H  H86  1  0.54064000  0.21779000  0.28331000  1.0 0.1125919267
H  H87  1  0.53875000  0.16933000  0.36693000  1.0 0.1276905655
H  H88  1  0.44402000  0.08981000  0.24822000  1.0 0.1125919267
H  H89  1  0.44356000  0.13879000  0.17281000  1.0 0.1125919267
H  H90  1  0.49526000  0.16478000  0.07000000  1.0 0.1125919267
H  H91  1  0.78221000  0.45936000  0.71669000  1.0 0.1125919267
H  H92  1  0.83067000  0.46125000  0.63307000  1.0 0.1276905655
H  H93  1  0.91019000  0.55598000  0.75178000  1.0 0.1125919267
H  H94  1  0.86121000  0.55644000  0.82719000  1.0 0.1125919267
H  H95  1  0.83522000  0.50474000  0.93000000  1.0 0.1125919267
H  H96  1  0.54064000  0.32285000  0.71669000  1.0 0.1125919267
H  H97  1  0.53875000  0.36942000  0.63307000  1.0 0.1276905655
H  H98  1  0.44402000  0.35421000  0.75178000  1.0 0.1125919267
H  H99  1  0.44356000  0.30477000  0.82719000  1.0 0.1125919267
H  H100  1  0.49526000  0.33048000  0.93000000  1.0 0.1125919267
H  H101  1  0.67715000  0.21779000  0.71669000  1.0 0.1125919267
H  H102  1  0.63058000  0.16933000  0.63307000  1.0 0.1276905655
H  H103  1  0.64579000  0.08981000  0.75178000  1.0 0.1125919267
H  H104  1  0.69523000  0.13879000  0.82719000  1.0 0.1125919267
H  H105  1  0.66952000  0.16478000  0.93000000  1.0 0.1125919267
H  H106  1  0.21779000  0.54064000  0.71669000  1.0 0.1125919267
H  H107  1  0.16933000  0.53875000  0.63307000  1.0 0.1276905655
H  H108  1  0.08981000  0.44402000  0.75178000  1.0 0.1125919267
H  H109  1  0.13879000  0.44356000  0.82719000  1.0 0.1125919267
H  H110  1  0.16478000  0.49526000  0.93000000  1.0 0.1125919267
H  H111  1  0.45936000  0.67715000  0.71669000  1.0 0.1125919267
H  H112  1  0.46125000  0.63058000  0.63307000  1.0 0.1276905655
H  H113  1  0.55598000  0.64579000  0.75178000  1.0 0.1125919267
H  H114  1  0.55644000  0.69523000  0.82719000  1.0 0.1125919267
H  H115  1  0.50474000  0.66952000  0.93000000  1.0 0.1125919267
H  H116  1  0.32285000  0.78221000  0.71669000  1.0 0.1125919267
H  H117  1  0.36942000  0.83067000  0.63307000  1.0 0.1276905655
H  H118  1  0.35421000  0.91019000  0.75178000  1.0 0.1125919267
H  H119  1  0.30477000  0.86121000  0.82719000  1.0 0.1125919267
H  H120  1  0.33048000  0.83522000  0.93000000  1.0 0.1125919267
H  H121  1  0.75362000  0.50724000  0.73156000  1.0 0.1125919267
H  H122  1  0.75362000  0.24638000  0.73156000  1.0 0.1125919267
H  H123  1  0.49276000  0.24638000  0.73156000  1.0 0.1125919267
H  H124  1  0.24638000  0.49276000  0.73156000  1.0 0.1151939042
H  H125  1  0.24638000  0.75362000  0.73156000  1.0 0.1125919267
H  H126  1  0.50724000  0.75362000  0.73156000  1.0 0.1125919267
H  H127  1  0.24638000  0.49276000  0.26844000  1.0 0.1125919267
H  H128  1  0.50724000  0.75362000  0.26844000  1.0 0.1125919267
H  H129  1  0.24638000  0.75362000  0.26844000  1.0 0.1125919267
H  H130  1  0.75362000  0.50724000  0.26844000  1.0 0.1125919267
H  H131  1  0.49276000  0.24638000  0.26844000  1.0 0.1125919267
H  H132  1  0.75362000  0.24638000  0.26844000  1.0 0.1125919267
C  C1  1  0.60090000  0.50580000  0.63080000  1.0 0.6209873589
C  C2  1  0.72270000  0.50700000  0.91160000  1.0 0.0225086786
C  C3  1  0.69190000  0.50890000  0.77820000  1.0 0.0755664626
C  C4  1  0.72330000  0.50670000  0.82830000  1.0 0.0080583108
C  C5  1  0.67170000  0.47960000  0.72210000  1.0 -0.15923107
C  C6  1  0.63320000  0.50860000  0.68430000  1.0 -0.0478047165
C  C7  1  0.64300000  0.48010000  0.67320000  1.0 -0.1009276609
C  C8  1  0.65250000  0.53680000  0.74300000  1.0 -0.1009276609
C  C9  1  0.68200000  0.53690000  0.78870000  1.0 -0.15923107
C  C10  1  0.69040000  0.50560000  0.95790000  1.0 -0.1734108421
C  C11  1  0.90490000  0.39910000  0.63080000  1.0 0.6209873589
C  C12  1  0.78430000  0.27730000  0.91160000  1.0 0.0225086786
C  C13  1  0.81700000  0.30810000  0.77820000  1.0 0.0755664626
C  C14  1  0.78340000  0.27670000  0.82830000  1.0 0.0080583108
C  C15  1  0.80790000  0.32830000  0.72210000  1.0 -0.15923107
C  C16  1  0.87540000  0.36680000  0.68430000  1.0 -0.0478047165
C  C17  1  0.83710000  0.35700000  0.67320000  1.0 -0.1009276609
C  C18  1  0.88430000  0.34750000  0.74300000  1.0 -0.1009276609
C  C19  1  0.85490000  0.31800000  0.78870000  1.0 -0.15923107
C  C20  1  0.81520000  0.30960000  0.95790000  1.0 -0.1734108421
C  C21  1  0.49420000  0.09510000  0.63080000  1.0 0.6209873589
C  C22  1  0.49300000  0.21570000  0.91160000  1.0 0.0225086786
C  C23  1  0.49110000  0.18300000  0.77820000  1.0 0.0755664626
C  C24  1  0.49330000  0.21660000  0.82830000  1.0 0.0080583108
C  C25  1  0.52040000  0.19210000  0.72210000  1.0 -0.15923107
C  C26  1  0.49140000  0.12460000  0.68430000  1.0 -0.0478047165
C  C27  1  0.51990000  0.16290000  0.67320000  1.0 -0.1009276609
C  C28  1  0.46320000  0.11570000  0.74300000  1.0 -0.1009276609
C  C29  1  0.46310000  0.14510000  0.78870000  1.0 -0.15923107
C  C30  1  0.49440000  0.18480000  0.95790000  1.0 -0.1734108421
C  C31  1  0.39910000  0.49420000  0.63080000  1.0 0.6209873589
C  C32  1  0.27730000  0.49300000  0.91160000  1.0 0.0225086786
C  C33  1  0.30810000  0.49110000  0.77820000  1.0 0.0755664626
C  C34  1  0.27670000  0.49330000  0.82830000  1.0 0.0080583108
C  C35  1  0.32830000  0.52040000  0.72210000  1.0 -0.15923107
C  C36  1  0.36680000  0.49140000  0.68430000  1.0 -0.0478047165
C  C37  1  0.35700000  0.51990000  0.67320000  1.0 -0.1009276609
C  C38  1  0.34750000  0.46320000  0.74300000  1.0 -0.1009276609
C  C39  1  0.31800000  0.46310000  0.78870000  1.0 -0.15923107
C  C40  1  0.30960000  0.49440000  0.95790000  1.0 -0.1734108421
C  C41  1  0.09510000  0.60090000  0.63080000  1.0 0.6209873589
C  C42  1  0.21570000  0.72270000  0.91160000  1.0 0.0225086786
C  C43  1  0.18300000  0.69190000  0.77820000  1.0 0.0755664626
C  C44  1  0.21660000  0.72330000  0.82830000  1.0 0.0080583108
C  C45  1  0.19210000  0.67170000  0.72210000  1.0 -0.15923107
C  C46  1  0.12460000  0.63320000  0.68430000  1.0 -0.0478047165
C  C47  1  0.16290000  0.64300000  0.67320000  1.0 -0.1009276609
C  C48  1  0.11570000  0.65250000  0.74300000  1.0 -0.1009276609
C  C49  1  0.14510000  0.68200000  0.78870000  1.0 -0.15923107
C  C50  1  0.18480000  0.69040000  0.95790000  1.0 -0.1734108421
C  C51  1  0.50580000  0.90490000  0.63080000  1.0 0.6209873589
C  C52  1  0.50700000  0.78430000  0.91160000  1.0 0.0225086786
C  C53  1  0.50890000  0.81700000  0.77820000  1.0 0.0755664626
C  C54  1  0.50670000  0.78340000  0.82830000  1.0 0.0080583108
C  C55  1  0.47960000  0.80790000  0.72210000  1.0 -0.15923107
C  C56  1  0.50860000  0.87540000  0.68430000  1.0 -0.0478047165
C  C57  1  0.48010000  0.83710000  0.67320000  1.0 -0.1009276609
C  C58  1  0.53680000  0.88430000  0.74300000  1.0 -0.1009276609
C  C59  1  0.53690000  0.85490000  0.78870000  1.0 -0.15923107
C  C60  1  0.50560000  0.81520000  0.95790000  1.0 -0.1734108421
C  C61  1  0.09510000  0.49420000  0.36920000  1.0 0.6209873589
C  C62  1  0.21570000  0.49300000  0.08840000  1.0 0.0225086786
C  C63  1  0.18300000  0.49110000  0.22180000  1.0 0.0745757974
C  C64  1  0.21660000  0.49330000  0.17170000  1.0 0.0080583108
C  C65  1  0.19210000  0.52040000  0.27790000  1.0 -0.15923107
C  C66  1  0.12460000  0.49140000  0.31570000  1.0 -0.0478047165
C  C67  1  0.16290000  0.51990000  0.32680000  1.0 -0.1009276609
C  C68  1  0.11570000  0.46320000  0.25700000  1.0 -0.1009276609
C  C69  1  0.14510000  0.46310000  0.21130000  1.0 -0.15923107
C  C70  1  0.18480000  0.49440000  0.04210000  1.0 -0.1734108421
C  C71  1  0.50580000  0.60090000  0.36920000  1.0 0.6209873589
C  C72  1  0.50700000  0.72270000  0.08840000  1.0 0.0225086786
C  C73  1  0.50890000  0.69190000  0.22180000  1.0 0.0755664626
C  C74  1  0.50670000  0.72330000  0.17170000  1.0 0.0080583108
C  C75  1  0.47960000  0.67170000  0.27790000  1.0 -0.15923107
C  C76  1  0.50860000  0.63320000  0.31570000  1.0 -0.0478047165
C  C77  1  0.48010000  0.64300000  0.32680000  1.0 -0.1009276609
C  C78  1  0.53680000  0.65250000  0.25700000  1.0 -0.1009276609
C  C79  1  0.53690000  0.68200000  0.21130000  1.0 -0.15923107
C  C80  1  0.50560000  0.69040000  0.04210000  1.0 -0.1734108421
C  C81  1  0.39910000  0.90490000  0.36920000  1.0 0.6209873589
C  C82  1  0.27730000  0.78430000  0.08840000  1.0 0.0225086786
C  C83  1  0.30810000  0.81700000  0.22180000  1.0 0.0755664626
C  C84  1  0.27670000  0.78340000  0.17170000  1.0 0.0080583108
C  C85  1  0.32830000  0.80790000  0.27790000  1.0 -0.15923107
C  C86  1  0.36680000  0.87540000  0.31570000  1.0 -0.0478047165
C  C87  1  0.35700000  0.83710000  0.32680000  1.0 -0.1009276609
C  C88  1  0.34750000  0.88430000  0.25700000  1.0 -0.1009276609
C  C89  1  0.31800000  0.85490000  0.21130000  1.0 -0.15923107
C  C90  1  0.30960000  0.81520000  0.04210000  1.0 -0.1734108421
C  C91  1  0.90490000  0.50580000  0.36920000  1.0 0.6209873589
C  C92  1  0.78430000  0.50700000  0.08840000  1.0 0.0225086786
C  C93  1  0.81700000  0.50890000  0.22180000  1.0 0.0745757974
C  C94  1  0.78340000  0.50670000  0.17170000  1.0 0.0080583108
C  C95  1  0.80790000  0.47960000  0.27790000  1.0 -0.15923107
C  C96  1  0.87540000  0.50860000  0.31570000  1.0 -0.0478047165
C  C97  1  0.83710000  0.48010000  0.32680000  1.0 -0.1009276609
C  C98  1  0.88430000  0.53680000  0.25700000  1.0 -0.1009276609
C  C99  1  0.85490000  0.53690000  0.21130000  1.0 -0.15923107
C  C100  1  0.81520000  0.50560000  0.04210000  1.0 -0.1734108421
C  C101  1  0.49420000  0.39910000  0.36920000  1.0 0.6209873589
C  C102  1  0.49300000  0.27730000  0.08840000  1.0 0.0225086786
C  C103  1  0.49110000  0.30810000  0.22180000  1.0 0.0745757974
C  C104  1  0.49330000  0.27670000  0.17170000  1.0 0.0080583108
C  C105  1  0.52040000  0.32830000  0.27790000  1.0 -0.15923107
C  C106  1  0.49140000  0.36680000  0.31570000  1.0 -0.0478047165
C  C107  1  0.51990000  0.35700000  0.32680000  1.0 -0.1009276609
C  C108  1  0.46320000  0.34750000  0.25700000  1.0 -0.1009276609
C  C109  1  0.46310000  0.31800000  0.21130000  1.0 -0.15923107
C  C110  1  0.49440000  0.30960000  0.04210000  1.0 -0.1734108421
C  C111  1  0.60090000  0.09510000  0.36920000  1.0 0.6209873589
C  C112  1  0.72270000  0.21570000  0.08840000  1.0 0.0225086786
C  C113  1  0.69190000  0.18300000  0.22180000  1.0 0.0755664626
C  C114  1  0.72330000  0.21660000  0.17170000  1.0 0.0080583108
C  C115  1  0.67170000  0.19210000  0.27790000  1.0 -0.15923107
C  C116  1  0.63320000  0.12460000  0.31570000  1.0 -0.0478047165
C  C117  1  0.64300000  0.16290000  0.32680000  1.0 -0.1009276609
C  C118  1  0.65250000  0.11570000  0.25700000  1.0 -0.1009276609
C  C119  1  0.68200000  0.14510000  0.21130000  1.0 -0.15923107
C  C120  1  0.69040000  0.18480000  0.04210000  1.0 -0.1734108421
C  C121  1  0.39910000  0.49420000  0.36920000  1.0 0.6209873589
C  C122  1  0.27730000  0.49300000  0.08840000  1.0 0.0225086786
C  C123  1  0.30810000  0.49110000  0.22180000  1.0 0.0755664626
C  C124  1  0.27670000  0.49330000  0.17170000  1.0 0.0080583108
C  C125  1  0.32830000  0.52040000  0.27790000  1.0 -0.15923107
C  C126  1  0.36680000  0.49140000  0.31570000  1.0 -0.0478047165
C  C127  1  0.35700000  0.51990000  0.32680000  1.0 -0.1009276609
C  C128  1  0.34750000  0.46320000  0.25700000  1.0 -0.1009276609
C  C129  1  0.31800000  0.46310000  0.21130000  1.0 -0.15923107
C  C130  1  0.30960000  0.49440000  0.04210000  1.0 -0.1734108421
C  C131  1  0.09510000  0.60090000  0.36920000  1.0 0.6209873589
C  C132  1  0.21570000  0.72270000  0.08840000  1.0 0.0225086786
C  C133  1  0.18300000  0.69190000  0.22180000  1.0 0.0745757974
C  C134  1  0.21660000  0.72330000  0.17170000  1.0 0.0080583108
C  C135  1  0.19210000  0.67170000  0.27790000  1.0 -0.15923107
C  C136  1  0.12460000  0.63320000  0.31570000  1.0 -0.0478047165
C  C137  1  0.16290000  0.64300000  0.32680000  1.0 -0.1009276609
C  C138  1  0.11570000  0.65250000  0.25700000  1.0 -0.1009276609
C  C139  1  0.14510000  0.68200000  0.21130000  1.0 -0.15923107
C  C140  1  0.18480000  0.69040000  0.04210000  1.0 -0.1734108421
C  C141  1  0.50580000  0.90490000  0.36920000  1.0 0.6209873589
C  C142  1  0.50700000  0.78430000  0.08840000  1.0 0.0225086786
C  C143  1  0.50890000  0.81700000  0.22180000  1.0 0.0755664626
C  C144  1  0.50670000  0.78340000  0.17170000  1.0 0.0080583108
C  C145  1  0.47960000  0.80790000  0.27790000  1.0 -0.15923107
C  C146  1  0.50860000  0.87540000  0.31570000  1.0 -0.0478047165
C  C147  1  0.48010000  0.83710000  0.32680000  1.0 -0.1009276609
C  C148  1  0.53680000  0.88430000  0.25700000  1.0 -0.1009276609
C  C149  1  0.53690000  0.85490000  0.21130000  1.0 -0.15923107
C  C150  1  0.50560000  0.81520000  0.04210000  1.0 -0.1734108421
C  C151  1  0.60090000  0.50580000  0.36920000  1.0 0.6209873589
C  C152  1  0.72270000  0.50700000  0.08840000  1.0 0.0225086786
C  C153  1  0.69190000  0.50890000  0.22180000  1.0 0.0745757974
C  C154  1  0.72330000  0.50670000  0.17170000  1.0 0.0080583108
C  C155  1  0.67170000  0.47960000  0.27790000  1.0 -0.15923107
C  C156  1  0.63320000  0.50860000  0.31570000  1.0 -0.0478047165
C  C157  1  0.64300000  0.48010000  0.32680000  1.0 -0.1009276609
C  C158  1  0.65250000  0.53680000  0.25700000  1.0 -0.1009276609
C  C159  1  0.68200000  0.53690000  0.21130000  1.0 -0.15923107
C  C160  1  0.69040000  0.50560000  0.04210000  1.0 -0.1734108421
C  C161  1  0.90490000  0.39910000  0.36920000  1.0 0.6209873589
C  C162  1  0.78430000  0.27730000  0.08840000  1.0 0.0225086786
C  C163  1  0.81700000  0.30810000  0.22180000  1.0 0.0755664626
C  C164  1  0.78340000  0.27670000  0.17170000  1.0 0.0080583108
C  C165  1  0.80790000  0.32830000  0.27790000  1.0 -0.15923107
C  C166  1  0.87540000  0.36680000  0.31570000  1.0 -0.0478047165
C  C167  1  0.83710000  0.35700000  0.32680000  1.0 -0.1009276609
C  C168  1  0.88430000  0.34750000  0.25700000  1.0 -0.1009276609
C  C169  1  0.85490000  0.31800000  0.21130000  1.0 -0.15923107
C  C170  1  0.81520000  0.30960000  0.04210000  1.0 -0.1734108421
C  C171  1  0.49420000  0.09510000  0.36920000  1.0 0.6209873589
C  C172  1  0.49300000  0.21570000  0.08840000  1.0 0.0225086786
C  C173  1  0.49110000  0.18300000  0.22180000  1.0 0.0745757974
C  C174  1  0.49330000  0.21660000  0.17170000  1.0 0.0080583108
C  C175  1  0.52040000  0.19210000  0.27790000  1.0 -0.15923107
C  C176  1  0.49140000  0.12460000  0.31570000  1.0 -0.0478047165
C  C177  1  0.51990000  0.16290000  0.32680000  1.0 -0.1009276609
C  C178  1  0.46320000  0.11570000  0.25700000  1.0 -0.1009276609
C  C179  1  0.46310000  0.14510000  0.21130000  1.0 -0.15923107
C  C180  1  0.49440000  0.18480000  0.04210000  1.0 -0.1734108421
C  C181  1  0.90490000  0.50580000  0.63080000  1.0 0.6209873589
C  C182  1  0.78430000  0.50700000  0.91160000  1.0 0.0225086786
C  C183  1  0.81700000  0.50890000  0.77820000  1.0 0.0755664626
C  C184  1  0.78340000  0.50670000  0.82830000  1.0 0.0080583108
C  C185  1  0.80790000  0.47960000  0.72210000  1.0 -0.15923107
C  C186  1  0.87540000  0.50860000  0.68430000  1.0 -0.0478047165
C  C187  1  0.83710000  0.48010000  0.67320000  1.0 -0.1009276609
C  C188  1  0.88430000  0.53680000  0.74300000  1.0 -0.1009276609
C  C189  1  0.85490000  0.53690000  0.78870000  1.0 -0.15923107
C  C190  1  0.81520000  0.50560000  0.95790000  1.0 -0.1734108421
C  C191  1  0.49420000  0.39910000  0.63080000  1.0 0.6209873589
C  C192  1  0.49300000  0.27730000  0.91160000  1.0 0.0225086786
C  C193  1  0.49110000  0.30810000  0.77820000  1.0 0.0755664626
C  C194  1  0.49330000  0.27670000  0.82830000  1.0 0.0080583108
C  C195  1  0.52040000  0.32830000  0.72210000  1.0 -0.15923107
C  C196  1  0.49140000  0.36680000  0.68430000  1.0 -0.0478047165
C  C197  1  0.51990000  0.35700000  0.67320000  1.0 -0.1009276609
C  C198  1  0.46320000  0.34750000  0.74300000  1.0 -0.1009276609
C  C199  1  0.46310000  0.31800000  0.78870000  1.0 -0.15923107
C  C200  1  0.49440000  0.30960000  0.95790000  1.0 -0.1734108421
C  C201  1  0.60090000  0.09510000  0.63080000  1.0 0.6209873589
C  C202  1  0.72270000  0.21570000  0.91160000  1.0 0.0225086786
C  C203  1  0.69190000  0.18300000  0.77820000  1.0 0.0755664626
C  C204  1  0.72330000  0.21660000  0.82830000  1.0 0.0080583108
C  C205  1  0.67170000  0.19210000  0.72210000  1.0 -0.15923107
C  C206  1  0.63320000  0.12460000  0.68430000  1.0 -0.0478047165
C  C207  1  0.64300000  0.16290000  0.67320000  1.0 -0.1009276609
C  C208  1  0.65250000  0.11570000  0.74300000  1.0 -0.1009276609
C  C209  1  0.68200000  0.14510000  0.78870000  1.0 -0.15923107
C  C210  1  0.69040000  0.18480000  0.95790000  1.0 -0.1734108421
C  C211  1  0.09510000  0.49420000  0.63080000  1.0 0.6209873589
C  C212  1  0.21570000  0.49300000  0.91160000  1.0 0.0225086786
C  C213  1  0.18300000  0.49110000  0.77820000  1.0 0.0755664626
C  C214  1  0.21660000  0.49330000  0.82830000  1.0 0.0080583108
C  C215  1  0.19210000  0.52040000  0.72210000  1.0 -0.15923107
C  C216  1  0.12460000  0.49140000  0.68430000  1.0 -0.0478047165
C  C217  1  0.16290000  0.51990000  0.67320000  1.0 -0.1009276609
C  C218  1  0.11570000  0.46320000  0.74300000  1.0 -0.1009276609
C  C219  1  0.14510000  0.46310000  0.78870000  1.0 -0.15923107
C  C220  1  0.18480000  0.49440000  0.95790000  1.0 -0.1734108421
C  C221  1  0.50580000  0.60090000  0.63080000  1.0 0.6209873589
C  C222  1  0.50700000  0.72270000  0.91160000  1.0 0.0225086786
C  C223  1  0.50890000  0.69190000  0.77820000  1.0 0.0755664626
C  C224  1  0.50670000  0.72330000  0.82830000  1.0 0.0080583108
C  C225  1  0.47960000  0.67170000  0.72210000  1.0 -0.15923107
C  C226  1  0.50860000  0.63320000  0.68430000  1.0 -0.0478047165
C  C227  1  0.48010000  0.64300000  0.67320000  1.0 -0.1009276609
C  C228  1  0.53680000  0.65250000  0.74300000  1.0 -0.1009276609
C  C229  1  0.53690000  0.68200000  0.78870000  1.0 -0.15923107
C  C230  1  0.50560000  0.69040000  0.95790000  1.0 -0.1734108421
C  C231  1  0.39910000  0.90490000  0.63080000  1.0 0.6209873589
C  C232  1  0.27730000  0.78430000  0.91160000  1.0 0.0225086786
C  C233  1  0.30810000  0.81700000  0.77820000  1.0 0.0755664626
C  C234  1  0.27670000  0.78340000  0.82830000  1.0 0.0080583108
C  C235  1  0.32830000  0.80790000  0.72210000  1.0 -0.15923107
C  C236  1  0.36680000  0.87540000  0.68430000  1.0 -0.0478047165
C  C237  1  0.35700000  0.83710000  0.67320000  1.0 -0.1009276609
C  C238  1  0.34750000  0.88430000  0.74300000  1.0 -0.1009276609
C  C239  1  0.31800000  0.85490000  0.78870000  1.0 -0.15923107
C  C240  1  0.30960000  0.81520000  0.95790000  1.0 -0.1734108421
C  C241  1  0.75420000  0.50840000  0.95440000  1.0 0.0080583108
C  C242  1  0.75350000  0.50700000  0.78830000  1.0 -0.1824140094
C  C243  1  0.75420000  0.24580000  0.95440000  1.0 0.0080583108
C  C244  1  0.75350000  0.24650000  0.78830000  1.0 -0.1824140094
C  C245  1  0.49160000  0.24580000  0.95440000  1.0 0.0080583108
C  C246  1  0.49300000  0.24650000  0.78830000  1.0 -0.1824140094
C  C247  1  0.24580000  0.49160000  0.95440000  1.0 0.0080583108
C  C248  1  0.24650000  0.49300000  0.78830000  1.0 -0.1824140094
C  C249  1  0.24580000  0.75420000  0.95440000  1.0 0.0080583108
C  C250  1  0.24650000  0.75350000  0.78830000  1.0 -0.1824140094
C  C251  1  0.50840000  0.75420000  0.95440000  1.0 0.0080583108
C  C252  1  0.50700000  0.75350000  0.78830000  1.0 -0.1824140094
C  C253  1  0.24580000  0.49160000  0.04560000  1.0 0.0080583108
C  C254  1  0.24650000  0.49300000  0.21170000  1.0 -0.1824140094
C  C255  1  0.50840000  0.75420000  0.04560000  1.0 0.0080583108
C  C256  1  0.50700000  0.75350000  0.21170000  1.0 -0.1824140094
C  C257  1  0.24580000  0.75420000  0.04560000  1.0 0.0080583108
C  C258  1  0.24650000  0.75350000  0.21170000  1.0 -0.1824140094
C  C259  1  0.75420000  0.50840000  0.04560000  1.0 0.0080583108
C  C260  1  0.75350000  0.50700000  0.21170000  1.0 -0.1824140094
C  C261  1  0.49160000  0.24580000  0.04560000  1.0 0.0080583108
C  C262  1  0.49300000  0.24650000  0.21170000  1.0 -0.1824140094
C  C263  1  0.75420000  0.24580000  0.04560000  1.0 0.0080583108
C  C264  1  0.75350000  0.24650000  0.21170000  1.0 -0.1824140094
O  O1  1  0.58516000  0.48118000  0.58080000  1.0 -0.5469996301
O  O2  1  0.59193000  0.53322000  0.65030000  1.0 -0.65361103
O  O3  1  0.89602000  0.41484000  0.58080000  1.0 -0.5469996301
O  O4  1  0.94129000  0.40807000  0.65030000  1.0 -0.6559428789
O  O5  1  0.51882000  0.10398000  0.58080000  1.0 -0.5469996301
O  O6  1  0.46678000  0.05871000  0.65030000  1.0 -0.65361103
O  O7  1  0.41484000  0.51882000  0.58080000  1.0 -0.5469996301
O  O8  1  0.40807000  0.46678000  0.65030000  1.0 -0.65361103
O  O9  1  0.10398000  0.58516000  0.58080000  1.0 -0.5469996301
O  O10  1  0.05871000  0.59193000  0.65030000  1.0 -0.6559428789
O  O11  1  0.48118000  0.89602000  0.58080000  1.0 -0.5469996301
O  O12  1  0.53322000  0.94129000  0.65030000  1.0 -0.6559428789
O  O13  1  0.10398000  0.51882000  0.41920000  1.0 -0.5469996301
O  O14  1  0.05871000  0.46678000  0.34970000  1.0 -0.65361103
O  O15  1  0.48118000  0.58516000  0.41920000  1.0 -0.5469996301
O  O16  1  0.53322000  0.59193000  0.34970000  1.0 -0.65361103
O  O17  1  0.41484000  0.89602000  0.41920000  1.0 -0.5469996301
O  O18  1  0.40807000  0.94129000  0.34970000  1.0 -0.6559428789
O  O19  1  0.89602000  0.48118000  0.41920000  1.0 -0.5469996301
O  O20  1  0.94129000  0.53322000  0.34970000  1.0 -0.65361103
O  O21  1  0.51882000  0.41484000  0.41920000  1.0 -0.5469996301
O  O22  1  0.46678000  0.40807000  0.34970000  1.0 -0.65361103
O  O23  1  0.58516000  0.10398000  0.41920000  1.0 -0.5469996301
O  O24  1  0.59193000  0.05871000  0.34970000  1.0 -0.6559428789
O  O25  1  0.41484000  0.51882000  0.41920000  1.0 -0.5469996301
O  O26  1  0.40807000  0.46678000  0.34970000  1.0 -0.65361103
O  O27  1  0.10398000  0.58516000  0.41920000  1.0 -0.5469996301
O  O28  1  0.05871000  0.59193000  0.34970000  1.0 -0.6559428789
O  O29  1  0.48118000  0.89602000  0.41920000  1.0 -0.5469996301
O  O30  1  0.53322000  0.94129000  0.34970000  1.0 -0.6559428789
O  O31  1  0.58516000  0.48118000  0.41920000  1.0 -0.5469996301
O  O32  1  0.59193000  0.53322000  0.34970000  1.0 -0.65361103
O  O33  1  0.89602000  0.41484000  0.41920000  1.0 -0.5469996301
O  O34  1  0.94129000  0.40807000  0.34970000  1.0 -0.6559428789
O  O35  1  0.51882000  0.10398000  0.41920000  1.0 -0.5469996301
O  O36  1  0.46678000  0.05871000  0.34970000  1.0 -0.65361103
O  O37  1  0.89602000  0.48118000  0.58080000  1.0 -0.5469996301
O  O38  1  0.94129000  0.53322000  0.65030000  1.0 -0.65361103
O  O39  1  0.51882000  0.41484000  0.58080000  1.0 -0.5469996301
O  O40  1  0.46678000  0.40807000  0.65030000  1.0 -0.65361103
O  O41  1  0.58516000  0.10398000  0.58080000  1.0 -0.5469996301
O  O42  1  0.59193000  0.05871000  0.65030000  1.0 -0.65361103
O  O43  1  0.10398000  0.51882000  0.58080000  1.0 -0.5469996301
O  O44  1  0.05871000  0.46678000  0.65030000  1.0 -0.65361103
O  O45  1  0.48118000  0.58516000  0.58080000  1.0 -0.5469996301
O  O46  1  0.53322000  0.59193000  0.65030000  1.0 -0.65361103
O  O47  1  0.41484000  0.89602000  0.58080000  1.0 -0.5469996301
O  O48  1  0.40807000  0.94129000  0.65030000  1.0 -0.6559428789
O  O49  1  0.45790000  0.45790000  0.25840000  1.0 -0.7533816779
O  O50  1  0.00000000  0.54210000  0.25840000  1.0 -0.7533816779
O  O51  1  0.54210000  0.00000000  0.25840000  1.0 -0.7533816779
O  O52  1  0.54210000  0.54210000  0.25840000  1.0 -0.7533816779
O  O53  1  0.00000000  0.45790000  0.25840000  1.0 -0.7533816779
O  O54  1  0.45790000  0.00000000  0.25840000  1.0 -0.7533816779
O  O55  1  0.00000000  0.54210000  0.74160000  1.0 -0.7533816779
O  O56  1  0.45790000  0.45790000  0.74160000  1.0 -0.7533816779
O  O57  1  0.54210000  0.00000000  0.74160000  1.0 -0.7594357945
O  O58  1  0.00000000  0.45790000  0.74160000  1.0 -0.7533816779
O  O59  1  0.54210000  0.54210000  0.74160000  1.0 -0.7594357945
O  O60  1  0.45790000  0.00000000  0.74160000  1.0 -0.7594357945
O  O61  1  0.47033000  0.43507000  0.50000000  1.0 -1.1700461808
O  O62  1  0.96474000  0.52967000  0.50000000  1.0 -1.1765665032
O  O63  1  0.56493000  0.03526000  0.50000000  1.0 -1.1700461808
O  O64  1  0.52967000  0.56493000  0.50000000  1.0 -1.1700461808
O  O65  1  0.03526000  0.47033000  0.50000000  1.0 -1.1765665032
O  O66  1  0.43507000  0.96474000  0.50000000  1.0 -1.1700461808
O  O67  1  0.03526000  0.56493000  0.50000000  1.0 -1.1700461808
O  O68  1  0.43507000  0.47033000  0.50000000  1.0 -1.1700461808
O  O69  1  0.52967000  0.96474000  0.50000000  1.0 -1.1700461808
O  O70  1  0.96474000  0.43507000  0.50000000  1.0 -1.1700461808
O  O71  1  0.56493000  0.52967000  0.50000000  1.0 -1.1700461808
O  O72  1  0.47033000  0.03526000  0.50000000  1.0 -1.1700461808
O  O73  1  0.51733000  0.48267000  0.39360000  1.0 -1.1638100661
O  O74  1  0.96533000  0.48267000  0.39360000  1.0 -1.1638100661
O  O75  1  0.51733000  0.03467000  0.39360000  1.0 -1.1700461808
O  O76  1  0.48267000  0.51733000  0.39360000  1.0 -1.1638100661
O  O77  1  0.03467000  0.51733000  0.39360000  1.0 -1.1700461808
O  O78  1  0.48267000  0.96533000  0.39360000  1.0 -1.1638100661
O  O79  1  0.03467000  0.51733000  0.60640000  1.0 -1.1700461808
O  O80  1  0.48267000  0.51733000  0.60640000  1.0 -1.1638100661
O  O81  1  0.48267000  0.96533000  0.60640000  1.0 -1.1638100661
O  O82  1  0.96533000  0.48267000  0.60640000  1.0 -1.1638100661
O  O83  1  0.51733000  0.48267000  0.60640000  1.0 -1.1638100661
O  O84  1  0.51733000  0.03467000  0.60640000  1.0 -1.1700461808
