# DDEC6 charges by PACMAN v1.1 (https://github.com/mtap-research/PACMAN-charge/)
data_DAXBAJ_ASR_pacman
_symmetry_space_group_name_H-M   'P 1'
_cell_length_a   40.12420000
_cell_length_b   40.12420000
_cell_length_c   11.68260000
_cell_angle_alpha   90.00000000
_cell_angle_beta   90.00000000
_cell_angle_gamma   120.00000000
_symmetry_Int_Tables_number   1
_chemical_formula_structural   Zr3MoH16C34(BrO7)2
_chemical_formula_sum   'Zr18 Mo6 H96 C204 Br12 O84'
_cell_volume   16288.56824782
_cell_formula_units_Z   6
loop_
 _symmetry_equiv_pos_site_id
 _symmetry_equiv_pos_as_xyz
  1  'x, y, z'
loop_
 _atom_site_type_symbol
 _atom_site_label
 _atom_site_symmetry_multiplicity
 _atom_site_fract_x
 _atom_site_fract_y
 _atom_site_fract_z
 _atom_site_occupancy
 _atom_site_charge
Zr  Zr1  1  0.46459000  0.92918000  0.50000000  1.0 2.3532712306
Zr  Zr2  1  0.46459000  0.53541000  0.50000000  1.0 2.3532712306
Zr  Zr3  1  0.07082000  0.53541000  0.50000000  1.0 2.3532712306
Zr  Zr4  1  0.53541000  0.07082000  0.50000000  1.0 2.3553423728
Zr  Zr5  1  0.53541000  0.46459000  0.50000000  1.0 2.3532712306
Zr  Zr6  1  0.92918000  0.46459000  0.50000000  1.0 2.3553423728
Zr  Zr7  1  0.54417000  0.00000000  0.64984000  1.0 2.5224445904
Zr  Zr8  1  0.45583000  0.45583000  0.64984000  1.0 2.5224445904
Zr  Zr9  1  0.00000000  0.54417000  0.64984000  1.0 2.5224445904
Zr  Zr10  1  0.45583000  0.00000000  0.64984000  1.0 2.5224445904
Zr  Zr11  1  0.54417000  0.54417000  0.64984000  1.0 2.5224445904
Zr  Zr12  1  0.00000000  0.45583000  0.64984000  1.0 2.5224445904
Zr  Zr13  1  0.54417000  0.00000000  0.35016000  1.0 2.5224445904
Zr  Zr14  1  0.00000000  0.54417000  0.35016000  1.0 2.5224445904
Zr  Zr15  1  0.45583000  0.45583000  0.35016000  1.0 2.5224445904
Zr  Zr16  1  0.45583000  0.00000000  0.35016000  1.0 2.5224445904
Zr  Zr17  1  0.00000000  0.45583000  0.35016000  1.0 2.5224445904
Zr  Zr18  1  0.54417000  0.54417000  0.35016000  1.0 2.5224445904
Mo  Mo1  1  0.64670000  0.00000000  0.50000000  1.0 1.9471621359
Mo  Mo2  1  0.35330000  0.35330000  0.50000000  1.0 1.9116749013
Mo  Mo3  1  0.00000000  0.64670000  0.50000000  1.0 1.9116749013
Mo  Mo4  1  0.35330000  0.00000000  0.50000000  1.0 1.9471621359
Mo  Mo5  1  0.64670000  0.64670000  0.50000000  1.0 1.9116749013
Mo  Mo6  1  0.00000000  0.35330000  0.50000000  1.0 1.9116749013
H  H1  1  0.28902000  0.86164000  0.10638000  1.0 0.1134026074
H  H2  1  0.37977000  0.83638000  0.26897000  1.0 0.1186562976
H  H3  1  0.34229000  0.90989000  0.20268000  1.0 0.1186562976
H  H4  1  0.33016000  0.78988000  0.15421000  1.0 0.1186562976
H  H5  1  0.57262000  0.71098000  0.10638000  1.0 0.1134026074
H  H6  1  0.45661000  0.62023000  0.26897000  1.0 0.1186562976
H  H7  1  0.56760000  0.65771000  0.20268000  1.0 0.1186562976
H  H8  1  0.45972000  0.66984000  0.15421000  1.0 0.1186562976
H  H9  1  0.13836000  0.42738000  0.10638000  1.0 0.1134026074
H  H10  1  0.16362000  0.54339000  0.26897000  1.0 0.1251829262
H  H11  1  0.09011000  0.43240000  0.20268000  1.0 0.1186562976
H  H12  1  0.21012000  0.54028000  0.15421000  1.0 0.1134026074
H  H13  1  0.71098000  0.13836000  0.10638000  1.0 0.1134026074
H  H14  1  0.62023000  0.16362000  0.26897000  1.0 0.1251829262
H  H15  1  0.65771000  0.09011000  0.20268000  1.0 0.1186562976
H  H16  1  0.66984000  0.21012000  0.15421000  1.0 0.1134026074
H  H17  1  0.42738000  0.28902000  0.10638000  1.0 0.1134026074
H  H18  1  0.54339000  0.37977000  0.26897000  1.0 0.1186562976
H  H19  1  0.43240000  0.34229000  0.20268000  1.0 0.1186562976
H  H20  1  0.54028000  0.33016000  0.15421000  1.0 0.1186562976
H  H21  1  0.86164000  0.57262000  0.10638000  1.0 0.1134026074
H  H22  1  0.83638000  0.45661000  0.26897000  1.0 0.1186562976
H  H23  1  0.90989000  0.56760000  0.20268000  1.0 0.1186562976
H  H24  1  0.78988000  0.45972000  0.15421000  1.0 0.1134026074
H  H25  1  0.42738000  0.13836000  0.89362000  1.0 0.1134026074
H  H26  1  0.54339000  0.16362000  0.73103000  1.0 0.1251829262
H  H27  1  0.43240000  0.09011000  0.79732000  1.0 0.1186562976
H  H28  1  0.54028000  0.21012000  0.84579000  1.0 0.1134026074
H  H29  1  0.86164000  0.28902000  0.89362000  1.0 0.1134026074
H  H30  1  0.83638000  0.37977000  0.73103000  1.0 0.1186562976
H  H31  1  0.90989000  0.34229000  0.79732000  1.0 0.1186562976
H  H32  1  0.78988000  0.33016000  0.84579000  1.0 0.1186562976
H  H33  1  0.71098000  0.57262000  0.89362000  1.0 0.1134026074
H  H34  1  0.62023000  0.45661000  0.73103000  1.0 0.1186562976
H  H35  1  0.65771000  0.56760000  0.79732000  1.0 0.1134026074
H  H36  1  0.66984000  0.45972000  0.84579000  1.0 0.1134026074
H  H37  1  0.57262000  0.86164000  0.89362000  1.0 0.1134026074
H  H38  1  0.45661000  0.83638000  0.73103000  1.0 0.1186562976
H  H39  1  0.56760000  0.90989000  0.79732000  1.0 0.1134026074
H  H40  1  0.45972000  0.78988000  0.84579000  1.0 0.1186562976
H  H41  1  0.13836000  0.71098000  0.89362000  1.0 0.1134026074
H  H42  1  0.16362000  0.62023000  0.73103000  1.0 0.1186562976
H  H43  1  0.09011000  0.65771000  0.79732000  1.0 0.1186562976
H  H44  1  0.21012000  0.66984000  0.84579000  1.0 0.1186562976
H  H45  1  0.28902000  0.42738000  0.89362000  1.0 0.1134026074
H  H46  1  0.37977000  0.54339000  0.73103000  1.0 0.1251829262
H  H47  1  0.34229000  0.43240000  0.79732000  1.0 0.1186562976
H  H48  1  0.33016000  0.54028000  0.84579000  1.0 0.1134026074
H  H49  1  0.71098000  0.13836000  0.89362000  1.0 0.1134026074
H  H50  1  0.62023000  0.16362000  0.73103000  1.0 0.1186562976
H  H51  1  0.65771000  0.09011000  0.79732000  1.0 0.1186562976
H  H52  1  0.66984000  0.21012000  0.84579000  1.0 0.1134026074
H  H53  1  0.42738000  0.28902000  0.89362000  1.0 0.1134026074
H  H54  1  0.54339000  0.37977000  0.73103000  1.0 0.1186562976
H  H55  1  0.43240000  0.34229000  0.79732000  1.0 0.1186562976
H  H56  1  0.54028000  0.33016000  0.84579000  1.0 0.1186562976
H  H57  1  0.86164000  0.57262000  0.89362000  1.0 0.1134026074
H  H58  1  0.83638000  0.45661000  0.73103000  1.0 0.1186562976
H  H59  1  0.90989000  0.56760000  0.79732000  1.0 0.1186562976
H  H60  1  0.78988000  0.45972000  0.84579000  1.0 0.1134026074
H  H61  1  0.28902000  0.86164000  0.89362000  1.0 0.1134026074
H  H62  1  0.37977000  0.83638000  0.73103000  1.0 0.1186562976
H  H63  1  0.34229000  0.90989000  0.79732000  1.0 0.1134026074
H  H64  1  0.33016000  0.78988000  0.84579000  1.0 0.1186562976
H  H65  1  0.57262000  0.71098000  0.89362000  1.0 0.1134026074
H  H66  1  0.45661000  0.62023000  0.73103000  1.0 0.1186562976
H  H67  1  0.56760000  0.65771000  0.79732000  1.0 0.1186562976
H  H68  1  0.45972000  0.66984000  0.84579000  1.0 0.1186562976
H  H69  1  0.13836000  0.42738000  0.89362000  1.0 0.1134026074
H  H70  1  0.16362000  0.54339000  0.73103000  1.0 0.1251829262
H  H71  1  0.09011000  0.43240000  0.79732000  1.0 0.1186562976
H  H72  1  0.21012000  0.54028000  0.84579000  1.0 0.1134026074
H  H73  1  0.57262000  0.86164000  0.10638000  1.0 0.1134026074
H  H74  1  0.45661000  0.83638000  0.26897000  1.0 0.1186562976
H  H75  1  0.56760000  0.90989000  0.20268000  1.0 0.1186562976
H  H76  1  0.45972000  0.78988000  0.15421000  1.0 0.1186562976
H  H77  1  0.13836000  0.71098000  0.10638000  1.0 0.1134026074
H  H78  1  0.16362000  0.62023000  0.26897000  1.0 0.1186562976
H  H79  1  0.09011000  0.65771000  0.20268000  1.0 0.1186562976
H  H80  1  0.21012000  0.66984000  0.15421000  1.0 0.1186562976
H  H81  1  0.28902000  0.42738000  0.10638000  1.0 0.1134026074
H  H82  1  0.37977000  0.54339000  0.26897000  1.0 0.1251829262
H  H83  1  0.34229000  0.43240000  0.20268000  1.0 0.1186562976
H  H84  1  0.33016000  0.54028000  0.15421000  1.0 0.1134026074
H  H85  1  0.42738000  0.13836000  0.10638000  1.0 0.1134026074
H  H86  1  0.54339000  0.16362000  0.26897000  1.0 0.1251829262
H  H87  1  0.43240000  0.09011000  0.20268000  1.0 0.1186562976
H  H88  1  0.54028000  0.21012000  0.15421000  1.0 0.1134026074
H  H89  1  0.86164000  0.28902000  0.10638000  1.0 0.1134026074
H  H90  1  0.83638000  0.37977000  0.26897000  1.0 0.1186562976
H  H91  1  0.90989000  0.34229000  0.20268000  1.0 0.1186562976
H  H92  1  0.78988000  0.33016000  0.15421000  1.0 0.1186562976
H  H93  1  0.71098000  0.57262000  0.10638000  1.0 0.1134026074
H  H94  1  0.62023000  0.45661000  0.26897000  1.0 0.1186562976
H  H95  1  0.65771000  0.56760000  0.20268000  1.0 0.1134026074
H  H96  1  0.66984000  0.45972000  0.15421000  1.0 0.1134026074
C  C1  1  0.40000000  0.90760000  0.31590000  1.0 0.6143651087
C  C2  1  0.30410000  0.82100000  0.12360000  1.0 0.0671523506
C  C3  1  0.36570000  0.87780000  0.24830000  1.0 -0.0426852441
C  C4  1  0.27120000  0.78990000  0.06090000  1.0 -0.0199049685
C  C5  1  0.30780000  0.85640000  0.13740000  1.0 -0.15903625
C  C6  1  0.36180000  0.84210000  0.23400000  1.0 -0.0996585341
C  C7  1  0.33920000  0.88490000  0.19730000  1.0 -0.0996585341
C  C8  1  0.33160000  0.81390000  0.16800000  1.0 -0.1671824534
C  C9  1  0.50760000  0.60000000  0.31590000  1.0 0.6158577845
C  C10  1  0.51690000  0.69590000  0.12360000  1.0 0.0671523506
C  C11  1  0.51210000  0.63430000  0.24830000  1.0 -0.0426852441
C  C12  1  0.51870000  0.72880000  0.06090000  1.0 -0.0199049685
C  C13  1  0.54860000  0.69220000  0.13740000  1.0 -0.15903625
C  C14  1  0.48030000  0.63820000  0.23400000  1.0 -0.0996585341
C  C15  1  0.54570000  0.66080000  0.19730000  1.0 -0.0996585341
C  C16  1  0.48230000  0.66840000  0.16800000  1.0 -0.1671824534
C  C17  1  0.09240000  0.49240000  0.31590000  1.0 0.6143651087
C  C18  1  0.17900000  0.48310000  0.12360000  1.0 0.0671523506
C  C19  1  0.12220000  0.48790000  0.24830000  1.0 -0.0426852441
C  C20  1  0.21010000  0.48130000  0.06090000  1.0 -0.0199049685
C  C21  1  0.14360000  0.45140000  0.13740000  1.0 -0.15903625
C  C22  1  0.15790000  0.51970000  0.23400000  1.0 -0.0996585341
C  C23  1  0.11510000  0.45430000  0.19730000  1.0 -0.0996585341
C  C24  1  0.18610000  0.51770000  0.16800000  1.0 -0.1671824534
C  C25  1  0.60000000  0.09240000  0.31590000  1.0 0.6143651087
C  C26  1  0.69590000  0.17900000  0.12360000  1.0 0.0671523506
C  C27  1  0.63430000  0.12220000  0.24830000  1.0 -0.0426852441
C  C28  1  0.72880000  0.21010000  0.06090000  1.0 -0.0199049685
C  C29  1  0.69220000  0.14360000  0.13740000  1.0 -0.15903625
C  C30  1  0.63820000  0.15790000  0.23400000  1.0 -0.0996585341
C  C31  1  0.66080000  0.11510000  0.19730000  1.0 -0.0996585341
C  C32  1  0.66840000  0.18610000  0.16800000  1.0 -0.1671824534
C  C33  1  0.49240000  0.40000000  0.31590000  1.0 0.6143651087
C  C34  1  0.48310000  0.30410000  0.12360000  1.0 0.0671523506
C  C35  1  0.48790000  0.36570000  0.24830000  1.0 -0.0426852441
C  C36  1  0.48130000  0.27120000  0.06090000  1.0 -0.0199049685
C  C37  1  0.45140000  0.30780000  0.13740000  1.0 -0.15903625
C  C38  1  0.51970000  0.36180000  0.23400000  1.0 -0.0996585341
C  C39  1  0.45430000  0.33920000  0.19730000  1.0 -0.0996585341
C  C40  1  0.51770000  0.33160000  0.16800000  1.0 -0.1671824534
C  C41  1  0.90760000  0.50760000  0.31590000  1.0 0.6158577845
C  C42  1  0.82100000  0.51690000  0.12360000  1.0 0.0671523506
C  C43  1  0.87780000  0.51210000  0.24830000  1.0 -0.0426852441
C  C44  1  0.78990000  0.51870000  0.06090000  1.0 -0.0199049685
C  C45  1  0.85640000  0.54860000  0.13740000  1.0 -0.15903625
C  C46  1  0.84210000  0.48030000  0.23400000  1.0 -0.0996585341
C  C47  1  0.88490000  0.54570000  0.19730000  1.0 -0.0996585341
C  C48  1  0.81390000  0.48230000  0.16800000  1.0 -0.1671824534
C  C49  1  0.49240000  0.09240000  0.68410000  1.0 0.6143651087
C  C50  1  0.48310000  0.17900000  0.87640000  1.0 0.0671523506
C  C51  1  0.48790000  0.12220000  0.75170000  1.0 -0.0426852441
C  C52  1  0.48130000  0.21010000  0.93910000  1.0 -0.0199049685
C  C53  1  0.45140000  0.14360000  0.86260000  1.0 -0.15903625
C  C54  1  0.51970000  0.15790000  0.76600000  1.0 -0.0996585341
C  C55  1  0.45430000  0.11510000  0.80270000  1.0 -0.0996585341
C  C56  1  0.51770000  0.18610000  0.83200000  1.0 -0.1671824534
C  C57  1  0.90760000  0.40000000  0.68410000  1.0 0.6143651087
C  C58  1  0.82100000  0.30410000  0.87640000  1.0 0.0671523506
C  C59  1  0.87780000  0.36570000  0.75170000  1.0 -0.0426852441
C  C60  1  0.78990000  0.27120000  0.93910000  1.0 -0.0199049685
C  C61  1  0.85640000  0.30780000  0.86260000  1.0 -0.15903625
C  C62  1  0.84210000  0.36180000  0.76600000  1.0 -0.0996585341
C  C63  1  0.88490000  0.33920000  0.80270000  1.0 -0.0996585341
C  C64  1  0.81390000  0.33160000  0.83200000  1.0 -0.1671824534
C  C65  1  0.60000000  0.50760000  0.68410000  1.0 0.6143651087
C  C66  1  0.69590000  0.51690000  0.87640000  1.0 0.0671523506
C  C67  1  0.63430000  0.51210000  0.75170000  1.0 -0.0426852441
C  C68  1  0.72880000  0.51870000  0.93910000  1.0 -0.0199049685
C  C69  1  0.69220000  0.54860000  0.86260000  1.0 -0.15903625
C  C70  1  0.63820000  0.48030000  0.76600000  1.0 -0.0996585341
C  C71  1  0.66080000  0.54570000  0.80270000  1.0 -0.0996585341
C  C72  1  0.66840000  0.48230000  0.83200000  1.0 -0.1671824534
C  C73  1  0.50760000  0.90760000  0.68410000  1.0 0.6143651087
C  C74  1  0.51690000  0.82100000  0.87640000  1.0 0.0671523506
C  C75  1  0.51210000  0.87780000  0.75170000  1.0 -0.0426852441
C  C76  1  0.51870000  0.78990000  0.93910000  1.0 -0.0199049685
C  C77  1  0.54860000  0.85640000  0.86260000  1.0 -0.15903625
C  C78  1  0.48030000  0.84210000  0.76600000  1.0 -0.0996585341
C  C79  1  0.54570000  0.88490000  0.80270000  1.0 -0.0996585341
C  C80  1  0.48230000  0.81390000  0.83200000  1.0 -0.1671824534
C  C81  1  0.09240000  0.60000000  0.68410000  1.0 0.6158577845
C  C82  1  0.17900000  0.69590000  0.87640000  1.0 0.0671523506
C  C83  1  0.12220000  0.63430000  0.75170000  1.0 -0.0426852441
C  C84  1  0.21010000  0.72880000  0.93910000  1.0 -0.0199049685
C  C85  1  0.14360000  0.69220000  0.86260000  1.0 -0.15903625
C  C86  1  0.15790000  0.63820000  0.76600000  1.0 -0.0996585341
C  C87  1  0.11510000  0.66080000  0.80270000  1.0 -0.0996585341
C  C88  1  0.18610000  0.66840000  0.83200000  1.0 -0.1671824534
C  C89  1  0.40000000  0.49240000  0.68410000  1.0 0.6143651087
C  C90  1  0.30410000  0.48310000  0.87640000  1.0 0.0671523506
C  C91  1  0.36570000  0.48790000  0.75170000  1.0 -0.0426852441
C  C92  1  0.27120000  0.48130000  0.93910000  1.0 -0.0199049685
C  C93  1  0.30780000  0.45140000  0.86260000  1.0 -0.15903625
C  C94  1  0.36180000  0.51970000  0.76600000  1.0 -0.0996585341
C  C95  1  0.33920000  0.45430000  0.80270000  1.0 -0.0996585341
C  C96  1  0.33160000  0.51770000  0.83200000  1.0 -0.1671824534
C  C97  1  0.60000000  0.09240000  0.68410000  1.0 0.6143651087
C  C98  1  0.69590000  0.17900000  0.87640000  1.0 0.0671523506
C  C99  1  0.63430000  0.12220000  0.75170000  1.0 -0.0426852441
C  C100  1  0.72880000  0.21010000  0.93910000  1.0 -0.0199049685
C  C101  1  0.69220000  0.14360000  0.86260000  1.0 -0.15903625
C  C102  1  0.63820000  0.15790000  0.76600000  1.0 -0.0996585341
C  C103  1  0.66080000  0.11510000  0.80270000  1.0 -0.0996585341
C  C104  1  0.66840000  0.18610000  0.83200000  1.0 -0.1671824534
C  C105  1  0.49240000  0.40000000  0.68410000  1.0 0.6143651087
C  C106  1  0.48310000  0.30410000  0.87640000  1.0 0.0671523506
C  C107  1  0.48790000  0.36570000  0.75170000  1.0 -0.0426852441
C  C108  1  0.48130000  0.27120000  0.93910000  1.0 -0.0199049685
C  C109  1  0.45140000  0.30780000  0.86260000  1.0 -0.15903625
C  C110  1  0.51970000  0.36180000  0.76600000  1.0 -0.0996585341
C  C111  1  0.45430000  0.33920000  0.80270000  1.0 -0.0996585341
C  C112  1  0.51770000  0.33160000  0.83200000  1.0 -0.1671824534
C  C113  1  0.90760000  0.50760000  0.68410000  1.0 0.6143651087
C  C114  1  0.82100000  0.51690000  0.87640000  1.0 0.0671523506
C  C115  1  0.87780000  0.51210000  0.75170000  1.0 -0.0426852441
C  C116  1  0.78990000  0.51870000  0.93910000  1.0 -0.0199049685
C  C117  1  0.85640000  0.54860000  0.86260000  1.0 -0.15903625
C  C118  1  0.84210000  0.48030000  0.76600000  1.0 -0.0996585341
C  C119  1  0.88490000  0.54570000  0.80270000  1.0 -0.0996585341
C  C120  1  0.81390000  0.48230000  0.83200000  1.0 -0.1671824534
C  C121  1  0.40000000  0.90760000  0.68410000  1.0 0.6143651087
C  C122  1  0.30410000  0.82100000  0.87640000  1.0 0.0671523506
C  C123  1  0.36570000  0.87780000  0.75170000  1.0 -0.0426852441
C  C124  1  0.27120000  0.78990000  0.93910000  1.0 -0.0199049685
C  C125  1  0.30780000  0.85640000  0.86260000  1.0 -0.15903625
C  C126  1  0.36180000  0.84210000  0.76600000  1.0 -0.0996585341
C  C127  1  0.33920000  0.88490000  0.80270000  1.0 -0.0996585341
C  C128  1  0.33160000  0.81390000  0.83200000  1.0 -0.1671824534
C  C129  1  0.50760000  0.60000000  0.68410000  1.0 0.6158577845
C  C130  1  0.51690000  0.69590000  0.87640000  1.0 0.0671523506
C  C131  1  0.51210000  0.63430000  0.75170000  1.0 -0.0426852441
C  C132  1  0.51870000  0.72880000  0.93910000  1.0 -0.0199049685
C  C133  1  0.54860000  0.69220000  0.86260000  1.0 -0.15903625
C  C134  1  0.48030000  0.63820000  0.76600000  1.0 -0.0996585341
C  C135  1  0.54570000  0.66080000  0.80270000  1.0 -0.0996585341
C  C136  1  0.48230000  0.66840000  0.83200000  1.0 -0.1671824534
C  C137  1  0.09240000  0.49240000  0.68410000  1.0 0.6143651087
C  C138  1  0.17900000  0.48310000  0.87640000  1.0 0.0671523506
C  C139  1  0.12220000  0.48790000  0.75170000  1.0 -0.0426852441
C  C140  1  0.21010000  0.48130000  0.93910000  1.0 -0.0199049685
C  C141  1  0.14360000  0.45140000  0.86260000  1.0 -0.15903625
C  C142  1  0.15790000  0.51970000  0.76600000  1.0 -0.0996585341
C  C143  1  0.11510000  0.45430000  0.80270000  1.0 -0.0996585341
C  C144  1  0.18610000  0.51770000  0.83200000  1.0 -0.1671824534
C  C145  1  0.50760000  0.90760000  0.31590000  1.0 0.6143651087
C  C146  1  0.51690000  0.82100000  0.12360000  1.0 0.0671523506
C  C147  1  0.51210000  0.87780000  0.24830000  1.0 -0.0426852441
C  C148  1  0.51870000  0.78990000  0.06090000  1.0 -0.0199049685
C  C149  1  0.54860000  0.85640000  0.13740000  1.0 -0.15903625
C  C150  1  0.48030000  0.84210000  0.23400000  1.0 -0.0996585341
C  C151  1  0.54570000  0.88490000  0.19730000  1.0 -0.0996585341
C  C152  1  0.48230000  0.81390000  0.16800000  1.0 -0.1671824534
C  C153  1  0.09240000  0.60000000  0.31590000  1.0 0.6158577845
C  C154  1  0.17900000  0.69590000  0.12360000  1.0 0.0671523506
C  C155  1  0.12220000  0.63430000  0.24830000  1.0 -0.0426852441
C  C156  1  0.21010000  0.72880000  0.06090000  1.0 -0.0199049685
C  C157  1  0.14360000  0.69220000  0.13740000  1.0 -0.15903625
C  C158  1  0.15790000  0.63820000  0.23400000  1.0 -0.0996585341
C  C159  1  0.11510000  0.66080000  0.19730000  1.0 -0.0996585341
C  C160  1  0.18610000  0.66840000  0.16800000  1.0 -0.1671824534
C  C161  1  0.40000000  0.49240000  0.31590000  1.0 0.6143651087
C  C162  1  0.30410000  0.48310000  0.12360000  1.0 0.0671523506
C  C163  1  0.36570000  0.48790000  0.24830000  1.0 -0.0426852441
C  C164  1  0.27120000  0.48130000  0.06090000  1.0 -0.0199049685
C  C165  1  0.30780000  0.45140000  0.13740000  1.0 -0.15903625
C  C166  1  0.36180000  0.51970000  0.23400000  1.0 -0.0996585341
C  C167  1  0.33920000  0.45430000  0.19730000  1.0 -0.0996585341
C  C168  1  0.33160000  0.51770000  0.16800000  1.0 -0.1671824534
C  C169  1  0.49240000  0.09240000  0.31590000  1.0 0.6143651087
C  C170  1  0.48310000  0.17900000  0.12360000  1.0 0.0671523506
C  C171  1  0.48790000  0.12220000  0.24830000  1.0 -0.0426852441
C  C172  1  0.48130000  0.21010000  0.06090000  1.0 -0.0199049685
C  C173  1  0.45140000  0.14360000  0.13740000  1.0 -0.15903625
C  C174  1  0.51970000  0.15790000  0.23400000  1.0 -0.0996585341
C  C175  1  0.45430000  0.11510000  0.19730000  1.0 -0.0996585341
C  C176  1  0.51770000  0.18610000  0.16800000  1.0 -0.1671824534
C  C177  1  0.90760000  0.40000000  0.31590000  1.0 0.6143651087
C  C178  1  0.82100000  0.30410000  0.12360000  1.0 0.0671523506
C  C179  1  0.87780000  0.36570000  0.24830000  1.0 -0.0426852441
C  C180  1  0.78990000  0.27120000  0.06090000  1.0 -0.0199049685
C  C181  1  0.85640000  0.30780000  0.13740000  1.0 -0.15903625
C  C182  1  0.84210000  0.36180000  0.23400000  1.0 -0.0996585341
C  C183  1  0.88490000  0.33920000  0.19730000  1.0 -0.0996585341
C  C184  1  0.81390000  0.33160000  0.16800000  1.0 -0.1671824534
C  C185  1  0.60000000  0.50760000  0.31590000  1.0 0.6158577845
C  C186  1  0.69590000  0.51690000  0.12360000  1.0 0.0671523506
C  C187  1  0.63430000  0.51210000  0.24830000  1.0 -0.0426852441
C  C188  1  0.72880000  0.51870000  0.06090000  1.0 -0.0199049685
C  C189  1  0.69220000  0.54860000  0.13740000  1.0 -0.15903625
C  C190  1  0.63820000  0.48030000  0.23400000  1.0 -0.0996585341
C  C191  1  0.66080000  0.54570000  0.19730000  1.0 -0.0996585341
C  C192  1  0.66840000  0.48230000  0.16800000  1.0 -0.1671824534
C  C193  1  0.24000000  0.76000000  0.11540000  1.0 -0.0199049685
C  C194  1  0.52000000  0.76000000  0.11540000  1.0 -0.0144451658
C  C195  1  0.24000000  0.48000000  0.11540000  1.0 -0.0199049685
C  C196  1  0.76000000  0.24000000  0.11540000  1.0 -0.0144451658
C  C197  1  0.48000000  0.24000000  0.11540000  1.0 -0.0199049685
C  C198  1  0.76000000  0.52000000  0.11540000  1.0 -0.0199049685
C  C199  1  0.48000000  0.24000000  0.88460000  1.0 -0.0144451658
C  C200  1  0.76000000  0.24000000  0.88460000  1.0 -0.0144451658
C  C201  1  0.76000000  0.52000000  0.88460000  1.0 -0.0199049685
C  C202  1  0.52000000  0.76000000  0.88460000  1.0 -0.0144451658
C  C203  1  0.24000000  0.76000000  0.88460000  1.0 -0.0199049685
C  C204  1  0.24000000  0.48000000  0.88460000  1.0 -0.0199049685
Br  Br1  1  0.23904000  0.76096000  0.27909000  1.0 -0.0652164412
Br  Br2  1  0.52192000  0.76096000  0.27909000  1.0 -0.0652164412
Br  Br3  1  0.23904000  0.47808000  0.27909000  1.0 -0.0652164412
Br  Br4  1  0.76096000  0.23904000  0.27909000  1.0 -0.0652164412
Br  Br5  1  0.47808000  0.23904000  0.27909000  1.0 -0.0652164412
Br  Br6  1  0.76096000  0.52192000  0.27909000  1.0 -0.0643097316
Br  Br7  1  0.47808000  0.23904000  0.72091000  1.0 -0.0643097316
Br  Br8  1  0.76096000  0.23904000  0.72091000  1.0 -0.0643097316
Br  Br9  1  0.76096000  0.52192000  0.72091000  1.0 -0.0643097316
Br  Br10  1  0.52192000  0.76096000  0.72091000  1.0 -0.0652164412
Br  Br11  1  0.23904000  0.76096000  0.72091000  1.0 -0.0652164412
Br  Br12  1  0.23904000  0.47808000  0.72091000  1.0 -0.0643097316
O  O1  1  0.41579000  0.89732000  0.38430000  1.0 -0.5554271428
O  O2  1  0.40910000  0.94274000  0.29280000  1.0 -0.6067782418
O  O3  1  0.48153000  0.58421000  0.38430000  1.0 -0.5554271428
O  O4  1  0.53364000  0.59090000  0.29280000  1.0 -0.6067782418
O  O5  1  0.10268000  0.51847000  0.38430000  1.0 -0.5547017609
O  O6  1  0.05726000  0.46636000  0.29280000  1.0 -0.6067782418
O  O7  1  0.58421000  0.10268000  0.38430000  1.0 -0.5554271428
O  O8  1  0.59090000  0.05726000  0.29280000  1.0 -0.6046433602
O  O9  1  0.51847000  0.41579000  0.38430000  1.0 -0.5554271428
O  O10  1  0.46636000  0.40910000  0.29280000  1.0 -0.6067782418
O  O11  1  0.89732000  0.48153000  0.38430000  1.0 -0.5547017609
O  O12  1  0.94274000  0.53364000  0.29280000  1.0 -0.6046433602
O  O13  1  0.51847000  0.10268000  0.61570000  1.0 -0.5554271428
O  O14  1  0.46636000  0.05726000  0.70720000  1.0 -0.6046433602
O  O15  1  0.89732000  0.41579000  0.61570000  1.0 -0.5554271428
O  O16  1  0.94274000  0.40910000  0.70720000  1.0 -0.6067782418
O  O17  1  0.58421000  0.48153000  0.61570000  1.0 -0.5554271428
O  O18  1  0.59090000  0.53364000  0.70720000  1.0 -0.6067782418
O  O19  1  0.48153000  0.89732000  0.61570000  1.0 -0.5547017609
O  O20  1  0.53364000  0.94274000  0.70720000  1.0 -0.6067782418
O  O21  1  0.10268000  0.58421000  0.61570000  1.0 -0.5554271428
O  O22  1  0.05726000  0.59090000  0.70720000  1.0 -0.6067782418
O  O23  1  0.41579000  0.51847000  0.61570000  1.0 -0.5554271428
O  O24  1  0.40910000  0.46636000  0.70720000  1.0 -0.6067782418
O  O25  1  0.58421000  0.10268000  0.61570000  1.0 -0.5554271428
O  O26  1  0.59090000  0.05726000  0.70720000  1.0 -0.6067782418
O  O27  1  0.51847000  0.41579000  0.61570000  1.0 -0.5554271428
O  O28  1  0.46636000  0.40910000  0.70720000  1.0 -0.6067782418
O  O29  1  0.89732000  0.48153000  0.61570000  1.0 -0.5547017609
O  O30  1  0.94274000  0.53364000  0.70720000  1.0 -0.6046433602
O  O31  1  0.41579000  0.89732000  0.61570000  1.0 -0.5547017609
O  O32  1  0.40910000  0.94274000  0.70720000  1.0 -0.6067782418
O  O33  1  0.48153000  0.58421000  0.61570000  1.0 -0.5554271428
O  O34  1  0.53364000  0.59090000  0.70720000  1.0 -0.6067782418
O  O35  1  0.10268000  0.51847000  0.61570000  1.0 -0.5547017609
O  O36  1  0.05726000  0.46636000  0.70720000  1.0 -0.6067782418
O  O37  1  0.48153000  0.89732000  0.38430000  1.0 -0.5554271428
O  O38  1  0.53364000  0.94274000  0.29280000  1.0 -0.6067782418
O  O39  1  0.10268000  0.58421000  0.38430000  1.0 -0.5554271428
O  O40  1  0.05726000  0.59090000  0.29280000  1.0 -0.6067782418
O  O41  1  0.41579000  0.51847000  0.38430000  1.0 -0.5554271428
O  O42  1  0.40910000  0.46636000  0.29280000  1.0 -0.6067782418
O  O43  1  0.51847000  0.10268000  0.38430000  1.0 -0.5554271428
O  O44  1  0.46636000  0.05726000  0.29280000  1.0 -0.6046433602
O  O45  1  0.89732000  0.41579000  0.38430000  1.0 -0.5554271428
O  O46  1  0.94274000  0.40910000  0.29280000  1.0 -0.6067782418
O  O47  1  0.58421000  0.48153000  0.38430000  1.0 -0.5554271428
O  O48  1  0.59090000  0.53364000  0.29280000  1.0 -0.6067782418
O  O49  1  0.59860000  0.00000000  0.60750000  1.0 -1.0668507372
O  O50  1  0.40140000  0.40140000  0.60750000  1.0 -1.0609162901
O  O51  1  0.00000000  0.59860000  0.60750000  1.0 -1.0609162901
O  O52  1  0.40140000  0.00000000  0.60750000  1.0 -1.0668507372
O  O53  1  0.59860000  0.59860000  0.60750000  1.0 -1.0609162901
O  O54  1  0.00000000  0.40140000  0.60750000  1.0 -1.0609162901
O  O55  1  0.59860000  0.00000000  0.39250000  1.0 -1.0668507372
O  O56  1  0.00000000  0.59860000  0.39250000  1.0 -1.0609162901
O  O57  1  0.40140000  0.40140000  0.39250000  1.0 -1.0609162901
O  O58  1  0.40140000  0.00000000  0.39250000  1.0 -1.0668507372
O  O59  1  0.00000000  0.40140000  0.39250000  1.0 -1.0609162901
O  O60  1  0.59860000  0.59860000  0.39250000  1.0 -1.0609162901
O  O61  1  0.48269000  0.96538000  0.34790000  1.0 -1.1838088189
O  O62  1  0.48269000  0.51731000  0.34790000  1.0 -1.1838088189
O  O63  1  0.03462000  0.51731000  0.34790000  1.0 -1.1838088189
O  O64  1  0.51731000  0.03462000  0.34790000  1.0 -1.185082451
O  O65  1  0.51731000  0.48269000  0.34790000  1.0 -1.1838088189
O  O66  1  0.96538000  0.48269000  0.34790000  1.0 -1.1838088189
O  O67  1  0.51731000  0.03462000  0.65210000  1.0 -1.185082451
O  O68  1  0.96538000  0.48269000  0.65210000  1.0 -1.1838088189
O  O69  1  0.51731000  0.48269000  0.65210000  1.0 -1.1838088189
O  O70  1  0.48269000  0.96538000  0.65210000  1.0 -1.1838088189
O  O71  1  0.03462000  0.51731000  0.65210000  1.0 -1.1838088189
O  O72  1  0.48269000  0.51731000  0.65210000  1.0 -1.1838088189
O  O73  1  0.52640000  0.96510000  0.50000000  1.0 -1.1307494675
O  O74  1  0.43870000  0.47360000  0.50000000  1.0 -1.1307494675
O  O75  1  0.03490000  0.56130000  0.50000000  1.0 -1.1307494675
O  O76  1  0.47360000  0.03490000  0.50000000  1.0 -1.1307494675
O  O77  1  0.56130000  0.52640000  0.50000000  1.0 -1.1307494675
O  O78  1  0.96510000  0.43870000  0.50000000  1.0 -1.1307494675
O  O79  1  0.56130000  0.03490000  0.50000000  1.0 -1.1307494675
O  O80  1  0.96510000  0.52640000  0.50000000  1.0 -1.1365077649
O  O81  1  0.47360000  0.43870000  0.50000000  1.0 -1.1307494675
O  O82  1  0.43870000  0.96510000  0.50000000  1.0 -1.1307494675
O  O83  1  0.03490000  0.47360000  0.50000000  1.0 -1.1365077649
O  O84  1  0.52640000  0.56130000  0.50000000  1.0 -1.1307494675
