# DDEC6 charges by PACMAN v1.1 (https://github.com/mtap-research/PACMAN-charge/)
data_DAXDEP_ASR_pacman
_symmetry_space_group_name_H-M   'P 1'
_cell_length_a   39.41380000
_cell_length_b   39.41380000
_cell_length_c   16.42910000
_cell_angle_alpha   90.00000000
_cell_angle_beta   90.00000000
_cell_angle_gamma   120.00000000
_symmetry_Int_Tables_number   1
_chemical_formula_structural   Zr3Mo2H22C45O16
_chemical_formula_sum   'Zr18 Mo12 H132 C270 O96'
_cell_volume   22102.48078786
_cell_formula_units_Z   6
loop_
 _symmetry_equiv_pos_site_id
 _symmetry_equiv_pos_as_xyz
  1  'x, y, z'
loop_
 _atom_site_type_symbol
 _atom_site_label
 _atom_site_symmetry_multiplicity
 _atom_site_fract_x
 _atom_site_fract_y
 _atom_site_fract_z
 _atom_site_occupancy
 _atom_site_charge
Zr  Zr1  1  0.46412000  0.53588000  0.50000000  1.0 2.3640428638
Zr  Zr2  1  0.07176000  0.53588000  0.50000000  1.0 2.3640428638
Zr  Zr3  1  0.46412000  0.92824000  0.50000000  1.0 2.3657396888
Zr  Zr4  1  0.53588000  0.46412000  0.50000000  1.0 2.3640428638
Zr  Zr5  1  0.92824000  0.46412000  0.50000000  1.0 2.3657396888
Zr  Zr6  1  0.53588000  0.07176000  0.50000000  1.0 2.3657396888
Zr  Zr7  1  0.54495000  0.54495000  0.60724000  1.0 2.4812772925
Zr  Zr8  1  0.00000000  0.45505000  0.60724000  1.0 2.4812772925
Zr  Zr9  1  0.45505000  0.00000000  0.60724000  1.0 2.4812772925
Zr  Zr10  1  0.45505000  0.45505000  0.60724000  1.0 2.4812772925
Zr  Zr11  1  0.00000000  0.54495000  0.60724000  1.0 2.4812772925
Zr  Zr12  1  0.54495000  0.00000000  0.60724000  1.0 2.4812772925
Zr  Zr13  1  0.00000000  0.45505000  0.39276000  1.0 2.4812772925
Zr  Zr14  1  0.54495000  0.54495000  0.39276000  1.0 2.4812772925
Zr  Zr15  1  0.45505000  0.00000000  0.39276000  1.0 2.4812772925
Zr  Zr16  1  0.00000000  0.54495000  0.39276000  1.0 2.4812772925
Zr  Zr17  1  0.45505000  0.45505000  0.39276000  1.0 2.4812772925
Zr  Zr18  1  0.54495000  0.00000000  0.39276000  1.0 2.4812772925
Mo  Mo1  1  0.55730000  0.55730000  0.83790000  1.0 0.7730174666
Mo  Mo2  1  0.00000000  0.44270000  0.83790000  1.0 0.7730174666
Mo  Mo3  1  0.44270000  0.00000000  0.83790000  1.0 0.761682198
Mo  Mo4  1  0.44270000  0.44270000  0.83790000  1.0 0.7730174666
Mo  Mo5  1  0.00000000  0.55730000  0.83790000  1.0 0.7730174666
Mo  Mo6  1  0.55730000  0.00000000  0.83790000  1.0 0.761682198
Mo  Mo7  1  0.00000000  0.44270000  0.16210000  1.0 0.7730174666
Mo  Mo8  1  0.55730000  0.55730000  0.16210000  1.0 0.7730174666
Mo  Mo9  1  0.44270000  0.00000000  0.16210000  1.0 0.761682198
Mo  Mo10  1  0.00000000  0.55730000  0.16210000  1.0 0.7730174666
Mo  Mo11  1  0.44270000  0.44270000  0.16210000  1.0 0.7730174666
Mo  Mo12  1  0.55730000  0.00000000  0.16210000  1.0 0.761682198
H  H1  1  0.46048000  0.63000000  0.36929000  1.0 0.1302298015
H  H2  1  0.45967000  0.67907000  0.28915000  1.0 0.1168000801
H  H3  1  0.55663000  0.64614000  0.24991000  1.0 0.1168000801
H  H4  1  0.55559000  0.69473000  0.17174000  1.0 0.1168000801
H  H5  1  0.50113000  0.66766000  0.06977000  1.0 0.112789177
H  H6  1  0.16952000  0.53952000  0.36929000  1.0 0.1302298015
H  H7  1  0.21940000  0.54033000  0.28915000  1.0 0.1168000801
H  H8  1  0.08951000  0.44337000  0.24991000  1.0 0.1168000801
H  H9  1  0.13914000  0.44441000  0.17174000  1.0 0.1168000801
H  H10  1  0.16653000  0.49887000  0.06977000  1.0 0.112789177
H  H11  1  0.37000000  0.83048000  0.36929000  1.0 0.1302298015
H  H12  1  0.32093000  0.78060000  0.28915000  1.0 0.1168000801
H  H13  1  0.35386000  0.91049000  0.24991000  1.0 0.1168000801
H  H14  1  0.30527000  0.86086000  0.17174000  1.0 0.1168000801
H  H15  1  0.33234000  0.83347000  0.06977000  1.0 0.112789177
H  H16  1  0.53952000  0.37000000  0.36929000  1.0 0.1302298015
H  H17  1  0.54033000  0.32093000  0.28915000  1.0 0.1168000801
H  H18  1  0.44337000  0.35386000  0.24991000  1.0 0.1168000801
H  H19  1  0.44441000  0.30527000  0.17174000  1.0 0.1168000801
H  H20  1  0.49887000  0.33234000  0.06977000  1.0 0.112789177
H  H21  1  0.83048000  0.46048000  0.36929000  1.0 0.1302298015
H  H22  1  0.78060000  0.45967000  0.28915000  1.0 0.1168000801
H  H23  1  0.91049000  0.55663000  0.24991000  1.0 0.1168000801
H  H24  1  0.86086000  0.55559000  0.17174000  1.0 0.1168000801
H  H25  1  0.83347000  0.50113000  0.06977000  1.0 0.112789177
H  H26  1  0.63000000  0.16952000  0.36929000  1.0 0.1302298015
H  H27  1  0.67907000  0.21940000  0.28915000  1.0 0.1168000801
H  H28  1  0.64614000  0.08951000  0.24991000  1.0 0.1168000801
H  H29  1  0.69473000  0.13914000  0.17174000  1.0 0.1168000801
H  H30  1  0.66766000  0.16653000  0.06977000  1.0 0.112789177
H  H31  1  0.83048000  0.37000000  0.63071000  1.0 0.1302298015
H  H32  1  0.78060000  0.32093000  0.71085000  1.0 0.1168000801
H  H33  1  0.91049000  0.35386000  0.75009000  1.0 0.1168000801
H  H34  1  0.86086000  0.30527000  0.82826000  1.0 0.1168000801
H  H35  1  0.83347000  0.33234000  0.93023000  1.0 0.112789177
H  H36  1  0.63000000  0.46048000  0.63071000  1.0 0.1302298015
H  H37  1  0.67907000  0.45967000  0.71085000  1.0 0.1168000801
H  H38  1  0.64614000  0.55663000  0.75009000  1.0 0.1168000801
H  H39  1  0.69473000  0.55559000  0.82826000  1.0 0.1168000801
H  H40  1  0.66766000  0.50113000  0.93023000  1.0 0.112789177
H  H41  1  0.53952000  0.16952000  0.63071000  1.0 0.1302298015
H  H42  1  0.54033000  0.21940000  0.71085000  1.0 0.1168000801
H  H43  1  0.44337000  0.08951000  0.75009000  1.0 0.1168000801
H  H44  1  0.44441000  0.13914000  0.82826000  1.0 0.1168000801
H  H45  1  0.49887000  0.16653000  0.93023000  1.0 0.112789177
H  H46  1  0.16952000  0.63000000  0.63071000  1.0 0.1302298015
H  H47  1  0.21940000  0.67907000  0.71085000  1.0 0.1168000801
H  H48  1  0.08951000  0.64614000  0.75009000  1.0 0.1168000801
H  H49  1  0.13914000  0.69473000  0.82826000  1.0 0.1168000801
H  H50  1  0.16653000  0.66766000  0.93023000  1.0 0.112789177
H  H51  1  0.37000000  0.53952000  0.63071000  1.0 0.1302298015
H  H52  1  0.32093000  0.54033000  0.71085000  1.0 0.1168000801
H  H53  1  0.35386000  0.44337000  0.75009000  1.0 0.1168000801
H  H54  1  0.30527000  0.44441000  0.82826000  1.0 0.1168000801
H  H55  1  0.33234000  0.49887000  0.93023000  1.0 0.112789177
H  H56  1  0.46048000  0.83048000  0.63071000  1.0 0.1302298015
H  H57  1  0.45967000  0.78060000  0.71085000  1.0 0.1168000801
H  H58  1  0.55663000  0.91049000  0.75009000  1.0 0.1168000801
H  H59  1  0.55559000  0.86086000  0.82826000  1.0 0.1168000801
H  H60  1  0.50113000  0.83347000  0.93023000  1.0 0.112789177
H  H61  1  0.53952000  0.37000000  0.63071000  1.0 0.1302298015
H  H62  1  0.54033000  0.32093000  0.71085000  1.0 0.1168000801
H  H63  1  0.44337000  0.35386000  0.75009000  1.0 0.1168000801
H  H64  1  0.44441000  0.30527000  0.82826000  1.0 0.1168000801
H  H65  1  0.49887000  0.33234000  0.93023000  1.0 0.112789177
H  H66  1  0.83048000  0.46048000  0.63071000  1.0 0.1302298015
H  H67  1  0.78060000  0.45967000  0.71085000  1.0 0.1168000801
H  H68  1  0.91049000  0.55663000  0.75009000  1.0 0.1168000801
H  H69  1  0.86086000  0.55559000  0.82826000  1.0 0.1168000801
H  H70  1  0.83347000  0.50113000  0.93023000  1.0 0.112789177
H  H71  1  0.63000000  0.16952000  0.63071000  1.0 0.1302298015
H  H72  1  0.67907000  0.21940000  0.71085000  1.0 0.1168000801
H  H73  1  0.64614000  0.08951000  0.75009000  1.0 0.1168000801
H  H74  1  0.69473000  0.13914000  0.82826000  1.0 0.1168000801
H  H75  1  0.66766000  0.16653000  0.93023000  1.0 0.112789177
H  H76  1  0.46048000  0.63000000  0.63071000  1.0 0.1302298015
H  H77  1  0.45967000  0.67907000  0.71085000  1.0 0.1168000801
H  H78  1  0.55663000  0.64614000  0.75009000  1.0 0.1168000801
H  H79  1  0.55559000  0.69473000  0.82826000  1.0 0.1168000801
H  H80  1  0.50113000  0.66766000  0.93023000  1.0 0.112789177
H  H81  1  0.16952000  0.53952000  0.63071000  1.0 0.1302298015
H  H82  1  0.21940000  0.54033000  0.71085000  1.0 0.1168000801
H  H83  1  0.08951000  0.44337000  0.75009000  1.0 0.1168000801
H  H84  1  0.13914000  0.44441000  0.82826000  1.0 0.1168000801
H  H85  1  0.16653000  0.49887000  0.93023000  1.0 0.112789177
H  H86  1  0.37000000  0.83048000  0.63071000  1.0 0.1302298015
H  H87  1  0.32093000  0.78060000  0.71085000  1.0 0.1168000801
H  H88  1  0.35386000  0.91049000  0.75009000  1.0 0.1168000801
H  H89  1  0.30527000  0.86086000  0.82826000  1.0 0.1168000801
H  H90  1  0.33234000  0.83347000  0.93023000  1.0 0.112789177
H  H91  1  0.16952000  0.63000000  0.36929000  1.0 0.1302298015
H  H92  1  0.21940000  0.67907000  0.28915000  1.0 0.1168000801
H  H93  1  0.08951000  0.64614000  0.24991000  1.0 0.1168000801
H  H94  1  0.13914000  0.69473000  0.17174000  1.0 0.1168000801
H  H95  1  0.16653000  0.66766000  0.06977000  1.0 0.112789177
H  H96  1  0.37000000  0.53952000  0.36929000  1.0 0.1302298015
H  H97  1  0.32093000  0.54033000  0.28915000  1.0 0.1168000801
H  H98  1  0.35386000  0.44337000  0.24991000  1.0 0.1168000801
H  H99  1  0.30527000  0.44441000  0.17174000  1.0 0.1168000801
H  H100  1  0.33234000  0.49887000  0.06977000  1.0 0.112789177
H  H101  1  0.46048000  0.83048000  0.36929000  1.0 0.1302298015
H  H102  1  0.45967000  0.78060000  0.28915000  1.0 0.1168000801
H  H103  1  0.55663000  0.91049000  0.24991000  1.0 0.1168000801
H  H104  1  0.55559000  0.86086000  0.17174000  1.0 0.1168000801
H  H105  1  0.50113000  0.83347000  0.06977000  1.0 0.112789177
H  H106  1  0.83048000  0.37000000  0.36929000  1.0 0.1302298015
H  H107  1  0.78060000  0.32093000  0.28915000  1.0 0.1168000801
H  H108  1  0.91049000  0.35386000  0.24991000  1.0 0.1168000801
H  H109  1  0.86086000  0.30527000  0.17174000  1.0 0.1168000801
H  H110  1  0.83347000  0.33234000  0.06977000  1.0 0.112789177
H  H111  1  0.63000000  0.46048000  0.36929000  1.0 0.1302298015
H  H112  1  0.67907000  0.45967000  0.28915000  1.0 0.1168000801
H  H113  1  0.64614000  0.55663000  0.24991000  1.0 0.1168000801
H  H114  1  0.69473000  0.55559000  0.17174000  1.0 0.1168000801
H  H115  1  0.66766000  0.50113000  0.06977000  1.0 0.112789177
H  H116  1  0.53952000  0.16952000  0.36929000  1.0 0.1302298015
H  H117  1  0.54033000  0.21940000  0.28915000  1.0 0.1168000801
H  H118  1  0.44337000  0.08951000  0.24991000  1.0 0.1168000801
H  H119  1  0.44441000  0.13914000  0.17174000  1.0 0.1168000801
H  H120  1  0.49887000  0.16653000  0.06977000  1.0 0.112789177
H  H121  1  0.50782000  0.75391000  0.27063000  1.0 0.1168000801
H  H122  1  0.24609000  0.49218000  0.27063000  1.0 0.1168000801
H  H123  1  0.24609000  0.75391000  0.27063000  1.0 0.1168000801
H  H124  1  0.49218000  0.24609000  0.27063000  1.0 0.1168000801
H  H125  1  0.75391000  0.50782000  0.27063000  1.0 0.1168000801
H  H126  1  0.75391000  0.24609000  0.27063000  1.0 0.1168000801
H  H127  1  0.75391000  0.24609000  0.72937000  1.0 0.1168000801
H  H128  1  0.75391000  0.50782000  0.72937000  1.0 0.1168000801
H  H129  1  0.49218000  0.24609000  0.72937000  1.0 0.1168000801
H  H130  1  0.24609000  0.75391000  0.72937000  1.0 0.1168000801
H  H131  1  0.24609000  0.49218000  0.72937000  1.0 0.1168000801
H  H132  1  0.50782000  0.75391000  0.72937000  1.0 0.1168000801
C  C1  1  0.50775000  0.60088000  0.36527000  1.0 0.6294443985
C  C2  1  0.50804000  0.63321000  0.31584000  1.0 -0.0409864703
C  C3  1  0.50662000  0.69068000  0.22171000  1.0 0.0778838253
C  C4  1  0.47976000  0.64294000  0.32840000  1.0 -0.0936901415
C  C5  1  0.50598000  0.72237000  0.17250000  1.0 0.0191793857
C  C6  1  0.47930000  0.67219000  0.28040000  1.0 -0.1571673448
C  C7  1  0.50586000  0.72187000  0.08650000  1.0 0.025179437
C  C8  1  0.53661000  0.65254000  0.25780000  1.0 -0.0989208514
C  C9  1  0.53580000  0.68120000  0.21150000  1.0 -0.1571673448
C  C10  1  0.50304000  0.68955000  0.04140000  1.0 -0.1670283372
C  C11  1  0.09313000  0.49225000  0.36527000  1.0 0.6294443985
C  C12  1  0.12517000  0.49196000  0.31584000  1.0 -0.0409864703
C  C13  1  0.18406000  0.49338000  0.22171000  1.0 0.0778838253
C  C14  1  0.16318000  0.52024000  0.32840000  1.0 -0.0936901415
C  C15  1  0.21639000  0.49402000  0.17250000  1.0 0.0191793857
C  C16  1  0.19289000  0.52070000  0.28040000  1.0 -0.1571673448
C  C17  1  0.21601000  0.49414000  0.08650000  1.0 0.025179437
C  C18  1  0.11593000  0.46339000  0.25780000  1.0 -0.0989208514
C  C19  1  0.14540000  0.46420000  0.21150000  1.0 -0.1571673448
C  C20  1  0.18651000  0.49696000  0.04140000  1.0 -0.1670283372
C  C21  1  0.39912000  0.90687000  0.36527000  1.0 0.6294443985
C  C22  1  0.36679000  0.87483000  0.31584000  1.0 -0.0409864703
C  C23  1  0.30932000  0.81594000  0.22171000  1.0 0.0778838253
C  C24  1  0.35706000  0.83682000  0.32840000  1.0 -0.0936901415
C  C25  1  0.27763000  0.78361000  0.17250000  1.0 0.0191793857
C  C26  1  0.32781000  0.80711000  0.28040000  1.0 -0.1571673448
C  C27  1  0.27813000  0.78399000  0.08650000  1.0 0.025179437
C  C28  1  0.34746000  0.88407000  0.25780000  1.0 -0.0989208514
C  C29  1  0.31880000  0.85460000  0.21150000  1.0 -0.1571673448
C  C30  1  0.31045000  0.81349000  0.04140000  1.0 -0.1670283372
C  C31  1  0.49225000  0.39912000  0.36527000  1.0 0.6294443985
C  C32  1  0.49196000  0.36679000  0.31584000  1.0 -0.0409864703
C  C33  1  0.49338000  0.30932000  0.22171000  1.0 0.0778838253
C  C34  1  0.52024000  0.35706000  0.32840000  1.0 -0.0936901415
C  C35  1  0.49402000  0.27763000  0.17250000  1.0 0.0191793857
C  C36  1  0.52070000  0.32781000  0.28040000  1.0 -0.1571673448
C  C37  1  0.49414000  0.27813000  0.08650000  1.0 0.025179437
C  C38  1  0.46339000  0.34746000  0.25780000  1.0 -0.0989208514
C  C39  1  0.46420000  0.31880000  0.21150000  1.0 -0.1571673448
C  C40  1  0.49696000  0.31045000  0.04140000  1.0 -0.1670283372
C  C41  1  0.90687000  0.50775000  0.36527000  1.0 0.6294443985
C  C42  1  0.87483000  0.50804000  0.31584000  1.0 -0.0409864703
C  C43  1  0.81594000  0.50662000  0.22171000  1.0 0.0778838253
C  C44  1  0.83682000  0.47976000  0.32840000  1.0 -0.0936901415
C  C45  1  0.78361000  0.50598000  0.17250000  1.0 0.0191793857
C  C46  1  0.80711000  0.47930000  0.28040000  1.0 -0.1571673448
C  C47  1  0.78399000  0.50586000  0.08650000  1.0 0.025179437
C  C48  1  0.88407000  0.53661000  0.25780000  1.0 -0.0989208514
C  C49  1  0.85460000  0.53580000  0.21150000  1.0 -0.1571673448
C  C50  1  0.81349000  0.50304000  0.04140000  1.0 -0.1670283372
C  C51  1  0.60088000  0.09313000  0.36527000  1.0 0.6294443985
C  C52  1  0.63321000  0.12517000  0.31584000  1.0 -0.0409864703
C  C53  1  0.69068000  0.18406000  0.22171000  1.0 0.0778838253
C  C54  1  0.64294000  0.16318000  0.32840000  1.0 -0.0936901415
C  C55  1  0.72237000  0.21639000  0.17250000  1.0 0.0191793857
C  C56  1  0.67219000  0.19289000  0.28040000  1.0 -0.1571673448
C  C57  1  0.72187000  0.21601000  0.08650000  1.0 0.025179437
C  C58  1  0.65254000  0.11593000  0.25780000  1.0 -0.0989208514
C  C59  1  0.68120000  0.14540000  0.21150000  1.0 -0.1571673448
C  C60  1  0.68955000  0.18651000  0.04140000  1.0 -0.1670283372
C  C61  1  0.90687000  0.39912000  0.63473000  1.0 0.6294443985
C  C62  1  0.87483000  0.36679000  0.68416000  1.0 -0.0409864703
C  C63  1  0.81594000  0.30932000  0.77829000  1.0 0.0778838253
C  C64  1  0.83682000  0.35706000  0.67160000  1.0 -0.0936901415
C  C65  1  0.78361000  0.27763000  0.82750000  1.0 0.0191793857
C  C66  1  0.80711000  0.32781000  0.71960000  1.0 -0.1571673448
C  C67  1  0.78399000  0.27813000  0.91350000  1.0 0.025179437
C  C68  1  0.88407000  0.34746000  0.74220000  1.0 -0.0989208514
C  C69  1  0.85460000  0.31880000  0.78850000  1.0 -0.1571673448
C  C70  1  0.81349000  0.31045000  0.95860000  1.0 -0.1670283372
C  C71  1  0.60088000  0.50775000  0.63473000  1.0 0.6294443985
C  C72  1  0.63321000  0.50804000  0.68416000  1.0 -0.0409864703
C  C73  1  0.69068000  0.50662000  0.77829000  1.0 0.0778838253
C  C74  1  0.64294000  0.47976000  0.67160000  1.0 -0.0936901415
C  C75  1  0.72237000  0.50598000  0.82750000  1.0 0.0191793857
C  C76  1  0.67219000  0.47930000  0.71960000  1.0 -0.1571673448
C  C77  1  0.72187000  0.50586000  0.91350000  1.0 0.025179437
C  C78  1  0.65254000  0.53661000  0.74220000  1.0 -0.0989208514
C  C79  1  0.68120000  0.53580000  0.78850000  1.0 -0.1571673448
C  C80  1  0.68955000  0.50304000  0.95860000  1.0 -0.1670283372
C  C81  1  0.49225000  0.09313000  0.63473000  1.0 0.6294443985
C  C82  1  0.49196000  0.12517000  0.68416000  1.0 -0.0409864703
C  C83  1  0.49338000  0.18406000  0.77829000  1.0 0.0778838253
C  C84  1  0.52024000  0.16318000  0.67160000  1.0 -0.0936901415
C  C85  1  0.49402000  0.21639000  0.82750000  1.0 0.0191793857
C  C86  1  0.52070000  0.19289000  0.71960000  1.0 -0.1571673448
C  C87  1  0.49414000  0.21601000  0.91350000  1.0 0.025179437
C  C88  1  0.46339000  0.11593000  0.74220000  1.0 -0.0989208514
C  C89  1  0.46420000  0.14540000  0.78850000  1.0 -0.1571673448
C  C90  1  0.49696000  0.18651000  0.95860000  1.0 -0.1670283372
C  C91  1  0.09313000  0.60088000  0.63473000  1.0 0.6294443985
C  C92  1  0.12517000  0.63321000  0.68416000  1.0 -0.0409864703
C  C93  1  0.18406000  0.69068000  0.77829000  1.0 0.0778838253
C  C94  1  0.16318000  0.64294000  0.67160000  1.0 -0.0936901415
C  C95  1  0.21639000  0.72237000  0.82750000  1.0 0.0191793857
C  C96  1  0.19289000  0.67219000  0.71960000  1.0 -0.1571673448
C  C97  1  0.21601000  0.72187000  0.91350000  1.0 0.025179437
C  C98  1  0.11593000  0.65254000  0.74220000  1.0 -0.0989208514
C  C99  1  0.14540000  0.68120000  0.78850000  1.0 -0.1571673448
C  C100  1  0.18651000  0.68955000  0.95860000  1.0 -0.1670283372
C  C101  1  0.39912000  0.49225000  0.63473000  1.0 0.6294443985
C  C102  1  0.36679000  0.49196000  0.68416000  1.0 -0.0409864703
C  C103  1  0.30932000  0.49338000  0.77829000  1.0 0.0778838253
C  C104  1  0.35706000  0.52024000  0.67160000  1.0 -0.0936901415
C  C105  1  0.27763000  0.49402000  0.82750000  1.0 0.0191793857
C  C106  1  0.32781000  0.52070000  0.71960000  1.0 -0.1571673448
C  C107  1  0.27813000  0.49414000  0.91350000  1.0 0.025179437
C  C108  1  0.34746000  0.46339000  0.74220000  1.0 -0.0989208514
C  C109  1  0.31880000  0.46420000  0.78850000  1.0 -0.1571673448
C  C110  1  0.31045000  0.49696000  0.95860000  1.0 -0.1670283372
C  C111  1  0.50775000  0.90687000  0.63473000  1.0 0.6294443985
C  C112  1  0.50804000  0.87483000  0.68416000  1.0 -0.0409864703
C  C113  1  0.50662000  0.81594000  0.77829000  1.0 0.0778838253
C  C114  1  0.47976000  0.83682000  0.67160000  1.0 -0.0936901415
C  C115  1  0.50598000  0.78361000  0.82750000  1.0 0.0191793857
C  C116  1  0.47930000  0.80711000  0.71960000  1.0 -0.1571673448
C  C117  1  0.50586000  0.78399000  0.91350000  1.0 0.025179437
C  C118  1  0.53661000  0.88407000  0.74220000  1.0 -0.0989208514
C  C119  1  0.53580000  0.85460000  0.78850000  1.0 -0.1571673448
C  C120  1  0.50304000  0.81349000  0.95860000  1.0 -0.1670283372
C  C121  1  0.49225000  0.39912000  0.63473000  1.0 0.6294443985
C  C122  1  0.49196000  0.36679000  0.68416000  1.0 -0.0409864703
C  C123  1  0.49338000  0.30932000  0.77829000  1.0 0.0778838253
C  C124  1  0.52024000  0.35706000  0.67160000  1.0 -0.0936901415
C  C125  1  0.49402000  0.27763000  0.82750000  1.0 0.0191793857
C  C126  1  0.52070000  0.32781000  0.71960000  1.0 -0.1571673448
C  C127  1  0.49414000  0.27813000  0.91350000  1.0 0.025179437
C  C128  1  0.46339000  0.34746000  0.74220000  1.0 -0.0989208514
C  C129  1  0.46420000  0.31880000  0.78850000  1.0 -0.1571673448
C  C130  1  0.49696000  0.31045000  0.95860000  1.0 -0.1670283372
C  C131  1  0.90687000  0.50775000  0.63473000  1.0 0.6294443985
C  C132  1  0.87483000  0.50804000  0.68416000  1.0 -0.0409864703
C  C133  1  0.81594000  0.50662000  0.77829000  1.0 0.0778838253
C  C134  1  0.83682000  0.47976000  0.67160000  1.0 -0.0936901415
C  C135  1  0.78361000  0.50598000  0.82750000  1.0 0.0191793857
C  C136  1  0.80711000  0.47930000  0.71960000  1.0 -0.1571673448
C  C137  1  0.78399000  0.50586000  0.91350000  1.0 0.025179437
C  C138  1  0.88407000  0.53661000  0.74220000  1.0 -0.0989208514
C  C139  1  0.85460000  0.53580000  0.78850000  1.0 -0.1571673448
C  C140  1  0.81349000  0.50304000  0.95860000  1.0 -0.1670283372
C  C141  1  0.60088000  0.09313000  0.63473000  1.0 0.6294443985
C  C142  1  0.63321000  0.12517000  0.68416000  1.0 -0.0409864703
C  C143  1  0.69068000  0.18406000  0.77829000  1.0 0.0778838253
C  C144  1  0.64294000  0.16318000  0.67160000  1.0 -0.0936901415
C  C145  1  0.72237000  0.21639000  0.82750000  1.0 0.0191793857
C  C146  1  0.67219000  0.19289000  0.71960000  1.0 -0.1571673448
C  C147  1  0.72187000  0.21601000  0.91350000  1.0 0.025179437
C  C148  1  0.65254000  0.11593000  0.74220000  1.0 -0.0989208514
C  C149  1  0.68120000  0.14540000  0.78850000  1.0 -0.1571673448
C  C150  1  0.68955000  0.18651000  0.95860000  1.0 -0.1670283372
C  C151  1  0.50775000  0.60088000  0.63473000  1.0 0.6294443985
C  C152  1  0.50804000  0.63321000  0.68416000  1.0 -0.0409864703
C  C153  1  0.50662000  0.69068000  0.77829000  1.0 0.0778838253
C  C154  1  0.47976000  0.64294000  0.67160000  1.0 -0.0936901415
C  C155  1  0.50598000  0.72237000  0.82750000  1.0 0.0191793857
C  C156  1  0.47930000  0.67219000  0.71960000  1.0 -0.1571673448
C  C157  1  0.50586000  0.72187000  0.91350000  1.0 0.025179437
C  C158  1  0.53661000  0.65254000  0.74220000  1.0 -0.0989208514
C  C159  1  0.53580000  0.68120000  0.78850000  1.0 -0.1571673448
C  C160  1  0.50304000  0.68955000  0.95860000  1.0 -0.1670283372
C  C161  1  0.09313000  0.49225000  0.63473000  1.0 0.6294443985
C  C162  1  0.12517000  0.49196000  0.68416000  1.0 -0.0409864703
C  C163  1  0.18406000  0.49338000  0.77829000  1.0 0.0778838253
C  C164  1  0.16318000  0.52024000  0.67160000  1.0 -0.0936901415
C  C165  1  0.21639000  0.49402000  0.82750000  1.0 0.0191793857
C  C166  1  0.19289000  0.52070000  0.71960000  1.0 -0.1571673448
C  C167  1  0.21601000  0.49414000  0.91350000  1.0 0.025179437
C  C168  1  0.11593000  0.46339000  0.74220000  1.0 -0.0989208514
C  C169  1  0.14540000  0.46420000  0.78850000  1.0 -0.1571673448
C  C170  1  0.18651000  0.49696000  0.95860000  1.0 -0.1670283372
C  C171  1  0.39912000  0.90687000  0.63473000  1.0 0.6294443985
C  C172  1  0.36679000  0.87483000  0.68416000  1.0 -0.0409864703
C  C173  1  0.30932000  0.81594000  0.77829000  1.0 0.0778838253
C  C174  1  0.35706000  0.83682000  0.67160000  1.0 -0.0936901415
C  C175  1  0.27763000  0.78361000  0.82750000  1.0 0.0191793857
C  C176  1  0.32781000  0.80711000  0.71960000  1.0 -0.1571673448
C  C177  1  0.27813000  0.78399000  0.91350000  1.0 0.025179437
C  C178  1  0.34746000  0.88407000  0.74220000  1.0 -0.0989208514
C  C179  1  0.31880000  0.85460000  0.78850000  1.0 -0.1571673448
C  C180  1  0.31045000  0.81349000  0.95860000  1.0 -0.1670283372
C  C181  1  0.09313000  0.60088000  0.36527000  1.0 0.6294443985
C  C182  1  0.12517000  0.63321000  0.31584000  1.0 -0.0409864703
C  C183  1  0.18406000  0.69068000  0.22171000  1.0 0.0778838253
C  C184  1  0.16318000  0.64294000  0.32840000  1.0 -0.0936901415
C  C185  1  0.21639000  0.72237000  0.17250000  1.0 0.0191793857
C  C186  1  0.19289000  0.67219000  0.28040000  1.0 -0.1571673448
C  C187  1  0.21601000  0.72187000  0.08650000  1.0 0.025179437
C  C188  1  0.11593000  0.65254000  0.25780000  1.0 -0.0989208514
C  C189  1  0.14540000  0.68120000  0.21150000  1.0 -0.1571673448
C  C190  1  0.18651000  0.68955000  0.04140000  1.0 -0.1670283372
C  C191  1  0.39912000  0.49225000  0.36527000  1.0 0.6294443985
C  C192  1  0.36679000  0.49196000  0.31584000  1.0 -0.0409864703
C  C193  1  0.30932000  0.49338000  0.22171000  1.0 0.0778838253
C  C194  1  0.35706000  0.52024000  0.32840000  1.0 -0.0936901415
C  C195  1  0.27763000  0.49402000  0.17250000  1.0 0.0191793857
C  C196  1  0.32781000  0.52070000  0.28040000  1.0 -0.1571673448
C  C197  1  0.27813000  0.49414000  0.08650000  1.0 0.025179437
C  C198  1  0.34746000  0.46339000  0.25780000  1.0 -0.0989208514
C  C199  1  0.31880000  0.46420000  0.21150000  1.0 -0.1571673448
C  C200  1  0.31045000  0.49696000  0.04140000  1.0 -0.1670283372
C  C201  1  0.50775000  0.90687000  0.36527000  1.0 0.6294443985
C  C202  1  0.50804000  0.87483000  0.31584000  1.0 -0.0409864703
C  C203  1  0.50662000  0.81594000  0.22171000  1.0 0.0778838253
C  C204  1  0.47976000  0.83682000  0.32840000  1.0 -0.0936901415
C  C205  1  0.50598000  0.78361000  0.17250000  1.0 0.0191793857
C  C206  1  0.47930000  0.80711000  0.28040000  1.0 -0.1571673448
C  C207  1  0.50586000  0.78399000  0.08650000  1.0 0.025179437
C  C208  1  0.53661000  0.88407000  0.25780000  1.0 -0.0989208514
C  C209  1  0.53580000  0.85460000  0.21150000  1.0 -0.1571673448
C  C210  1  0.50304000  0.81349000  0.04140000  1.0 -0.1670283372
C  C211  1  0.90687000  0.39912000  0.36527000  1.0 0.6294443985
C  C212  1  0.87483000  0.36679000  0.31584000  1.0 -0.0409864703
C  C213  1  0.81594000  0.30932000  0.22171000  1.0 0.0778838253
C  C214  1  0.83682000  0.35706000  0.32840000  1.0 -0.0936901415
C  C215  1  0.78361000  0.27763000  0.17250000  1.0 0.0191793857
C  C216  1  0.80711000  0.32781000  0.28040000  1.0 -0.1571673448
C  C217  1  0.78399000  0.27813000  0.08650000  1.0 0.025179437
C  C218  1  0.88407000  0.34746000  0.25780000  1.0 -0.0989208514
C  C219  1  0.85460000  0.31880000  0.21150000  1.0 -0.1571673448
C  C220  1  0.81349000  0.31045000  0.04140000  1.0 -0.1670283372
C  C221  1  0.60088000  0.50775000  0.36527000  1.0 0.6294443985
C  C222  1  0.63321000  0.50804000  0.31584000  1.0 -0.0409864703
C  C223  1  0.69068000  0.50662000  0.22171000  1.0 0.0778838253
C  C224  1  0.64294000  0.47976000  0.32840000  1.0 -0.0936901415
C  C225  1  0.72237000  0.50598000  0.17250000  1.0 0.0191793857
C  C226  1  0.67219000  0.47930000  0.28040000  1.0 -0.1571673448
C  C227  1  0.72187000  0.50586000  0.08650000  1.0 0.025179437
C  C228  1  0.65254000  0.53661000  0.25780000  1.0 -0.0989208514
C  C229  1  0.68120000  0.53580000  0.21150000  1.0 -0.1571673448
C  C230  1  0.68955000  0.50304000  0.04140000  1.0 -0.1670283372
C  C231  1  0.49225000  0.09313000  0.36527000  1.0 0.6294443985
C  C232  1  0.49196000  0.12517000  0.31584000  1.0 -0.0409864703
C  C233  1  0.49338000  0.18406000  0.22171000  1.0 0.0778838253
C  C234  1  0.52024000  0.16318000  0.32840000  1.0 -0.0936901415
C  C235  1  0.49402000  0.21639000  0.17250000  1.0 0.0191793857
C  C236  1  0.52070000  0.19289000  0.28040000  1.0 -0.1571673448
C  C237  1  0.49414000  0.21601000  0.08650000  1.0 0.025179437
C  C238  1  0.46339000  0.11593000  0.25780000  1.0 -0.0989208514
C  C239  1  0.46420000  0.14540000  0.21150000  1.0 -0.1571673448
C  C240  1  0.49696000  0.18651000  0.04140000  1.0 -0.1670283372
C  C241  1  0.50670000  0.75335000  0.21290000  1.0 -0.1928846383
C  C242  1  0.50640000  0.75320000  0.04390000  1.0 0.0067107368
C  C243  1  0.24665000  0.49330000  0.21290000  1.0 -0.1928846383
C  C244  1  0.24680000  0.49360000  0.04390000  1.0 0.0067107368
C  C245  1  0.24665000  0.75335000  0.21290000  1.0 -0.1928846383
C  C246  1  0.24680000  0.75320000  0.04390000  1.0 0.0067107368
C  C247  1  0.49330000  0.24665000  0.21290000  1.0 -0.1928846383
C  C248  1  0.49360000  0.24680000  0.04390000  1.0 0.0067107368
C  C249  1  0.75335000  0.50670000  0.21290000  1.0 -0.1928846383
C  C250  1  0.75320000  0.50640000  0.04390000  1.0 0.0067107368
C  C251  1  0.75335000  0.24665000  0.21290000  1.0 -0.1928846383
C  C252  1  0.75320000  0.24680000  0.04390000  1.0 0.0067107368
C  C253  1  0.75335000  0.24665000  0.78710000  1.0 -0.1928846383
C  C254  1  0.75320000  0.24680000  0.95610000  1.0 0.0067107368
C  C255  1  0.75335000  0.50670000  0.78710000  1.0 -0.1928846383
C  C256  1  0.75320000  0.50640000  0.95610000  1.0 0.0067107368
C  C257  1  0.49330000  0.24665000  0.78710000  1.0 -0.1928846383
C  C258  1  0.49360000  0.24680000  0.95610000  1.0 0.0067107368
C  C259  1  0.24665000  0.75335000  0.78710000  1.0 -0.1928846383
C  C260  1  0.24680000  0.75320000  0.95610000  1.0 0.0067107368
C  C261  1  0.24665000  0.49330000  0.78710000  1.0 -0.1928846383
C  C262  1  0.24680000  0.49360000  0.95610000  1.0 0.0067107368
C  C263  1  0.50670000  0.75335000  0.78710000  1.0 -0.1928846383
C  C264  1  0.50640000  0.75320000  0.95610000  1.0 0.0067107368
C  C265  1  0.61530000  0.61530000  0.50000000  1.0 0.8131321525
C  C266  1  0.00000000  0.38470000  0.50000000  1.0 0.8131321525
C  C267  1  0.38470000  0.00000000  0.50000000  1.0 0.8224357819
C  C268  1  0.38470000  0.38470000  0.50000000  1.0 0.8131321525
C  C269  1  0.00000000  0.61530000  0.50000000  1.0 0.8131321525
C  C270  1  0.61530000  0.00000000  0.50000000  1.0 0.8224357819
O  O1  1  0.48148000  0.58564000  0.41832000  1.0 -0.5811677719
O  O2  1  0.53372000  0.59208000  0.34954000  1.0 -0.5733105286
O  O3  1  0.10416000  0.51852000  0.41832000  1.0 -0.5811677719
O  O4  1  0.05836000  0.46628000  0.34954000  1.0 -0.5733105286
O  O5  1  0.41436000  0.89584000  0.41832000  1.0 -0.5811677719
O  O6  1  0.40792000  0.94164000  0.34954000  1.0 -0.5733105286
O  O7  1  0.51852000  0.41436000  0.41832000  1.0 -0.5811677719
O  O8  1  0.46628000  0.40792000  0.34954000  1.0 -0.5733105286
O  O9  1  0.89584000  0.48148000  0.41832000  1.0 -0.5811677719
O  O10  1  0.94164000  0.53372000  0.34954000  1.0 -0.5733105286
O  O11  1  0.58564000  0.10416000  0.41832000  1.0 -0.5811677719
O  O12  1  0.59208000  0.05836000  0.34954000  1.0 -0.5733105286
O  O13  1  0.89584000  0.41436000  0.58168000  1.0 -0.5811677719
O  O14  1  0.94164000  0.40792000  0.65046000  1.0 -0.5733105286
O  O15  1  0.58564000  0.48148000  0.58168000  1.0 -0.5811677719
O  O16  1  0.59208000  0.53372000  0.65046000  1.0 -0.5733105286
O  O17  1  0.51852000  0.10416000  0.58168000  1.0 -0.5811677719
O  O18  1  0.46628000  0.05836000  0.65046000  1.0 -0.5733105286
O  O19  1  0.10416000  0.58564000  0.58168000  1.0 -0.5811677719
O  O20  1  0.05836000  0.59208000  0.65046000  1.0 -0.5733105286
O  O21  1  0.41436000  0.51852000  0.58168000  1.0 -0.5811677719
O  O22  1  0.40792000  0.46628000  0.65046000  1.0 -0.5733105286
O  O23  1  0.48148000  0.89584000  0.58168000  1.0 -0.5811677719
O  O24  1  0.53372000  0.94164000  0.65046000  1.0 -0.5733105286
O  O25  1  0.51852000  0.41436000  0.58168000  1.0 -0.5811677719
O  O26  1  0.46628000  0.40792000  0.65046000  1.0 -0.5733105286
O  O27  1  0.89584000  0.48148000  0.58168000  1.0 -0.5811677719
O  O28  1  0.94164000  0.53372000  0.65046000  1.0 -0.5733105286
O  O29  1  0.58564000  0.10416000  0.58168000  1.0 -0.5811677719
O  O30  1  0.59208000  0.05836000  0.65046000  1.0 -0.5733105286
O  O31  1  0.48148000  0.58564000  0.58168000  1.0 -0.5811677719
O  O32  1  0.53372000  0.59208000  0.65046000  1.0 -0.5733105286
O  O33  1  0.10416000  0.51852000  0.58168000  1.0 -0.5811677719
O  O34  1  0.05836000  0.46628000  0.65046000  1.0 -0.5733105286
O  O35  1  0.41436000  0.89584000  0.58168000  1.0 -0.5811677719
O  O36  1  0.40792000  0.94164000  0.65046000  1.0 -0.5733105286
O  O37  1  0.10416000  0.58564000  0.41832000  1.0 -0.5811677719
O  O38  1  0.05836000  0.59208000  0.34954000  1.0 -0.5733105286
O  O39  1  0.41436000  0.51852000  0.41832000  1.0 -0.5811677719
O  O40  1  0.40792000  0.46628000  0.34954000  1.0 -0.5733105286
O  O41  1  0.48148000  0.89584000  0.41832000  1.0 -0.5811677719
O  O42  1  0.53372000  0.94164000  0.34954000  1.0 -0.5733105286
O  O43  1  0.89584000  0.41436000  0.41832000  1.0 -0.5811677719
O  O44  1  0.94164000  0.40792000  0.34954000  1.0 -0.5733105286
O  O45  1  0.58564000  0.48148000  0.41832000  1.0 -0.5811677719
O  O46  1  0.59208000  0.53372000  0.34954000  1.0 -0.5733105286
O  O47  1  0.51852000  0.10416000  0.41832000  1.0 -0.5811677719
O  O48  1  0.46628000  0.05836000  0.34954000  1.0 -0.5733105286
O  O49  1  0.60005000  0.60005000  0.59010000  1.0 -0.753977784
O  O50  1  0.54172000  0.54172000  0.74191000  1.0 -0.7061664904
O  O51  1  0.00000000  0.39995000  0.59010000  1.0 -0.753977784
O  O52  1  0.00000000  0.45828000  0.74191000  1.0 -0.7061664904
O  O53  1  0.39995000  0.00000000  0.59010000  1.0 -0.7584925139
O  O54  1  0.45828000  0.00000000  0.74191000  1.0 -0.7061664904
O  O55  1  0.39995000  0.39995000  0.59010000  1.0 -0.753977784
O  O56  1  0.45828000  0.45828000  0.74191000  1.0 -0.7061664904
O  O57  1  0.00000000  0.60005000  0.59010000  1.0 -0.753977784
O  O58  1  0.00000000  0.54172000  0.74191000  1.0 -0.7061664904
O  O59  1  0.60005000  0.00000000  0.59010000  1.0 -0.7584925139
O  O60  1  0.54172000  0.00000000  0.74191000  1.0 -0.7061664904
O  O61  1  0.00000000  0.39995000  0.40990000  1.0 -0.753977784
O  O62  1  0.00000000  0.45828000  0.25809000  1.0 -0.7061664904
O  O63  1  0.60005000  0.60005000  0.40990000  1.0 -0.753977784
O  O64  1  0.54172000  0.54172000  0.25809000  1.0 -0.7061664904
O  O65  1  0.39995000  0.00000000  0.40990000  1.0 -0.753977784
O  O66  1  0.45828000  0.00000000  0.25809000  1.0 -0.7061664904
O  O67  1  0.00000000  0.60005000  0.40990000  1.0 -0.753977784
O  O68  1  0.00000000  0.54172000  0.25809000  1.0 -0.7061664904
O  O69  1  0.39995000  0.39995000  0.40990000  1.0 -0.753977784
O  O70  1  0.45828000  0.45828000  0.25809000  1.0 -0.7061664904
O  O71  1  0.60005000  0.00000000  0.40990000  1.0 -0.753977784
O  O72  1  0.54172000  0.00000000  0.25809000  1.0 -0.7061664904
O  O73  1  0.52784000  0.56316000  0.50000000  1.0 -1.1503441874
O  O74  1  0.03532000  0.47216000  0.50000000  1.0 -1.1503441874
O  O75  1  0.43684000  0.96468000  0.50000000  1.0 -1.1503441874
O  O76  1  0.47216000  0.43684000  0.50000000  1.0 -1.1503441874
O  O77  1  0.96468000  0.52784000  0.50000000  1.0 -1.1503441874
O  O78  1  0.56316000  0.03532000  0.50000000  1.0 -1.1503441874
O  O79  1  0.96468000  0.43684000  0.50000000  1.0 -1.1503441874
O  O80  1  0.56316000  0.52784000  0.50000000  1.0 -1.1503441874
O  O81  1  0.47216000  0.03532000  0.50000000  1.0 -1.1503441874
O  O82  1  0.03532000  0.56316000  0.50000000  1.0 -1.1503441874
O  O83  1  0.43684000  0.47216000  0.50000000  1.0 -1.1503441874
O  O84  1  0.52784000  0.96468000  0.50000000  1.0 -1.1503441874
O  O85  1  0.48259000  0.51741000  0.60760000  1.0 -1.1117988671
O  O86  1  0.03483000  0.51741000  0.60760000  1.0 -1.1117988671
O  O87  1  0.48259000  0.96517000  0.60760000  1.0 -1.1117988671
O  O88  1  0.51741000  0.48259000  0.60760000  1.0 -1.1117988671
O  O89  1  0.96517000  0.48259000  0.60760000  1.0 -1.1117988671
O  O90  1  0.51741000  0.03483000  0.60760000  1.0 -1.1117988671
O  O91  1  0.96517000  0.48259000  0.39240000  1.0 -1.1117988671
O  O92  1  0.51741000  0.48259000  0.39240000  1.0 -1.1117988671
O  O93  1  0.51741000  0.03483000  0.39240000  1.0 -1.1117988671
O  O94  1  0.03483000  0.51741000  0.39240000  1.0 -1.1117988671
O  O95  1  0.48259000  0.51741000  0.39240000  1.0 -1.1117988671
O  O96  1  0.48259000  0.96517000  0.39240000  1.0 -1.1117988671
