# DDEC6 charges by PACMAN v1.1 (https://github.com/mtap-research/PACMAN-charge/)
data_DAXDIT_ASR_pacman
_symmetry_space_group_name_H-M   'P 1'
_cell_length_a   28.13780000
_cell_length_b   28.13780000
_cell_length_c   28.13780000
_cell_angle_alpha   90.00000000
_cell_angle_beta   90.00000000
_cell_angle_gamma   90.00000000
_symmetry_Int_Tables_number   1
_chemical_formula_structural   Zr3Mo4H40(C5O2)8
_chemical_formula_sum   'Zr18 Mo24 H240 C240 O96'
_cell_volume   22277.70327922
_cell_formula_units_Z   6
loop_
 _symmetry_equiv_pos_site_id
 _symmetry_equiv_pos_as_xyz
  1  'x, y, z'
loop_
 _atom_site_type_symbol
 _atom_site_label
 _atom_site_symmetry_multiplicity
 _atom_site_fract_x
 _atom_site_fract_y
 _atom_site_fract_z
 _atom_site_occupancy
 _atom_site_charge
Zr  Zr1  1  0.43722000  0.43722000  0.00000000  1.0 2.4357154053
Zr  Zr2  1  0.56278000  0.56278000  0.00000000  1.0 2.4357154053
Zr  Zr3  1  0.56278000  0.43722000  0.00000000  1.0 2.4357154053
Zr  Zr4  1  0.43722000  0.56278000  0.00000000  1.0 2.4357154053
Zr  Zr5  1  0.00000000  0.43722000  0.43722000  1.0 2.4357154053
Zr  Zr6  1  0.00000000  0.56278000  0.56278000  1.0 2.4357154053
Zr  Zr7  1  0.00000000  0.56278000  0.43722000  1.0 2.4357154053
Zr  Zr8  1  0.00000000  0.43722000  0.56278000  1.0 2.4357154053
Zr  Zr9  1  0.43722000  0.00000000  0.43722000  1.0 2.4357154053
Zr  Zr10  1  0.56278000  0.00000000  0.56278000  1.0 2.4357154053
Zr  Zr11  1  0.43722000  0.00000000  0.56278000  1.0 2.4357154053
Zr  Zr12  1  0.56278000  0.00000000  0.43722000  1.0 2.4357154053
Zr  Zr13  1  0.50000000  0.50000000  0.91271000  1.0 2.3708008808
Zr  Zr14  1  0.50000000  0.50000000  0.08729000  1.0 2.3708008808
Zr  Zr15  1  0.91271000  0.50000000  0.50000000  1.0 2.3708008808
Zr  Zr16  1  0.08729000  0.50000000  0.50000000  1.0 2.3708008808
Zr  Zr17  1  0.50000000  0.91271000  0.50000000  1.0 2.3708008808
Zr  Zr18  1  0.50000000  0.08729000  0.50000000  1.0 2.3708008808
Mo  Mo1  1  0.67350000  0.50000000  0.02110000  1.0 0.2643439781
Mo  Mo2  1  0.32650000  0.50000000  0.02110000  1.0 0.2643439781
Mo  Mo3  1  0.32650000  0.50000000  0.97890000  1.0 0.2643439781
Mo  Mo4  1  0.67350000  0.50000000  0.97890000  1.0 0.2643439781
Mo  Mo5  1  0.02110000  0.67350000  0.50000000  1.0 0.2643439781
Mo  Mo6  1  0.02110000  0.32650000  0.50000000  1.0 0.2643439781
Mo  Mo7  1  0.97890000  0.32650000  0.50000000  1.0 0.2643439781
Mo  Mo8  1  0.97890000  0.67350000  0.50000000  1.0 0.2643439781
Mo  Mo9  1  0.50000000  0.02110000  0.67350000  1.0 0.2643439781
Mo  Mo10  1  0.50000000  0.02110000  0.32650000  1.0 0.2643439781
Mo  Mo11  1  0.50000000  0.97890000  0.32650000  1.0 0.2643439781
Mo  Mo12  1  0.50000000  0.97890000  0.67350000  1.0 0.2658245844
Mo  Mo13  1  0.50000000  0.67350000  0.97890000  1.0 0.2643439781
Mo  Mo14  1  0.50000000  0.32650000  0.97890000  1.0 0.2643439781
Mo  Mo15  1  0.50000000  0.32650000  0.02110000  1.0 0.2643439781
Mo  Mo16  1  0.50000000  0.67350000  0.02110000  1.0 0.2643439781
Mo  Mo17  1  0.67350000  0.02110000  0.50000000  1.0 0.2643439781
Mo  Mo18  1  0.32650000  0.02110000  0.50000000  1.0 0.2643439781
Mo  Mo19  1  0.32650000  0.97890000  0.50000000  1.0 0.2658245844
Mo  Mo20  1  0.67350000  0.97890000  0.50000000  1.0 0.2658245844
Mo  Mo21  1  0.02110000  0.50000000  0.32650000  1.0 0.2643439781
Mo  Mo22  1  0.02110000  0.50000000  0.67350000  1.0 0.2643439781
Mo  Mo23  1  0.97890000  0.50000000  0.67350000  1.0 0.2643439781
Mo  Mo24  1  0.97890000  0.50000000  0.32650000  1.0 0.2643439781
H  H1  1  0.41521000  0.26186000  0.71618000  1.0 0.0551301399
H  H2  1  0.38233000  0.22783000  0.74772000  1.0 0.0416279685
H  H3  1  0.39789000  0.27878000  0.76764000  1.0 0.0416279685
H  H4  1  0.58479000  0.73814000  0.71618000  1.0 0.0551301399
H  H5  1  0.61767000  0.77217000  0.74772000  1.0 0.0416279685
H  H6  1  0.60211000  0.72122000  0.76764000  1.0 0.0416279685
H  H7  1  0.58479000  0.26186000  0.28382000  1.0 0.0551301399
H  H8  1  0.61767000  0.22783000  0.25228000  1.0 0.0416279685
H  H9  1  0.60211000  0.27878000  0.23236000  1.0 0.0416279685
H  H10  1  0.41521000  0.73814000  0.28382000  1.0 0.0551301399
H  H11  1  0.38233000  0.77217000  0.25228000  1.0 0.0416279685
H  H12  1  0.39789000  0.72122000  0.23236000  1.0 0.0416279685
H  H13  1  0.71618000  0.41521000  0.26186000  1.0 0.0551301399
H  H14  1  0.74772000  0.38233000  0.22783000  1.0 0.0416279685
H  H15  1  0.76764000  0.39789000  0.27878000  1.0 0.0416279685
H  H16  1  0.71618000  0.58479000  0.73814000  1.0 0.0551301399
H  H17  1  0.74772000  0.61767000  0.77217000  1.0 0.0416279685
H  H18  1  0.76764000  0.60211000  0.72122000  1.0 0.0416279685
H  H19  1  0.28382000  0.58479000  0.26186000  1.0 0.0551301399
H  H20  1  0.25228000  0.61767000  0.22783000  1.0 0.0416279685
H  H21  1  0.23236000  0.60211000  0.27878000  1.0 0.0416279685
H  H22  1  0.28382000  0.41521000  0.73814000  1.0 0.0551301399
H  H23  1  0.25228000  0.38233000  0.77217000  1.0 0.0416279685
H  H24  1  0.23236000  0.39789000  0.72122000  1.0 0.0416279685
H  H25  1  0.26186000  0.71618000  0.41521000  1.0 0.0551301399
H  H26  1  0.22783000  0.74772000  0.38233000  1.0 0.0416279685
H  H27  1  0.27878000  0.76764000  0.39789000  1.0 0.0416279685
H  H28  1  0.73814000  0.71618000  0.58479000  1.0 0.0551301399
H  H29  1  0.77217000  0.74772000  0.61767000  1.0 0.0416279685
H  H30  1  0.72122000  0.76764000  0.60211000  1.0 0.0416279685
H  H31  1  0.26186000  0.28382000  0.58479000  1.0 0.0551301399
H  H32  1  0.22783000  0.25228000  0.61767000  1.0 0.0416279685
H  H33  1  0.27878000  0.23236000  0.60211000  1.0 0.0416279685
H  H34  1  0.73814000  0.28382000  0.41521000  1.0 0.0551301399
H  H35  1  0.77217000  0.25228000  0.38233000  1.0 0.0416279685
H  H36  1  0.72122000  0.23236000  0.39789000  1.0 0.0416279685
H  H37  1  0.26186000  0.41521000  0.28382000  1.0 0.0551301399
H  H38  1  0.22783000  0.38233000  0.25228000  1.0 0.0416279685
H  H39  1  0.27878000  0.39789000  0.23236000  1.0 0.0416279685
H  H40  1  0.73814000  0.58479000  0.28382000  1.0 0.0551301399
H  H41  1  0.77217000  0.61767000  0.25228000  1.0 0.0416279685
H  H42  1  0.72122000  0.60211000  0.23236000  1.0 0.0416279685
H  H43  1  0.26186000  0.58479000  0.71618000  1.0 0.0551301399
H  H44  1  0.22783000  0.61767000  0.74772000  1.0 0.0416279685
H  H45  1  0.27878000  0.60211000  0.76764000  1.0 0.0416279685
H  H46  1  0.73814000  0.41521000  0.71618000  1.0 0.0551301399
H  H47  1  0.77217000  0.38233000  0.74772000  1.0 0.0416279685
H  H48  1  0.72122000  0.39789000  0.76764000  1.0 0.0416279685
H  H49  1  0.41521000  0.71618000  0.73814000  1.0 0.0551301399
H  H50  1  0.38233000  0.74772000  0.77217000  1.0 0.0416279685
H  H51  1  0.39789000  0.76764000  0.72122000  1.0 0.0416279685
H  H52  1  0.58479000  0.71618000  0.26186000  1.0 0.0551301399
H  H53  1  0.61767000  0.74772000  0.22783000  1.0 0.0416279685
H  H54  1  0.60211000  0.76764000  0.27878000  1.0 0.0416279685
H  H55  1  0.58479000  0.28382000  0.73814000  1.0 0.0551301399
H  H56  1  0.61767000  0.25228000  0.77217000  1.0 0.0416279685
H  H57  1  0.60211000  0.23236000  0.72122000  1.0 0.0416279685
H  H58  1  0.41521000  0.28382000  0.26186000  1.0 0.0551301399
H  H59  1  0.38233000  0.25228000  0.22783000  1.0 0.0416279685
H  H60  1  0.39789000  0.23236000  0.27878000  1.0 0.0416279685
H  H61  1  0.71618000  0.26186000  0.58479000  1.0 0.0551301399
H  H62  1  0.74772000  0.22783000  0.61767000  1.0 0.0416279685
H  H63  1  0.76764000  0.27878000  0.60211000  1.0 0.0416279685
H  H64  1  0.71618000  0.73814000  0.41521000  1.0 0.0551301399
H  H65  1  0.74772000  0.77217000  0.38233000  1.0 0.0416279685
H  H66  1  0.76764000  0.72122000  0.39789000  1.0 0.0416279685
H  H67  1  0.28382000  0.26186000  0.41521000  1.0 0.0551301399
H  H68  1  0.25228000  0.22783000  0.38233000  1.0 0.0416279685
H  H69  1  0.23236000  0.27878000  0.39789000  1.0 0.0416279685
H  H70  1  0.28382000  0.73814000  0.58479000  1.0 0.0551301399
H  H71  1  0.25228000  0.77217000  0.61767000  1.0 0.0416279685
H  H72  1  0.23236000  0.72122000  0.60211000  1.0 0.0416279685
H  H73  1  0.58479000  0.73814000  0.28382000  1.0 0.0551301399
H  H74  1  0.61767000  0.77217000  0.25228000  1.0 0.0416279685
H  H75  1  0.60211000  0.72122000  0.23236000  1.0 0.0416279685
H  H76  1  0.41521000  0.26186000  0.28382000  1.0 0.0551301399
H  H77  1  0.38233000  0.22783000  0.25228000  1.0 0.0416279685
H  H78  1  0.39789000  0.27878000  0.23236000  1.0 0.0416279685
H  H79  1  0.41521000  0.73814000  0.71618000  1.0 0.0551301399
H  H80  1  0.38233000  0.77217000  0.74772000  1.0 0.0416279685
H  H81  1  0.39789000  0.72122000  0.76764000  1.0 0.0416279685
H  H82  1  0.58479000  0.26186000  0.71618000  1.0 0.0551301399
H  H83  1  0.61767000  0.22783000  0.74772000  1.0 0.0416279685
H  H84  1  0.60211000  0.27878000  0.76764000  1.0 0.0416279685
H  H85  1  0.28382000  0.58479000  0.73814000  1.0 0.0551301399
H  H86  1  0.25228000  0.61767000  0.77217000  1.0 0.0416279685
H  H87  1  0.23236000  0.60211000  0.72122000  1.0 0.0416279685
H  H88  1  0.28382000  0.41521000  0.26186000  1.0 0.0551301399
H  H89  1  0.25228000  0.38233000  0.22783000  1.0 0.0416279685
H  H90  1  0.23236000  0.39789000  0.27878000  1.0 0.0416279685
H  H91  1  0.71618000  0.41521000  0.73814000  1.0 0.0551301399
H  H92  1  0.74772000  0.38233000  0.77217000  1.0 0.0416279685
H  H93  1  0.76764000  0.39789000  0.72122000  1.0 0.0416279685
H  H94  1  0.71618000  0.58479000  0.26186000  1.0 0.0551301399
H  H95  1  0.74772000  0.61767000  0.22783000  1.0 0.0416279685
H  H96  1  0.76764000  0.60211000  0.27878000  1.0 0.0416279685
H  H97  1  0.73814000  0.28382000  0.58479000  1.0 0.0551301399
H  H98  1  0.77217000  0.25228000  0.61767000  1.0 0.0416279685
H  H99  1  0.72122000  0.23236000  0.60211000  1.0 0.0416279685
H  H100  1  0.26186000  0.28382000  0.41521000  1.0 0.0551301399
H  H101  1  0.22783000  0.25228000  0.38233000  1.0 0.0416279685
H  H102  1  0.27878000  0.23236000  0.39789000  1.0 0.0416279685
H  H103  1  0.73814000  0.71618000  0.41521000  1.0 0.0551301399
H  H104  1  0.77217000  0.74772000  0.38233000  1.0 0.0416279685
H  H105  1  0.72122000  0.76764000  0.39789000  1.0 0.0416279685
H  H106  1  0.26186000  0.71618000  0.58479000  1.0 0.0551301399
H  H107  1  0.22783000  0.74772000  0.61767000  1.0 0.0416279685
H  H108  1  0.27878000  0.76764000  0.60211000  1.0 0.0416279685
H  H109  1  0.73814000  0.58479000  0.71618000  1.0 0.0551301399
H  H110  1  0.77217000  0.61767000  0.74772000  1.0 0.0416279685
H  H111  1  0.72122000  0.60211000  0.76764000  1.0 0.0416279685
H  H112  1  0.26186000  0.41521000  0.71618000  1.0 0.0551301399
H  H113  1  0.22783000  0.38233000  0.74772000  1.0 0.0416279685
H  H114  1  0.27878000  0.39789000  0.76764000  1.0 0.0416279685
H  H115  1  0.73814000  0.41521000  0.28382000  1.0 0.0551301399
H  H116  1  0.77217000  0.38233000  0.25228000  1.0 0.0416279685
H  H117  1  0.72122000  0.39789000  0.23236000  1.0 0.0416279685
H  H118  1  0.26186000  0.58479000  0.28382000  1.0 0.0551301399
H  H119  1  0.22783000  0.61767000  0.25228000  1.0 0.0416279685
H  H120  1  0.27878000  0.60211000  0.23236000  1.0 0.0416279685
H  H121  1  0.58479000  0.28382000  0.26186000  1.0 0.0551301399
H  H122  1  0.61767000  0.25228000  0.22783000  1.0 0.0416279685
H  H123  1  0.60211000  0.23236000  0.27878000  1.0 0.0416279685
H  H124  1  0.41521000  0.28382000  0.73814000  1.0 0.0551301399
H  H125  1  0.38233000  0.25228000  0.77217000  1.0 0.0416279685
H  H126  1  0.39789000  0.23236000  0.72122000  1.0 0.0416279685
H  H127  1  0.41521000  0.71618000  0.26186000  1.0 0.0551301399
H  H128  1  0.38233000  0.74772000  0.22783000  1.0 0.0416279685
H  H129  1  0.39789000  0.76764000  0.27878000  1.0 0.0416279685
H  H130  1  0.58479000  0.71618000  0.73814000  1.0 0.0551301399
H  H131  1  0.61767000  0.74772000  0.77217000  1.0 0.0416279685
H  H132  1  0.60211000  0.76764000  0.72122000  1.0 0.0416279685
H  H133  1  0.28382000  0.73814000  0.41521000  1.0 0.0551301399
H  H134  1  0.25228000  0.77217000  0.38233000  1.0 0.0416279685
H  H135  1  0.23236000  0.72122000  0.39789000  1.0 0.0416279685
H  H136  1  0.28382000  0.26186000  0.58479000  1.0 0.0551301399
H  H137  1  0.25228000  0.22783000  0.61767000  1.0 0.0416279685
H  H138  1  0.23236000  0.27878000  0.60211000  1.0 0.0416279685
H  H139  1  0.71618000  0.73814000  0.58479000  1.0 0.0551301399
H  H140  1  0.74772000  0.77217000  0.61767000  1.0 0.0416279685
H  H141  1  0.76764000  0.72122000  0.60211000  1.0 0.0416279685
H  H142  1  0.71618000  0.26186000  0.41521000  1.0 0.0551301399
H  H143  1  0.74772000  0.22783000  0.38233000  1.0 0.0416279685
H  H144  1  0.76764000  0.27878000  0.39789000  1.0 0.0416279685
H  H145  1  0.35613000  0.35613000  0.89089000  1.0 0.129303995
H  H146  1  0.42879000  0.42879000  0.79378000  1.0 0.1225503727
H  H147  1  0.31634000  0.31634000  0.83019000  1.0 0.1546832802
H  H148  1  0.38882000  0.38882000  0.73533000  1.0 0.1546832802
H  H149  1  0.64387000  0.64387000  0.89089000  1.0 0.129303995
H  H150  1  0.57121000  0.57121000  0.79378000  1.0 0.1225503727
H  H151  1  0.68366000  0.68366000  0.83019000  1.0 0.1546832802
H  H152  1  0.61118000  0.61118000  0.73533000  1.0 0.1546832802
H  H153  1  0.64387000  0.35613000  0.10911000  1.0 0.129303995
H  H154  1  0.57121000  0.42879000  0.20622000  1.0 0.1225503727
H  H155  1  0.68366000  0.31634000  0.16981000  1.0 0.1546832802
H  H156  1  0.61118000  0.38882000  0.26467000  1.0 0.155499695
H  H157  1  0.35613000  0.64387000  0.10911000  1.0 0.129303995
H  H158  1  0.42879000  0.57121000  0.20622000  1.0 0.1225503727
H  H159  1  0.31634000  0.68366000  0.16981000  1.0 0.1546832802
H  H160  1  0.38882000  0.61118000  0.26467000  1.0 0.155499695
H  H161  1  0.89089000  0.35613000  0.35613000  1.0 0.129303995
H  H162  1  0.79378000  0.42879000  0.42879000  1.0 0.1225503727
H  H163  1  0.83019000  0.31634000  0.31634000  1.0 0.1546832802
H  H164  1  0.73533000  0.38882000  0.38882000  1.0 0.155499695
H  H165  1  0.89089000  0.64387000  0.64387000  1.0 0.129303995
H  H166  1  0.79378000  0.57121000  0.57121000  1.0 0.1225503727
H  H167  1  0.83019000  0.68366000  0.68366000  1.0 0.1546832802
H  H168  1  0.73533000  0.61118000  0.61118000  1.0 0.1546832802
H  H169  1  0.10911000  0.64387000  0.35613000  1.0 0.129303995
H  H170  1  0.20622000  0.57121000  0.42879000  1.0 0.1225503727
H  H171  1  0.16981000  0.68366000  0.31634000  1.0 0.1546832802
H  H172  1  0.26467000  0.61118000  0.38882000  1.0 0.155499695
H  H173  1  0.10911000  0.35613000  0.64387000  1.0 0.129303995
H  H174  1  0.20622000  0.42879000  0.57121000  1.0 0.1225503727
H  H175  1  0.16981000  0.31634000  0.68366000  1.0 0.1546832802
H  H176  1  0.26467000  0.38882000  0.61118000  1.0 0.1546832802
H  H177  1  0.35613000  0.89089000  0.35613000  1.0 0.129303995
H  H178  1  0.42879000  0.79378000  0.42879000  1.0 0.1225503727
H  H179  1  0.31634000  0.83019000  0.31634000  1.0 0.1546832802
H  H180  1  0.38882000  0.73533000  0.38882000  1.0 0.155499695
H  H181  1  0.64387000  0.89089000  0.64387000  1.0 0.129303995
H  H182  1  0.57121000  0.79378000  0.57121000  1.0 0.1225503727
H  H183  1  0.68366000  0.83019000  0.68366000  1.0 0.1546832802
H  H184  1  0.61118000  0.73533000  0.61118000  1.0 0.1546832802
H  H185  1  0.35613000  0.10911000  0.64387000  1.0 0.129303995
H  H186  1  0.42879000  0.20622000  0.57121000  1.0 0.1225503727
H  H187  1  0.31634000  0.16981000  0.68366000  1.0 0.1546832802
H  H188  1  0.38882000  0.26467000  0.61118000  1.0 0.1546832802
H  H189  1  0.64387000  0.10911000  0.35613000  1.0 0.129303995
H  H190  1  0.57121000  0.20622000  0.42879000  1.0 0.1225503727
H  H191  1  0.68366000  0.16981000  0.31634000  1.0 0.1546832802
H  H192  1  0.61118000  0.26467000  0.38882000  1.0 0.155499695
H  H193  1  0.35613000  0.35613000  0.10911000  1.0 0.129303995
H  H194  1  0.42879000  0.42879000  0.20622000  1.0 0.1225503727
H  H195  1  0.31634000  0.31634000  0.16981000  1.0 0.1546832802
H  H196  1  0.38882000  0.38882000  0.26467000  1.0 0.155499695
H  H197  1  0.64387000  0.64387000  0.10911000  1.0 0.129303995
H  H198  1  0.57121000  0.57121000  0.20622000  1.0 0.1225503727
H  H199  1  0.68366000  0.68366000  0.16981000  1.0 0.1546832802
H  H200  1  0.61118000  0.61118000  0.26467000  1.0 0.155499695
H  H201  1  0.35613000  0.64387000  0.89089000  1.0 0.129303995
H  H202  1  0.42879000  0.57121000  0.79378000  1.0 0.1225503727
H  H203  1  0.31634000  0.68366000  0.83019000  1.0 0.1546832802
H  H204  1  0.38882000  0.61118000  0.73533000  1.0 0.1546832802
H  H205  1  0.64387000  0.35613000  0.89089000  1.0 0.129303995
H  H206  1  0.57121000  0.42879000  0.79378000  1.0 0.1225503727
H  H207  1  0.68366000  0.31634000  0.83019000  1.0 0.1546832802
H  H208  1  0.61118000  0.38882000  0.73533000  1.0 0.1546832802
H  H209  1  0.35613000  0.89089000  0.64387000  1.0 0.129303995
H  H210  1  0.42879000  0.79378000  0.57121000  1.0 0.1225503727
H  H211  1  0.31634000  0.83019000  0.68366000  1.0 0.1546832802
H  H212  1  0.38882000  0.73533000  0.61118000  1.0 0.1546832802
H  H213  1  0.64387000  0.89089000  0.35613000  1.0 0.129303995
H  H214  1  0.57121000  0.79378000  0.42879000  1.0 0.1225503727
H  H215  1  0.68366000  0.83019000  0.31634000  1.0 0.1546832802
H  H216  1  0.61118000  0.73533000  0.38882000  1.0 0.155499695
H  H217  1  0.64387000  0.10911000  0.64387000  1.0 0.129303995
H  H218  1  0.57121000  0.20622000  0.57121000  1.0 0.1225503727
H  H219  1  0.68366000  0.16981000  0.68366000  1.0 0.1546832802
H  H220  1  0.61118000  0.26467000  0.61118000  1.0 0.1546832802
H  H221  1  0.35613000  0.10911000  0.35613000  1.0 0.129303995
H  H222  1  0.42879000  0.20622000  0.42879000  1.0 0.1225503727
H  H223  1  0.31634000  0.16981000  0.31634000  1.0 0.1546832802
H  H224  1  0.38882000  0.26467000  0.38882000  1.0 0.155499695
H  H225  1  0.89089000  0.35613000  0.64387000  1.0 0.129303995
H  H226  1  0.79378000  0.42879000  0.57121000  1.0 0.1225503727
H  H227  1  0.83019000  0.31634000  0.68366000  1.0 0.1546832802
H  H228  1  0.73533000  0.38882000  0.61118000  1.0 0.1546832802
H  H229  1  0.89089000  0.64387000  0.35613000  1.0 0.129303995
H  H230  1  0.79378000  0.57121000  0.42879000  1.0 0.1225503727
H  H231  1  0.83019000  0.68366000  0.31634000  1.0 0.1546832802
H  H232  1  0.73533000  0.61118000  0.38882000  1.0 0.155499695
H  H233  1  0.10911000  0.35613000  0.35613000  1.0 0.129303995
H  H234  1  0.20622000  0.42879000  0.42879000  1.0 0.1225503727
H  H235  1  0.16981000  0.31634000  0.31634000  1.0 0.1546832802
H  H236  1  0.26467000  0.38882000  0.38882000  1.0 0.155499695
H  H237  1  0.10911000  0.64387000  0.64387000  1.0 0.129303995
H  H238  1  0.20622000  0.57121000  0.57121000  1.0 0.1225503727
H  H239  1  0.16981000  0.68366000  0.68366000  1.0 0.1546832802
H  H240  1  0.26467000  0.61118000  0.61118000  1.0 0.1546832802
C  C1  1  0.32400000  0.32400000  0.73730000  1.0 -0.0490007703
C  C2  1  0.34840000  0.34840000  0.77660000  1.0 0.0416279685
C  C3  1  0.42220000  0.42220000  0.88640000  1.0 0.6179964227
C  C4  1  0.39640000  0.39640000  0.85060000  1.0 -0.0490007703
C  C5  1  0.36370000  0.36370000  0.85890000  1.0 -0.0392617285
C  C6  1  0.40570000  0.40570000  0.80230000  1.0 -0.0085595126
C  C7  1  0.33950000  0.33950000  0.82220000  1.0 -0.1239637589
C  C8  1  0.38170000  0.38170000  0.76750000  1.0 -0.1478376668
C  C9  1  0.67600000  0.67600000  0.73730000  1.0 -0.0490007703
C  C10  1  0.65160000  0.65160000  0.77660000  1.0 0.0416279685
C  C11  1  0.57780000  0.57780000  0.88640000  1.0 0.6179964227
C  C12  1  0.60360000  0.60360000  0.85060000  1.0 -0.0490007703
C  C13  1  0.63630000  0.63630000  0.85890000  1.0 -0.0392617285
C  C14  1  0.59430000  0.59430000  0.80230000  1.0 -0.0085595126
C  C15  1  0.66050000  0.66050000  0.82220000  1.0 -0.1239637589
C  C16  1  0.61830000  0.61830000  0.76750000  1.0 -0.1478376668
C  C17  1  0.67600000  0.32400000  0.26270000  1.0 -0.0490007703
C  C18  1  0.65160000  0.34840000  0.22340000  1.0 0.0416279685
C  C19  1  0.57780000  0.42220000  0.11360000  1.0 0.6179964227
C  C20  1  0.60360000  0.39640000  0.14940000  1.0 -0.0490007703
C  C21  1  0.63630000  0.36370000  0.14110000  1.0 -0.0392617285
C  C22  1  0.59430000  0.40570000  0.19770000  1.0 -0.0085595126
C  C23  1  0.66050000  0.33950000  0.17780000  1.0 -0.1239637589
C  C24  1  0.61830000  0.38170000  0.23250000  1.0 -0.1478376668
C  C25  1  0.32400000  0.67600000  0.26270000  1.0 -0.0490007703
C  C26  1  0.34840000  0.65160000  0.22340000  1.0 0.0416279685
C  C27  1  0.42220000  0.57780000  0.11360000  1.0 0.6179964227
C  C28  1  0.39640000  0.60360000  0.14940000  1.0 -0.0490007703
C  C29  1  0.36370000  0.63630000  0.14110000  1.0 -0.0392617285
C  C30  1  0.40570000  0.59430000  0.19770000  1.0 -0.0085595126
C  C31  1  0.33950000  0.66050000  0.17780000  1.0 -0.1239637589
C  C32  1  0.38170000  0.61830000  0.23250000  1.0 -0.1478376668
C  C33  1  0.73730000  0.32400000  0.32400000  1.0 -0.0490007703
C  C34  1  0.77660000  0.34840000  0.34840000  1.0 0.0416279685
C  C35  1  0.88640000  0.42220000  0.42220000  1.0 0.6179964227
C  C36  1  0.85060000  0.39640000  0.39640000  1.0 -0.0490007703
C  C37  1  0.85890000  0.36370000  0.36370000  1.0 -0.0392617285
C  C38  1  0.80230000  0.40570000  0.40570000  1.0 -0.0085595126
C  C39  1  0.82220000  0.33950000  0.33950000  1.0 -0.1239637589
C  C40  1  0.76750000  0.38170000  0.38170000  1.0 -0.1478376668
C  C41  1  0.73730000  0.67600000  0.67600000  1.0 -0.0490007703
C  C42  1  0.77660000  0.65160000  0.65160000  1.0 0.0416279685
C  C43  1  0.88640000  0.57780000  0.57780000  1.0 0.6179964227
C  C44  1  0.85060000  0.60360000  0.60360000  1.0 -0.0490007703
C  C45  1  0.85890000  0.63630000  0.63630000  1.0 -0.0392617285
C  C46  1  0.80230000  0.59430000  0.59430000  1.0 -0.0085595126
C  C47  1  0.82220000  0.66050000  0.66050000  1.0 -0.1239637589
C  C48  1  0.76750000  0.61830000  0.61830000  1.0 -0.1478376668
C  C49  1  0.26270000  0.67600000  0.32400000  1.0 -0.0490007703
C  C50  1  0.22340000  0.65160000  0.34840000  1.0 0.0416279685
C  C51  1  0.11360000  0.57780000  0.42220000  1.0 0.6179964227
C  C52  1  0.14940000  0.60360000  0.39640000  1.0 -0.0490007703
C  C53  1  0.14110000  0.63630000  0.36370000  1.0 -0.0392617285
C  C54  1  0.19770000  0.59430000  0.40570000  1.0 -0.0085595126
C  C55  1  0.17780000  0.66050000  0.33950000  1.0 -0.1239637589
C  C56  1  0.23250000  0.61830000  0.38170000  1.0 -0.1478376668
C  C57  1  0.26270000  0.32400000  0.67600000  1.0 -0.0490007703
C  C58  1  0.22340000  0.34840000  0.65160000  1.0 0.0416279685
C  C59  1  0.11360000  0.42220000  0.57780000  1.0 0.6179964227
C  C60  1  0.14940000  0.39640000  0.60360000  1.0 -0.0490007703
C  C61  1  0.14110000  0.36370000  0.63630000  1.0 -0.0392617285
C  C62  1  0.19770000  0.40570000  0.59430000  1.0 -0.0085595126
C  C63  1  0.17780000  0.33950000  0.66050000  1.0 -0.1239637589
C  C64  1  0.23250000  0.38170000  0.61830000  1.0 -0.1478376668
C  C65  1  0.32400000  0.73730000  0.32400000  1.0 -0.0490007703
C  C66  1  0.34840000  0.77660000  0.34840000  1.0 0.0416279685
C  C67  1  0.42220000  0.88640000  0.42220000  1.0 0.6179964227
C  C68  1  0.39640000  0.85060000  0.39640000  1.0 -0.0490007703
C  C69  1  0.36370000  0.85890000  0.36370000  1.0 -0.0392617285
C  C70  1  0.40570000  0.80230000  0.40570000  1.0 -0.0085595126
C  C71  1  0.33950000  0.82220000  0.33950000  1.0 -0.1239637589
C  C72  1  0.38170000  0.76750000  0.38170000  1.0 -0.1478376668
C  C73  1  0.67600000  0.73730000  0.67600000  1.0 -0.0490007703
C  C74  1  0.65160000  0.77660000  0.65160000  1.0 0.0416279685
C  C75  1  0.57780000  0.88640000  0.57780000  1.0 0.6179964227
C  C76  1  0.60360000  0.85060000  0.60360000  1.0 -0.0490007703
C  C77  1  0.63630000  0.85890000  0.63630000  1.0 -0.0392617285
C  C78  1  0.59430000  0.80230000  0.59430000  1.0 -0.0085595126
C  C79  1  0.66050000  0.82220000  0.66050000  1.0 -0.1239637589
C  C80  1  0.61830000  0.76750000  0.61830000  1.0 -0.1478376668
C  C81  1  0.32400000  0.26270000  0.67600000  1.0 -0.0490007703
C  C82  1  0.34840000  0.22340000  0.65160000  1.0 0.0416279685
C  C83  1  0.42220000  0.11360000  0.57780000  1.0 0.6179964227
C  C84  1  0.39640000  0.14940000  0.60360000  1.0 -0.0490007703
C  C85  1  0.36370000  0.14110000  0.63630000  1.0 -0.0392617285
C  C86  1  0.40570000  0.19770000  0.59430000  1.0 -0.0085595126
C  C87  1  0.33950000  0.17780000  0.66050000  1.0 -0.1239637589
C  C88  1  0.38170000  0.23250000  0.61830000  1.0 -0.1478376668
C  C89  1  0.67600000  0.26270000  0.32400000  1.0 -0.0490007703
C  C90  1  0.65160000  0.22340000  0.34840000  1.0 0.0416279685
C  C91  1  0.57780000  0.11360000  0.42220000  1.0 0.6179964227
C  C92  1  0.60360000  0.14940000  0.39640000  1.0 -0.0490007703
C  C93  1  0.63630000  0.14110000  0.36370000  1.0 -0.0392617285
C  C94  1  0.59430000  0.19770000  0.40570000  1.0 -0.0085595126
C  C95  1  0.66050000  0.17780000  0.33950000  1.0 -0.1239637589
C  C96  1  0.61830000  0.23250000  0.38170000  1.0 -0.1478376668
C  C97  1  0.32400000  0.32400000  0.26270000  1.0 -0.0490007703
C  C98  1  0.34840000  0.34840000  0.22340000  1.0 0.0416279685
C  C99  1  0.42220000  0.42220000  0.11360000  1.0 0.6179964227
C  C100  1  0.39640000  0.39640000  0.14940000  1.0 -0.0490007703
C  C101  1  0.36370000  0.36370000  0.14110000  1.0 -0.0392617285
C  C102  1  0.40570000  0.40570000  0.19770000  1.0 -0.0085595126
C  C103  1  0.33950000  0.33950000  0.17780000  1.0 -0.1239637589
C  C104  1  0.38170000  0.38170000  0.23250000  1.0 -0.1478376668
C  C105  1  0.67600000  0.67600000  0.26270000  1.0 -0.0490007703
C  C106  1  0.65160000  0.65160000  0.22340000  1.0 0.0416279685
C  C107  1  0.57780000  0.57780000  0.11360000  1.0 0.6179964227
C  C108  1  0.60360000  0.60360000  0.14940000  1.0 -0.0490007703
C  C109  1  0.63630000  0.63630000  0.14110000  1.0 -0.0392617285
C  C110  1  0.59430000  0.59430000  0.19770000  1.0 -0.0085595126
C  C111  1  0.66050000  0.66050000  0.17780000  1.0 -0.1239637589
C  C112  1  0.61830000  0.61830000  0.23250000  1.0 -0.1478376668
C  C113  1  0.32400000  0.67600000  0.73730000  1.0 -0.0490007703
C  C114  1  0.34840000  0.65160000  0.77660000  1.0 0.0416279685
C  C115  1  0.42220000  0.57780000  0.88640000  1.0 0.6179964227
C  C116  1  0.39640000  0.60360000  0.85060000  1.0 -0.0490007703
C  C117  1  0.36370000  0.63630000  0.85890000  1.0 -0.0392617285
C  C118  1  0.40570000  0.59430000  0.80230000  1.0 -0.0085595126
C  C119  1  0.33950000  0.66050000  0.82220000  1.0 -0.1239637589
C  C120  1  0.38170000  0.61830000  0.76750000  1.0 -0.1478376668
C  C121  1  0.67600000  0.32400000  0.73730000  1.0 -0.0490007703
C  C122  1  0.65160000  0.34840000  0.77660000  1.0 0.0416279685
C  C123  1  0.57780000  0.42220000  0.88640000  1.0 0.6179964227
C  C124  1  0.60360000  0.39640000  0.85060000  1.0 -0.0490007703
C  C125  1  0.63630000  0.36370000  0.85890000  1.0 -0.0392617285
C  C126  1  0.59430000  0.40570000  0.80230000  1.0 -0.0085595126
C  C127  1  0.66050000  0.33950000  0.82220000  1.0 -0.1239637589
C  C128  1  0.61830000  0.38170000  0.76750000  1.0 -0.1478376668
C  C129  1  0.32400000  0.73730000  0.67600000  1.0 -0.0490007703
C  C130  1  0.34840000  0.77660000  0.65160000  1.0 0.0416279685
C  C131  1  0.42220000  0.88640000  0.57780000  1.0 0.6179964227
C  C132  1  0.39640000  0.85060000  0.60360000  1.0 -0.0490007703
C  C133  1  0.36370000  0.85890000  0.63630000  1.0 -0.0392617285
C  C134  1  0.40570000  0.80230000  0.59430000  1.0 -0.0085595126
C  C135  1  0.33950000  0.82220000  0.66050000  1.0 -0.1239637589
C  C136  1  0.38170000  0.76750000  0.61830000  1.0 -0.1478376668
C  C137  1  0.67600000  0.73730000  0.32400000  1.0 -0.0490007703
C  C138  1  0.65160000  0.77660000  0.34840000  1.0 0.0454997142
C  C139  1  0.57780000  0.88640000  0.42220000  1.0 0.6179964227
C  C140  1  0.60360000  0.85060000  0.39640000  1.0 -0.0490007703
C  C141  1  0.63630000  0.85890000  0.36370000  1.0 -0.0392617285
C  C142  1  0.59430000  0.80230000  0.40570000  1.0 -0.0085595126
C  C143  1  0.66050000  0.82220000  0.33950000  1.0 -0.1239637589
C  C144  1  0.61830000  0.76750000  0.38170000  1.0 -0.1478376668
C  C145  1  0.67600000  0.26270000  0.67600000  1.0 -0.0490007703
C  C146  1  0.65160000  0.22340000  0.65160000  1.0 0.0416279685
C  C147  1  0.57780000  0.11360000  0.57780000  1.0 0.6179964227
C  C148  1  0.60360000  0.14940000  0.60360000  1.0 -0.0490007703
C  C149  1  0.63630000  0.14110000  0.63630000  1.0 -0.0392617285
C  C150  1  0.59430000  0.19770000  0.59430000  1.0 -0.0085595126
C  C151  1  0.66050000  0.17780000  0.66050000  1.0 -0.1239637589
C  C152  1  0.61830000  0.23250000  0.61830000  1.0 -0.1478376668
C  C153  1  0.32400000  0.26270000  0.32400000  1.0 -0.0490007703
C  C154  1  0.34840000  0.22340000  0.34840000  1.0 0.0416279685
C  C155  1  0.42220000  0.11360000  0.42220000  1.0 0.6179964227
C  C156  1  0.39640000  0.14940000  0.39640000  1.0 -0.0490007703
C  C157  1  0.36370000  0.14110000  0.36370000  1.0 -0.0392617285
C  C158  1  0.40570000  0.19770000  0.40570000  1.0 -0.0085595126
C  C159  1  0.33950000  0.17780000  0.33950000  1.0 -0.1239637589
C  C160  1  0.38170000  0.23250000  0.38170000  1.0 -0.1478376668
C  C161  1  0.73730000  0.32400000  0.67600000  1.0 -0.0490007703
C  C162  1  0.77660000  0.34840000  0.65160000  1.0 0.0416279685
C  C163  1  0.88640000  0.42220000  0.57780000  1.0 0.6179964227
C  C164  1  0.85060000  0.39640000  0.60360000  1.0 -0.0490007703
C  C165  1  0.85890000  0.36370000  0.63630000  1.0 -0.0392617285
C  C166  1  0.80230000  0.40570000  0.59430000  1.0 -0.0085595126
C  C167  1  0.82220000  0.33950000  0.66050000  1.0 -0.1239637589
C  C168  1  0.76750000  0.38170000  0.61830000  1.0 -0.1478376668
C  C169  1  0.73730000  0.67600000  0.32400000  1.0 -0.0490007703
C  C170  1  0.77660000  0.65160000  0.34840000  1.0 0.0454997142
C  C171  1  0.88640000  0.57780000  0.42220000  1.0 0.6179964227
C  C172  1  0.85060000  0.60360000  0.39640000  1.0 -0.0490007703
C  C173  1  0.85890000  0.63630000  0.36370000  1.0 -0.0392617285
C  C174  1  0.80230000  0.59430000  0.40570000  1.0 -0.0085595126
C  C175  1  0.82220000  0.66050000  0.33950000  1.0 -0.1239637589
C  C176  1  0.76750000  0.61830000  0.38170000  1.0 -0.1478376668
C  C177  1  0.26270000  0.32400000  0.32400000  1.0 -0.0490007703
C  C178  1  0.22340000  0.34840000  0.34840000  1.0 0.0416279685
C  C179  1  0.11360000  0.42220000  0.42220000  1.0 0.6179964227
C  C180  1  0.14940000  0.39640000  0.39640000  1.0 -0.0490007703
C  C181  1  0.14110000  0.36370000  0.36370000  1.0 -0.0392617285
C  C182  1  0.19770000  0.40570000  0.40570000  1.0 -0.0085595126
C  C183  1  0.17780000  0.33950000  0.33950000  1.0 -0.1239637589
C  C184  1  0.23250000  0.38170000  0.38170000  1.0 -0.1478376668
C  C185  1  0.26270000  0.67600000  0.67600000  1.0 -0.0490007703
C  C186  1  0.22340000  0.65160000  0.65160000  1.0 0.0416279685
C  C187  1  0.11360000  0.57780000  0.57780000  1.0 0.6179964227
C  C188  1  0.14940000  0.60360000  0.60360000  1.0 -0.0490007703
C  C189  1  0.14110000  0.63630000  0.63630000  1.0 -0.0392617285
C  C190  1  0.19770000  0.59430000  0.59430000  1.0 -0.0085595126
C  C191  1  0.17780000  0.66050000  0.66050000  1.0 -0.1239637589
C  C192  1  0.23250000  0.61830000  0.61830000  1.0 -0.1478376668
C  C193  1  0.34350000  0.28370000  0.71630000  1.0 0.0262019396
C  C194  1  0.38900000  0.26090000  0.73910000  1.0 -0.2576014107
C  C195  1  0.65650000  0.71630000  0.71630000  1.0 0.0262019396
C  C196  1  0.61100000  0.73910000  0.73910000  1.0 -0.2576014107
C  C197  1  0.65650000  0.28370000  0.28370000  1.0 0.0262019396
C  C198  1  0.61100000  0.26090000  0.26090000  1.0 -0.2576014107
C  C199  1  0.34350000  0.71630000  0.28370000  1.0 0.0262019396
C  C200  1  0.38900000  0.73910000  0.26090000  1.0 -0.2576014107
C  C201  1  0.71630000  0.34350000  0.28370000  1.0 0.0262019396
C  C202  1  0.73910000  0.38900000  0.26090000  1.0 -0.2576014107
C  C203  1  0.71630000  0.65650000  0.71630000  1.0 0.0262019396
C  C204  1  0.73910000  0.61100000  0.73910000  1.0 -0.2576014107
C  C205  1  0.28370000  0.65650000  0.28370000  1.0 0.0262019396
C  C206  1  0.26090000  0.61100000  0.26090000  1.0 -0.2576014107
C  C207  1  0.28370000  0.34350000  0.71630000  1.0 0.0262019396
C  C208  1  0.26090000  0.38900000  0.73910000  1.0 -0.2576014107
C  C209  1  0.28370000  0.71630000  0.34350000  1.0 0.0262019396
C  C210  1  0.26090000  0.73910000  0.38900000  1.0 -0.2576014107
C  C211  1  0.71630000  0.71630000  0.65650000  1.0 0.0262019396
C  C212  1  0.73910000  0.73910000  0.61100000  1.0 -0.2576014107
C  C213  1  0.28370000  0.28370000  0.65650000  1.0 0.0262019396
C  C214  1  0.26090000  0.26090000  0.61100000  1.0 -0.2576014107
C  C215  1  0.71630000  0.28370000  0.34350000  1.0 0.0262019396
C  C216  1  0.73910000  0.26090000  0.38900000  1.0 -0.2576014107
C  C217  1  0.28370000  0.34350000  0.28370000  1.0 0.0262019396
C  C218  1  0.26090000  0.38900000  0.26090000  1.0 -0.2576014107
C  C219  1  0.71630000  0.65650000  0.28370000  1.0 0.0262019396
C  C220  1  0.73910000  0.61100000  0.26090000  1.0 -0.2576014107
C  C221  1  0.28370000  0.65650000  0.71630000  1.0 0.0262019396
C  C222  1  0.26090000  0.61100000  0.73910000  1.0 -0.2576014107
C  C223  1  0.71630000  0.34350000  0.71630000  1.0 0.0262019396
C  C224  1  0.73910000  0.38900000  0.73910000  1.0 -0.2576014107
C  C225  1  0.34350000  0.71630000  0.71630000  1.0 0.0262019396
C  C226  1  0.38900000  0.73910000  0.73910000  1.0 -0.2576014107
C  C227  1  0.65650000  0.71630000  0.28370000  1.0 0.0262019396
C  C228  1  0.61100000  0.73910000  0.26090000  1.0 -0.2576014107
C  C229  1  0.65650000  0.28370000  0.71630000  1.0 0.0262019396
C  C230  1  0.61100000  0.26090000  0.73910000  1.0 -0.2576014107
C  C231  1  0.34350000  0.28370000  0.28370000  1.0 0.0262019396
C  C232  1  0.38900000  0.26090000  0.26090000  1.0 -0.2576014107
C  C233  1  0.71630000  0.28370000  0.65650000  1.0 0.0262019396
C  C234  1  0.73910000  0.26090000  0.61100000  1.0 -0.2576014107
C  C235  1  0.71630000  0.71630000  0.34350000  1.0 0.0262019396
C  C236  1  0.73910000  0.73910000  0.38900000  1.0 -0.2576014107
C  C237  1  0.28370000  0.28370000  0.34350000  1.0 0.0262019396
C  C238  1  0.26090000  0.26090000  0.38900000  1.0 -0.2576014107
C  C239  1  0.28370000  0.71630000  0.65650000  1.0 0.0262019396
C  C240  1  0.26090000  0.73910000  0.61100000  1.0 -0.2576014107
O  O1  1  0.50000000  0.43640000  0.95720000  1.0 -1.1474055765
O  O2  1  0.50000000  0.56360000  0.95720000  1.0 -1.1474055765
O  O3  1  0.50000000  0.43640000  0.04280000  1.0 -1.1474055765
O  O4  1  0.50000000  0.56360000  0.04280000  1.0 -1.1474055765
O  O5  1  0.95720000  0.50000000  0.43640000  1.0 -1.1474055765
O  O6  1  0.95720000  0.50000000  0.56360000  1.0 -1.1474055765
O  O7  1  0.04280000  0.50000000  0.43640000  1.0 -1.1474055765
O  O8  1  0.04280000  0.50000000  0.56360000  1.0 -1.1474055765
O  O9  1  0.43640000  0.95720000  0.50000000  1.0 -1.1474055765
O  O10  1  0.56360000  0.95720000  0.50000000  1.0 -1.1474055765
O  O11  1  0.43640000  0.04280000  0.50000000  1.0 -1.1474055765
O  O12  1  0.56360000  0.04280000  0.50000000  1.0 -1.1474055765
O  O13  1  0.43640000  0.50000000  0.04280000  1.0 -1.1474055765
O  O14  1  0.56360000  0.50000000  0.04280000  1.0 -1.1474055765
O  O15  1  0.43640000  0.50000000  0.95720000  1.0 -1.1474055765
O  O16  1  0.56360000  0.50000000  0.95720000  1.0 -1.1474055765
O  O17  1  0.50000000  0.95720000  0.56360000  1.0 -1.1474055765
O  O18  1  0.50000000  0.95720000  0.43640000  1.0 -1.1474055765
O  O19  1  0.50000000  0.04280000  0.56360000  1.0 -1.1474055765
O  O20  1  0.50000000  0.04280000  0.43640000  1.0 -1.1474055765
O  O21  1  0.95720000  0.43640000  0.50000000  1.0 -1.1474055765
O  O22  1  0.95720000  0.56360000  0.50000000  1.0 -1.1474055765
O  O23  1  0.04280000  0.43640000  0.50000000  1.0 -1.1474055765
O  O24  1  0.04280000  0.56360000  0.50000000  1.0 -1.1474055765
O  O25  1  0.36020000  0.44590000  0.00000000  1.0 -0.6463816482
O  O26  1  0.63980000  0.55410000  0.00000000  1.0 -0.6463816482
O  O27  1  0.63980000  0.44590000  0.00000000  1.0 -0.6463816482
O  O28  1  0.36020000  0.55410000  0.00000000  1.0 -0.6463816482
O  O29  1  0.00000000  0.36020000  0.44590000  1.0 -0.6463816482
O  O30  1  0.00000000  0.63980000  0.55410000  1.0 -0.6463816482
O  O31  1  0.00000000  0.63980000  0.44590000  1.0 -0.6463816482
O  O32  1  0.00000000  0.36020000  0.55410000  1.0 -0.6463816482
O  O33  1  0.44590000  0.00000000  0.36020000  1.0 -0.6463816482
O  O34  1  0.55410000  0.00000000  0.63980000  1.0 -0.6463816482
O  O35  1  0.44590000  0.00000000  0.63980000  1.0 -0.6463816482
O  O36  1  0.55410000  0.00000000  0.36020000  1.0 -0.6463816482
O  O37  1  0.44590000  0.36020000  0.00000000  1.0 -0.6463816482
O  O38  1  0.55410000  0.63980000  0.00000000  1.0 -0.6463816482
O  O39  1  0.44590000  0.63980000  0.00000000  1.0 -0.6463816482
O  O40  1  0.55410000  0.36020000  0.00000000  1.0 -0.6463816482
O  O41  1  0.36020000  0.00000000  0.55410000  1.0 -0.6463816482
O  O42  1  0.63980000  0.00000000  0.44590000  1.0 -0.6463816482
O  O43  1  0.63980000  0.00000000  0.55410000  1.0 -0.6463816482
O  O44  1  0.36020000  0.00000000  0.44590000  1.0 -0.6463816482
O  O45  1  0.00000000  0.44590000  0.63980000  1.0 -0.6463816482
O  O46  1  0.00000000  0.55410000  0.36020000  1.0 -0.6463816482
O  O47  1  0.00000000  0.44590000  0.36020000  1.0 -0.6463816482
O  O48  1  0.00000000  0.55410000  0.63980000  1.0 -0.6463816482
O  O49  1  0.45260000  0.45260000  0.87370000  1.0 -0.5782371628
O  O50  1  0.41170000  0.41170000  0.92900000  1.0 -0.5523872368
O  O51  1  0.54740000  0.54740000  0.87370000  1.0 -0.5782371628
O  O52  1  0.58830000  0.58830000  0.92900000  1.0 -0.5523872368
O  O53  1  0.54740000  0.45260000  0.12630000  1.0 -0.5782371628
O  O54  1  0.58830000  0.41170000  0.07100000  1.0 -0.5523872368
O  O55  1  0.45260000  0.54740000  0.12630000  1.0 -0.5782371628
O  O56  1  0.41170000  0.58830000  0.07100000  1.0 -0.5523872368
O  O57  1  0.87370000  0.45260000  0.45260000  1.0 -0.5782371628
O  O58  1  0.92900000  0.41170000  0.41170000  1.0 -0.5523872368
O  O59  1  0.87370000  0.54740000  0.54740000  1.0 -0.5782371628
O  O60  1  0.92900000  0.58830000  0.58830000  1.0 -0.5523872368
O  O61  1  0.12630000  0.54740000  0.45260000  1.0 -0.5782371628
O  O62  1  0.07100000  0.58830000  0.41170000  1.0 -0.5523872368
O  O63  1  0.12630000  0.45260000  0.54740000  1.0 -0.5782371628
O  O64  1  0.07100000  0.41170000  0.58830000  1.0 -0.5523872368
O  O65  1  0.45260000  0.87370000  0.45260000  1.0 -0.5782371628
O  O66  1  0.41170000  0.92900000  0.41170000  1.0 -0.5523872368
O  O67  1  0.54740000  0.87370000  0.54740000  1.0 -0.5782371628
O  O68  1  0.58830000  0.92900000  0.58830000  1.0 -0.5523872368
O  O69  1  0.45260000  0.12630000  0.54740000  1.0 -0.5782371628
O  O70  1  0.41170000  0.07100000  0.58830000  1.0 -0.5523872368
O  O71  1  0.54740000  0.12630000  0.45260000  1.0 -0.5782371628
O  O72  1  0.58830000  0.07100000  0.41170000  1.0 -0.5523872368
O  O73  1  0.45260000  0.45260000  0.12630000  1.0 -0.5782371628
O  O74  1  0.41170000  0.41170000  0.07100000  1.0 -0.5523872368
O  O75  1  0.54740000  0.54740000  0.12630000  1.0 -0.5782371628
O  O76  1  0.58830000  0.58830000  0.07100000  1.0 -0.5523872368
O  O77  1  0.45260000  0.54740000  0.87370000  1.0 -0.5782371628
O  O78  1  0.41170000  0.58830000  0.92900000  1.0 -0.5523872368
O  O79  1  0.54740000  0.45260000  0.87370000  1.0 -0.5782371628
O  O80  1  0.58830000  0.41170000  0.92900000  1.0 -0.5523872368
O  O81  1  0.45260000  0.87370000  0.54740000  1.0 -0.5782371628
O  O82  1  0.41170000  0.92900000  0.58830000  1.0 -0.5523872368
O  O83  1  0.54740000  0.87370000  0.45260000  1.0 -0.5782371628
O  O84  1  0.58830000  0.92900000  0.41170000  1.0 -0.5523872368
O  O85  1  0.54740000  0.12630000  0.54740000  1.0 -0.5782371628
O  O86  1  0.58830000  0.07100000  0.58830000  1.0 -0.5523872368
O  O87  1  0.45260000  0.12630000  0.45260000  1.0 -0.5782371628
O  O88  1  0.41170000  0.07100000  0.41170000  1.0 -0.5523872368
O  O89  1  0.87370000  0.45260000  0.54740000  1.0 -0.5782371628
O  O90  1  0.92900000  0.41170000  0.58830000  1.0 -0.5523872368
O  O91  1  0.87370000  0.54740000  0.45260000  1.0 -0.5782371628
O  O92  1  0.92900000  0.58830000  0.41170000  1.0 -0.5523872368
O  O93  1  0.12630000  0.45260000  0.45260000  1.0 -0.5782371628
O  O94  1  0.07100000  0.41170000  0.41170000  1.0 -0.5523872368
O  O95  1  0.12630000  0.54740000  0.54740000  1.0 -0.5782371628
O  O96  1  0.07100000  0.58830000  0.58830000  1.0 -0.5523872368
