# DDEC6 charges by PACMAN v1.1 (https://github.com/mtap-research/PACMAN-charge/)
data_DAXNIC_FSR_pacman
_chemical_formula_sum              "C64 H64 F32 O40 Ni4 N16 Al4"
_cell_length_a       9.9385
_cell_length_b       9.9385
_cell_length_c       15.4136
_cell_angle_alpha    90
_cell_angle_beta     90
_cell_angle_gamma    90

_symmetry_space_group_name_H-M    "P 1"
_symmetry_Int_Tables_number       1

loop_
  _symmetry_equiv_pos_as_xyz
  'x, y, z'

loop_
  _atom_site_type_symbol
  _atom_site_label
  _atom_site_symmetry_multiplicity
  _atom_site_fract_x
  _atom_site_fract_y
  _atom_site_fract_z
  _atom_site_occupancy
 _atom_site_charge
C   C1        1.0  0.82180  0.22220  0.42980  1.0000 0.0097829535
H   H1        1.0  0.87090  0.20690  0.37940  1.0000 0.0025722915
C   C2        1.0  0.17850  0.22280  0.42940  1.0000 0.0097829535
H   H2        1.0  0.13250  0.20510  0.37800  1.0000 0.0097829535
F   F1        1.0  0.16100  0.06170  0.25000  1.0000 -0.0023029115
O   O1        1.0  0.83900  0.93830  0.75000  1.0000 0.0305608848
C   C3        1.0  0.32180  0.72220  0.92980  1.0000 0.0097829535
H   H3        1.0  0.37090  0.70690  0.87940  1.0000 0.0025722915
C   C4        1.0  0.67850  0.72280  0.92940  1.0000 0.0097829535
H   H4        1.0  0.63250  0.70510  0.87800  1.0000 0.0097829535
F   F2        1.0  0.66100  0.56170  0.75000  1.0000 -0.0023029115
O   O2        1.0  0.33900  0.43830  0.25000  1.0000 0.0305608848
C   C5        1.0  0.17820  0.77780  0.42980  1.0000 0.0097829535
H   H5        1.0  0.12910  0.79310  0.37940  1.0000 0.0097829535
C   C6        1.0  0.82150  0.77720  0.42940  1.0000 0.0025722915
H   H6        1.0  0.86750  0.79490  0.37800  1.0000 0.0097829535
F   F3        1.0  0.83900  0.93830  0.25000  1.0000 0.0305608848
O   O3        1.0  0.16100  0.06170  0.75000  1.0000 0.0707084377
C   C7        1.0  0.67820  0.27780  0.92980  1.0000 0.0097829535
H   H7        1.0  0.62910  0.29310  0.87940  1.0000 0.0097829535
C   C8        1.0  0.32150  0.27720  0.92940  1.0000 0.0025722915
H   H8        1.0  0.36750  0.29490  0.87800  1.0000 0.0097829535
F   F4        1.0  0.33900  0.43830  0.75000  1.0000 0.0305608848
O   O4        1.0  0.66100  0.56170  0.25000  1.0000 0.0707084377
C   C9        1.0  0.77780  0.82180  0.42980  1.0000 0.0097829535
H   H9        1.0  0.79310  0.87090  0.37940  1.0000 0.0097829535
C   C10       1.0  0.77720  0.17850  0.42940  1.0000 0.0097829535
H   H10       1.0  0.79490  0.13250  0.37800  1.0000 0.0097829535
F   F5        1.0  0.93830  0.16100  0.25000  1.0000 0.0097829535
O   O5        1.0  0.06170  0.83900  0.75000  1.0000 0.0405535744
C   C11       1.0  0.27780  0.32180  0.92980  1.0000 0.0097829535
H   H11       1.0  0.29310  0.37090  0.87940  1.0000 0.0097829535
C   C12       1.0  0.27720  0.67850  0.92940  1.0000 0.0097829535
H   H12       1.0  0.29490  0.63250  0.87800  1.0000 0.0097829535
F   F6        1.0  0.43830  0.66100  0.75000  1.0000 0.0025722915
O   O6        1.0  0.56170  0.33900  0.25000  1.0000 0.0405535744
C   C13       1.0  0.22220  0.17820  0.42980  1.0000 0.0097829535
H   H13       1.0  0.20690  0.12910  0.37940  1.0000 0.0025722915
C   C14       1.0  0.22280  0.82150  0.42940  1.0000 0.0097829535
H   H14       1.0  0.20510  0.86750  0.37800  1.0000 0.0097829535
F   F7        1.0  0.06170  0.83900  0.25000  1.0000 0.0185264242
O   O7        1.0  0.93830  0.16100  0.75000  1.0000 0.0615828101
C   C15       1.0  0.72220  0.67820  0.92980  1.0000 0.0097829535
H   H15       1.0  0.70690  0.62910  0.87940  1.0000 0.0025722915
C   C16       1.0  0.72280  0.32150  0.92940  1.0000 0.0097829535
H   H16       1.0  0.70510  0.36750  0.87800  1.0000 0.0097829535
F   F8        1.0  0.56170  0.33900  0.75000  1.0000 0.0185264242
O   O8        1.0  0.43830  0.66100  0.25000  1.0000 0.0615828101
C   C17       1.0  0.17820  0.22220  0.07020  1.0000 0.0097829535
H   H17       1.0  0.12910  0.20690  0.12060  1.0000 0.0025722915
C   C18       1.0  0.82150  0.22280  0.07060  1.0000 0.0097829535
H   H18       1.0  0.86750  0.20510  0.12200  1.0000 0.0097829535
F   F9        1.0  0.83900  0.06170  0.25000  1.0000 0.0185264242
O   O9        1.0  0.16100  0.93830  0.75000  1.0000 0.0615828101
C   C19       1.0  0.67820  0.72220  0.57020  1.0000 0.0097829535
H   H19       1.0  0.62910  0.70690  0.62060  1.0000 0.0025722915
C   C20       1.0  0.32150  0.72280  0.57060  1.0000 0.0097829535
H   H20       1.0  0.36750  0.70510  0.62200  1.0000 0.0097829535
F   F10       1.0  0.33900  0.56170  0.75000  1.0000 0.0185264242
O   O10       1.0  0.66100  0.43830  0.25000  1.0000 0.0615828101
C   C21       1.0  0.82180  0.77780  0.07020  1.0000 0.0097829535
H   H21       1.0  0.87090  0.79310  0.12060  1.0000 0.0097829535
C   C22       1.0  0.17850  0.77720  0.07060  1.0000 0.0097829535
H   H22       1.0  0.13250  0.79490  0.12200  1.0000 0.0097829535
F   F11       1.0  0.16100  0.93830  0.25000  1.0000 0.0025722915
O   O11       1.0  0.83900  0.06170  0.75000  1.0000 0.0405535744
C   C23       1.0  0.32180  0.27780  0.57020  1.0000 0.0097829535
H   H23       1.0  0.37090  0.29310  0.62060  1.0000 0.0097829535
C   C24       1.0  0.67850  0.27720  0.57060  1.0000 0.0097829535
H   H24       1.0  0.63250  0.29490  0.62200  1.0000 0.0097829535
F   F12       1.0  0.66100  0.43830  0.75000  1.0000 0.0025722915
O   O12       1.0  0.33900  0.56170  0.25000  1.0000 0.0405535744
C   C25       1.0  0.22220  0.82180  0.07020  1.0000 0.0097829535
H   H25       1.0  0.20690  0.87090  0.12060  1.0000 0.0025722915
C   C26       1.0  0.22280  0.17850  0.07060  1.0000 0.0097829535
H   H26       1.0  0.20510  0.13250  0.12200  1.0000 0.0097829535
F   F13       1.0  0.06170  0.16100  0.25000  1.0000 -0.0023029115
O   O13       1.0  0.93830  0.83900  0.75000  1.0000 0.0305608848
C   C27       1.0  0.72220  0.32180  0.57020  1.0000 0.0097829535
H   H27       1.0  0.70690  0.37090  0.62060  1.0000 0.0025722915
C   C28       1.0  0.72280  0.67850  0.57060  1.0000 0.0097829535
H   H28       1.0  0.70510  0.63250  0.62200  1.0000 0.0097829535
F   F14       1.0  0.56170  0.66100  0.75000  1.0000 -0.0023029115
O   O14       1.0  0.43830  0.33900  0.25000  1.0000 0.0305608848
C   C29       1.0  0.77780  0.17820  0.07020  1.0000 0.0097829535
H   H29       1.0  0.79310  0.12910  0.12060  1.0000 0.0097829535
C   C30       1.0  0.77720  0.82150  0.07060  1.0000 0.0025722915
H   H30       1.0  0.79490  0.86750  0.12200  1.0000 0.0097829535
F   F15       1.0  0.93830  0.83900  0.25000  1.0000 0.0305608848
O   O15       1.0  0.06170  0.16100  0.75000  1.0000 0.0707084377
C   C31       1.0  0.27780  0.67820  0.57020  1.0000 0.0097829535
H   H31       1.0  0.29310  0.62910  0.62060  1.0000 0.0097829535
C   C32       1.0  0.27720  0.32150  0.57060  1.0000 0.0025722915
H   H32       1.0  0.29490  0.36750  0.62200  1.0000 0.0097829535
F   F16       1.0  0.43830  0.33900  0.75000  1.0000 0.0305608848
O   O16       1.0  0.56170  0.66100  0.25000  1.0000 0.0707084377
C   C33       1.0  0.17820  0.77780  0.57020  1.0000 0.0185264242
H   H33       1.0  0.12910  0.79310  0.62060  1.0000 -0.0023029115
C   C34       1.0  0.82150  0.77720  0.57060  1.0000 0.0097829535
H   H34       1.0  0.86750  0.79490  0.62200  1.0000 -0.0023029115
C   C35       1.0  0.67820  0.27780  0.07020  1.0000 0.0185264242
H   H35       1.0  0.62910  0.29310  0.12060  1.0000 -0.0023029115
C   C36       1.0  0.32150  0.27720  0.07060  1.0000 0.0097829535
H   H36       1.0  0.36750  0.29490  0.12200  1.0000 0.0025722915
C   C37       1.0  0.82180  0.22220  0.57020  1.0000 0.0185264242
H   H37       1.0  0.87090  0.20690  0.62060  1.0000 0.0025722915
C   C38       1.0  0.17850  0.22280  0.57060  1.0000 0.0097829535
H   H38       1.0  0.13250  0.20510  0.62200  1.0000 0.0025722915
C   C39       1.0  0.32180  0.72220  0.07020  1.0000 0.0185264242
H   H39       1.0  0.37090  0.70690  0.12060  1.0000 0.0025722915
C   C40       1.0  0.67850  0.72280  0.07060  1.0000 0.0097829535
H   H40       1.0  0.63250  0.70510  0.12200  1.0000 0.0025722915
C   C41       1.0  0.22220  0.17820  0.57020  1.0000 0.0185264242
H   H41       1.0  0.20690  0.12910  0.62060  1.0000 0.0025722915
C   C42       1.0  0.22280  0.82150  0.57060  1.0000 0.0097829535
H   H42       1.0  0.20510  0.86750  0.62200  1.0000 0.0025722915
C   C43       1.0  0.72220  0.67820  0.07020  1.0000 0.0185264242
H   H43       1.0  0.70690  0.62910  0.12060  1.0000 0.0025722915
C   C44       1.0  0.72280  0.32150  0.07060  1.0000 0.0097829535
H   H44       1.0  0.70510  0.36750  0.12200  1.0000 0.0025722915
C   C45       1.0  0.77780  0.82180  0.57020  1.0000 0.0185264242
H   H45       1.0  0.79310  0.87090  0.62060  1.0000 -0.0023029115
C   C46       1.0  0.77720  0.17850  0.57060  1.0000 0.0097829535
H   H46       1.0  0.79490  0.13250  0.62200  1.0000 0.0025722915
C   C47       1.0  0.27780  0.32180  0.07020  1.0000 0.0185264242
H   H47       1.0  0.29310  0.37090  0.12060  1.0000 -0.0023029115
C   C48       1.0  0.27720  0.67850  0.07060  1.0000 0.0097829535
H   H48       1.0  0.29490  0.63250  0.12200  1.0000 0.0025722915
C   C49       1.0  0.82180  0.77780  0.92980  1.0000 0.0185264242
H   H49       1.0  0.87090  0.79310  0.87940  1.0000 -0.0023029115
C   C50       1.0  0.17850  0.77720  0.92940  1.0000 0.0097829535
H   H50       1.0  0.13250  0.79490  0.87800  1.0000 -0.0023029115
C   C51       1.0  0.32180  0.27780  0.42980  1.0000 0.0185264242
H   H51       1.0  0.37090  0.29310  0.37940  1.0000 -0.0023029115
C   C52       1.0  0.67850  0.27720  0.42940  1.0000 0.0097829535
H   H52       1.0  0.63250  0.29490  0.37800  1.0000 0.0025722915
C   C53       1.0  0.17820  0.22220  0.92980  1.0000 0.0185264242
H   H53       1.0  0.12910  0.20690  0.87940  1.0000 0.0025722915
C   C54       1.0  0.82150  0.22280  0.92940  1.0000 0.0097829535
H   H54       1.0  0.86750  0.20510  0.87800  1.0000 0.0025722915
C   C55       1.0  0.67820  0.72220  0.42980  1.0000 0.0185264242
H   H55       1.0  0.62910  0.70690  0.37940  1.0000 0.0025722915
C   C56       1.0  0.32150  0.72280  0.42940  1.0000 0.0097829535
H   H56       1.0  0.36750  0.70510  0.37800  1.0000 0.0025722915
C   C57       1.0  0.77780  0.17820  0.92980  1.0000 0.0185264242
H   H57       1.0  0.79310  0.12910  0.87940  1.0000 -0.0023029115
C   C58       1.0  0.77720  0.82150  0.92940  1.0000 0.0097829535
H   H58       1.0  0.79490  0.86750  0.87800  1.0000 -0.0023029115
C   C59       1.0  0.27780  0.67820  0.42980  1.0000 0.0185264242
H   H59       1.0  0.29310  0.62910  0.37940  1.0000 -0.0023029115
C   C60       1.0  0.27720  0.32150  0.42940  1.0000 0.0097829535
H   H60       1.0  0.29490  0.36750  0.37800  1.0000 0.0025722915
C   C61       1.0  0.22220  0.82180  0.92980  1.0000 0.0185264242
H   H61       1.0  0.20690  0.87090  0.87940  1.0000 0.0025722915
C   C62       1.0  0.22280  0.17850  0.92940  1.0000 0.0097829535
H   H62       1.0  0.20510  0.13250  0.87800  1.0000 0.0025722915
C   C63       1.0  0.72220  0.32180  0.42980  1.0000 0.0185264242
H   H63       1.0  0.70690  0.37090  0.37940  1.0000 0.0025722915
C   C64       1.0  0.72280  0.67850  0.42940  1.0000 0.0097829535
H   H64       1.0  0.70510  0.63250  0.37800  1.0000 0.0025722915
Ni  Ni1       1.0  0.00000  0.00000  0.50000  1.0000 0.2573443007
Ni  Ni2       1.0  0.50000  0.50000  0.00000  1.0000 0.2573443007
Ni  Ni3       1.0  0.00000  0.00000  0.00000  1.0000 0.2573443007
Ni  Ni4       1.0  0.50000  0.50000  0.50000  1.0000 0.2573443007
N   N1        1.0  0.84969  0.15031  0.50000  1.0000 -0.2067802736
N   N2        1.0  0.34969  0.65031  0.00000  1.0000 -0.2067802736
N   N3        1.0  0.15031  0.84969  0.50000  1.0000 -0.2067802736
N   N4        1.0  0.65031  0.34969  0.00000  1.0000 -0.2067802736
N   N5        1.0  0.84969  0.84969  0.50000  1.0000 -0.2067802736
N   N6        1.0  0.34969  0.34969  0.00000  1.0000 -0.2067802736
N   N7        1.0  0.15031  0.15031  0.50000  1.0000 -0.2067802736
N   N8        1.0  0.65031  0.65031  0.00000  1.0000 -0.2067802736
N   N9        1.0  0.15031  0.15031  0.00000  1.0000 -0.2067802736
N   N10       1.0  0.65031  0.65031  0.50000  1.0000 -0.2067802736
N   N11       1.0  0.84969  0.84969  0.00000  1.0000 -0.2067802736
N   N12       1.0  0.34969  0.34969  0.50000  1.0000 -0.2067802736
N   N13       1.0  0.15031  0.84969  0.00000  1.0000 -0.2067802736
N   N14       1.0  0.65031  0.34969  0.50000  1.0000 -0.2067802736
N   N15       1.0  0.84969  0.15031  0.00000  1.0000 -0.2067802736
N   N16       1.0  0.34969  0.65031  0.50000  1.0000 -0.2067802736
F   F17       1.0  0.00000  0.00000  0.63062  1.0000 -0.5057847846
F   F18       1.0  0.50000  0.50000  0.13062  1.0000 -0.5057847846
F   F19       1.0  0.00000  0.00000  0.86938  1.0000 -0.5057847846
F   F20       1.0  0.50000  0.50000  0.36938  1.0000 -0.5057847846
F   F21       1.0  0.00000  0.00000  0.36938  1.0000 -0.4625160816
F   F22       1.0  0.50000  0.50000  0.86938  1.0000 -0.4625160816
F   F23       1.0  0.00000  0.00000  0.13062  1.0000 -0.4625160816
F   F24       1.0  0.50000  0.50000  0.63062  1.0000 -0.4625160816
Al  Al1       1.0  0.00000  0.00000  0.75000  1.0000 0.6757440817
Al  Al2       1.0  0.50000  0.50000  0.25000  1.0000 0.6709724915
Al  Al3       1.0  0.00000  0.00000  0.25000  1.0000 0.5698549998
Al  Al4       1.0  0.50000  0.50000  0.75000  1.0000 0.5698549998
O   O17       1.0  0.82580  0.00000  0.75000  1.0000 0.0305608848
F   F25       1.0  0.17420  0.00000  0.75000  1.0000 -0.0225369647
O   O18       1.0  0.32580  0.50000  0.25000  1.0000 0.0305608848
F   F26       1.0  0.67420  0.50000  0.25000  1.0000 -0.0225369647
O   O19       1.0  0.00000  0.82580  0.75000  1.0000 0.0305608848
F   F27       1.0  0.00000  0.17420  0.75000  1.0000 -0.0225369647
O   O20       1.0  0.50000  0.32580  0.25000  1.0000 0.0305608848
F   F28       1.0  0.50000  0.67420  0.25000  1.0000 -0.0225369647
O   O21       1.0  0.17420  0.00000  0.25000  1.0000 0.1190472968
F   F29       1.0  0.82580  0.00000  0.25000  1.0000 0.0305608848
O   O22       1.0  0.67420  0.50000  0.75000  1.0000 0.1190472968
F   F30       1.0  0.32580  0.50000  0.75000  1.0000 0.0305608848
O   O23       1.0  0.00000  0.17420  0.25000  1.0000 0.1190472968
F   F31       1.0  0.00000  0.82580  0.25000  1.0000 0.0305608848
O   O24       1.0  0.50000  0.67420  0.75000  1.0000 0.1190472968
F   F32       1.0  0.50000  0.32580  0.75000  1.0000 0.0305608848
O   O25       1.0  0.87870  0.87870  0.75000  1.0000 0.0097829535
O   O26       1.0  0.37870  0.37870  0.25000  1.0000 0.0097829535
O   O27       1.0  0.12130  0.12130  0.75000  1.0000 0.0405535744
O   O28       1.0  0.62130  0.62130  0.25000  1.0000 0.0405535744
O   O29       1.0  0.12130  0.87870  0.75000  1.0000 0.0305608848
O   O30       1.0  0.62130  0.37870  0.25000  1.0000 0.0185264242
O   O31       1.0  0.87870  0.12130  0.75000  1.0000 0.0305608848
O   O32       1.0  0.37870  0.62130  0.25000  1.0000 0.0185264242
O   O33       1.0  0.12130  0.12130  0.25000  1.0000 0.0827237469
O   O34       1.0  0.62130  0.62130  0.75000  1.0000 0.0827237469
O   O35       1.0  0.87870  0.87870  0.25000  1.0000 0.1190472968
O   O36       1.0  0.37870  0.37870  0.75000  1.0000 0.1190472968
O   O37       1.0  0.87870  0.12130  0.25000  1.0000 0.0983721082
O   O38       1.0  0.37870  0.62130  0.75000  1.0000 0.0983721082
O   O39       1.0  0.12130  0.87870  0.25000  1.0000 0.0983721082
O   O40       1.0  0.62130  0.37870  0.75000  1.0000 0.0983721082
  O   O41       1.0  0.16100  0.06170  0.25000  1.0000
  F   F33       1.0  0.83900  0.93830  0.75000  1.0000
  O   O42       1.0  0.66100  0.56170  0.75000  1.0000
  F   F34       1.0  0.33900  0.43830  0.25000  1.0000
  O   O43       1.0  0.83900  0.93830  0.25000  1.0000
  F   F35       1.0  0.16100  0.06170  0.75000  1.0000
  O   O44       1.0  0.33900  0.43830  0.75000  1.0000
  F   F36       1.0  0.66100  0.56170  0.25000  1.0000
  O   O45       1.0  0.93830  0.16100  0.25000  1.0000
  F   F37       1.0  0.06170  0.83900  0.75000  1.0000
  O   O46       1.0  0.43830  0.66100  0.75000  1.0000
  F   F38       1.0  0.56170  0.33900  0.25000  1.0000
  O   O47       1.0  0.06170  0.83900  0.25000  1.0000
  F   F39       1.0  0.93830  0.16100  0.75000  1.0000
  O   O48       1.0  0.56170  0.33900  0.75000  1.0000
  F   F40       1.0  0.43830  0.66100  0.25000  1.0000
  O   O49       1.0  0.83900  0.06170  0.25000  1.0000
  F   F41       1.0  0.16100  0.93830  0.75000  1.0000
  O   O50       1.0  0.33900  0.56170  0.75000  1.0000
  F   F42       1.0  0.66100  0.43830  0.25000  1.0000
  O   O51       1.0  0.16100  0.93830  0.25000  1.0000
  F   F43       1.0  0.83900  0.06170  0.75000  1.0000
  O   O52       1.0  0.66100  0.43830  0.75000  1.0000
  F   F44       1.0  0.33900  0.56170  0.25000  1.0000
  O   O53       1.0  0.06170  0.16100  0.25000  1.0000
  F   F45       1.0  0.93830  0.83900  0.75000  1.0000
  O   O54       1.0  0.56170  0.66100  0.75000  1.0000
  F   F46       1.0  0.43830  0.33900  0.25000  1.0000
  O   O55       1.0  0.93830  0.83900  0.25000  1.0000
  F   F47       1.0  0.06170  0.16100  0.75000  1.0000
  O   O56       1.0  0.43830  0.33900  0.75000  1.0000
  F   F48       1.0  0.56170  0.66100  0.25000  1.0000
  F   F49       1.0  0.82580  0.00000  0.75000  1.0000
  O   O57       1.0  0.17420  0.00000  0.75000  1.0000
  F   F50       1.0  0.32580  0.50000  0.25000  1.0000
  O   O58       1.0  0.67420  0.50000  0.25000  1.0000
  F   F51       1.0  0.00000  0.82580  0.75000  1.0000
  O   O59       1.0  0.00000  0.17420  0.75000  1.0000
  F   F52       1.0  0.50000  0.32580  0.25000  1.0000
  O   O60       1.0  0.50000  0.67420  0.25000  1.0000
  F   F53       1.0  0.17420  0.00000  0.25000  1.0000
  O   O61       1.0  0.82580  0.00000  0.25000  1.0000
  F   F54       1.0  0.67420  0.50000  0.75000  1.0000
  O   O62       1.0  0.32580  0.50000  0.75000  1.0000
  F   F55       1.0  0.00000  0.17420  0.25000  1.0000
  O   O63       1.0  0.00000  0.82580  0.25000  1.0000
  F   F56       1.0  0.50000  0.67420  0.75000  1.0000
  O   O64       1.0  0.50000  0.32580  0.75000  1.0000
  F   F57       1.0  0.87870  0.87870  0.75000  1.0000
  F   F58       1.0  0.37870  0.37870  0.25000  1.0000
  F   F59       1.0  0.12130  0.12130  0.75000  1.0000
  F   F60       1.0  0.62130  0.62130  0.25000  1.0000
  F   F61       1.0  0.12130  0.87870  0.75000  1.0000
  F   F62       1.0  0.62130  0.37870  0.25000  1.0000
  F   F63       1.0  0.87870  0.12130  0.75000  1.0000
  F   F64       1.0  0.37870  0.62130  0.25000  1.0000
  F   F65       1.0  0.12130  0.12130  0.25000  1.0000
  F   F66       1.0  0.62130  0.62130  0.75000  1.0000
  F   F67       1.0  0.87870  0.87870  0.25000  1.0000
  F   F68       1.0  0.37870  0.37870  0.75000  1.0000
  F   F69       1.0  0.87870  0.12130  0.25000  1.0000
  F   F70       1.0  0.37870  0.62130  0.75000  1.0000
  F   F71       1.0  0.12130  0.87870  0.25000  1.0000
  F   F72       1.0  0.62130  0.37870  0.75000  1.0000
