# DDEC6 charges by PACMAN v1.1 (https://github.com/mtap-research/PACMAN-charge/)
data_DAXPAW_FSR_pacman
_chemical_formula_sum              "C16 H16 Ni2 Fe2 F12 N8"
_cell_length_a       9.892
_cell_length_b       9.892
_cell_length_c       7.971
_cell_angle_alpha    90
_cell_angle_beta     90
_cell_angle_gamma    90

_symmetry_space_group_name_H-M    "P 1"
_symmetry_Int_Tables_number       1

loop_
  _symmetry_equiv_pos_as_xyz
  'x, y, z'

loop_
  _atom_site_type_symbol
  _atom_site_label
  _atom_site_symmetry_multiplicity
  _atom_site_fract_x
  _atom_site_fract_y
  _atom_site_fract_z
  _atom_site_occupancy
 _atom_site_charge
C   C1        1.0  0.49200  0.40930  0.37840  1.0000 0.0561644094
H   H1        1.0  0.48940  0.34720  0.29080  1.0000 0.1609266022
C   C2        1.0  0.00800  0.09070  0.37840  1.0000 0.0561644094
H   H2        1.0  0.01060  0.15280  0.29080  1.0000 0.1609266022
C   C3        1.0  0.09070  0.49200  0.37840  1.0000 0.0561644094
H   H3        1.0  0.15280  0.48940  0.29080  1.0000 0.1609266022
C   C4        1.0  0.40930  0.00800  0.37840  1.0000 0.0561644094
H   H4        1.0  0.34720  0.01060  0.29080  1.0000 0.1609266022
C   C5        1.0  0.00800  0.40930  0.62160  1.0000 0.0561644094
H   H5        1.0  0.01060  0.34720  0.70920  1.0000 0.1609266022
C   C6        1.0  0.49200  0.09070  0.62160  1.0000 0.0561644094
H   H6        1.0  0.48940  0.15280  0.70920  1.0000 0.1609266022
C   C7        1.0  0.40930  0.49200  0.62160  1.0000 0.0561644094
H   H7        1.0  0.34720  0.48940  0.70920  1.0000 0.1609266022
C   C8        1.0  0.09070  0.00800  0.62160  1.0000 0.0561644094
H   H8        1.0  0.15280  0.01060  0.70920  1.0000 0.1609266022
C   C9        1.0  0.50800  0.59070  0.62160  1.0000 0.0561644094
H   H9        1.0  0.51060  0.65280  0.70920  1.0000 0.1609266022
C   C10       1.0  0.99200  0.90930  0.62160  1.0000 0.0561644094
H   H10       1.0  0.98940  0.84720  0.70920  1.0000 0.1609266022
C   C11       1.0  0.90930  0.50800  0.62160  1.0000 0.0561644094
H   H11       1.0  0.84720  0.51060  0.70920  1.0000 0.1609266022
C   C12       1.0  0.59070  0.99200  0.62160  1.0000 0.0561644094
H   H12       1.0  0.65280  0.98940  0.70920  1.0000 0.1609266022
C   C13       1.0  0.99200  0.59070  0.37840  1.0000 0.0561644094
H   H13       1.0  0.98940  0.65280  0.29080  1.0000 0.1609266022
C   C14       1.0  0.50800  0.90930  0.37840  1.0000 0.0561644094
H   H14       1.0  0.51060  0.84720  0.29080  1.0000 0.1609266022
C   C15       1.0  0.59070  0.50800  0.37840  1.0000 0.0561644094
H   H15       1.0  0.65280  0.51060  0.29080  1.0000 0.1609266022
C   C16       1.0  0.90930  0.99200  0.37840  1.0000 0.0561644094
H   H16       1.0  0.84720  0.98940  0.29080  1.0000 0.1609266022
Ni  Ni1       1.0  0.25000  0.25000  0.50000  1.0000 0.6783241811
Ni  Ni2       1.0  0.75000  0.75000  0.50000  1.0000 0.6783241811
Fe  Fe1       1.0  0.25000  0.25000  0.00000  1.0000 1.4660701337
Fe  Fe2       1.0  0.75000  0.75000  0.00000  1.0000 1.4660701337
F   F1        1.0  0.25000  0.25000  0.75520  1.0000 -0.5111553786
F   F2        1.0  0.25000  0.25000  0.24480  1.0000 -0.5111553786
F   F3        1.0  0.75000  0.75000  0.24480  1.0000 -0.5111553786
F   F4        1.0  0.75000  0.75000  0.75520  1.0000 -0.5111553786
F   F5        1.0  0.25000  0.05422  0.00000  1.0000 -0.5539195953
F   F6        1.0  0.25000  0.44578  0.00000  1.0000 -0.5539195953
F   F7        1.0  0.44578  0.25000  0.00000  1.0000 -0.5539195953
F   F8        1.0  0.05422  0.25000  0.00000  1.0000 -0.5539195953
F   F9        1.0  0.75000  0.94578  0.00000  1.0000 -0.5539195953
F   F10       1.0  0.75000  0.55422  0.00000  1.0000 -0.5539195953
F   F11       1.0  0.55422  0.75000  0.00000  1.0000 -0.5539195953
F   F12       1.0  0.94578  0.75000  0.00000  1.0000 -0.5539195953
N   N1        1.0  0.40062  0.40062  0.50000  1.0000 -0.1607833175
N   N2        1.0  0.09938  0.09938  0.50000  1.0000 -0.1607833175
N   N3        1.0  0.09938  0.40062  0.50000  1.0000 -0.1607833175
N   N4        1.0  0.40062  0.09938  0.50000  1.0000 -0.1607833175
N   N5        1.0  0.59938  0.59938  0.50000  1.0000 -0.1607833175
N   N6        1.0  0.90062  0.90062  0.50000  1.0000 -0.1607833175
N   N7        1.0  0.90062  0.59938  0.50000  1.0000 -0.1607833175
N   N8        1.0  0.59938  0.90062  0.50000  1.0000 -0.1607833175
  O   O1        1.0  0.25000  0.05422  0.00000  1.0000
  O   O2        1.0  0.25000  0.44578  0.00000  1.0000
  O   O3        1.0  0.44578  0.25000  0.00000  1.0000
  O   O4        1.0  0.05422  0.25000  0.00000  1.0000
  O   O5        1.0  0.75000  0.94578  0.00000  1.0000
  O   O6        1.0  0.75000  0.55422  0.00000  1.0000
  O   O7        1.0  0.55422  0.75000  0.00000  1.0000
  O   O8        1.0  0.94578  0.75000  0.00000  1.0000
