# DDEC6 charges by PACMAN v1.1 (https://github.com/mtap-research/PACMAN-charge/)
data_DAZCAK_ASR_pacman
_symmetry_space_group_name_H-M   'P 1'
_cell_length_a   26.48740000
_cell_length_b   26.48740000
_cell_length_c   26.48740000
_cell_angle_alpha   109.47100000
_cell_angle_beta   109.47100000
_cell_angle_gamma   109.47100000
_symmetry_Int_Tables_number   1
_chemical_formula_structural   Cu2H14C30(NO4)3
_chemical_formula_sum   'Cu24 H168 C360 N36 O144'
_cell_volume   14305.38818515
_cell_formula_units_Z   12
loop_
 _symmetry_equiv_pos_site_id
 _symmetry_equiv_pos_as_xyz
  1  'x, y, z'
loop_
 _atom_site_type_symbol
 _atom_site_label
 _atom_site_symmetry_multiplicity
 _atom_site_fract_x
 _atom_site_fract_y
 _atom_site_fract_z
 _atom_site_occupancy
 _atom_site_charge
Cu  Cu1  1  0.81600000  0.18400000  0.00000000  1.0 0.8841828377
Cu  Cu2  1  0.18400000  0.81600000  0.00000000  1.0 0.8841828377
Cu  Cu3  1  0.81600000  0.81600000  0.63200000  1.0 0.8841828377
Cu  Cu4  1  0.18400000  0.18400000  0.36800000  1.0 0.8841828377
Cu  Cu5  1  0.00000000  0.81600000  0.18400000  1.0 0.8841828377
Cu  Cu6  1  0.00000000  0.18400000  0.81600000  1.0 0.8841828377
Cu  Cu7  1  0.63200000  0.81600000  0.81600000  1.0 0.8841828377
Cu  Cu8  1  0.36800000  0.18400000  0.18400000  1.0 0.8841828377
Cu  Cu9  1  0.18400000  0.00000000  0.81600000  1.0 0.8841828377
Cu  Cu10  1  0.81600000  0.00000000  0.18400000  1.0 0.8841828377
Cu  Cu11  1  0.81600000  0.63200000  0.81600000  1.0 0.8841828377
Cu  Cu12  1  0.18400000  0.36800000  0.18400000  1.0 0.8841828377
Cu  Cu13  1  0.75498000  0.24502000  0.00000000  1.0 0.7367560338
Cu  Cu14  1  0.24502000  0.75498000  0.00000000  1.0 0.7367560338
Cu  Cu15  1  0.75498000  0.75498000  0.50996000  1.0 0.7367560338
Cu  Cu16  1  0.24502000  0.24502000  0.49004000  1.0 0.7367560338
Cu  Cu17  1  0.00000000  0.75498000  0.24502000  1.0 0.7367560338
Cu  Cu18  1  0.00000000  0.24502000  0.75498000  1.0 0.7367560338
Cu  Cu19  1  0.50996000  0.75498000  0.75498000  1.0 0.7367560338
Cu  Cu20  1  0.49004000  0.24502000  0.24502000  1.0 0.7367560338
Cu  Cu21  1  0.24502000  0.00000000  0.75498000  1.0 0.7367560338
Cu  Cu22  1  0.75498000  0.00000000  0.24502000  1.0 0.7367560338
Cu  Cu23  1  0.75498000  0.50996000  0.75498000  1.0 0.7367560338
Cu  Cu24  1  0.24502000  0.49004000  0.24502000  1.0 0.7367560338
H  H1  1  0.97148000  0.54456000  0.21208000  1.0 0.0939511097
H  H2  1  0.33248000  0.75940000  0.78792000  1.0 0.0939511097
H  H3  1  0.66752000  0.45544000  0.42692000  1.0 0.0939511097
H  H4  1  0.02852000  0.24060000  0.57308000  1.0 0.0939511097
H  H5  1  0.21208000  0.97148000  0.54456000  1.0 0.0939511097
H  H6  1  0.78792000  0.33248000  0.75940000  1.0 0.0939511097
H  H7  1  0.42692000  0.66752000  0.45544000  1.0 0.0939511097
H  H8  1  0.57308000  0.02852000  0.24060000  1.0 0.0939511097
H  H9  1  0.54456000  0.21208000  0.97148000  1.0 0.0939511097
H  H10  1  0.75940000  0.78792000  0.33248000  1.0 0.0939511097
H  H11  1  0.45544000  0.42692000  0.66752000  1.0 0.0939511097
H  H12  1  0.24060000  0.57308000  0.02852000  1.0 0.0939511097
H  H13  1  0.24060000  0.66752000  0.21208000  1.0 0.0939511097
H  H14  1  0.45544000  0.02852000  0.78792000  1.0 0.0939511097
H  H15  1  0.75940000  0.97148000  0.42692000  1.0 0.0939511097
H  H16  1  0.54456000  0.33248000  0.57308000  1.0 0.0939511097
H  H17  1  0.33248000  0.57308000  0.54456000  1.0 0.0939511097
H  H18  1  0.97148000  0.42692000  0.75940000  1.0 0.0939511097
H  H19  1  0.02852000  0.78792000  0.45544000  1.0 0.0939511097
H  H20  1  0.66752000  0.21208000  0.24060000  1.0 0.0939511097
H  H21  1  0.42692000  0.75940000  0.97148000  1.0 0.0939511097
H  H22  1  0.57308000  0.54456000  0.33248000  1.0 0.0939511097
H  H23  1  0.21208000  0.24060000  0.66752000  1.0 0.0939511097
H  H24  1  0.78792000  0.45544000  0.02852000  1.0 0.0939511097
H  H25  1  0.02852000  0.45544000  0.78792000  1.0 0.0939511097
H  H26  1  0.66752000  0.24060000  0.21208000  1.0 0.0939511097
H  H27  1  0.33248000  0.54456000  0.57308000  1.0 0.0939511097
H  H28  1  0.97148000  0.75940000  0.42692000  1.0 0.0939511097
H  H29  1  0.78792000  0.02852000  0.45544000  1.0 0.0939511097
H  H30  1  0.21208000  0.66752000  0.24060000  1.0 0.0939511097
H  H31  1  0.57308000  0.33248000  0.54456000  1.0 0.0939511097
H  H32  1  0.42692000  0.97148000  0.75940000  1.0 0.0939511097
H  H33  1  0.45544000  0.78792000  0.02852000  1.0 0.0939511097
H  H34  1  0.24060000  0.21208000  0.66752000  1.0 0.0939511097
H  H35  1  0.54456000  0.57308000  0.33248000  1.0 0.0939511097
H  H36  1  0.75940000  0.42692000  0.97148000  1.0 0.0939511097
H  H37  1  0.75940000  0.33248000  0.78792000  1.0 0.0939511097
H  H38  1  0.54456000  0.97148000  0.21208000  1.0 0.0939511097
H  H39  1  0.24060000  0.02852000  0.57308000  1.0 0.0939511097
H  H40  1  0.45544000  0.66752000  0.42692000  1.0 0.0939511097
H  H41  1  0.66752000  0.42692000  0.45544000  1.0 0.0939511097
H  H42  1  0.02852000  0.57308000  0.24060000  1.0 0.0939511097
H  H43  1  0.97148000  0.21208000  0.54456000  1.0 0.0939511097
H  H44  1  0.33248000  0.78792000  0.75940000  1.0 0.0939511097
H  H45  1  0.57308000  0.24060000  0.02852000  1.0 0.0939511097
H  H46  1  0.42692000  0.45544000  0.66752000  1.0 0.0939511097
H  H47  1  0.78792000  0.75940000  0.33248000  1.0 0.0939511097
H  H48  1  0.21208000  0.54456000  0.97148000  1.0 0.0939511097
H  H49  1  0.00000000  0.33527000  0.12409000  1.0 0.1484522095
H  H50  1  0.21118000  0.87591000  0.87591000  1.0 0.1484522095
H  H51  1  0.78882000  0.66473000  0.66473000  1.0 0.1484522095
H  H52  1  0.00000000  0.12409000  0.33527000  1.0 0.1484522095
H  H53  1  0.12409000  0.00000000  0.33527000  1.0 0.1484522095
H  H54  1  0.87591000  0.21118000  0.87591000  1.0 0.1484522095
H  H55  1  0.66473000  0.78882000  0.66473000  1.0 0.1484522095
H  H56  1  0.33527000  0.00000000  0.12409000  1.0 0.1484522095
H  H57  1  0.33527000  0.12409000  0.00000000  1.0 0.1484522095
H  H58  1  0.87591000  0.87591000  0.21118000  1.0 0.1484522095
H  H59  1  0.66473000  0.66473000  0.78882000  1.0 0.1484522095
H  H60  1  0.12409000  0.33527000  0.00000000  1.0 0.1484522095
H  H61  1  0.12409000  0.78882000  0.12409000  1.0 0.1484522095
H  H62  1  0.66473000  0.00000000  0.87591000  1.0 0.1484522095
H  H63  1  0.87591000  0.00000000  0.66473000  1.0 0.1484522095
H  H64  1  0.33527000  0.21118000  0.33527000  1.0 0.1484522095
H  H65  1  0.21118000  0.33527000  0.33527000  1.0 0.1484522095
H  H66  1  0.00000000  0.66473000  0.87591000  1.0 0.1484522095
H  H67  1  0.00000000  0.87591000  0.66473000  1.0 0.1484522095
H  H68  1  0.78882000  0.12409000  0.12409000  1.0 0.1484522095
H  H69  1  0.66473000  0.87591000  0.00000000  1.0 0.1484522095
H  H70  1  0.33527000  0.33527000  0.21118000  1.0 0.1484522095
H  H71  1  0.12409000  0.12409000  0.78882000  1.0 0.1484522095
H  H72  1  0.87591000  0.66473000  0.00000000  1.0 0.1484522095
H  H73  1  0.90578000  0.42656000  0.14818000  1.0 0.1484522095
H  H74  1  0.27838000  0.75760000  0.85182000  1.0 0.1484522095
H  H75  1  0.72162000  0.57344000  0.47922000  1.0 0.1484522095
H  H76  1  0.09422000  0.24240000  0.52078000  1.0 0.1484522095
H  H77  1  0.14818000  0.90578000  0.42656000  1.0 0.1484522095
H  H78  1  0.85182000  0.27838000  0.75760000  1.0 0.1484522095
H  H79  1  0.47922000  0.72162000  0.57344000  1.0 0.1484522095
H  H80  1  0.52078000  0.09422000  0.24240000  1.0 0.1484522095
H  H81  1  0.42656000  0.14818000  0.90578000  1.0 0.1484522095
H  H82  1  0.75760000  0.85182000  0.27838000  1.0 0.1484522095
H  H83  1  0.57344000  0.47922000  0.72162000  1.0 0.1484522095
H  H84  1  0.24240000  0.52078000  0.09422000  1.0 0.1484522095
H  H85  1  0.24240000  0.72162000  0.14818000  1.0 0.1484522095
H  H86  1  0.57344000  0.09422000  0.85182000  1.0 0.1484522095
H  H87  1  0.75760000  0.90578000  0.47922000  1.0 0.1484522095
H  H88  1  0.42656000  0.27838000  0.52078000  1.0 0.1484522095
H  H89  1  0.27838000  0.52078000  0.42656000  1.0 0.1484522095
H  H90  1  0.90578000  0.47922000  0.75760000  1.0 0.1484522095
H  H91  1  0.09422000  0.85182000  0.57344000  1.0 0.1484522095
H  H92  1  0.72162000  0.14818000  0.24240000  1.0 0.1484522095
H  H93  1  0.47922000  0.75760000  0.90578000  1.0 0.1484522095
H  H94  1  0.52078000  0.42656000  0.27838000  1.0 0.1484522095
H  H95  1  0.14818000  0.24240000  0.72162000  1.0 0.1484522095
H  H96  1  0.85182000  0.57344000  0.09422000  1.0 0.1484522095
H  H97  1  0.09422000  0.57344000  0.85182000  1.0 0.1484522095
H  H98  1  0.72162000  0.24240000  0.14818000  1.0 0.1484522095
H  H99  1  0.27838000  0.42656000  0.52078000  1.0 0.1484522095
H  H100  1  0.90578000  0.75760000  0.47922000  1.0 0.1484522095
H  H101  1  0.85182000  0.09422000  0.57344000  1.0 0.1484522095
H  H102  1  0.14818000  0.72162000  0.24240000  1.0 0.1484522095
H  H103  1  0.52078000  0.27838000  0.42656000  1.0 0.1484522095
H  H104  1  0.47922000  0.90578000  0.75760000  1.0 0.1484522095
H  H105  1  0.57344000  0.85182000  0.09422000  1.0 0.1484522095
H  H106  1  0.24240000  0.14818000  0.72162000  1.0 0.1484522095
H  H107  1  0.42656000  0.52078000  0.27838000  1.0 0.1484522095
H  H108  1  0.75760000  0.47922000  0.90578000  1.0 0.1484522095
H  H109  1  0.75760000  0.27838000  0.85182000  1.0 0.1484522095
H  H110  1  0.42656000  0.90578000  0.14818000  1.0 0.1484522095
H  H111  1  0.24240000  0.09422000  0.52078000  1.0 0.1484522095
H  H112  1  0.57344000  0.72162000  0.47922000  1.0 0.1484522095
H  H113  1  0.72162000  0.47922000  0.57344000  1.0 0.1484522095
H  H114  1  0.09422000  0.52078000  0.24240000  1.0 0.1484522095
H  H115  1  0.90578000  0.14818000  0.42656000  1.0 0.1484522095
H  H116  1  0.27838000  0.85182000  0.75760000  1.0 0.1484522095
H  H117  1  0.52078000  0.24240000  0.09422000  1.0 0.1484522095
H  H118  1  0.47922000  0.57344000  0.72162000  1.0 0.1484522095
H  H119  1  0.85182000  0.75760000  0.27838000  1.0 0.1484522095
H  H120  1  0.14818000  0.42656000  0.90578000  1.0 0.1484522095
H  H121  1  0.00000000  0.63877000  0.23339000  1.0 0.109167419
H  H122  1  0.40538000  0.76661000  0.76661000  1.0 0.109167419
H  H123  1  0.59462000  0.36123000  0.36123000  1.0 0.109167419
H  H124  1  0.00000000  0.23339000  0.63877000  1.0 0.109167419
H  H125  1  0.23339000  0.00000000  0.63877000  1.0 0.109167419
H  H126  1  0.76661000  0.40538000  0.76661000  1.0 0.109167419
H  H127  1  0.36123000  0.59462000  0.36123000  1.0 0.109167419
H  H128  1  0.63877000  0.00000000  0.23339000  1.0 0.109167419
H  H129  1  0.63877000  0.23339000  0.00000000  1.0 0.109167419
H  H130  1  0.76661000  0.76661000  0.40538000  1.0 0.109167419
H  H131  1  0.36123000  0.36123000  0.59462000  1.0 0.109167419
H  H132  1  0.23339000  0.63877000  0.00000000  1.0 0.109167419
H  H133  1  0.23339000  0.59462000  0.23339000  1.0 0.109167419
H  H134  1  0.36123000  0.00000000  0.76661000  1.0 0.109167419
H  H135  1  0.76661000  0.00000000  0.36123000  1.0 0.109167419
H  H136  1  0.63877000  0.40538000  0.63877000  1.0 0.109167419
H  H137  1  0.40538000  0.63877000  0.63877000  1.0 0.109167419
H  H138  1  0.00000000  0.36123000  0.76661000  1.0 0.109167419
H  H139  1  0.00000000  0.76661000  0.36123000  1.0 0.109167419
H  H140  1  0.59462000  0.23339000  0.23339000  1.0 0.109167419
H  H141  1  0.36123000  0.76661000  0.00000000  1.0 0.109167419
H  H142  1  0.63877000  0.63877000  0.40538000  1.0 0.109167419
H  H143  1  0.23339000  0.23339000  0.59462000  1.0 0.109167419
H  H144  1  0.76661000  0.36123000  0.00000000  1.0 0.109167419
H  H145  1  0.94428000  0.59508000  0.34920000  1.0 0.1364342256
H  H146  1  0.24588000  0.59508000  0.65080000  1.0 0.1364342256
H  H147  1  0.75412000  0.40492000  0.34920000  1.0 0.1364342256
H  H148  1  0.05572000  0.40492000  0.65080000  1.0 0.1364342256
H  H149  1  0.34920000  0.94428000  0.59508000  1.0 0.1364342256
H  H150  1  0.65080000  0.24588000  0.59508000  1.0 0.1364342256
H  H151  1  0.34920000  0.75412000  0.40492000  1.0 0.1364342256
H  H152  1  0.65080000  0.05572000  0.40492000  1.0 0.1364342256
H  H153  1  0.59508000  0.34920000  0.94428000  1.0 0.1364342256
H  H154  1  0.59508000  0.65080000  0.24588000  1.0 0.1364342256
H  H155  1  0.40492000  0.34920000  0.75412000  1.0 0.1364342256
H  H156  1  0.40492000  0.65080000  0.05572000  1.0 0.1364342256
H  H157  1  0.40492000  0.75412000  0.34920000  1.0 0.1364342256
H  H158  1  0.40492000  0.05572000  0.65080000  1.0 0.1364342256
H  H159  1  0.59508000  0.94428000  0.34920000  1.0 0.1364342256
H  H160  1  0.59508000  0.24588000  0.65080000  1.0 0.1364342256
H  H161  1  0.24588000  0.65080000  0.59508000  1.0 0.1364342256
H  H162  1  0.94428000  0.34920000  0.59508000  1.0 0.1364342256
H  H163  1  0.05572000  0.65080000  0.40492000  1.0 0.1364342256
H  H164  1  0.75412000  0.34920000  0.40492000  1.0 0.1364342256
H  H165  1  0.34920000  0.59508000  0.94428000  1.0 0.1364342256
H  H166  1  0.65080000  0.59508000  0.24588000  1.0 0.1364342256
H  H167  1  0.34920000  0.40492000  0.75412000  1.0 0.1364342256
H  H168  1  0.65080000  0.40492000  0.05572000  1.0 0.1364342256
C  C1  1  0.88462000  0.31402000  0.08124000  1.0 0.5869528424
C  C2  1  0.23278000  0.80338000  0.91876000  1.0 0.5869528424
C  C3  1  0.76722000  0.68598000  0.57060000  1.0 0.5869528424
C  C4  1  0.11538000  0.19662000  0.42940000  1.0 0.5869528424
C  C5  1  0.08124000  0.88462000  0.31402000  1.0 0.5869528424
C  C6  1  0.91876000  0.23278000  0.80338000  1.0 0.5869528424
C  C7  1  0.57060000  0.76722000  0.68598000  1.0 0.5869528424
C  C8  1  0.42940000  0.11538000  0.19662000  1.0 0.5869528424
C  C9  1  0.31402000  0.08124000  0.88462000  1.0 0.5869528424
C  C10  1  0.80338000  0.91876000  0.23278000  1.0 0.5869528424
C  C11  1  0.68598000  0.57060000  0.76722000  1.0 0.5869528424
C  C12  1  0.19662000  0.42940000  0.11538000  1.0 0.5869528424
C  C13  1  0.19662000  0.76722000  0.08124000  1.0 0.5869528424
C  C14  1  0.68598000  0.11538000  0.91876000  1.0 0.5869528424
C  C15  1  0.80338000  0.88462000  0.57060000  1.0 0.5869528424
C  C16  1  0.31402000  0.23278000  0.42940000  1.0 0.5869528424
C  C17  1  0.23278000  0.42940000  0.31402000  1.0 0.5869528424
C  C18  1  0.88462000  0.57060000  0.80338000  1.0 0.5869528424
C  C19  1  0.11538000  0.91876000  0.68598000  1.0 0.5869528424
C  C20  1  0.76722000  0.08124000  0.19662000  1.0 0.5869528424
C  C21  1  0.57060000  0.80338000  0.88462000  1.0 0.5869528424
C  C22  1  0.42940000  0.31402000  0.23278000  1.0 0.5869528424
C  C23  1  0.08124000  0.19662000  0.76722000  1.0 0.5869528424
C  C24  1  0.91876000  0.68598000  0.11538000  1.0 0.5869528424
C  C25  1  0.11538000  0.68598000  0.91876000  1.0 0.5869528424
C  C26  1  0.76722000  0.19662000  0.08124000  1.0 0.5869528424
C  C27  1  0.23278000  0.31402000  0.42940000  1.0 0.5869528424
C  C28  1  0.88462000  0.80338000  0.57060000  1.0 0.5869528424
C  C29  1  0.91876000  0.11538000  0.68598000  1.0 0.5869528424
C  C30  1  0.08124000  0.76722000  0.19662000  1.0 0.5869528424
C  C31  1  0.42940000  0.23278000  0.31402000  1.0 0.5869528424
C  C32  1  0.57060000  0.88462000  0.80338000  1.0 0.5869528424
C  C33  1  0.68598000  0.91876000  0.11538000  1.0 0.5869528424
C  C34  1  0.19662000  0.08124000  0.76722000  1.0 0.5869528424
C  C35  1  0.31402000  0.42940000  0.23278000  1.0 0.5869528424
C  C36  1  0.80338000  0.57060000  0.88462000  1.0 0.5869528424
C  C37  1  0.80338000  0.23278000  0.91876000  1.0 0.5869528424
C  C38  1  0.31402000  0.88462000  0.08124000  1.0 0.5869528424
C  C39  1  0.19662000  0.11538000  0.42940000  1.0 0.5869528424
C  C40  1  0.68598000  0.76722000  0.57060000  1.0 0.5869528424
C  C41  1  0.76722000  0.57060000  0.68598000  1.0 0.5869528424
C  C42  1  0.11538000  0.42940000  0.19662000  1.0 0.5869528424
C  C43  1  0.88462000  0.08124000  0.31402000  1.0 0.5869528424
C  C44  1  0.23278000  0.91876000  0.80338000  1.0 0.5869528424
C  C45  1  0.42940000  0.19662000  0.11538000  1.0 0.5869528424
C  C46  1  0.57060000  0.68598000  0.76722000  1.0 0.5869528424
C  C47  1  0.91876000  0.80338000  0.23278000  1.0 0.5869528424
C  C48  1  0.08124000  0.31402000  0.88462000  1.0 0.5869528424
C  C49  1  0.00000000  0.37317000  0.14279000  1.0 -0.103852459
C  C50  1  0.23038000  0.85721000  0.85721000  1.0 -0.103852459
C  C51  1  0.76962000  0.62683000  0.62683000  1.0 -0.103852459
C  C52  1  0.00000000  0.14279000  0.37317000  1.0 -0.103852459
C  C53  1  0.14279000  0.00000000  0.37317000  1.0 -0.103852459
C  C54  1  0.85721000  0.23038000  0.85721000  1.0 -0.103852459
C  C55  1  0.62683000  0.76962000  0.62683000  1.0 -0.103852459
C  C56  1  0.37317000  0.00000000  0.14279000  1.0 -0.103852459
C  C57  1  0.37317000  0.14279000  0.00000000  1.0 -0.103852459
C  C58  1  0.85721000  0.85721000  0.23038000  1.0 -0.103852459
C  C59  1  0.62683000  0.62683000  0.76962000  1.0 -0.103852459
C  C60  1  0.14279000  0.37317000  0.00000000  1.0 -0.103852459
C  C61  1  0.14279000  0.76962000  0.14279000  1.0 -0.103852459
C  C62  1  0.62683000  0.00000000  0.85721000  1.0 -0.103852459
C  C63  1  0.85721000  0.00000000  0.62683000  1.0 -0.103852459
C  C64  1  0.37317000  0.23038000  0.37317000  1.0 -0.103852459
C  C65  1  0.23038000  0.37317000  0.37317000  1.0 -0.103852459
C  C66  1  0.00000000  0.62683000  0.85721000  1.0 -0.103852459
C  C67  1  0.00000000  0.85721000  0.62683000  1.0 -0.103852459
C  C68  1  0.76962000  0.14279000  0.14279000  1.0 -0.103852459
C  C69  1  0.62683000  0.85721000  0.00000000  1.0 -0.103852459
C  C70  1  0.37317000  0.37317000  0.23038000  1.0 -0.103852459
C  C71  1  0.14279000  0.14279000  0.76962000  1.0 -0.103852459
C  C72  1  0.85721000  0.62683000  0.00000000  1.0 -0.103852459
C  C73  1  0.94467000  0.37293000  0.12864000  1.0 0.0045027967
C  C74  1  0.24429000  0.81603000  0.87136000  1.0 0.0045027967
C  C75  1  0.75571000  0.62707000  0.57174000  1.0 0.0045027967
C  C76  1  0.05533000  0.18397000  0.42826000  1.0 0.0045027967
C  C77  1  0.12864000  0.94467000  0.37293000  1.0 0.0045027967
C  C78  1  0.87136000  0.24429000  0.81603000  1.0 0.0045027967
C  C79  1  0.57174000  0.75571000  0.62707000  1.0 0.0045027967
C  C80  1  0.42826000  0.05533000  0.18397000  1.0 0.0045027967
C  C81  1  0.37293000  0.12864000  0.94467000  1.0 0.0045027967
C  C82  1  0.81603000  0.87136000  0.24429000  1.0 0.0045027967
C  C83  1  0.62707000  0.57174000  0.75571000  1.0 0.0045027967
C  C84  1  0.18397000  0.42826000  0.05533000  1.0 0.0045027967
C  C85  1  0.18397000  0.75571000  0.12864000  1.0 0.0045027967
C  C86  1  0.62707000  0.05533000  0.87136000  1.0 0.0045027967
C  C87  1  0.81603000  0.94467000  0.57174000  1.0 0.0045027967
C  C88  1  0.37293000  0.24429000  0.42826000  1.0 0.0045027967
C  C89  1  0.24429000  0.42826000  0.37293000  1.0 0.0045027967
C  C90  1  0.94467000  0.57174000  0.81603000  1.0 0.0045027967
C  C91  1  0.05533000  0.87136000  0.62707000  1.0 0.0045027967
C  C92  1  0.75571000  0.12864000  0.18397000  1.0 0.0045027967
C  C93  1  0.57174000  0.81603000  0.94467000  1.0 0.0045027967
C  C94  1  0.42826000  0.37293000  0.24429000  1.0 0.0045027967
C  C95  1  0.12864000  0.18397000  0.75571000  1.0 0.0045027967
C  C96  1  0.87136000  0.62707000  0.05533000  1.0 0.0045027967
C  C97  1  0.05533000  0.62707000  0.87136000  1.0 0.0045027967
C  C98  1  0.75571000  0.18397000  0.12864000  1.0 0.0045027967
C  C99  1  0.24429000  0.37293000  0.42826000  1.0 0.0045027967
C  C100  1  0.94467000  0.81603000  0.57174000  1.0 0.0045027967
C  C101  1  0.87136000  0.05533000  0.62707000  1.0 0.0045027967
C  C102  1  0.12864000  0.75571000  0.18397000  1.0 0.0045027967
C  C103  1  0.42826000  0.24429000  0.37293000  1.0 0.0045027967
C  C104  1  0.57174000  0.94467000  0.81603000  1.0 0.0045027967
C  C105  1  0.62707000  0.87136000  0.05533000  1.0 0.0045027967
C  C106  1  0.18397000  0.12864000  0.75571000  1.0 0.0045027967
C  C107  1  0.37293000  0.42826000  0.24429000  1.0 0.0045027967
C  C108  1  0.81603000  0.57174000  0.94467000  1.0 0.0045027967
C  C109  1  0.81603000  0.24429000  0.87136000  1.0 0.0045027967
C  C110  1  0.37293000  0.94467000  0.12864000  1.0 0.0045027967
C  C111  1  0.18397000  0.05533000  0.42826000  1.0 0.0045027967
C  C112  1  0.62707000  0.75571000  0.57174000  1.0 0.0045027967
C  C113  1  0.75571000  0.57174000  0.62707000  1.0 0.0045027967
C  C114  1  0.05533000  0.42826000  0.18397000  1.0 0.0045027967
C  C115  1  0.94467000  0.12864000  0.37293000  1.0 0.0045027967
C  C116  1  0.24429000  0.87136000  0.81603000  1.0 0.0045027967
C  C117  1  0.42826000  0.18397000  0.05533000  1.0 0.0045027967
C  C118  1  0.57174000  0.62707000  0.75571000  1.0 0.0045027967
C  C119  1  0.87136000  0.81603000  0.24429000  1.0 0.0045027967
C  C120  1  0.12864000  0.37293000  0.94467000  1.0 0.0045027967
C  C121  1  0.94418000  0.42686000  0.15848000  1.0 -0.1679504052
C  C122  1  0.26838000  0.78570000  0.84152000  1.0 -0.1679504052
C  C123  1  0.73162000  0.57314000  0.51732000  1.0 -0.1679504052
C  C124  1  0.05582000  0.21430000  0.48268000  1.0 -0.1679504052
C  C125  1  0.15848000  0.94418000  0.42686000  1.0 -0.1679504052
C  C126  1  0.84152000  0.26838000  0.78570000  1.0 -0.1679504052
C  C127  1  0.51732000  0.73162000  0.57314000  1.0 -0.1679504052
C  C128  1  0.48268000  0.05582000  0.21430000  1.0 -0.1679504052
C  C129  1  0.42686000  0.15848000  0.94418000  1.0 -0.1679504052
C  C130  1  0.78570000  0.84152000  0.26838000  1.0 -0.1679504052
C  C131  1  0.57314000  0.51732000  0.73162000  1.0 -0.1679504052
C  C132  1  0.21430000  0.48268000  0.05582000  1.0 -0.1679504052
C  C133  1  0.21430000  0.73162000  0.15848000  1.0 -0.1679504052
C  C134  1  0.57314000  0.05582000  0.84152000  1.0 -0.1679504052
C  C135  1  0.78570000  0.94418000  0.51732000  1.0 -0.1679504052
C  C136  1  0.42686000  0.26838000  0.48268000  1.0 -0.1679504052
C  C137  1  0.26838000  0.48268000  0.42686000  1.0 -0.1679504052
C  C138  1  0.94418000  0.51732000  0.78570000  1.0 -0.1679504052
C  C139  1  0.05582000  0.84152000  0.57314000  1.0 -0.1679504052
C  C140  1  0.73162000  0.15848000  0.21430000  1.0 -0.1679504052
C  C141  1  0.51732000  0.78570000  0.94418000  1.0 -0.1679504052
C  C142  1  0.48268000  0.42686000  0.26838000  1.0 -0.1679504052
C  C143  1  0.15848000  0.21430000  0.73162000  1.0 -0.1679504052
C  C144  1  0.84152000  0.57314000  0.05582000  1.0 -0.1679504052
C  C145  1  0.05582000  0.57314000  0.84152000  1.0 -0.1679504052
C  C146  1  0.73162000  0.21430000  0.15848000  1.0 -0.1679504052
C  C147  1  0.26838000  0.42686000  0.48268000  1.0 -0.1679504052
C  C148  1  0.94418000  0.78570000  0.51732000  1.0 -0.1679504052
C  C149  1  0.84152000  0.05582000  0.57314000  1.0 -0.1679504052
C  C150  1  0.15848000  0.73162000  0.21430000  1.0 -0.1679504052
C  C151  1  0.48268000  0.26838000  0.42686000  1.0 -0.1679504052
C  C152  1  0.51732000  0.94418000  0.78570000  1.0 -0.1679504052
C  C153  1  0.57314000  0.84152000  0.05582000  1.0 -0.1679504052
C  C154  1  0.21430000  0.15848000  0.73162000  1.0 -0.1679504052
C  C155  1  0.42686000  0.48268000  0.26838000  1.0 -0.1679504052
C  C156  1  0.78570000  0.51732000  0.94418000  1.0 -0.1679504052
C  C157  1  0.78570000  0.26838000  0.84152000  1.0 -0.1679504052
C  C158  1  0.42686000  0.94418000  0.15848000  1.0 -0.1679504052
C  C159  1  0.21430000  0.05582000  0.48268000  1.0 -0.1679504052
C  C160  1  0.57314000  0.73162000  0.51732000  1.0 -0.1679504052
C  C161  1  0.73162000  0.51732000  0.57314000  1.0 -0.1679504052
C  C162  1  0.05582000  0.48268000  0.21430000  1.0 -0.1679504052
C  C163  1  0.94418000  0.15848000  0.42686000  1.0 -0.1679504052
C  C164  1  0.26838000  0.84152000  0.78570000  1.0 -0.1679504052
C  C165  1  0.48268000  0.21430000  0.05582000  1.0 -0.1679504052
C  C166  1  0.51732000  0.57314000  0.73162000  1.0 -0.1679504052
C  C167  1  0.84152000  0.78570000  0.26838000  1.0 -0.1679504052
C  C168  1  0.15848000  0.42686000  0.94418000  1.0 -0.1679504052
C  C169  1  0.00000000  0.48087000  0.20209000  1.0 0.2071498709
C  C170  1  0.27878000  0.79791000  0.79791000  1.0 0.2071498709
C  C171  1  0.72122000  0.51913000  0.51913000  1.0 0.2071498709
C  C172  1  0.00000000  0.20209000  0.48087000  1.0 0.2071498709
C  C173  1  0.20209000  0.00000000  0.48087000  1.0 0.2071498709
C  C174  1  0.79791000  0.27878000  0.79791000  1.0 0.2071498709
C  C175  1  0.51913000  0.72122000  0.51913000  1.0 0.2071498709
C  C176  1  0.48087000  0.00000000  0.20209000  1.0 0.2071498709
C  C177  1  0.48087000  0.20209000  0.00000000  1.0 0.2071498709
C  C178  1  0.79791000  0.79791000  0.27878000  1.0 0.2071498709
C  C179  1  0.51913000  0.51913000  0.72122000  1.0 0.2071498709
C  C180  1  0.20209000  0.48087000  0.00000000  1.0 0.2071498709
C  C181  1  0.20209000  0.72122000  0.20209000  1.0 0.2071498709
C  C182  1  0.51913000  0.00000000  0.79791000  1.0 0.2071498709
C  C183  1  0.79791000  0.00000000  0.51913000  1.0 0.2071498709
C  C184  1  0.48087000  0.27878000  0.48087000  1.0 0.2071498709
C  C185  1  0.27878000  0.48087000  0.48087000  1.0 0.2071498709
C  C186  1  0.00000000  0.51913000  0.79791000  1.0 0.2071498709
C  C187  1  0.00000000  0.79791000  0.51913000  1.0 0.2071498709
C  C188  1  0.72122000  0.20209000  0.20209000  1.0 0.2071498709
C  C189  1  0.51913000  0.79791000  0.00000000  1.0 0.2071498709
C  C190  1  0.48087000  0.48087000  0.27878000  1.0 0.2071498709
C  C191  1  0.20209000  0.20209000  0.72122000  1.0 0.2071498709
C  C192  1  0.79791000  0.51913000  0.00000000  1.0 0.2071498709
C  C193  1  0.95918000  0.54006000  0.25508000  1.0 0.2857336857
C  C194  1  0.28498000  0.70410000  0.74492000  1.0 0.2857336857
C  C195  1  0.71502000  0.45994000  0.41912000  1.0 0.2857336857
C  C196  1  0.04082000  0.29590000  0.58088000  1.0 0.2857336857
C  C197  1  0.25508000  0.95918000  0.54006000  1.0 0.2857336857
C  C198  1  0.74492000  0.28498000  0.70410000  1.0 0.2857336857
C  C199  1  0.41912000  0.71502000  0.45994000  1.0 0.2857336857
C  C200  1  0.58088000  0.04082000  0.29590000  1.0 0.2857336857
C  C201  1  0.54006000  0.25508000  0.95918000  1.0 0.2857336857
C  C202  1  0.70410000  0.74492000  0.28498000  1.0 0.2857336857
C  C203  1  0.45994000  0.41912000  0.71502000  1.0 0.2857336857
C  C204  1  0.29590000  0.58088000  0.04082000  1.0 0.2857336857
C  C205  1  0.29590000  0.71502000  0.25508000  1.0 0.2857336857
C  C206  1  0.45994000  0.04082000  0.74492000  1.0 0.2857336857
C  C207  1  0.70410000  0.95918000  0.41912000  1.0 0.2857336857
C  C208  1  0.54006000  0.28498000  0.58088000  1.0 0.2857336857
C  C209  1  0.28498000  0.58088000  0.54006000  1.0 0.2857336857
C  C210  1  0.95918000  0.41912000  0.70410000  1.0 0.2857336857
C  C211  1  0.04082000  0.74492000  0.45994000  1.0 0.2857336857
C  C212  1  0.71502000  0.25508000  0.29590000  1.0 0.2857336857
C  C213  1  0.41912000  0.70410000  0.95918000  1.0 0.2857336857
C  C214  1  0.58088000  0.54006000  0.28498000  1.0 0.2857336857
C  C215  1  0.25508000  0.29590000  0.71502000  1.0 0.2857336857
C  C216  1  0.74492000  0.45994000  0.04082000  1.0 0.2857336857
C  C217  1  0.04082000  0.45994000  0.74492000  1.0 0.2857336857
C  C218  1  0.71502000  0.29590000  0.25508000  1.0 0.2857336857
C  C219  1  0.28498000  0.54006000  0.58088000  1.0 0.2857336857
C  C220  1  0.95918000  0.70410000  0.41912000  1.0 0.2857336857
C  C221  1  0.74492000  0.04082000  0.45994000  1.0 0.2857336857
C  C222  1  0.25508000  0.71502000  0.29590000  1.0 0.2857336857
C  C223  1  0.58088000  0.28498000  0.54006000  1.0 0.2857336857
C  C224  1  0.41912000  0.95918000  0.70410000  1.0 0.2857336857
C  C225  1  0.45994000  0.74492000  0.04082000  1.0 0.2857336857
C  C226  1  0.29590000  0.25508000  0.71502000  1.0 0.2857336857
C  C227  1  0.54006000  0.58088000  0.28498000  1.0 0.2857336857
C  C228  1  0.70410000  0.41912000  0.95918000  1.0 0.2857336857
C  C229  1  0.70410000  0.28498000  0.74492000  1.0 0.2857336857
C  C230  1  0.54006000  0.95918000  0.25508000  1.0 0.2857336857
C  C231  1  0.29590000  0.04082000  0.58088000  1.0 0.2857336857
C  C232  1  0.45994000  0.71502000  0.41912000  1.0 0.2857336857
C  C233  1  0.71502000  0.41912000  0.45994000  1.0 0.2857336857
C  C234  1  0.04082000  0.58088000  0.29590000  1.0 0.2857336857
C  C235  1  0.95918000  0.25508000  0.54006000  1.0 0.2857336857
C  C236  1  0.28498000  0.74492000  0.70410000  1.0 0.2857336857
C  C237  1  0.58088000  0.29590000  0.04082000  1.0 0.2857336857
C  C238  1  0.41912000  0.45994000  0.71502000  1.0 0.2857336857
C  C239  1  0.74492000  0.70410000  0.28498000  1.0 0.2857336857
C  C240  1  0.25508000  0.54006000  0.95918000  1.0 0.2857336857
C  C241  1  0.98788000  0.64746000  0.26658000  1.0 0.0357487384
C  C242  1  0.38088000  0.72130000  0.73342000  1.0 0.0347106393
C  C243  1  0.61912000  0.35254000  0.34042000  1.0 0.0347106393
C  C244  1  0.01212000  0.27870000  0.65958000  1.0 0.0347106393
C  C245  1  0.26658000  0.98788000  0.64746000  1.0 0.0347106393
C  C246  1  0.73342000  0.38088000  0.72130000  1.0 0.0347106393
C  C247  1  0.34042000  0.61912000  0.35254000  1.0 0.0347106393
C  C248  1  0.65958000  0.01212000  0.27870000  1.0 0.0347106393
C  C249  1  0.64746000  0.26658000  0.98788000  1.0 0.0347106393
C  C250  1  0.72130000  0.73342000  0.38088000  1.0 0.0347106393
C  C251  1  0.35254000  0.34042000  0.61912000  1.0 0.0347106393
C  C252  1  0.27870000  0.65958000  0.01212000  1.0 0.0347106393
C  C253  1  0.27870000  0.61912000  0.26658000  1.0 0.0347106393
C  C254  1  0.35254000  0.01212000  0.73342000  1.0 0.0347106393
C  C255  1  0.72130000  0.98788000  0.34042000  1.0 0.0347106393
C  C256  1  0.64746000  0.38088000  0.65958000  1.0 0.0347106393
C  C257  1  0.38088000  0.65958000  0.64746000  1.0 0.0347106393
C  C258  1  0.98788000  0.34042000  0.72130000  1.0 0.0347106393
C  C259  1  0.01212000  0.73342000  0.35254000  1.0 0.0347106393
C  C260  1  0.61912000  0.26658000  0.27870000  1.0 0.0347106393
C  C261  1  0.34042000  0.72130000  0.98788000  1.0 0.0347106393
C  C262  1  0.65958000  0.64746000  0.38088000  1.0 0.0347106393
C  C263  1  0.26658000  0.27870000  0.61912000  1.0 0.0347106393
C  C264  1  0.73342000  0.35254000  0.01212000  1.0 0.0357487384
C  C265  1  0.01212000  0.35254000  0.73342000  1.0 0.0347106393
C  C266  1  0.61912000  0.27870000  0.26658000  1.0 0.0347106393
C  C267  1  0.38088000  0.64746000  0.65958000  1.0 0.0347106393
C  C268  1  0.98788000  0.72130000  0.34042000  1.0 0.0357487384
C  C269  1  0.73342000  0.01212000  0.35254000  1.0 0.0347106393
C  C270  1  0.26658000  0.61912000  0.27870000  1.0 0.0347106393
C  C271  1  0.65958000  0.38088000  0.64746000  1.0 0.0347106393
C  C272  1  0.34042000  0.98788000  0.72130000  1.0 0.0347106393
C  C273  1  0.35254000  0.73342000  0.01212000  1.0 0.0357487384
C  C274  1  0.27870000  0.26658000  0.61912000  1.0 0.0347106393
C  C275  1  0.64746000  0.65958000  0.38088000  1.0 0.0347106393
C  C276  1  0.72130000  0.34042000  0.98788000  1.0 0.0347106393
C  C277  1  0.72130000  0.38088000  0.73342000  1.0 0.0347106393
C  C278  1  0.64746000  0.98788000  0.26658000  1.0 0.0347106393
C  C279  1  0.27870000  0.01212000  0.65958000  1.0 0.0347106393
C  C280  1  0.35254000  0.61912000  0.34042000  1.0 0.0347106393
C  C281  1  0.61912000  0.34042000  0.35254000  1.0 0.0347106393
C  C282  1  0.01212000  0.65958000  0.27870000  1.0 0.0347106393
C  C283  1  0.98788000  0.26658000  0.64746000  1.0 0.0347106393
C  C284  1  0.38088000  0.73342000  0.72130000  1.0 0.0347106393
C  C285  1  0.65958000  0.27870000  0.01212000  1.0 0.0357487384
C  C286  1  0.34042000  0.35254000  0.61912000  1.0 0.0347106393
C  C287  1  0.73342000  0.72130000  0.38088000  1.0 0.0347106393
C  C288  1  0.26658000  0.64746000  0.98788000  1.0 0.0347106393
C  C289  1  0.96768000  0.60486000  0.28558000  1.0 -0.0161338695
C  C290  1  0.31928000  0.68210000  0.71442000  1.0 -0.0161338695
C  C291  1  0.68072000  0.39514000  0.36282000  1.0 -0.0161338695
C  C292  1  0.03232000  0.31790000  0.63718000  1.0 -0.0161338695
C  C293  1  0.28558000  0.96768000  0.60486000  1.0 -0.0161338695
C  C294  1  0.71442000  0.31928000  0.68210000  1.0 -0.0161338695
C  C295  1  0.36282000  0.68072000  0.39514000  1.0 -0.0161338695
C  C296  1  0.63718000  0.03232000  0.31790000  1.0 -0.0161338695
C  C297  1  0.60486000  0.28558000  0.96768000  1.0 -0.0161338695
C  C298  1  0.68210000  0.71442000  0.31928000  1.0 -0.0161338695
C  C299  1  0.39514000  0.36282000  0.68072000  1.0 -0.0161338695
C  C300  1  0.31790000  0.63718000  0.03232000  1.0 -0.0161338695
C  C301  1  0.31790000  0.68072000  0.28558000  1.0 -0.0161338695
C  C302  1  0.39514000  0.03232000  0.71442000  1.0 -0.0161338695
C  C303  1  0.68210000  0.96768000  0.36282000  1.0 -0.0161338695
C  C304  1  0.60486000  0.31928000  0.63718000  1.0 -0.0161338695
C  C305  1  0.31928000  0.63718000  0.60486000  1.0 -0.0161338695
C  C306  1  0.96768000  0.36282000  0.68210000  1.0 -0.0161338695
C  C307  1  0.03232000  0.71442000  0.39514000  1.0 -0.0161338695
C  C308  1  0.68072000  0.28558000  0.31790000  1.0 -0.0161338695
C  C309  1  0.36282000  0.68210000  0.96768000  1.0 -0.0161338695
C  C310  1  0.63718000  0.60486000  0.31928000  1.0 -0.0161338695
C  C311  1  0.28558000  0.31790000  0.68072000  1.0 -0.0161338695
C  C312  1  0.71442000  0.39514000  0.03232000  1.0 -0.0161338695
C  C313  1  0.03232000  0.39514000  0.71442000  1.0 -0.0161338695
C  C314  1  0.68072000  0.31790000  0.28558000  1.0 -0.0161338695
C  C315  1  0.31928000  0.60486000  0.63718000  1.0 -0.0161338695
C  C316  1  0.96768000  0.68210000  0.36282000  1.0 -0.0161338695
C  C317  1  0.71442000  0.03232000  0.39514000  1.0 -0.0161338695
C  C318  1  0.28558000  0.68072000  0.31790000  1.0 -0.0161338695
C  C319  1  0.63718000  0.31928000  0.60486000  1.0 -0.0161338695
C  C320  1  0.36282000  0.96768000  0.68210000  1.0 -0.0161338695
C  C321  1  0.39514000  0.71442000  0.03232000  1.0 -0.0161338695
C  C322  1  0.31790000  0.28558000  0.68072000  1.0 -0.0161338695
C  C323  1  0.60486000  0.63718000  0.31928000  1.0 -0.0161338695
C  C324  1  0.68210000  0.36282000  0.96768000  1.0 -0.0161338695
C  C325  1  0.68210000  0.31928000  0.71442000  1.0 -0.0161338695
C  C326  1  0.60486000  0.96768000  0.28558000  1.0 -0.0161338695
C  C327  1  0.31790000  0.03232000  0.63718000  1.0 -0.0161338695
C  C328  1  0.39514000  0.68072000  0.36282000  1.0 -0.0161338695
C  C329  1  0.68072000  0.36282000  0.39514000  1.0 -0.0161338695
C  C330  1  0.03232000  0.63718000  0.31790000  1.0 -0.0161338695
C  C331  1  0.96768000  0.28558000  0.60486000  1.0 -0.0161338695
C  C332  1  0.31928000  0.71442000  0.68210000  1.0 -0.0161338695
C  C333  1  0.63718000  0.31790000  0.03232000  1.0 -0.0161338695
C  C334  1  0.36282000  0.39514000  0.68072000  1.0 -0.0161338695
C  C335  1  0.71442000  0.68210000  0.31928000  1.0 -0.0161338695
C  C336  1  0.28558000  0.60486000  0.96768000  1.0 -0.0161338695
C  C337  1  0.96018000  0.62378000  0.33640000  1.0 -0.1157340684
C  C338  1  0.28738000  0.62378000  0.66360000  1.0 -0.1157340684
C  C339  1  0.71262000  0.37622000  0.33640000  1.0 -0.1157340684
C  C340  1  0.03982000  0.37622000  0.66360000  1.0 -0.1157340684
C  C341  1  0.33640000  0.96018000  0.62378000  1.0 -0.1157340684
C  C342  1  0.66360000  0.28738000  0.62378000  1.0 -0.1157340684
C  C343  1  0.33640000  0.71262000  0.37622000  1.0 -0.1157340684
C  C344  1  0.66360000  0.03982000  0.37622000  1.0 -0.1157340684
C  C345  1  0.62378000  0.33640000  0.96018000  1.0 -0.1157340684
C  C346  1  0.62378000  0.66360000  0.28738000  1.0 -0.1157340684
C  C347  1  0.37622000  0.33640000  0.71262000  1.0 -0.1157340684
C  C348  1  0.37622000  0.66360000  0.03982000  1.0 -0.1157340684
C  C349  1  0.37622000  0.71262000  0.33640000  1.0 -0.1157340684
C  C350  1  0.37622000  0.03982000  0.66360000  1.0 -0.1157340684
C  C351  1  0.62378000  0.96018000  0.33640000  1.0 -0.1157340684
C  C352  1  0.62378000  0.28738000  0.66360000  1.0 -0.1157340684
C  C353  1  0.28738000  0.66360000  0.62378000  1.0 -0.1157340684
C  C354  1  0.96018000  0.33640000  0.62378000  1.0 -0.1157340684
C  C355  1  0.03982000  0.66360000  0.37622000  1.0 -0.1157340684
C  C356  1  0.71262000  0.33640000  0.37622000  1.0 -0.1157340684
C  C357  1  0.33640000  0.62378000  0.96018000  1.0 -0.1157340684
C  C358  1  0.66360000  0.62378000  0.28738000  1.0 -0.1157340684
C  C359  1  0.33640000  0.37622000  0.71262000  1.0 -0.1157340684
C  C360  1  0.66360000  0.37622000  0.03982000  1.0 -0.1157340684
N  N1  1  0.00000000  0.70549000  0.29451000  1.0 -0.1801411501
N  N2  1  0.41098000  0.70549000  0.70549000  1.0 -0.1801411501
N  N3  1  0.58902000  0.29451000  0.29451000  1.0 -0.1801411501
N  N4  1  0.00000000  0.29451000  0.70549000  1.0 -0.1801411501
N  N5  1  0.29451000  0.00000000  0.70549000  1.0 -0.1801411501
N  N6  1  0.70549000  0.41098000  0.70549000  1.0 -0.1801411501
N  N7  1  0.29451000  0.58902000  0.29451000  1.0 -0.1801411501
N  N8  1  0.70549000  0.00000000  0.29451000  1.0 -0.1801411501
N  N9  1  0.70549000  0.29451000  0.00000000  1.0 -0.1801411501
N  N10  1  0.70549000  0.70549000  0.41098000  1.0 -0.1801411501
N  N11  1  0.29451000  0.29451000  0.58902000  1.0 -0.1801411501
N  N12  1  0.29451000  0.70549000  0.00000000  1.0 -0.1801411501
N  N13  1  0.00000000  0.53777000  0.23399000  1.0 -0.221935195
N  N14  1  0.30378000  0.76601000  0.76601000  1.0 -0.221935195
N  N15  1  0.69622000  0.46223000  0.46223000  1.0 -0.221935195
N  N16  1  0.00000000  0.23399000  0.53777000  1.0 -0.221935195
N  N17  1  0.23399000  0.00000000  0.53777000  1.0 -0.221935195
N  N18  1  0.76601000  0.30378000  0.76601000  1.0 -0.221935195
N  N19  1  0.46223000  0.69622000  0.46223000  1.0 -0.221935195
N  N20  1  0.53777000  0.00000000  0.23399000  1.0 -0.221935195
N  N21  1  0.53777000  0.23399000  0.00000000  1.0 -0.221935195
N  N22  1  0.76601000  0.76601000  0.30378000  1.0 -0.221935195
N  N23  1  0.46223000  0.46223000  0.69622000  1.0 -0.221935195
N  N24  1  0.23399000  0.53777000  0.00000000  1.0 -0.221935195
N  N25  1  0.23399000  0.69622000  0.23399000  1.0 -0.221935195
N  N26  1  0.46223000  0.00000000  0.76601000  1.0 -0.221935195
N  N27  1  0.76601000  0.00000000  0.46223000  1.0 -0.221935195
N  N28  1  0.53777000  0.30378000  0.53777000  1.0 -0.221935195
N  N29  1  0.30378000  0.53777000  0.53777000  1.0 -0.221935195
N  N30  1  0.00000000  0.46223000  0.76601000  1.0 -0.221935195
N  N31  1  0.00000000  0.76601000  0.46223000  1.0 -0.221935195
N  N32  1  0.69622000  0.23399000  0.23399000  1.0 -0.221935195
N  N33  1  0.46223000  0.76601000  0.00000000  1.0 -0.221935195
N  N34  1  0.53777000  0.53777000  0.30378000  1.0 -0.221935195
N  N35  1  0.23399000  0.23399000  0.69622000  1.0 -0.221935195
N  N36  1  0.76601000  0.46223000  0.00000000  1.0 -0.221935195
O  O1  1  0.83587000  0.31716000  0.06339000  1.0 -0.520786374
O  O2  1  0.25377000  0.77248000  0.93661000  1.0 -0.520786374
O  O3  1  0.74623000  0.68284000  0.51871000  1.0 -0.520786374
O  O4  1  0.16413000  0.22752000  0.48129000  1.0 -0.520786374
O  O5  1  0.06339000  0.83587000  0.31716000  1.0 -0.520786374
O  O6  1  0.93661000  0.25377000  0.77248000  1.0 -0.520786374
O  O7  1  0.51871000  0.74623000  0.68284000  1.0 -0.520786374
O  O8  1  0.48129000  0.16413000  0.22752000  1.0 -0.520786374
O  O9  1  0.31716000  0.06339000  0.83587000  1.0 -0.520786374
O  O10  1  0.77248000  0.93661000  0.25377000  1.0 -0.520786374
O  O11  1  0.68284000  0.51871000  0.74623000  1.0 -0.520786374
O  O12  1  0.22752000  0.48129000  0.16413000  1.0 -0.520786374
O  O13  1  0.22752000  0.74623000  0.06339000  1.0 -0.520786374
O  O14  1  0.68284000  0.16413000  0.93661000  1.0 -0.520786374
O  O15  1  0.77248000  0.83587000  0.51871000  1.0 -0.520786374
O  O16  1  0.31716000  0.25377000  0.48129000  1.0 -0.520786374
O  O17  1  0.25377000  0.48129000  0.31716000  1.0 -0.520786374
O  O18  1  0.83587000  0.51871000  0.77248000  1.0 -0.520786374
O  O19  1  0.16413000  0.93661000  0.68284000  1.0 -0.520786374
O  O20  1  0.74623000  0.06339000  0.22752000  1.0 -0.520786374
O  O21  1  0.51871000  0.77248000  0.83587000  1.0 -0.520786374
O  O22  1  0.48129000  0.31716000  0.25377000  1.0 -0.520786374
O  O23  1  0.06339000  0.22752000  0.74623000  1.0 -0.520786374
O  O24  1  0.93661000  0.68284000  0.16413000  1.0 -0.520786374
O  O25  1  0.16413000  0.68284000  0.93661000  1.0 -0.520786374
O  O26  1  0.74623000  0.22752000  0.06339000  1.0 -0.520786374
O  O27  1  0.25377000  0.31716000  0.48129000  1.0 -0.520786374
O  O28  1  0.83587000  0.77248000  0.51871000  1.0 -0.520786374
O  O29  1  0.93661000  0.16413000  0.68284000  1.0 -0.520786374
O  O30  1  0.06339000  0.74623000  0.22752000  1.0 -0.520786374
O  O31  1  0.48129000  0.25377000  0.31716000  1.0 -0.520786374
O  O32  1  0.51871000  0.83587000  0.77248000  1.0 -0.520786374
O  O33  1  0.68284000  0.93661000  0.16413000  1.0 -0.520786374
O  O34  1  0.22752000  0.06339000  0.74623000  1.0 -0.520786374
O  O35  1  0.31716000  0.48129000  0.25377000  1.0 -0.520786374
O  O36  1  0.77248000  0.51871000  0.83587000  1.0 -0.520786374
O  O37  1  0.77248000  0.25377000  0.93661000  1.0 -0.520786374
O  O38  1  0.31716000  0.83587000  0.06339000  1.0 -0.520786374
O  O39  1  0.22752000  0.16413000  0.48129000  1.0 -0.520786374
O  O40  1  0.68284000  0.74623000  0.51871000  1.0 -0.520786374
O  O41  1  0.74623000  0.51871000  0.68284000  1.0 -0.520786374
O  O42  1  0.16413000  0.48129000  0.22752000  1.0 -0.520786374
O  O43  1  0.83587000  0.06339000  0.31716000  1.0 -0.520786374
O  O44  1  0.25377000  0.93661000  0.77248000  1.0 -0.520786374
O  O45  1  0.48129000  0.22752000  0.16413000  1.0 -0.520786374
O  O46  1  0.51871000  0.68284000  0.74623000  1.0 -0.520786374
O  O47  1  0.93661000  0.77248000  0.25377000  1.0 -0.520786374
O  O48  1  0.06339000  0.31716000  0.83587000  1.0 -0.520786374
O  O49  1  0.88767000  0.26510000  0.06285000  1.0 -0.508700396
O  O50  1  0.20225000  0.82482000  0.93715000  1.0 -0.508700396
O  O51  1  0.79775000  0.73490000  0.62257000  1.0 -0.508700396
O  O52  1  0.11233000  0.17518000  0.37743000  1.0 -0.508700396
O  O53  1  0.06285000  0.88767000  0.26510000  1.0 -0.508700396
O  O54  1  0.93715000  0.20225000  0.82482000  1.0 -0.508700396
O  O55  1  0.62257000  0.79775000  0.73490000  1.0 -0.508700396
O  O56  1  0.37743000  0.11233000  0.17518000  1.0 -0.508700396
O  O57  1  0.26510000  0.06285000  0.88767000  1.0 -0.508700396
O  O58  1  0.82482000  0.93715000  0.20225000  1.0 -0.508700396
O  O59  1  0.73490000  0.62257000  0.79775000  1.0 -0.508700396
O  O60  1  0.17518000  0.37743000  0.11233000  1.0 -0.508700396
O  O61  1  0.17518000  0.79775000  0.06285000  1.0 -0.508700396
O  O62  1  0.73490000  0.11233000  0.93715000  1.0 -0.508700396
O  O63  1  0.82482000  0.88767000  0.62257000  1.0 -0.508700396
O  O64  1  0.26510000  0.20225000  0.37743000  1.0 -0.508700396
O  O65  1  0.20225000  0.37743000  0.26510000  1.0 -0.508700396
O  O66  1  0.88767000  0.62257000  0.82482000  1.0 -0.508700396
O  O67  1  0.11233000  0.93715000  0.73490000  1.0 -0.508700396
O  O68  1  0.79775000  0.06285000  0.17518000  1.0 -0.508700396
O  O69  1  0.62257000  0.82482000  0.88767000  1.0 -0.508700396
O  O70  1  0.37743000  0.26510000  0.20225000  1.0 -0.508700396
O  O71  1  0.06285000  0.17518000  0.79775000  1.0 -0.508700396
O  O72  1  0.93715000  0.73490000  0.11233000  1.0 -0.508700396
O  O73  1  0.11233000  0.73490000  0.93715000  1.0 -0.508700396
O  O74  1  0.79775000  0.17518000  0.06285000  1.0 -0.508700396
O  O75  1  0.20225000  0.26510000  0.37743000  1.0 -0.508700396
O  O76  1  0.88767000  0.82482000  0.62257000  1.0 -0.508700396
O  O77  1  0.93715000  0.11233000  0.73490000  1.0 -0.508700396
O  O78  1  0.06285000  0.79775000  0.17518000  1.0 -0.508700396
O  O79  1  0.37743000  0.20225000  0.26510000  1.0 -0.508700396
O  O80  1  0.62257000  0.88767000  0.82482000  1.0 -0.508700396
O  O81  1  0.73490000  0.93715000  0.11233000  1.0 -0.508700396
O  O82  1  0.17518000  0.06285000  0.79775000  1.0 -0.508700396
O  O83  1  0.26510000  0.37743000  0.20225000  1.0 -0.508700396
O  O84  1  0.82482000  0.62257000  0.88767000  1.0 -0.508700396
O  O85  1  0.82482000  0.20225000  0.93715000  1.0 -0.508700396
O  O86  1  0.26510000  0.88767000  0.06285000  1.0 -0.508700396
O  O87  1  0.17518000  0.11233000  0.37743000  1.0 -0.508700396
O  O88  1  0.73490000  0.79775000  0.62257000  1.0 -0.508700396
O  O89  1  0.79775000  0.62257000  0.73490000  1.0 -0.508700396
O  O90  1  0.11233000  0.37743000  0.17518000  1.0 -0.508700396
O  O91  1  0.88767000  0.06285000  0.26510000  1.0 -0.508700396
O  O92  1  0.20225000  0.93715000  0.82482000  1.0 -0.508700396
O  O93  1  0.37743000  0.17518000  0.11233000  1.0 -0.508700396
O  O94  1  0.62257000  0.73490000  0.79775000  1.0 -0.508700396
O  O95  1  0.93715000  0.82482000  0.20225000  1.0 -0.508700396
O  O96  1  0.06285000  0.26510000  0.88767000  1.0 -0.508700396
O  O97  1  0.91708000  0.49586000  0.25038000  1.0 -0.3808808057
O  O98  1  0.24548000  0.66666667  0.74962000  1.0 -0.3808808057
O  O99  1  0.75452000  0.50414000  0.42122000  1.0 -0.3808808057
O  O100  1  0.08292000  0.33333333  0.57878000  1.0 -0.3808808057
O  O101  1  0.25038000  0.91708000  0.49586000  1.0 -0.3808808057
O  O102  1  0.74962000  0.24548000  0.66666667  1.0 -0.3808808057
O  O103  1  0.42122000  0.75452000  0.50414000  1.0 -0.3808808057
O  O104  1  0.57878000  0.08292000  0.33333333  1.0 -0.3808808057
O  O105  1  0.49586000  0.25038000  0.91708000  1.0 -0.3808808057
O  O106  1  0.66666667  0.74962000  0.24548000  1.0 -0.3808808057
O  O107  1  0.50414000  0.42122000  0.75452000  1.0 -0.3808808057
O  O108  1  0.33333333  0.57878000  0.08292000  1.0 -0.3808808057
O  O109  1  0.33333333  0.75452000  0.25038000  1.0 -0.3808808057
O  O110  1  0.50414000  0.08292000  0.74962000  1.0 -0.3808808057
O  O111  1  0.66666667  0.91708000  0.42122000  1.0 -0.3808808057
O  O112  1  0.49586000  0.24548000  0.57878000  1.0 -0.3808808057
O  O113  1  0.24548000  0.57878000  0.49586000  1.0 -0.3808808057
O  O114  1  0.91708000  0.42122000  0.66666667  1.0 -0.3808808057
O  O115  1  0.08292000  0.74962000  0.50414000  1.0 -0.3808808057
O  O116  1  0.75452000  0.25038000  0.33333333  1.0 -0.3808808057
O  O117  1  0.42122000  0.66666667  0.91708000  1.0 -0.3808808057
O  O118  1  0.57878000  0.49586000  0.24548000  1.0 -0.3808808057
O  O119  1  0.25038000  0.33333333  0.75452000  1.0 -0.3808808057
O  O120  1  0.74962000  0.50414000  0.08292000  1.0 -0.3808808057
O  O121  1  0.08292000  0.50414000  0.74962000  1.0 -0.3808808057
O  O122  1  0.75452000  0.33333333  0.25038000  1.0 -0.3808808057
O  O123  1  0.24548000  0.49586000  0.57878000  1.0 -0.3808808057
O  O124  1  0.91708000  0.66666667  0.42122000  1.0 -0.3808808057
O  O125  1  0.74962000  0.08292000  0.50414000  1.0 -0.3808808057
O  O126  1  0.25038000  0.75452000  0.33333333  1.0 -0.3808808057
O  O127  1  0.57878000  0.24548000  0.49586000  1.0 -0.3808808057
O  O128  1  0.42122000  0.91708000  0.66666667  1.0 -0.3808808057
O  O129  1  0.50414000  0.74962000  0.08292000  1.0 -0.3808808057
O  O130  1  0.33333333  0.25038000  0.75452000  1.0 -0.3808808057
O  O131  1  0.49586000  0.57878000  0.24548000  1.0 -0.3808808057
O  O132  1  0.66666667  0.42122000  0.91708000  1.0 -0.3808808057
O  O133  1  0.66666667  0.24548000  0.74962000  1.0 -0.3808808057
O  O134  1  0.49586000  0.91708000  0.25038000  1.0 -0.3808808057
O  O135  1  0.33333333  0.08292000  0.57878000  1.0 -0.3808808057
O  O136  1  0.50414000  0.75452000  0.42122000  1.0 -0.3808808057
O  O137  1  0.75452000  0.42122000  0.50414000  1.0 -0.3808808057
O  O138  1  0.08292000  0.57878000  0.33333333  1.0 -0.3808808057
O  O139  1  0.91708000  0.25038000  0.49586000  1.0 -0.3808808057
O  O140  1  0.24548000  0.74962000  0.66666667  1.0 -0.3808808057
O  O141  1  0.57878000  0.33333333  0.08292000  1.0 -0.3808808057
O  O142  1  0.42122000  0.50414000  0.75452000  1.0 -0.3808808057
O  O143  1  0.74962000  0.66666667  0.24548000  1.0 -0.3808808057
O  O144  1  0.25038000  0.49586000  0.91708000  1.0 -0.3808808057
