# DDEC6 charges by PACMAN v1.1 (https://github.com/mtap-research/PACMAN-charge/)
data_DECDAT_FSR_pacman
_symmetry_space_group_name_H-M   'P 1'
_cell_length_a   6.17400000
_cell_length_b   11.73000000
_cell_length_c   17.67000000
_cell_angle_alpha   92.37700000
_cell_angle_beta   93.13100000
_cell_angle_gamma   102.76200000
_symmetry_Int_Tables_number   1
_chemical_formula_structural   CdH16(C11O4)2
_chemical_formula_sum   'Cd2 H32 C44 O16'
_cell_volume   1244.31847133
_cell_formula_units_Z   2
loop_
 _symmetry_equiv_pos_site_id
 _symmetry_equiv_pos_as_xyz
  1  'x, y, z'
loop_
 _atom_site_type_symbol
 _atom_site_label
 _atom_site_symmetry_multiplicity
 _atom_site_fract_x
 _atom_site_fract_y
 _atom_site_fract_z
 _atom_site_occupancy
 _atom_site_charge
Cd  Cd1  1  0.50645000  0.14573000  0.04717000  1.0 1.1279077488
Cd  Cd2  1  0.49355000  0.85427000  0.95283000  1.0 1.1279077488
H  H1  1  0.98400000  0.17800000  0.23830000  1.0 0.1290145613
H  H2  1  0.94440000  0.09150000  0.82320000  1.0 0.1290145613
H  H3  1  0.53780000  0.02420000  0.78490000  1.0 0.1207236625
H  H4  1  0.44600000  0.01000000  0.65540000  1.0 0.1207236625
H  H5  1  0.86020000  0.26520000  0.34170000  1.0 0.1207236625
H  H6  1  0.84660000  0.07010000  0.69550000  1.0 0.1207236625
H  H7  1  0.77600000  0.90530000  0.58880000  1.0 0.1290145613
H  H8  1  0.59990000  0.37140000  0.28900000  1.0 0.1207236625
H  H9  1  0.18100000  0.35250000  0.52500000  1.0 0.1290145613
H  H10  1  0.47150000  0.46400000  0.38920000  1.0 0.1207236625
H  H11  1  0.59780000  0.13240000  0.47390000  1.0 0.1290145613
H  H12  1  0.68090000  0.24710000  0.52580000  1.0 0.1402884382
H  H13  1  0.49370000  0.24110000  0.46120000  1.0 0.1290145613
H  H14  1  0.70740000  0.64750000  0.34740000  1.0 0.1290145613
H  H15  1  0.86640000  0.66690000  0.28060000  1.0 0.1402884382
H  H16  1  0.95260000  0.72030000  0.36240000  1.0 0.1207236625
H  H17  1  0.01600000  0.82200000  0.76170000  1.0 0.1290145613
H  H18  1  0.05560000  0.90850000  0.17680000  1.0 0.1290145613
H  H19  1  0.46220000  0.97580000  0.21510000  1.0 0.1207236625
H  H20  1  0.55400000  0.99000000  0.34460000  1.0 0.1207236625
H  H21  1  0.13980000  0.73480000  0.65830000  1.0 0.1207236625
H  H22  1  0.15340000  0.92990000  0.30450000  1.0 0.1207236625
H  H23  1  0.22400000  0.09470000  0.41120000  1.0 0.1290145613
H  H24  1  0.40010000  0.62860000  0.71100000  1.0 0.1207236625
H  H25  1  0.81900000  0.64750000  0.47500000  1.0 0.1290145613
H  H26  1  0.52850000  0.53600000  0.61080000  1.0 0.1207236625
H  H27  1  0.40220000  0.86760000  0.52610000  1.0 0.1290145613
H  H28  1  0.31910000  0.75290000  0.47420000  1.0 0.1402884382
H  H29  1  0.50630000  0.75890000  0.53880000  1.0 0.1290145613
H  H30  1  0.29260000  0.35250000  0.65260000  1.0 0.1290145613
H  H31  1  0.13360000  0.33310000  0.71940000  1.0 0.1402884382
H  H32  1  0.04740000  0.27970000  0.63760000  1.0 0.1207236625
C  C1  1  0.38400000  0.21590000  0.18210000  1.0 0.5125016528
C  C2  1  0.08280000  0.23540000  0.26860000  1.0 -0.0821577501
C  C3  1  0.96300000  0.52830000  0.42510000  1.0 0.1855881619
C  C4  1  0.07170000  0.43890000  0.43980000  1.0 -0.0296046813
C  C5  1  0.06770000  0.02010000  0.57810000  1.0 -0.0227043852
C  C6  1  0.04560000  0.07470000  0.78970000  1.0 -0.0821577501
C  C7  1  0.25430000  0.06320000  0.81790000  1.0 -0.0296046813
C  C8  1  0.13630000  0.03590000  0.66110000  1.0 0.0833132151
C  C9  1  0.30240000  0.26720000  0.25160000  1.0 -0.0227043852
C  C10  1  0.40020000  0.03560000  0.76690000  1.0 -0.0935122785
C  C11  1  0.32310000  0.08130000  0.90100000  1.0 0.5280300337
C  C12  1  0.34330000  0.02480000  0.68890000  1.0 -0.1667944234
C  C13  1  0.15270000  0.37560000  0.37590000  1.0 0.0833132151
C  C14  1  0.00830000  0.28830000  0.33040000  1.0 -0.1441284758
C  C15  1  0.98670000  0.06170000  0.71310000  1.0 -0.1623722394
C  C16  1  0.86670000  0.94400000  0.55320000  1.0 -0.2657970529
C  C17  1  0.20120000  0.07520000  0.52310000  1.0 0.1802107501
C  C18  1  0.44990000  0.35160000  0.29850000  1.0 -0.1080661234
C  C19  1  0.10770000  0.41200000  0.51480000  1.0 -0.2840755921
C  C20  1  0.37300000  0.40600000  0.35920000  1.0 -0.1623722394
C  C21  1  0.55380000  0.19730000  0.49860000  1.0 -0.2146300417
C  C22  1  0.85800000  0.65480000  0.33390000  1.0 -0.2239250284
C  C23  1  0.61600000  0.78410000  0.81790000  1.0 0.5125016528
C  C24  1  0.91720000  0.76460000  0.73140000  1.0 -0.0821577501
C  C25  1  0.03700000  0.47170000  0.57490000  1.0 0.1855881619
C  C26  1  0.92830000  0.56110000  0.56020000  1.0 -0.0296046813
C  C27  1  0.93230000  0.97990000  0.42190000  1.0 -0.0227043852
C  C28  1  0.95440000  0.92530000  0.21030000  1.0 -0.0821577501
C  C29  1  0.74570000  0.93680000  0.18210000  1.0 -0.0296046813
C  C30  1  0.86370000  0.96410000  0.33890000  1.0 0.0833132151
C  C31  1  0.69760000  0.73280000  0.74840000  1.0 -0.0227043852
C  C32  1  0.59980000  0.96440000  0.23310000  1.0 -0.0935122785
C  C33  1  0.67690000  0.91870000  0.09900000  1.0 0.5280300337
C  C34  1  0.65670000  0.97520000  0.31110000  1.0 -0.1667944234
C  C35  1  0.84730000  0.62440000  0.62410000  1.0 0.0833132151
C  C36  1  0.99170000  0.71170000  0.66960000  1.0 -0.1441284758
C  C37  1  0.01330000  0.93830000  0.28690000  1.0 -0.1623722394
C  C38  1  0.13330000  0.05600000  0.44680000  1.0 -0.2657970529
C  C39  1  0.79880000  0.92480000  0.47690000  1.0 0.1802107501
C  C40  1  0.55010000  0.64840000  0.70150000  1.0 -0.1080661234
C  C41  1  0.89230000  0.58800000  0.48520000  1.0 -0.2840755921
C  C42  1  0.62700000  0.59400000  0.64080000  1.0 -0.1623722394
C  C43  1  0.44620000  0.80270000  0.50140000  1.0 -0.2146300417
C  C44  1  0.14200000  0.34520000  0.66610000  1.0 -0.2239250284
O  O1  1  0.50460000  0.05630000  0.92440000  1.0 -0.6167724174
O  O2  1  0.20700000  0.12530000  0.94530000  1.0 -0.4729201239
O  O3  1  0.87970000  0.16740000  0.04240000  1.0 0.1207236625
O  O4  1  0.58780000  0.23180000  0.17320000  1.0 -0.5311288875
O  O5  1  0.54300000  0.33590000  0.01030000  1.0 -0.3608621997
O  O6  1  0.24160000  0.15590000  0.13310000  1.0 -0.5017037433
O  O7  1  0.92950000  0.55080000  0.35050000  1.0 -0.1261548888
O  O8  1  0.39170000  0.15570000  0.54940000  1.0 -0.1461834949
O  O9  1  0.49540000  0.94370000  0.07560000  1.0 -0.6167724174
O  O10  1  0.79300000  0.87470000  0.05470000  1.0 -0.4729201239
O  O11  1  0.12030000  0.83260000  0.95760000  1.0 0.1207236625
O  O12  1  0.41220000  0.76820000  0.82680000  1.0 -0.5311288875
O  O13  1  0.45700000  0.66410000  0.98970000  1.0 -0.3608621997
O  O14  1  0.75840000  0.84410000  0.86690000  1.0 -0.5017037433
O  O15  1  0.07050000  0.44920000  0.64950000  1.0 -0.1261548888
O  O16  1  0.60830000  0.84430000  0.45060000  1.0 -0.1461834949
