# DDEC6 charges by PACMAN v1.1 (https://github.com/mtap-research/PACMAN-charge/)
data_DEDGAX_ASR_pacman
_symmetry_space_group_name_H-M   'P 1'
_cell_length_a   9.58330000
_cell_length_b   18.48560000
_cell_length_c   19.03000000
_cell_angle_alpha   118.05900000
_cell_angle_beta   92.90900000
_cell_angle_gamma   92.56000000
_symmetry_Int_Tables_number   1
_chemical_formula_structural   Zn3H26C33(N3O4)3
_chemical_formula_sum   'Zn6 H52 C66 N18 O24'
_cell_volume   2962.15019996
_cell_formula_units_Z   2
loop_
 _symmetry_equiv_pos_site_id
 _symmetry_equiv_pos_as_xyz
  1  'x, y, z'
loop_
 _atom_site_type_symbol
 _atom_site_label
 _atom_site_symmetry_multiplicity
 _atom_site_fract_x
 _atom_site_fract_y
 _atom_site_fract_z
 _atom_site_occupancy
 _atom_site_charge
Zn  Zn1  1  0.98699000  0.08948000  0.19145000  1.0 0.8342524063
Zn  Zn2  1  0.56922000  0.60560000  0.19077000  1.0 0.7486275625
Zn  Zn3  1  0.01301000  0.91052000  0.80855000  1.0 0.8342524063
Zn  Zn4  1  0.43078000  0.39440000  0.80923000  1.0 0.7486275625
Zn  Zn5  1  0.50000000  0.50000000  0.00000000  1.0 1.0159943891
Zn  Zn6  1  0.00000000  0.00000000  0.00000000  1.0 1.0029534888
H  H1  1  0.68100000  0.91610000  0.99030000  1.0 0.1197601877
H  H2  1  0.47660000  0.86030000  0.90620000  1.0 0.1197601877
H  H3  1  0.80720000  0.42280000  0.00750000  1.0 0.1113694169
H  H4  1  0.98480000  0.35710000  0.92790000  1.0 0.1113694169
H  H5  1  0.24810000  0.33450000  0.01210000  1.0 0.1197601877
H  H6  1  0.14380000  0.21700000  0.01000000  1.0 0.1197601877
H  H7  1  0.24010000  0.31730000  0.24950000  1.0 0.1197601877
H  H8  1  0.34390000  0.43430000  0.25030000  1.0 0.1298496206
H  H9  1  0.35090000  0.81390000  0.23180000  1.0 0.1298496206
H  H10  1  0.23850000  0.92390000  0.23340000  1.0 0.1113694169
H  H11  1  0.25250000  0.82490000  0.99400000  1.0 0.1197601877
H  H12  1  0.36210000  0.71420000  0.99170000  1.0 0.1197601877
H  H13  1  0.22040000  0.80540000  0.67280000  1.0 0.1298496206
H  H14  1  0.96330000  0.96500000  0.67470000  1.0 0.1298496206
H  H15  1  0.16410000  0.92660000  0.51050000  1.0 0.1355002117
H  H16  1  0.01920000  0.96450000  0.54310000  1.0 0.1113694169
H  H17  1  0.98790000  0.85160000  0.40830000  1.0 0.0994629276
H  H18  1  0.04090000  0.79160000  0.44160000  1.0 0.1113694169
H  H19  1  0.85130000  0.82300000  0.52320000  1.0 0.0994629276
H  H20  1  0.79780000  0.88060000  0.48780000  1.0 0.0885830198
H  H21  1  0.55460000  0.61220000  0.36090000  1.0 0.0885830198
H  H22  1  0.73370000  0.76980000  0.31750000  1.0 0.0994629276
H  H23  1  0.78670000  0.87320000  0.47610000  1.0 0.0994629276
H  H24  1  0.84520000  0.82960000  0.52650000  1.0 0.0885830198
H  H25  1  0.73090000  0.56310000  0.31860000  1.0 0.0885830198
H  H26  1  0.77380000  0.76080000  0.30990000  1.0 0.0885830198
H  H27  1  0.31900000  0.08390000  0.00970000  1.0 0.1197601877
H  H28  1  0.52340000  0.13970000  0.09380000  1.0 0.1197601877
H  H29  1  0.19280000  0.57720000  0.99250000  1.0 0.1113694169
H  H30  1  0.01520000  0.64290000  0.07210000  1.0 0.1197601877
H  H31  1  0.75190000  0.66550000  0.98790000  1.0 0.1197601877
H  H32  1  0.85620000  0.78300000  0.99000000  1.0 0.1197601877
H  H33  1  0.75990000  0.68270000  0.75050000  1.0 0.1197601877
H  H34  1  0.65610000  0.56570000  0.74970000  1.0 0.1298496206
H  H35  1  0.64910000  0.18610000  0.76820000  1.0 0.1298496206
H  H36  1  0.76150000  0.07610000  0.76660000  1.0 0.1113694169
H  H37  1  0.74750000  0.17510000  0.00600000  1.0 0.1197601877
H  H38  1  0.63790000  0.28580000  0.00830000  1.0 0.1197601877
H  H39  1  0.77960000  0.19460000  0.32720000  1.0 0.1298496206
H  H40  1  0.03670000  0.03500000  0.32530000  1.0 0.1298496206
H  H41  1  0.83590000  0.07340000  0.48950000  1.0 0.1355002117
H  H42  1  0.98080000  0.03550000  0.45690000  1.0 0.1113694169
H  H43  1  0.01210000  0.14840000  0.59170000  1.0 0.0994629276
H  H44  1  0.95910000  0.20840000  0.55840000  1.0 0.1113694169
H  H45  1  0.14870000  0.17700000  0.47680000  1.0 0.0994629276
H  H46  1  0.20220000  0.11940000  0.51220000  1.0 0.0885830198
H  H47  1  0.44540000  0.38780000  0.63910000  1.0 0.0885830198
H  H48  1  0.26630000  0.23020000  0.68250000  1.0 0.0994629276
H  H49  1  0.21330000  0.12680000  0.52390000  1.0 0.0994629276
H  H50  1  0.15480000  0.17040000  0.47350000  1.0 0.0885830198
H  H51  1  0.26910000  0.43690000  0.68140000  1.0 0.0885830198
H  H52  1  0.22620000  0.23920000  0.69010000  1.0 0.0885830198
C  C1  1  0.75070000  0.06920000  0.10700000  1.0 0.5729435873
C  C2  1  0.62120000  0.03350000  0.05140000  1.0 -0.0108273074
C  C3  1  0.60700000  0.95010000  0.99440000  1.0 -0.0990616742
C  C4  1  0.48620000  0.91710000  0.94410000  1.0 -0.1088685972
C  C5  1  0.78200000  0.58280000  0.10100000  1.0 0.5613897634
C  C6  1  0.89390000  0.53950000  0.04740000  1.0 -0.0108273074
C  C7  1  0.88560000  0.45430000  0.00440000  1.0 -0.0990616742
C  C8  1  0.99090000  0.41540000  0.95740000  1.0 -0.1088685972
C  C9  1  0.38130000  0.46870000  0.13170000  1.0 0.5885808261
C  C10  1  0.11170000  0.18030000  0.12760000  1.0 0.5885808261
C  C11  1  0.30700000  0.39480000  0.13180000  1.0 -0.0108273074
C  C12  1  0.24630000  0.33060000  0.06010000  1.0 -0.1088685972
C  C13  1  0.18360000  0.26130000  0.05890000  1.0 -0.1088685972
C  C14  1  0.17870000  0.25640000  0.13030000  1.0 -0.0256075892
C  C15  1  0.24070000  0.32080000  0.20130000  1.0 -0.117166813
C  C16  1  0.30330000  0.39000000  0.20160000  1.0 -0.1088685972
C  C17  1  0.43160000  0.67970000  0.10980000  1.0 0.5885808261
C  C18  1  0.15740000  0.95460000  0.11520000  1.0 0.5960700107
C  C19  1  0.36430000  0.75210000  0.11070000  1.0 -0.018339477
C  C20  1  0.32950000  0.81570000  0.18340000  1.0 -0.1088685972
C  C21  1  0.26370000  0.88110000  0.18430000  1.0 -0.117166813
C  C22  1  0.23430000  0.88490000  0.11390000  1.0 -0.018339477
C  C23  1  0.27160000  0.82240000  0.04230000  1.0 -0.0990616742
C  C24  1  0.33640000  0.75670000  0.04100000  1.0 -0.1088685972
C  C25  1  0.16960000  0.83940000  0.65740000  1.0 0.1599591342
C  C26  1  0.03090000  0.92540000  0.65970000  1.0 0.0591231812
C  C27  1  0.07240000  0.91510000  0.52630000  1.0 -0.1288756314
C  C28  1  0.99160000  0.84190000  0.45530000  1.0 -0.2471428948
C  C29  1  0.84480000  0.82960000  0.47450000  1.0 -0.16954056
C  C30  1  0.61680000  0.65640000  0.36640000  1.0 0.1113694169
C  C31  1  0.71540000  0.73670000  0.34240000  1.0 0.0365384822
C  C32  1  0.74100000  0.62050000  0.33600000  1.0 0.0994629276
C  C33  1  0.75250000  0.72690000  0.33360000  1.0 0.0502230027
C  C34  1  0.24930000  0.93080000  0.89300000  1.0 0.5729435873
C  C35  1  0.37880000  0.96650000  0.94860000  1.0 -0.0108273074
C  C36  1  0.39300000  0.04990000  0.00560000  1.0 -0.0990616742
C  C37  1  0.51380000  0.08290000  0.05590000  1.0 -0.1088685972
C  C38  1  0.21800000  0.41720000  0.89900000  1.0 0.5613897634
C  C39  1  0.10610000  0.46050000  0.95260000  1.0 -0.0108273074
C  C40  1  0.11440000  0.54570000  0.99560000  1.0 -0.0990616742
C  C41  1  0.00910000  0.58460000  0.04260000  1.0 -0.1088685972
C  C42  1  0.61870000  0.53130000  0.86830000  1.0 0.5885808261
C  C43  1  0.88830000  0.81970000  0.87240000  1.0 0.5885808261
C  C44  1  0.69300000  0.60520000  0.86820000  1.0 -0.0108273074
C  C45  1  0.75370000  0.66940000  0.93990000  1.0 -0.1088685972
C  C46  1  0.81640000  0.73870000  0.94110000  1.0 -0.1088685972
C  C47  1  0.82130000  0.74360000  0.86970000  1.0 -0.0256075892
C  C48  1  0.75930000  0.67920000  0.79870000  1.0 -0.117166813
C  C49  1  0.69670000  0.61000000  0.79840000  1.0 -0.1088685972
C  C50  1  0.56840000  0.32030000  0.89020000  1.0 0.5885808261
C  C51  1  0.84260000  0.04540000  0.88480000  1.0 0.5960700107
C  C52  1  0.63570000  0.24790000  0.88930000  1.0 -0.0108273074
C  C53  1  0.67050000  0.18430000  0.81660000  1.0 -0.1088685972
C  C54  1  0.73630000  0.11890000  0.81570000  1.0 -0.117166813
C  C55  1  0.76570000  0.11510000  0.88610000  1.0 -0.018339477
C  C56  1  0.72840000  0.17760000  0.95770000  1.0 -0.1088685972
C  C57  1  0.66360000  0.24330000  0.95900000  1.0 -0.1088685972
C  C58  1  0.83040000  0.16060000  0.34260000  1.0 0.1599591342
C  C59  1  0.96910000  0.07460000  0.34030000  1.0 0.0591231812
C  C60  1  0.92760000  0.08490000  0.47370000  1.0 -0.1288756314
C  C61  1  0.00840000  0.15810000  0.54470000  1.0 -0.2471428948
C  C62  1  0.15520000  0.17040000  0.52550000  1.0 -0.16954056
C  C63  1  0.38320000  0.34360000  0.63360000  1.0 0.1113694169
C  C64  1  0.28460000  0.26330000  0.65760000  1.0 0.0335981105
C  C65  1  0.25900000  0.37950000  0.66400000  1.0 0.0994629276
C  C66  1  0.24750000  0.27310000  0.66640000  1.0 0.0502230027
N  N1  1  0.07570000  0.88980000  0.70270000  1.0 -0.3142832327
N  N2  1  0.18470000  0.84130000  0.59030000  1.0 -0.2471428948
N  N3  1  0.09460000  0.89720000  0.59360000  1.0 0.1599591342
N  N4  1  0.64960000  0.66650000  0.30380000  1.0 -0.2420679537
N  N5  1  0.67700000  0.71210000  0.43620000  1.0 -0.16954056
N  N6  1  0.75550000  0.76150000  0.41410000  1.0 0.0227758255
N  N7  1  0.68030000  0.65480000  0.29560000  1.0 -0.2420679537
N  N8  1  0.81500000  0.67240000  0.40150000  1.0 -0.1912127393
N  N9  1  0.79090000  0.74640000  0.40670000  1.0 0.17148592
N  N10  1  0.92430000  0.11020000  0.29730000  1.0 -0.3142832327
N  N11  1  0.81530000  0.15870000  0.40970000  1.0 -0.2471428948
N  N12  1  0.90540000  0.10280000  0.40640000  1.0 0.1599591342
N  N13  1  0.35040000  0.33350000  0.69620000  1.0 -0.2471428948
N  N14  1  0.32300000  0.28790000  0.56380000  1.0 -0.1779760528
N  N15  1  0.24450000  0.23850000  0.58590000  1.0 0.0227758255
N  N16  1  0.31970000  0.34520000  0.70440000  1.0 -0.2420679537
N  N17  1  0.18500000  0.32760000  0.59850000  1.0 -0.1912127393
N  N18  1  0.20910000  0.25360000  0.59330000  1.0 0.1817034078
O  O1  1  0.85700000  0.02368000  0.09324000  1.0 -0.5871405411
O  O2  1  0.75450000  0.13733000  0.16654000  1.0 -0.5324253249
O  O3  1  0.66830000  0.53732000  0.09469000  1.0 -0.5791632641
O  O4  1  0.79850000  0.65554000  0.15040000  1.0 -0.4844032633
O  O5  1  0.36810000  0.47531000  0.06905000  1.0 -0.5567642617
O  O6  1  0.45300000  0.51806000  0.19501000  1.0 -0.5077641416
O  O7  1  0.07960000  0.12083000  0.06061000  1.0 -0.5567642617
O  O8  1  0.09180000  0.18372000  0.19478000  1.0 -0.5408017743
O  O9  1  0.46170000  0.68459000  0.17750000  1.0 -0.5165508199
O  O10  1  0.45200000  0.62095000  0.04355000  1.0 -0.5526391673
O  O11  1  0.11260000  0.00394000  0.18124000  1.0 -0.5567642617
O  O12  1  0.14120000  0.95817000  0.05152000  1.0 -0.5408017743
O  O13  1  0.14300000  0.97632000  0.90676000  1.0 -0.5871405411
O  O14  1  0.24550000  0.86267000  0.83346000  1.0 -0.5324253249
O  O15  1  0.33170000  0.46268000  0.90531000  1.0 -0.5791632641
O  O16  1  0.20150000  0.34446000  0.84960000  1.0 -0.4844032633
O  O17  1  0.63190000  0.52469000  0.93095000  1.0 -0.5567642617
O  O18  1  0.54700000  0.48194000  0.80499000  1.0 -0.5077641416
O  O19  1  0.92040000  0.87917000  0.93939000  1.0 -0.5526391673
O  O20  1  0.90820000  0.81628000  0.80522000  1.0 -0.5408017743
O  O21  1  0.53830000  0.31541000  0.82250000  1.0 -0.5165508199
O  O22  1  0.54800000  0.37905000  0.95645000  1.0 -0.5526391673
O  O23  1  0.88740000  0.99606000  0.81876000  1.0 -0.5567642617
O  O24  1  0.85880000  0.04183000  0.94848000  1.0 -0.5408017743
