# DDEC6 charges by PACMAN v1.1 (https://github.com/mtap-research/PACMAN-charge/)
data_DEFKUU_FSR_pacman
_symmetry_space_group_name_H-M   'P 1'
_cell_length_a   5.02200000
_cell_length_b   12.34000000
_cell_length_c   16.07880000
_cell_angle_alpha   90.00000000
_cell_angle_beta   106.32300000
_cell_angle_gamma   90.00000000
_symmetry_Int_Tables_number   1
_chemical_formula_structural   Cu3P2H12(CO2)6
_chemical_formula_sum   'Cu6 P4 H24 C12 O24'
_cell_volume   956.26359764
_cell_formula_units_Z   2
loop_
 _symmetry_equiv_pos_site_id
 _symmetry_equiv_pos_as_xyz
  1  'x, y, z'
loop_
 _atom_site_type_symbol
 _atom_site_label
 _atom_site_symmetry_multiplicity
 _atom_site_fract_x
 _atom_site_fract_y
 _atom_site_fract_z
 _atom_site_occupancy
 _atom_site_charge
Cu  Cu1  1  0.00000000  0.00000000  0.00000000  1.0 1.0595568233
Cu  Cu2  1  0.00000000  0.50000000  0.50000000  1.0 1.0595568233
Cu  Cu3  1  0.64630000  0.86470000  0.11720000  1.0 1.0153175407
Cu  Cu4  1  0.35370000  0.36470000  0.38280000  1.0 1.0131574684
Cu  Cu5  1  0.35370000  0.13530000  0.88280000  1.0 1.0131574684
Cu  Cu6  1  0.64630000  0.63530000  0.61720000  1.0 1.0131574684
P  P1  1  0.58070000  0.10770000  0.07990000  1.0 1.3072501534
P  P2  1  0.41930000  0.60770000  0.42010000  1.0 1.3072501534
P  P3  1  0.41930000  0.89230000  0.92010000  1.0 1.3072501534
P  P4  1  0.58070000  0.39230000  0.57990000  1.0 1.3072501534
H  H1  1  0.53400000  0.29400000  0.09700000  1.0 0.140216943
H  H2  1  0.46600000  0.79400000  0.40300000  1.0 0.140216943
H  H3  1  0.46600000  0.70600000  0.90300000  1.0 0.140216943
H  H4  1  0.53400000  0.20600000  0.59700000  1.0 0.140216943
H  H5  1  0.39400000  0.22300000  0.15200000  1.0 0.1580299289
H  H6  1  0.60600000  0.72300000  0.34800000  1.0 0.1580299289
H  H7  1  0.60600000  0.77700000  0.84800000  1.0 0.1580299289
H  H8  1  0.39400000  0.27700000  0.65200000  1.0 0.1580299289
H  H9  1  0.94800000  0.28200000  0.20900000  1.0 0.140216943
H  H10  1  0.05200000  0.78200000  0.29100000  1.0 0.140216943
H  H11  1  0.05200000  0.71800000  0.79100000  1.0 0.140216943
H  H12  1  0.94800000  0.21800000  0.70900000  1.0 0.140216943
H  H13  1  0.85200000  0.17900000  0.24600000  1.0 0.1347771698
H  H14  1  0.14800000  0.67900000  0.25400000  1.0 0.1347771698
H  H15  1  0.14800000  0.82100000  0.75400000  1.0 0.1347771698
H  H16  1  0.85200000  0.32100000  0.74600000  1.0 0.1347771698
H  H17  1  0.76600000  0.69000000  0.06300000  1.0 0.3584372663
H  H18  1  0.23400000  0.19000000  0.43700000  1.0 0.3584372663
H  H19  1  0.23400000  0.31000000  0.93700000  1.0 0.3584372663
H  H20  1  0.76600000  0.81000000  0.56300000  1.0 0.3584372663
H  H21  1  0.63800000  0.66400000  0.12400000  1.0 0.3584372663
H  H22  1  0.36200000  0.16400000  0.37600000  1.0 0.3548791223
H  H23  1  0.36200000  0.33600000  0.87600000  1.0 0.3548791223
H  H24  1  0.63800000  0.83600000  0.62400000  1.0 0.3584372663
C  C1  1  0.55140000  0.23000000  0.13590000  1.0 -0.4169457889
C  C2  1  0.44860000  0.73000000  0.36410000  1.0 -0.4169457889
C  C3  1  0.44860000  0.77000000  0.86410000  1.0 -0.4169457889
C  C4  1  0.55140000  0.27000000  0.63590000  1.0 -0.4169457889
C  C5  1  0.78740000  0.24840000  0.21780000  1.0 -0.2816519774
C  C6  1  0.21260000  0.74840000  0.28220000  1.0 -0.2816519774
C  C7  1  0.21260000  0.75160000  0.78220000  1.0 -0.2816519774
C  C8  1  0.78740000  0.25160000  0.71780000  1.0 -0.2816519774
C  C9  1  0.71210000  0.31650000  0.28590000  1.0 0.6325522774
C  C10  1  0.28790000  0.81650000  0.21410000  1.0 0.6325522774
C  C11  1  0.28790000  0.68350000  0.71410000  1.0 0.6325522774
C  C12  1  0.71210000  0.18350000  0.78590000  1.0 0.6325522774
O  O1  1  0.83650000  0.11710000  0.04650000  1.0 -0.749004154
O  O2  1  0.16350000  0.61710000  0.45350000  1.0 -0.749004154
O  O3  1  0.16350000  0.88290000  0.95350000  1.0 -0.749004154
O  O4  1  0.83650000  0.38290000  0.54650000  1.0 -0.749004154
O  O5  1  0.68270000  0.90230000  0.99920000  1.0 -0.7840216494
O  O6  1  0.31730000  0.40230000  0.50080000  1.0 -0.7840216494
O  O7  1  0.31730000  0.09770000  0.00080000  1.0 -0.7840216494
O  O8  1  0.68270000  0.59770000  0.49920000  1.0 -0.7840216494
O  O9  1  0.59130000  0.01490000  0.14250000  1.0 -0.7438163347
O  O10  1  0.40870000  0.51490000  0.35750000  1.0 -0.749004154
O  O11  1  0.40870000  0.98510000  0.85750000  1.0 -0.7438163347
O  O12  1  0.59130000  0.48510000  0.64250000  1.0 -0.749004154
O  O13  1  0.45480000  0.31930000  0.28150000  1.0 -0.5493620819
O  O14  1  0.54520000  0.81930000  0.21850000  1.0 -0.5493620819
O  O15  1  0.54520000  0.68070000  0.71850000  1.0 -0.5493620819
O  O16  1  0.45480000  0.18070000  0.78150000  1.0 -0.5493620819
O  O17  1  0.89350000  0.36260000  0.34410000  1.0 -0.617784012
O  O18  1  0.10650000  0.86260000  0.15590000  1.0 -0.617784012
O  O19  1  0.10650000  0.63740000  0.65590000  1.0 -0.617784012
O  O20  1  0.89350000  0.13740000  0.84410000  1.0 -0.617784012
O  O21  1  0.62870000  0.70810000  0.08470000  1.0 -0.6264348663
O  O22  1  0.37130000  0.20810000  0.41530000  1.0 -0.6264348663
O  O23  1  0.37130000  0.29190000  0.91530000  1.0 -0.6264348663
O  O24  1  0.62870000  0.79190000  0.58470000  1.0 -0.6264348663
