# DDEC6 charges by PACMAN v1.1 (https://github.com/mtap-research/PACMAN-charge/)
data_DEFPUD_ASR_pacman
_symmetry_space_group_name_H-M   'P 1'
_cell_length_a   39.79800000
_cell_length_b   39.79800000
_cell_length_c   39.79800000
_cell_angle_alpha   109.47100000
_cell_angle_beta   109.47100000
_cell_angle_gamma   109.47100000
_symmetry_Int_Tables_number   1
_chemical_formula_structural   Cu12H120C195N17O48
_chemical_formula_sum   'Cu48 H480 C780 N68 O192'
_cell_volume   48524.98389237
_cell_formula_units_Z   4
loop_
 _symmetry_equiv_pos_site_id
 _symmetry_equiv_pos_as_xyz
  1  'x, y, z'
loop_
 _atom_site_type_symbol
 _atom_site_label
 _atom_site_symmetry_multiplicity
 _atom_site_fract_x
 _atom_site_fract_y
 _atom_site_fract_z
 _atom_site_occupancy
 _atom_site_charge
Cu  Cu1  1  0.24287000  0.85121000  0.60834000  1.0 0.870860765
Cu  Cu2  1  0.24329000  0.90895000  0.66566000  1.0 0.7630384109
Cu  Cu3  1  0.24729000  0.06756000  0.82027000  1.0 0.7630384109
Cu  Cu4  1  0.24287000  0.63453000  0.39166000  1.0 0.870860765
Cu  Cu5  1  0.24329000  0.57763000  0.33434000  1.0 0.7630384109
Cu  Cu6  1  0.24729000  0.42702000  0.17973000  1.0 0.7630384109
Cu  Cu7  1  0.75713000  0.36547000  0.60834000  1.0 0.870860765
Cu  Cu8  1  0.75671000  0.42237000  0.66566000  1.0 0.7630384109
Cu  Cu9  1  0.75271000  0.57298000  0.82027000  1.0 0.7630384109
Cu  Cu10  1  0.75713000  0.14879000  0.39166000  1.0 0.870860765
Cu  Cu11  1  0.75671000  0.09105000  0.33434000  1.0 0.7630384109
Cu  Cu12  1  0.75271000  0.93244000  0.17973000  1.0 0.7630384109
Cu  Cu13  1  0.14879000  0.39166000  0.75713000  1.0 0.870860765
Cu  Cu14  1  0.09105000  0.33434000  0.75671000  1.0 0.7630384109
Cu  Cu15  1  0.93244000  0.17973000  0.75271000  1.0 0.7630384109
Cu  Cu16  1  0.36547000  0.60834000  0.75713000  1.0 0.870860765
Cu  Cu17  1  0.42237000  0.66566000  0.75671000  1.0 0.7630384109
Cu  Cu18  1  0.57298000  0.82027000  0.75271000  1.0 0.7630384109
Cu  Cu19  1  0.63453000  0.39166000  0.24287000  1.0 0.870860765
Cu  Cu20  1  0.57763000  0.33434000  0.24329000  1.0 0.7630384109
Cu  Cu21  1  0.42702000  0.17973000  0.24729000  1.0 0.7630384109
Cu  Cu22  1  0.85121000  0.60834000  0.24287000  1.0 0.870860765
Cu  Cu23  1  0.90895000  0.66566000  0.24329000  1.0 0.7664219385
Cu  Cu24  1  0.06756000  0.82027000  0.24729000  1.0 0.7630384109
Cu  Cu25  1  0.60834000  0.75713000  0.36547000  1.0 0.870860765
Cu  Cu26  1  0.66566000  0.75671000  0.42237000  1.0 0.7630384109
Cu  Cu27  1  0.82027000  0.75271000  0.57298000  1.0 0.7630384109
Cu  Cu28  1  0.39166000  0.75713000  0.14879000  1.0 0.870860765
Cu  Cu29  1  0.33434000  0.75671000  0.09105000  1.0 0.7630384109
Cu  Cu30  1  0.17973000  0.75271000  0.93244000  1.0 0.7630384109
Cu  Cu31  1  0.60834000  0.24287000  0.85121000  1.0 0.870860765
Cu  Cu32  1  0.66566000  0.24329000  0.90895000  1.0 0.7630384109
Cu  Cu33  1  0.82027000  0.24729000  0.06756000  1.0 0.7630384109
Cu  Cu34  1  0.39166000  0.24287000  0.63453000  1.0 0.870860765
Cu  Cu35  1  0.33434000  0.24329000  0.57763000  1.0 0.7630384109
Cu  Cu36  1  0.17973000  0.24729000  0.42702000  1.0 0.7630384109
Cu  Cu37  1  0.12386000  0.87724000  0.24662000  1.0 0.7979241159
Cu  Cu38  1  0.63062000  0.87724000  0.75338000  1.0 0.7979241159
Cu  Cu39  1  0.87614000  0.12276000  0.75338000  1.0 0.7979241159
Cu  Cu40  1  0.36938000  0.12276000  0.24662000  1.0 0.7979241159
Cu  Cu41  1  0.12276000  0.24662000  0.36938000  1.0 0.7979241159
Cu  Cu42  1  0.12276000  0.75338000  0.87614000  1.0 0.7979241159
Cu  Cu43  1  0.87724000  0.75338000  0.63062000  1.0 0.7979241159
Cu  Cu44  1  0.87724000  0.24662000  0.12386000  1.0 0.7979241159
Cu  Cu45  1  0.75338000  0.87614000  0.12276000  1.0 0.7979241159
Cu  Cu46  1  0.24662000  0.36938000  0.12276000  1.0 0.7979241159
Cu  Cu47  1  0.24662000  0.12386000  0.87724000  1.0 0.7979241159
Cu  Cu48  1  0.75338000  0.63062000  0.87724000  1.0 0.7979241159
H  H1  1  0.24230000  0.89920000  0.52610000  1.0 0.129260307
H  H2  1  0.23610000  0.93130000  0.48780000  1.0 0.129260307
H  H3  1  0.22340000  0.01250000  0.56770000  1.0 0.129260307
H  H4  1  0.23700000  0.98770000  0.61070000  1.0 0.129260307
H  H5  1  0.24200000  0.11060000  0.50760000  1.0 0.1214611301
H  H6  1  0.20620000  0.03920000  0.47860000  1.0 0.129260307
H  H7  1  0.29730000  0.04380000  0.56310000  1.0 0.129260307
H  H8  1  0.34130000  0.11220000  0.58730000  1.0 0.1214611301
H  H9  1  0.12100000  0.87960000  0.38460000  1.0 0.1214611301
H  H10  1  0.15340000  0.92700000  0.45140000  1.0 0.1395813409
H  H11  1  0.24270000  0.00000000  0.44310000  1.0 0.129260307
H  H12  1  0.20610000  0.95390000  0.37280000  1.0 0.1214611301
H  H13  1  0.07640000  0.95590000  0.24450000  1.0 0.129260307
H  H14  1  0.06300000  0.00760000  0.27220000  1.0 0.129260307
H  H15  1  0.97430000  0.92890000  0.28300000  1.0 0.129260307
H  H16  1  0.99920000  0.88420000  0.26820000  1.0 0.129260307
H  H17  1  0.20410000  0.96420000  0.67730000  1.0 0.129260307
H  H18  1  0.20980000  0.01950000  0.72470000  1.0 0.129260307
H  H19  1  0.37310000  0.71620000  0.47390000  1.0 0.129260307
H  H20  1  0.44350000  0.74830000  0.51220000  1.0 0.129260307
H  H21  1  0.44480000  0.65570000  0.43230000  1.0 0.129260307
H  H22  1  0.37700000  0.62630000  0.38930000  1.0 0.129260307
H  H23  1  0.60300000  0.73440000  0.49240000  1.0 0.1214611301
H  H24  1  0.56060000  0.72760000  0.52140000  1.0 0.129260307
H  H25  1  0.48070000  0.73420000  0.43690000  1.0 0.129260307
H  H26  1  0.52490000  0.75400000  0.41270000  1.0 0.1214611301
H  H27  1  0.49500000  0.73640000  0.61540000  1.0 0.1214611301
H  H28  1  0.47560000  0.70200000  0.54860000  1.0 0.1395813409
H  H29  1  0.55690000  0.79960000  0.55690000  1.0 0.129260307
H  H30  1  0.58110000  0.83330000  0.62720000  1.0 0.1214611301
H  H31  1  0.71140000  0.83190000  0.75550000  1.0 0.129260307
H  H32  1  0.73540000  0.79080000  0.72780000  1.0 0.129260307
H  H33  1  0.64590000  0.69130000  0.71700000  1.0 0.129260307
H  H34  1  0.61600000  0.73100000  0.73180000  1.0 0.129260307
H  H35  1  0.28690000  0.52680000  0.32270000  1.0 0.129260307
H  H36  1  0.29480000  0.48510000  0.27530000  1.0 0.129260307
H  H37  1  0.75770000  0.28380000  0.65690000  1.0 0.129260307
H  H38  1  0.76390000  0.25170000  0.69520000  1.0 0.129260307
H  H39  1  0.77660000  0.34430000  0.78910000  1.0 0.129260307
H  H40  1  0.76300000  0.37370000  0.75070000  1.0 0.129260307
H  H41  1  0.75800000  0.26560000  0.86860000  1.0 0.1214611301
H  H42  1  0.79380000  0.27240000  0.83300000  1.0 0.129260307
H  H43  1  0.70270000  0.26580000  0.74650000  1.0 0.129260307
H  H44  1  0.65870000  0.24600000  0.77090000  1.0 0.1214611301
H  H45  1  0.87900000  0.26360000  0.75860000  1.0 0.1214611301
H  H46  1  0.84660000  0.29800000  0.77360000  1.0 0.1395813409
H  H47  1  0.75730000  0.20040000  0.75730000  1.0 0.129260307
H  H48  1  0.79390000  0.16670000  0.74780000  1.0 0.1214611301
H  H49  1  0.92360000  0.16810000  0.87950000  1.0 0.129260307
H  H50  1  0.93700000  0.20920000  0.94460000  1.0 0.129260307
H  H51  1  0.02570000  0.30870000  0.95460000  1.0 0.129260307
H  H52  1  0.00080000  0.26900000  0.88500000  1.0 0.129260307
H  H53  1  0.79590000  0.47320000  0.76010000  1.0 0.129260307
H  H54  1  0.79020000  0.51490000  0.80970000  1.0 0.129260307
H  H55  1  0.62690000  0.10080000  0.34310000  1.0 0.129260307
H  H56  1  0.55650000  0.06870000  0.30480000  1.0 0.129260307
H  H57  1  0.55520000  0.98750000  0.21090000  1.0 0.129260307
H  H58  1  0.62300000  0.01230000  0.24930000  1.0 0.129260307
H  H59  1  0.39700000  0.88940000  0.13140000  1.0 0.1214611301
H  H60  1  0.43940000  0.96080000  0.16700000  1.0 0.129260307
H  H61  1  0.51930000  0.95620000  0.25350000  1.0 0.129260307
H  H62  1  0.47510000  0.88780000  0.22910000  1.0 0.1214611301
H  H63  1  0.50500000  0.12040000  0.24140000  1.0 0.1214611301
H  H64  1  0.52440000  0.07300000  0.22640000  1.0 0.1395813409
H  H65  1  0.44310000  0.00000000  0.24270000  1.0 0.129260307
H  H66  1  0.41890000  0.04610000  0.25220000  1.0 0.1214611301
H  H67  1  0.28860000  0.04410000  0.12050000  1.0 0.129260307
H  H68  1  0.26460000  0.99240000  0.05540000  1.0 0.129260307
H  H69  1  0.35410000  0.07110000  0.04540000  1.0 0.129260307
H  H70  1  0.38400000  0.11580000  0.11500000  1.0 0.129260307
H  H71  1  0.71310000  0.03580000  0.23990000  1.0 0.129260307
H  H72  1  0.70520000  0.98050000  0.19030000  1.0 0.129260307
H  H73  1  0.10080000  0.34310000  0.62690000  1.0 0.129260307
H  H74  1  0.06870000  0.30480000  0.55650000  1.0 0.129260307
H  H75  1  0.98750000  0.21090000  0.55520000  1.0 0.129260307
H  H76  1  0.01230000  0.24930000  0.62300000  1.0 0.129260307
H  H77  1  0.88940000  0.13140000  0.39700000  1.0 0.1214611301
H  H78  1  0.96080000  0.16700000  0.43940000  1.0 0.129260307
H  H79  1  0.95620000  0.25350000  0.51930000  1.0 0.129260307
H  H80  1  0.88780000  0.22910000  0.47510000  1.0 0.1214611301
H  H81  1  0.12040000  0.24140000  0.50500000  1.0 0.1214611301
H  H82  1  0.07300000  0.22640000  0.52440000  1.0 0.1395813409
H  H83  1  0.00000000  0.24270000  0.44310000  1.0 0.129260307
H  H84  1  0.04610000  0.25220000  0.41890000  1.0 0.1214611301
H  H85  1  0.04410000  0.12050000  0.28860000  1.0 0.129260307
H  H86  1  0.99240000  0.05540000  0.26460000  1.0 0.129260307
H  H87  1  0.07110000  0.04540000  0.35410000  1.0 0.129260307
H  H88  1  0.11580000  0.11500000  0.38400000  1.0 0.129260307
H  H89  1  0.03580000  0.23990000  0.71310000  1.0 0.129260307
H  H90  1  0.98050000  0.19030000  0.70520000  1.0 0.129260307
H  H91  1  0.28380000  0.65690000  0.75770000  1.0 0.129260307
H  H92  1  0.25170000  0.69520000  0.76390000  1.0 0.129260307
H  H93  1  0.34430000  0.78910000  0.77660000  1.0 0.129260307
H  H94  1  0.37370000  0.75070000  0.76300000  1.0 0.129260307
H  H95  1  0.26560000  0.86860000  0.75800000  1.0 0.1214611301
H  H96  1  0.27240000  0.83300000  0.79380000  1.0 0.129260307
H  H97  1  0.26580000  0.74650000  0.70270000  1.0 0.129260307
H  H98  1  0.24600000  0.77090000  0.65870000  1.0 0.1214611301
H  H99  1  0.26360000  0.75860000  0.87900000  1.0 0.1214611301
H  H100  1  0.29800000  0.77360000  0.84660000  1.0 0.1395813409
H  H101  1  0.20040000  0.75730000  0.75730000  1.0 0.129260307
H  H102  1  0.16670000  0.74780000  0.79390000  1.0 0.1214611301
H  H103  1  0.16810000  0.87950000  0.92360000  1.0 0.129260307
H  H104  1  0.20920000  0.94460000  0.93700000  1.0 0.129260307
H  H105  1  0.30870000  0.95460000  0.02570000  1.0 0.129260307
H  H106  1  0.26900000  0.88500000  0.00080000  1.0 0.129260307
H  H107  1  0.47320000  0.76010000  0.79590000  1.0 0.129260307
H  H108  1  0.51490000  0.80970000  0.79020000  1.0 0.129260307
H  H109  1  0.71620000  0.47390000  0.37310000  1.0 0.129260307
H  H110  1  0.74830000  0.51220000  0.44350000  1.0 0.129260307
H  H111  1  0.65570000  0.43230000  0.44480000  1.0 0.129260307
H  H112  1  0.62630000  0.38930000  0.37700000  1.0 0.129260307
H  H113  1  0.73440000  0.49240000  0.60300000  1.0 0.1214611301
H  H114  1  0.72760000  0.52140000  0.56060000  1.0 0.129260307
H  H115  1  0.73420000  0.43690000  0.48070000  1.0 0.129260307
H  H116  1  0.75400000  0.41270000  0.52490000  1.0 0.1214611301
H  H117  1  0.73640000  0.61540000  0.49500000  1.0 0.1214611301
H  H118  1  0.70200000  0.54860000  0.47560000  1.0 0.1395813409
H  H119  1  0.79960000  0.55690000  0.55690000  1.0 0.129260307
H  H120  1  0.83330000  0.62720000  0.58110000  1.0 0.1214611301
H  H121  1  0.83190000  0.75550000  0.71140000  1.0 0.129260307
H  H122  1  0.79080000  0.72780000  0.73540000  1.0 0.129260307
H  H123  1  0.69130000  0.71700000  0.64590000  1.0 0.129260307
H  H124  1  0.73100000  0.73180000  0.61600000  1.0 0.129260307
H  H125  1  0.52680000  0.32270000  0.28690000  1.0 0.129260307
H  H126  1  0.48510000  0.27530000  0.29480000  1.0 0.129260307
H  H127  1  0.89920000  0.52610000  0.24230000  1.0 0.129260307
H  H128  1  0.93130000  0.48780000  0.23610000  1.0 0.129260307
H  H129  1  0.01250000  0.56770000  0.22340000  1.0 0.129260307
H  H130  1  0.98770000  0.61070000  0.23700000  1.0 0.129260307
H  H131  1  0.11060000  0.50760000  0.24200000  1.0 0.1214611301
H  H132  1  0.03920000  0.47860000  0.20620000  1.0 0.129260307
H  H133  1  0.04380000  0.56310000  0.29730000  1.0 0.129260307
H  H134  1  0.11220000  0.58730000  0.34130000  1.0 0.1214611301
H  H135  1  0.87960000  0.38460000  0.12100000  1.0 0.1214611301
H  H136  1  0.92700000  0.45140000  0.15340000  1.0 0.1395813409
H  H137  1  0.00000000  0.44310000  0.24270000  1.0 0.129260307
H  H138  1  0.95390000  0.37280000  0.20610000  1.0 0.1214611301
H  H139  1  0.95590000  0.24450000  0.07640000  1.0 0.129260307
H  H140  1  0.00760000  0.27220000  0.06300000  1.0 0.129260307
H  H141  1  0.92890000  0.28300000  0.97430000  1.0 0.129260307
H  H142  1  0.88420000  0.26820000  0.99920000  1.0 0.129260307
H  H143  1  0.96420000  0.67730000  0.20410000  1.0 0.129260307
H  H144  1  0.01950000  0.72470000  0.20980000  1.0 0.129260307
H  H145  1  0.65690000  0.75770000  0.28380000  1.0 0.129260307
H  H146  1  0.69520000  0.76390000  0.25170000  1.0 0.129260307
H  H147  1  0.78910000  0.77660000  0.34430000  1.0 0.129260307
H  H148  1  0.75070000  0.76300000  0.37370000  1.0 0.129260307
H  H149  1  0.86860000  0.75800000  0.26560000  1.0 0.1214611301
H  H150  1  0.83300000  0.79380000  0.27240000  1.0 0.129260307
H  H151  1  0.74650000  0.70270000  0.26580000  1.0 0.129260307
H  H152  1  0.77090000  0.65870000  0.24600000  1.0 0.1214611301
H  H153  1  0.75860000  0.87900000  0.26360000  1.0 0.1214611301
H  H154  1  0.77360000  0.84660000  0.29800000  1.0 0.1395813409
H  H155  1  0.75730000  0.75730000  0.20040000  1.0 0.129260307
H  H156  1  0.74780000  0.79390000  0.16670000  1.0 0.1214611301
H  H157  1  0.87950000  0.92360000  0.16810000  1.0 0.129260307
H  H158  1  0.94460000  0.93700000  0.20920000  1.0 0.129260307
H  H159  1  0.95460000  0.02570000  0.30870000  1.0 0.129260307
H  H160  1  0.88500000  0.00080000  0.26900000  1.0 0.129260307
H  H161  1  0.76010000  0.79590000  0.47320000  1.0 0.129260307
H  H162  1  0.80970000  0.79020000  0.51490000  1.0 0.129260307
H  H163  1  0.34310000  0.62690000  0.10080000  1.0 0.129260307
H  H164  1  0.30480000  0.55650000  0.06870000  1.0 0.129260307
H  H165  1  0.21090000  0.55520000  0.98750000  1.0 0.129260307
H  H166  1  0.24930000  0.62300000  0.01230000  1.0 0.129260307
H  H167  1  0.13140000  0.39700000  0.88940000  1.0 0.1214611301
H  H168  1  0.16700000  0.43940000  0.96080000  1.0 0.129260307
H  H169  1  0.25350000  0.51930000  0.95620000  1.0 0.129260307
H  H170  1  0.22910000  0.47510000  0.88780000  1.0 0.1214611301
H  H171  1  0.24140000  0.50500000  0.12040000  1.0 0.1214611301
H  H172  1  0.22640000  0.52440000  0.07300000  1.0 0.1395813409
H  H173  1  0.24270000  0.44310000  0.00000000  1.0 0.129260307
H  H174  1  0.25220000  0.41890000  0.04610000  1.0 0.129260307
H  H175  1  0.12050000  0.28860000  0.04410000  1.0 0.129260307
H  H176  1  0.05540000  0.26460000  0.99240000  1.0 0.129260307
H  H177  1  0.04540000  0.35410000  0.07110000  1.0 0.129260307
H  H178  1  0.11500000  0.38400000  0.11580000  1.0 0.129260307
H  H179  1  0.23990000  0.71310000  0.03580000  1.0 0.129260307
H  H180  1  0.19030000  0.70520000  0.98050000  1.0 0.129260307
H  H181  1  0.52610000  0.24230000  0.89920000  1.0 0.129260307
H  H182  1  0.48780000  0.23610000  0.93130000  1.0 0.129260307
H  H183  1  0.56770000  0.22340000  0.01250000  1.0 0.129260307
H  H184  1  0.61070000  0.23700000  0.98770000  1.0 0.129260307
H  H185  1  0.50760000  0.24200000  0.11060000  1.0 0.1214611301
H  H186  1  0.47860000  0.20620000  0.03920000  1.0 0.129260307
H  H187  1  0.56310000  0.29730000  0.04380000  1.0 0.129260307
H  H188  1  0.58730000  0.34130000  0.11220000  1.0 0.1214611301
H  H189  1  0.38460000  0.12100000  0.87960000  1.0 0.1214611301
H  H190  1  0.45140000  0.15340000  0.92700000  1.0 0.1395813409
H  H191  1  0.44310000  0.24270000  0.00000000  1.0 0.129260307
H  H192  1  0.37280000  0.20610000  0.95390000  1.0 0.1214611301
H  H193  1  0.24450000  0.07640000  0.95590000  1.0 0.129260307
H  H194  1  0.27220000  0.06300000  0.00760000  1.0 0.129260307
H  H195  1  0.28300000  0.97430000  0.92890000  1.0 0.129260307
H  H196  1  0.26820000  0.99920000  0.88420000  1.0 0.129260307
H  H197  1  0.67730000  0.20410000  0.96420000  1.0 0.129260307
H  H198  1  0.72470000  0.20980000  0.01950000  1.0 0.129260307
H  H199  1  0.47390000  0.37310000  0.71620000  1.0 0.129260307
H  H200  1  0.51220000  0.44350000  0.74830000  1.0 0.129260307
H  H201  1  0.43230000  0.44480000  0.65570000  1.0 0.129260307
H  H202  1  0.38930000  0.37700000  0.62630000  1.0 0.129260307
H  H203  1  0.49240000  0.60300000  0.73440000  1.0 0.1214611301
H  H204  1  0.52140000  0.56060000  0.72760000  1.0 0.129260307
H  H205  1  0.43690000  0.48070000  0.73420000  1.0 0.129260307
H  H206  1  0.41270000  0.52490000  0.75400000  1.0 0.1214611301
H  H207  1  0.61540000  0.49500000  0.73640000  1.0 0.1214611301
H  H208  1  0.54860000  0.47560000  0.70200000  1.0 0.1395813409
H  H209  1  0.55690000  0.55690000  0.79960000  1.0 0.129260307
H  H210  1  0.62720000  0.58110000  0.83330000  1.0 0.1214611301
H  H211  1  0.75550000  0.71140000  0.83190000  1.0 0.129260307
H  H212  1  0.72780000  0.73540000  0.79080000  1.0 0.129260307
H  H213  1  0.71700000  0.64590000  0.69130000  1.0 0.129260307
H  H214  1  0.73180000  0.61600000  0.73100000  1.0 0.129260307
H  H215  1  0.32270000  0.28690000  0.52680000  1.0 0.129260307
H  H216  1  0.27530000  0.29480000  0.48510000  1.0 0.129260307
H  H217  1  0.75770000  0.10080000  0.47390000  1.0 0.129260307
H  H218  1  0.76390000  0.06870000  0.51220000  1.0 0.129260307
H  H219  1  0.77660000  0.98750000  0.43230000  1.0 0.129260307
H  H220  1  0.76300000  0.01230000  0.38930000  1.0 0.129260307
H  H221  1  0.75800000  0.88940000  0.49240000  1.0 0.1214611301
H  H222  1  0.79380000  0.96080000  0.52140000  1.0 0.129260307
H  H223  1  0.70270000  0.95620000  0.43690000  1.0 0.129260307
H  H224  1  0.65870000  0.88780000  0.41270000  1.0 0.1214611301
H  H225  1  0.87900000  0.12040000  0.61540000  1.0 0.1214611301
H  H226  1  0.84660000  0.07300000  0.54860000  1.0 0.1395813409
H  H227  1  0.75730000  0.00000000  0.55690000  1.0 0.129260307
H  H228  1  0.79390000  0.04610000  0.62720000  1.0 0.1214611301
H  H229  1  0.92360000  0.04410000  0.75550000  1.0 0.129260307
H  H230  1  0.93700000  0.99240000  0.72780000  1.0 0.129260307
H  H231  1  0.02570000  0.07110000  0.71700000  1.0 0.129260307
H  H232  1  0.00080000  0.11580000  0.73180000  1.0 0.129260307
H  H233  1  0.79590000  0.03580000  0.32270000  1.0 0.129260307
H  H234  1  0.79020000  0.98050000  0.27530000  1.0 0.129260307
H  H235  1  0.62690000  0.28380000  0.52610000  1.0 0.129260307
H  H236  1  0.55650000  0.25170000  0.48780000  1.0 0.129260307
H  H237  1  0.55520000  0.34430000  0.56770000  1.0 0.129260307
H  H238  1  0.62300000  0.37370000  0.61070000  1.0 0.129260307
H  H239  1  0.39700000  0.26560000  0.50760000  1.0 0.1214611301
H  H240  1  0.43940000  0.27240000  0.47860000  1.0 0.129260307
H  H241  1  0.51930000  0.26580000  0.56310000  1.0 0.129260307
H  H242  1  0.47510000  0.24600000  0.58730000  1.0 0.1214611301
H  H243  1  0.50500000  0.26360000  0.38460000  1.0 0.1214611301
H  H244  1  0.52440000  0.29800000  0.45140000  1.0 0.1395813409
H  H245  1  0.44310000  0.20040000  0.44310000  1.0 0.129260307
H  H246  1  0.41890000  0.16670000  0.37280000  1.0 0.1214611301
H  H247  1  0.28860000  0.16810000  0.24450000  1.0 0.129260307
H  H248  1  0.26460000  0.20920000  0.27220000  1.0 0.129260307
H  H249  1  0.35410000  0.30870000  0.28300000  1.0 0.129260307
H  H250  1  0.38400000  0.26900000  0.26820000  1.0 0.129260307
H  H251  1  0.71310000  0.47320000  0.67730000  1.0 0.129260307
H  H252  1  0.70520000  0.51490000  0.72470000  1.0 0.129260307
H  H253  1  0.24230000  0.71620000  0.34310000  1.0 0.129260307
H  H254  1  0.23610000  0.74830000  0.30480000  1.0 0.129260307
H  H255  1  0.22340000  0.65570000  0.21090000  1.0 0.129260307
H  H256  1  0.23700000  0.62630000  0.24930000  1.0 0.129260307
H  H257  1  0.24200000  0.73440000  0.13140000  1.0 0.1214611301
H  H258  1  0.20620000  0.72760000  0.16700000  1.0 0.129260307
H  H259  1  0.29730000  0.73420000  0.25350000  1.0 0.129260307
H  H260  1  0.34130000  0.75400000  0.22910000  1.0 0.1214611301
H  H261  1  0.12100000  0.73640000  0.24140000  1.0 0.1214611301
H  H262  1  0.15340000  0.70200000  0.22640000  1.0 0.1395813409
H  H263  1  0.24270000  0.79960000  0.24270000  1.0 0.129260307
H  H264  1  0.20610000  0.83330000  0.25220000  1.0 0.1214611301
H  H265  1  0.07640000  0.83190000  0.12050000  1.0 0.129260307
H  H266  1  0.06300000  0.79080000  0.05540000  1.0 0.129260307
H  H267  1  0.97430000  0.69130000  0.04540000  1.0 0.129260307
H  H268  1  0.99920000  0.73100000  0.11500000  1.0 0.129260307
H  H269  1  0.20410000  0.52680000  0.23990000  1.0 0.129260307
H  H270  1  0.20980000  0.48510000  0.19030000  1.0 0.129260307
H  H271  1  0.37310000  0.89920000  0.65690000  1.0 0.129260307
H  H272  1  0.44350000  0.93130000  0.69520000  1.0 0.129260307
H  H273  1  0.44480000  0.01250000  0.78910000  1.0 0.129260307
H  H274  1  0.37700000  0.98770000  0.75070000  1.0 0.129260307
H  H275  1  0.60300000  0.11060000  0.86860000  1.0 0.1214611301
H  H276  1  0.56060000  0.03920000  0.83300000  1.0 0.129260307
H  H277  1  0.48070000  0.04380000  0.74650000  1.0 0.129260307
H  H278  1  0.52490000  0.11220000  0.77090000  1.0 0.1214611301
H  H279  1  0.49500000  0.87960000  0.75860000  1.0 0.1214611301
H  H280  1  0.47560000  0.92700000  0.77360000  1.0 0.1395813409
H  H281  1  0.55690000  0.00000000  0.75730000  1.0 0.129260307
H  H282  1  0.58110000  0.95390000  0.74780000  1.0 0.1214611301
H  H283  1  0.71140000  0.95590000  0.87950000  1.0 0.129260307
H  H284  1  0.73540000  0.00760000  0.94460000  1.0 0.129260307
H  H285  1  0.64590000  0.92890000  0.95460000  1.0 0.129260307
H  H286  1  0.61600000  0.88420000  0.88500000  1.0 0.129260307
H  H287  1  0.28690000  0.96420000  0.76010000  1.0 0.129260307
H  H288  1  0.29480000  0.01950000  0.80970000  1.0 0.129260307
H  H289  1  0.89920000  0.65690000  0.37310000  1.0 0.129260307
H  H290  1  0.93130000  0.69520000  0.44350000  1.0 0.129260307
H  H291  1  0.01250000  0.78910000  0.44480000  1.0 0.129260307
H  H292  1  0.98770000  0.75070000  0.37700000  1.0 0.129260307
H  H293  1  0.11060000  0.86860000  0.60300000  1.0 0.1214611301
H  H294  1  0.03920000  0.83300000  0.56060000  1.0 0.129260307
H  H295  1  0.04380000  0.74650000  0.48070000  1.0 0.129260307
H  H296  1  0.11220000  0.77090000  0.52490000  1.0 0.1214611301
H  H297  1  0.87960000  0.75860000  0.49500000  1.0 0.1214611301
H  H298  1  0.92700000  0.77360000  0.47560000  1.0 0.1395813409
H  H299  1  0.00000000  0.75730000  0.55690000  1.0 0.129260307
H  H300  1  0.95390000  0.74780000  0.58110000  1.0 0.1214611301
H  H301  1  0.95590000  0.87950000  0.71140000  1.0 0.129260307
H  H302  1  0.00760000  0.94460000  0.73540000  1.0 0.129260307
H  H303  1  0.92890000  0.95460000  0.64590000  1.0 0.129260307
H  H304  1  0.88420000  0.88500000  0.61600000  1.0 0.129260307
H  H305  1  0.96420000  0.76010000  0.28690000  1.0 0.129260307
H  H306  1  0.01950000  0.80970000  0.29480000  1.0 0.129260307
H  H307  1  0.71620000  0.34310000  0.24230000  1.0 0.129260307
H  H308  1  0.74830000  0.30480000  0.23610000  1.0 0.129260307
H  H309  1  0.65570000  0.21090000  0.22340000  1.0 0.129260307
H  H310  1  0.62630000  0.24930000  0.23700000  1.0 0.129260307
H  H311  1  0.73440000  0.13140000  0.24200000  1.0 0.1214611301
H  H312  1  0.72760000  0.16700000  0.20620000  1.0 0.129260307
H  H313  1  0.73420000  0.25350000  0.29730000  1.0 0.129260307
H  H314  1  0.75400000  0.22910000  0.34130000  1.0 0.1214611301
H  H315  1  0.73640000  0.24140000  0.12100000  1.0 0.1214611301
H  H316  1  0.70200000  0.22640000  0.15340000  1.0 0.1395813409
H  H317  1  0.79960000  0.24270000  0.24270000  1.0 0.129260307
H  H318  1  0.83330000  0.25220000  0.20610000  1.0 0.1214611301
H  H319  1  0.83190000  0.12050000  0.07640000  1.0 0.129260307
H  H320  1  0.79080000  0.05540000  0.06300000  1.0 0.129260307
H  H321  1  0.69130000  0.04540000  0.97430000  1.0 0.129260307
H  H322  1  0.73100000  0.11500000  0.99920000  1.0 0.129260307
H  H323  1  0.52680000  0.23990000  0.20410000  1.0 0.129260307
H  H324  1  0.48510000  0.19030000  0.20980000  1.0 0.129260307
H  H325  1  0.28380000  0.52610000  0.62690000  1.0 0.129260307
H  H326  1  0.25170000  0.48780000  0.55650000  1.0 0.129260307
H  H327  1  0.34430000  0.56770000  0.55520000  1.0 0.129260307
H  H328  1  0.37370000  0.61070000  0.62300000  1.0 0.129260307
H  H329  1  0.26560000  0.50760000  0.39700000  1.0 0.1214611301
H  H330  1  0.27240000  0.47860000  0.43940000  1.0 0.129260307
H  H331  1  0.26580000  0.56310000  0.51930000  1.0 0.129260307
H  H332  1  0.24600000  0.58730000  0.47510000  1.0 0.1214611301
H  H333  1  0.26360000  0.38460000  0.50500000  1.0 0.1214611301
H  H334  1  0.29800000  0.45140000  0.52440000  1.0 0.1395813409
H  H335  1  0.20040000  0.44310000  0.44310000  1.0 0.129260307
H  H336  1  0.16670000  0.37280000  0.41890000  1.0 0.1214611301
H  H337  1  0.16810000  0.24450000  0.28860000  1.0 0.129260307
H  H338  1  0.20920000  0.27220000  0.26460000  1.0 0.129260307
H  H339  1  0.30870000  0.28300000  0.35410000  1.0 0.129260307
H  H340  1  0.26900000  0.26820000  0.38400000  1.0 0.129260307
H  H341  1  0.47320000  0.67730000  0.71310000  1.0 0.129260307
H  H342  1  0.51490000  0.72470000  0.70520000  1.0 0.129260307
H  H343  1  0.10080000  0.47390000  0.75770000  1.0 0.129260307
H  H344  1  0.06870000  0.51220000  0.76390000  1.0 0.129260307
H  H345  1  0.98750000  0.43230000  0.77660000  1.0 0.129260307
H  H346  1  0.01230000  0.38930000  0.76300000  1.0 0.129260307
H  H347  1  0.88940000  0.49240000  0.75800000  1.0 0.1214611301
H  H348  1  0.96080000  0.52140000  0.79380000  1.0 0.129260307
H  H349  1  0.95620000  0.43690000  0.70270000  1.0 0.129260307
H  H350  1  0.88780000  0.41270000  0.65870000  1.0 0.1214611301
H  H351  1  0.12040000  0.61540000  0.87900000  1.0 0.1214611301
H  H352  1  0.07300000  0.54860000  0.84660000  1.0 0.1395813409
H  H353  1  0.00000000  0.55690000  0.75730000  1.0 0.129260307
H  H354  1  0.04610000  0.62720000  0.79390000  1.0 0.1214611301
H  H355  1  0.04410000  0.75550000  0.92360000  1.0 0.129260307
H  H356  1  0.99240000  0.72780000  0.93700000  1.0 0.129260307
H  H357  1  0.07110000  0.71700000  0.02570000  1.0 0.129260307
H  H358  1  0.11580000  0.73180000  0.00080000  1.0 0.129260307
H  H359  1  0.03580000  0.32270000  0.79590000  1.0 0.129260307
H  H360  1  0.98050000  0.27530000  0.79020000  1.0 0.129260307
H  H361  1  0.34310000  0.24230000  0.71620000  1.0 0.129260307
H  H362  1  0.30480000  0.23610000  0.74830000  1.0 0.129260307
H  H363  1  0.21090000  0.22340000  0.65570000  1.0 0.129260307
H  H364  1  0.24930000  0.23700000  0.62630000  1.0 0.129260307
H  H365  1  0.13140000  0.24200000  0.73440000  1.0 0.1214611301
H  H366  1  0.16700000  0.20620000  0.72760000  1.0 0.129260307
H  H367  1  0.25350000  0.29730000  0.73420000  1.0 0.129260307
H  H368  1  0.22910000  0.34130000  0.75400000  1.0 0.1214611301
H  H369  1  0.24140000  0.12100000  0.73640000  1.0 0.1214611301
H  H370  1  0.22640000  0.15340000  0.70200000  1.0 0.1395813409
H  H371  1  0.24270000  0.24270000  0.79960000  1.0 0.129260307
H  H372  1  0.25220000  0.20610000  0.83330000  1.0 0.1214611301
H  H373  1  0.12050000  0.07640000  0.83190000  1.0 0.129260307
H  H374  1  0.05540000  0.06300000  0.79080000  1.0 0.129260307
H  H375  1  0.04540000  0.97430000  0.69130000  1.0 0.129260307
H  H376  1  0.11500000  0.99920000  0.73100000  1.0 0.129260307
H  H377  1  0.23990000  0.20410000  0.52680000  1.0 0.129260307
H  H378  1  0.19030000  0.20980000  0.48510000  1.0 0.129260307
H  H379  1  0.65690000  0.37310000  0.89920000  1.0 0.129260307
H  H380  1  0.69520000  0.44350000  0.93130000  1.0 0.129260307
H  H381  1  0.78910000  0.44480000  0.01250000  1.0 0.129260307
H  H382  1  0.75070000  0.37700000  0.98770000  1.0 0.129260307
H  H383  1  0.86860000  0.60300000  0.11060000  1.0 0.1214611301
H  H384  1  0.83300000  0.56060000  0.03920000  1.0 0.129260307
H  H385  1  0.74650000  0.48070000  0.04380000  1.0 0.129260307
H  H386  1  0.77090000  0.52490000  0.11220000  1.0 0.1214611301
H  H387  1  0.75860000  0.49500000  0.87960000  1.0 0.1214611301
H  H388  1  0.77360000  0.47560000  0.92700000  1.0 0.1395813409
H  H389  1  0.75730000  0.55690000  0.00000000  1.0 0.129260307
H  H390  1  0.74780000  0.58110000  0.95390000  1.0 0.1214611301
H  H391  1  0.87950000  0.71140000  0.95590000  1.0 0.129260307
H  H392  1  0.94460000  0.73540000  0.00760000  1.0 0.129260307
H  H393  1  0.95460000  0.64590000  0.92890000  1.0 0.129260307
H  H394  1  0.88500000  0.61600000  0.88420000  1.0 0.129260307
H  H395  1  0.76010000  0.28690000  0.96420000  1.0 0.129260307
H  H396  1  0.80970000  0.29480000  0.01950000  1.0 0.129260307
H  H397  1  0.47390000  0.75770000  0.10080000  1.0 0.129260307
H  H398  1  0.51220000  0.76390000  0.06870000  1.0 0.129260307
H  H399  1  0.43230000  0.77660000  0.98750000  1.0 0.129260307
H  H400  1  0.38930000  0.76300000  0.01230000  1.0 0.129260307
H  H401  1  0.49240000  0.75800000  0.88940000  1.0 0.1214611301
H  H402  1  0.52140000  0.79380000  0.96080000  1.0 0.129260307
H  H403  1  0.43690000  0.70270000  0.95620000  1.0 0.129260307
H  H404  1  0.41270000  0.65870000  0.88780000  1.0 0.1214611301
H  H405  1  0.61540000  0.87900000  0.12040000  1.0 0.1214611301
H  H406  1  0.54860000  0.84660000  0.07300000  1.0 0.1395813409
H  H407  1  0.55690000  0.75730000  0.00000000  1.0 0.129260307
H  H408  1  0.62720000  0.79390000  0.04610000  1.0 0.1214611301
H  H409  1  0.75550000  0.92360000  0.04410000  1.0 0.129260307
H  H410  1  0.72780000  0.93700000  0.99240000  1.0 0.129260307
H  H411  1  0.71700000  0.02570000  0.07110000  1.0 0.129260307
H  H412  1  0.73180000  0.00080000  0.11580000  1.0 0.129260307
H  H413  1  0.32270000  0.79590000  0.03580000  1.0 0.129260307
H  H414  1  0.27530000  0.79020000  0.98050000  1.0 0.129260307
H  H415  1  0.52610000  0.62690000  0.28380000  1.0 0.129260307
H  H416  1  0.48780000  0.55650000  0.25170000  1.0 0.129260307
H  H417  1  0.56770000  0.55520000  0.34430000  1.0 0.129260307
H  H418  1  0.61070000  0.62300000  0.37370000  1.0 0.129260307
H  H419  1  0.50760000  0.39700000  0.26560000  1.0 0.1214611301
H  H420  1  0.47860000  0.43940000  0.27240000  1.0 0.129260307
H  H421  1  0.56310000  0.51930000  0.26580000  1.0 0.129260307
H  H422  1  0.58730000  0.47510000  0.24600000  1.0 0.1214611301
H  H423  1  0.38460000  0.50500000  0.26360000  1.0 0.1214611301
H  H424  1  0.45140000  0.52440000  0.29800000  1.0 0.1395813409
H  H425  1  0.44310000  0.44310000  0.20040000  1.0 0.129260307
H  H426  1  0.37280000  0.41890000  0.16670000  1.0 0.1214611301
H  H427  1  0.24450000  0.28860000  0.16810000  1.0 0.129260307
H  H428  1  0.27220000  0.26460000  0.20920000  1.0 0.129260307
H  H429  1  0.28300000  0.35410000  0.30870000  1.0 0.129260307
H  H430  1  0.26820000  0.38400000  0.26900000  1.0 0.129260307
H  H431  1  0.67730000  0.71310000  0.47320000  1.0 0.129260307
H  H432  1  0.72470000  0.70520000  0.51490000  1.0 0.129260307
H  H433  1  0.22030000  0.93150000  0.28880000  1.0 0.1214611301
H  H434  1  0.26460000  0.97870000  0.28590000  1.0 0.1214611301
H  H435  1  0.18250000  0.97900000  0.20350000  1.0 0.1214611301
H  H436  1  0.13100000  0.92890000  0.20210000  1.0 0.1214611301
H  H437  1  0.64270000  0.93150000  0.71120000  1.0 0.1214611301
H  H438  1  0.69280000  0.97870000  0.71410000  1.0 0.129260307
H  H439  1  0.77550000  0.97900000  0.79650000  1.0 0.1214611301
H  H440  1  0.72680000  0.92890000  0.79790000  1.0 0.1214611301
H  H441  1  0.77970000  0.06850000  0.71120000  1.0 0.1214611301
H  H442  1  0.73540000  0.02130000  0.71410000  1.0 0.129260307
H  H443  1  0.81750000  0.02100000  0.79650000  1.0 0.1214611301
H  H444  1  0.86900000  0.07110000  0.79790000  1.0 0.1214611301
H  H445  1  0.35730000  0.06850000  0.28880000  1.0 0.1214611301
H  H446  1  0.30720000  0.02130000  0.28590000  1.0 0.129260307
H  H447  1  0.22450000  0.02100000  0.20350000  1.0 0.1214611301
H  H448  1  0.27320000  0.07110000  0.20210000  1.0 0.1214611301
H  H449  1  0.06850000  0.28880000  0.35730000  1.0 0.1214611301
H  H450  1  0.02130000  0.28590000  0.30720000  1.0 0.129260307
H  H451  1  0.02100000  0.20350000  0.22450000  1.0 0.1214611301
H  H452  1  0.07110000  0.20210000  0.27320000  1.0 0.1214611301
H  H453  1  0.06850000  0.71120000  0.77970000  1.0 0.1214611301
H  H454  1  0.02130000  0.71410000  0.73540000  1.0 0.129260307
H  H455  1  0.02100000  0.79650000  0.81750000  1.0 0.1214611301
H  H456  1  0.07110000  0.79790000  0.86900000  1.0 0.1214611301
H  H457  1  0.93150000  0.71120000  0.64270000  1.0 0.1214611301
H  H458  1  0.97870000  0.71410000  0.69280000  1.0 0.129260307
H  H459  1  0.97900000  0.79650000  0.77550000  1.0 0.1214611301
H  H460  1  0.92890000  0.79790000  0.72680000  1.0 0.1214611301
H  H461  1  0.93150000  0.28880000  0.22030000  1.0 0.1214611301
H  H462  1  0.97870000  0.28590000  0.26460000  1.0 0.129260307
H  H463  1  0.97900000  0.20350000  0.18250000  1.0 0.1214611301
H  H464  1  0.92890000  0.20210000  0.13100000  1.0 0.1214611301
H  H465  1  0.71120000  0.77970000  0.06850000  1.0 0.1214611301
H  H466  1  0.71410000  0.73540000  0.02130000  1.0 0.129260307
H  H467  1  0.79650000  0.81750000  0.02100000  1.0 0.1214611301
H  H468  1  0.79790000  0.86900000  0.07110000  1.0 0.1214611301
H  H469  1  0.28880000  0.35730000  0.06850000  1.0 0.1214611301
H  H470  1  0.28590000  0.30720000  0.02130000  1.0 0.1214611301
H  H471  1  0.20350000  0.22450000  0.02100000  1.0 0.1214611301
H  H472  1  0.20210000  0.27320000  0.07110000  1.0 0.1214611301
H  H473  1  0.28880000  0.22030000  0.93150000  1.0 0.1214611301
H  H474  1  0.28590000  0.26460000  0.97870000  1.0 0.129260307
H  H475  1  0.20350000  0.18250000  0.97900000  1.0 0.1214611301
H  H476  1  0.20210000  0.13100000  0.92890000  1.0 0.1214611301
H  H477  1  0.71120000  0.64270000  0.93150000  1.0 0.1214611301
H  H478  1  0.71410000  0.69280000  0.97870000  1.0 0.129260307
H  H479  1  0.79650000  0.77550000  0.97900000  1.0 0.1214611301
H  H480  1  0.79790000  0.72680000  0.92890000  1.0 0.1214611301
C  C1  1  0.24131000  0.91880000  0.59831000  1.0 0.5533315858
C  C2  1  0.24283000  0.94056000  0.57441000  1.0 -0.0299340301
C  C3  1  0.24053000  0.92345000  0.53582000  1.0 -0.0893974171
C  C4  1  0.23574000  0.94200000  0.51282000  1.0 -0.1792987675
C  C5  1  0.23041000  0.97477000  0.52396000  1.0 0.1606592122
C  C6  1  0.22927000  0.99069000  0.56078000  1.0 -0.1591663687
C  C7  1  0.23625000  0.97562000  0.58529000  1.0 -0.0893974171
C  C8  1  0.32381000  0.16665000  0.56934000  1.0 0.5654770043
C  C9  1  0.29849000  0.12022000  0.54747000  1.0 -0.0156684343
C  C10  1  0.25539000  0.09696000  0.51667000  1.0 -0.097910458
C  C11  1  0.23388000  0.05526000  0.50062000  1.0 -0.2073024154
C  C12  1  0.25297000  0.03762000  0.51693000  1.0 0.1395813409
C  C13  1  0.28869000  0.05762000  0.54977000  1.0 -0.1725701059
C  C14  1  0.31393000  0.09828000  0.56521000  1.0 -0.0893974171
C  C15  1  0.13453000  0.88806000  0.32645000  1.0 0.5256004081
C  C16  1  0.15875000  0.91431000  0.36918000  1.0 -0.0717098776
C  C17  1  0.14475000  0.90501000  0.39552000  1.0 -0.0832264913
C  C18  1  0.16587000  0.93301000  0.43600000  1.0 -0.1725701059
C  C19  1  0.20078000  0.96694000  0.45672000  1.0 0.1722444491
C  C20  1  0.21718000  0.97584000  0.43130000  1.0 -0.218143337
C  C21  1  0.19447000  0.94789000  0.38878000  1.0 -0.0717098776
C  C22  1  0.05844000  0.88737000  0.24981000  1.0 0.5607865292
C  C23  1  0.04013000  0.91516000  0.25601000  1.0 -0.0299340301
C  C24  1  0.05776000  0.95192000  0.25470000  1.0 -0.0893974171
C  C25  1  0.04768000  0.98117000  0.26821000  1.0 -0.1906760836
C  C26  1  0.01528000  0.97319000  0.27627000  1.0 0.1606592122
C  C27  1  0.99571000  0.93494000  0.27657000  1.0 -0.1974387167
C  C28  1  0.01036000  0.90859000  0.26705000  1.0 -0.0893974171
C  C29  1  0.22269000  0.97488000  0.70539000  1.0 0.0303755008
C  C30  1  0.22496000  0.00707000  0.73347000  1.0 0.0026823293
C  C31  1  0.32049000  0.64300000  0.40169000  1.0 0.5533315858
C  C32  1  0.36615000  0.66842000  0.42559000  1.0 -0.0299340301
C  C33  1  0.38763000  0.70471000  0.46418000  1.0 -0.0893974171
C  C34  1  0.42918000  0.72292000  0.48718000  1.0 -0.1792987675
C  C35  1  0.45081000  0.70645000  0.47604000  1.0 0.1606592122
C  C36  1  0.42991000  0.66849000  0.43922000  1.0 -0.1591663687
C  C37  1  0.39033000  0.65096000  0.41471000  1.0 -0.0893974171
C  C38  1  0.59731000  0.75447000  0.43066000  1.0 0.5654770043
C  C39  1  0.57275000  0.75102000  0.45253000  1.0 -0.0156684343
C  C40  1  0.58029000  0.73872000  0.48333000  1.0 -0.097910458
C  C41  1  0.55464000  0.73326000  0.49938000  1.0 -0.2073024154
C  C42  1  0.52069000  0.73604000  0.48307000  1.0 0.1395813409
C  C43  1  0.50785000  0.73892000  0.45023000  1.0 -0.1725701059
C  C44  1  0.53307000  0.74872000  0.43479000  1.0 -0.0893974171
C  C45  1  0.56161000  0.80808000  0.67355000  1.0 0.5256004081
C  C46  1  0.54513000  0.78957000  0.63082000  1.0 -0.0717098776
C  C47  1  0.50949000  0.74923000  0.60448000  1.0 -0.0832264913
C  C48  1  0.49701000  0.72987000  0.56400000  1.0 -0.1725701059
C  C49  1  0.51022000  0.74406000  0.54328000  1.0 0.1722444491
C  C50  1  0.54454000  0.78588000  0.56870000  1.0 -0.218143337
C  C51  1  0.55911000  0.80569000  0.61122000  1.0 -0.0717098776
C  C52  1  0.63756000  0.80863000  0.75019000  1.0 0.5607865292
C  C53  1  0.65915000  0.78412000  0.74399000  1.0 -0.0299340301
C  C54  1  0.69722000  0.80306000  0.74530000  1.0 -0.0893974171
C  C55  1  0.71296000  0.77947000  0.73179000  1.0 -0.1906760836
C  C56  1  0.69692000  0.73901000  0.72373000  1.0 0.1606592122
C  C57  1  0.65837000  0.71914000  0.72343000  1.0 -0.1974387167
C  C58  1  0.64154000  0.74331000  0.73295000  1.0 -0.0893974171
C  C59  1  0.26949000  0.51730000  0.29461000  1.0 0.0303755008
C  C60  1  0.27360000  0.49149000  0.26653000  1.0 0.0026823293
C  C61  1  0.75869000  0.35700000  0.67749000  1.0 0.5533315858
C  C62  1  0.75717000  0.33158000  0.69773000  1.0 -0.0299340301
C  C63  1  0.75947000  0.29529000  0.68292000  1.0 -0.0893974171
C  C64  1  0.76426000  0.27708000  0.70626000  1.0 -0.1792987675
C  C65  1  0.76959000  0.29355000  0.74436000  1.0 0.1606592122
C  C66  1  0.77073000  0.33151000  0.76142000  1.0 -0.1591663687
C  C67  1  0.76375000  0.34904000  0.73937000  1.0 -0.0893974171
C  C68  1  0.67619000  0.24553000  0.84284000  1.0 0.5654770043
C  C69  1  0.70151000  0.24898000  0.82173000  1.0 -0.0156684343
C  C70  1  0.74461000  0.26128000  0.84157000  1.0 -0.097910458
C  C71  1  0.76612000  0.26674000  0.82138000  1.0 -0.2073024154
C  C72  1  0.74703000  0.26396000  0.78465000  1.0 0.1395813409
C  C73  1  0.71131000  0.26108000  0.76893000  1.0 -0.1725701059
C  C74  1  0.68607000  0.25128000  0.78435000  1.0 -0.0893974171
C  C75  1  0.86547000  0.19192000  0.75353000  1.0 0.5256004081
C  C76  1  0.84125000  0.21043000  0.75556000  1.0 -0.0717098776
C  C77  1  0.85525000  0.25077000  0.76026000  1.0 -0.0832264913
C  C78  1  0.83413000  0.27013000  0.76714000  1.0 -0.1725701059
C  C79  1  0.79922000  0.25594000  0.76616000  1.0 0.1722444491
C  C80  1  0.78282000  0.21412000  0.75866000  1.0 -0.218143337
C  C81  1  0.80553000  0.19431000  0.75342000  1.0 -0.0717098776
C  C82  1  0.94156000  0.19137000  0.82893000  1.0 0.5607865292
C  C83  1  0.95987000  0.21588000  0.87503000  1.0 -0.0299340301
C  C84  1  0.94224000  0.19694000  0.89416000  1.0 -0.0893974171
C  C85  1  0.95232000  0.22053000  0.93349000  1.0 -0.1906760836
C  C86  1  0.98472000  0.26099000  0.95791000  1.0 0.1606592122
C  C87  1  0.00429000  0.28086000  0.93923000  1.0 -0.1974387167
C  C88  1  0.98964000  0.25669000  0.89823000  1.0 -0.0893974171
C  C89  1  0.77731000  0.48270000  0.75219000  1.0 0.0303755008
C  C90  1  0.77504000  0.50851000  0.78211000  1.0 0.0026823293
C  C91  1  0.67951000  0.08120000  0.32251000  1.0 0.5533315858
C  C92  1  0.63385000  0.05944000  0.30227000  1.0 -0.0299340301
C  C93  1  0.61237000  0.07655000  0.31708000  1.0 -0.0893974171
C  C94  1  0.57082000  0.05800000  0.29374000  1.0 -0.1792987675
C  C95  1  0.54919000  0.02523000  0.25564000  1.0 0.1606592122
C  C96  1  0.57009000  0.00931000  0.23858000  1.0 -0.1591663687
C  C97  1  0.60967000  0.02438000  0.26063000  1.0 -0.0893974171
C  C98  1  0.40269000  0.83335000  0.15716000  1.0 0.5654770043
C  C99  1  0.42725000  0.87978000  0.17827000  1.0 -0.0156684343
C  C100  1  0.41971000  0.90304000  0.15843000  1.0 -0.097910458
C  C101  1  0.44536000  0.94474000  0.17862000  1.0 -0.2073024154
C  C102  1  0.47931000  0.96238000  0.21535000  1.0 0.1395813409
C  C103  1  0.49215000  0.94238000  0.23107000  1.0 -0.1725701059
C  C104  1  0.46693000  0.90172000  0.21565000  1.0 -0.0832264913
C  C105  1  0.43839000  0.11194000  0.24647000  1.0 0.5256004081
C  C106  1  0.45487000  0.08569000  0.24444000  1.0 -0.0717098776
C  C107  1  0.49051000  0.09499000  0.23974000  1.0 -0.0832264913
C  C108  1  0.50299000  0.06699000  0.23286000  1.0 -0.1725701059
C  C109  1  0.48978000  0.03306000  0.23384000  1.0 0.1722444491
C  C110  1  0.45546000  0.02416000  0.24134000  1.0 -0.218143337
C  C111  1  0.44089000  0.05211000  0.24658000  1.0 -0.0717098776
C  C112  1  0.36244000  0.11263000  0.17107000  1.0 0.5607865292
C  C113  1  0.34085000  0.08484000  0.12497000  1.0 -0.0299340301
C  C114  1  0.30278000  0.04808000  0.10584000  1.0 -0.0893974171
C  C115  1  0.28704000  0.01883000  0.06651000  1.0 -0.1906760836
C  C116  1  0.30308000  0.02681000  0.04209000  1.0 0.1606592122
C  C117  1  0.34163000  0.06506000  0.06077000  1.0 -0.1974387167
C  C118  1  0.35846000  0.09141000  0.10177000  1.0 -0.0893974171
C  C119  1  0.73051000  0.02512000  0.24781000  1.0 0.0303755008
C  C120  1  0.72640000  0.99293000  0.21789000  1.0 0.0026823293
C  C121  1  0.08120000  0.32251000  0.67951000  1.0 0.5533315858
C  C122  1  0.05944000  0.30227000  0.63385000  1.0 -0.0299340301
C  C123  1  0.07655000  0.31708000  0.61237000  1.0 -0.0893974171
C  C124  1  0.05800000  0.29374000  0.57082000  1.0 -0.1792987675
C  C125  1  0.02523000  0.25564000  0.54919000  1.0 0.1606592122
C  C126  1  0.00931000  0.23858000  0.57009000  1.0 -0.1591663687
C  C127  1  0.02438000  0.26063000  0.60967000  1.0 -0.0893974171
C  C128  1  0.83335000  0.15716000  0.40269000  1.0 0.5654770043
C  C129  1  0.87978000  0.17827000  0.42725000  1.0 -0.0156684343
C  C130  1  0.90304000  0.15843000  0.41971000  1.0 -0.097910458
C  C131  1  0.94474000  0.17862000  0.44536000  1.0 -0.2073024154
C  C132  1  0.96238000  0.21535000  0.47931000  1.0 0.1395813409
C  C133  1  0.94238000  0.23107000  0.49215000  1.0 -0.1725701059
C  C134  1  0.90172000  0.21565000  0.46693000  1.0 -0.0832264913
C  C135  1  0.11194000  0.24647000  0.43839000  1.0 0.5256004081
C  C136  1  0.08569000  0.24444000  0.45487000  1.0 -0.0717098776
C  C137  1  0.09499000  0.23974000  0.49051000  1.0 -0.0832264913
C  C138  1  0.06699000  0.23286000  0.50299000  1.0 -0.1725701059
C  C139  1  0.03306000  0.23384000  0.48978000  1.0 0.1722444491
C  C140  1  0.02416000  0.24134000  0.45546000  1.0 -0.218143337
C  C141  1  0.05211000  0.24658000  0.44089000  1.0 -0.0717098776
C  C142  1  0.11263000  0.17107000  0.36244000  1.0 0.5607865292
C  C143  1  0.08484000  0.12497000  0.34085000  1.0 -0.0299340301
C  C144  1  0.04808000  0.10584000  0.30278000  1.0 -0.0893974171
C  C145  1  0.01883000  0.06651000  0.28704000  1.0 -0.1906760836
C  C146  1  0.02681000  0.04209000  0.30308000  1.0 0.1540409511
C  C147  1  0.06506000  0.06077000  0.34163000  1.0 -0.1974387167
C  C148  1  0.09141000  0.10177000  0.35846000  1.0 -0.0893974171
C  C149  1  0.02512000  0.24781000  0.73051000  1.0 0.0303755008
C  C150  1  0.99293000  0.21789000  0.72640000  1.0 0.0026823293
C  C151  1  0.35700000  0.67749000  0.75869000  1.0 0.5533315858
C  C152  1  0.33158000  0.69773000  0.75717000  1.0 -0.0299340301
C  C153  1  0.29529000  0.68292000  0.75947000  1.0 -0.0893974171
C  C154  1  0.27708000  0.70626000  0.76426000  1.0 -0.1792987675
C  C155  1  0.29355000  0.74436000  0.76959000  1.0 0.1606592122
C  C156  1  0.33151000  0.76142000  0.77073000  1.0 -0.1591663687
C  C157  1  0.34904000  0.73937000  0.76375000  1.0 -0.0893974171
C  C158  1  0.24553000  0.84284000  0.67619000  1.0 0.5654770043
C  C159  1  0.24898000  0.82173000  0.70151000  1.0 -0.0156684343
C  C160  1  0.26128000  0.84157000  0.74461000  1.0 -0.097910458
C  C161  1  0.26674000  0.82138000  0.76612000  1.0 -0.2073024154
C  C162  1  0.26396000  0.78465000  0.74703000  1.0 0.1395813409
C  C163  1  0.26108000  0.76893000  0.71131000  1.0 -0.1725701059
C  C164  1  0.25128000  0.78435000  0.68607000  1.0 -0.0893974171
C  C165  1  0.19192000  0.75353000  0.86547000  1.0 0.5256004081
C  C166  1  0.21043000  0.75556000  0.84125000  1.0 -0.0717098776
C  C167  1  0.25077000  0.76026000  0.85525000  1.0 -0.0832264913
C  C168  1  0.27013000  0.76714000  0.83413000  1.0 -0.1725701059
C  C169  1  0.25594000  0.76616000  0.79922000  1.0 0.1722444491
C  C170  1  0.21412000  0.75866000  0.78282000  1.0 -0.218143337
C  C171  1  0.19431000  0.75342000  0.80553000  1.0 -0.0717098776
C  C172  1  0.19137000  0.82893000  0.94156000  1.0 0.5607865292
C  C173  1  0.21588000  0.87503000  0.95987000  1.0 -0.0299340301
C  C174  1  0.19694000  0.89416000  0.94224000  1.0 -0.0893974171
C  C175  1  0.22053000  0.93349000  0.95232000  1.0 -0.1906760836
C  C176  1  0.26099000  0.95791000  0.98472000  1.0 0.1606592122
C  C177  1  0.28086000  0.93923000  0.00429000  1.0 -0.1974387167
C  C178  1  0.25669000  0.89823000  0.98964000  1.0 -0.0893974171
C  C179  1  0.48270000  0.75219000  0.77731000  1.0 0.0303755008
C  C180  1  0.50851000  0.78211000  0.77504000  1.0 0.0026823293
C  C181  1  0.64300000  0.40169000  0.32049000  1.0 0.5533315858
C  C182  1  0.66842000  0.42559000  0.36615000  1.0 -0.0299340301
C  C183  1  0.70471000  0.46418000  0.38763000  1.0 -0.0893974171
C  C184  1  0.72292000  0.48718000  0.42918000  1.0 -0.1792987675
C  C185  1  0.70645000  0.47604000  0.45081000  1.0 0.1606592122
C  C186  1  0.66849000  0.43922000  0.42991000  1.0 -0.1591663687
C  C187  1  0.65096000  0.41471000  0.39033000  1.0 -0.0893974171
C  C188  1  0.75447000  0.43066000  0.59731000  1.0 0.5654770043
C  C189  1  0.75102000  0.45253000  0.57275000  1.0 -0.0156684343
C  C190  1  0.73872000  0.48333000  0.58029000  1.0 -0.097910458
C  C191  1  0.73326000  0.49938000  0.55464000  1.0 -0.2073024154
C  C192  1  0.73604000  0.48307000  0.52069000  1.0 0.1395813409
C  C193  1  0.73892000  0.45023000  0.50785000  1.0 -0.1725701059
C  C194  1  0.74872000  0.43479000  0.53307000  1.0 -0.0832264913
C  C195  1  0.80808000  0.67355000  0.56161000  1.0 0.5256004081
C  C196  1  0.78957000  0.63082000  0.54513000  1.0 -0.0717098776
C  C197  1  0.74923000  0.60448000  0.50949000  1.0 -0.0832264913
C  C198  1  0.72987000  0.56400000  0.49701000  1.0 -0.1725701059
C  C199  1  0.74406000  0.54328000  0.51022000  1.0 0.1722444491
C  C200  1  0.78588000  0.56870000  0.54454000  1.0 -0.218143337
C  C201  1  0.80569000  0.61122000  0.55911000  1.0 -0.0717098776
C  C202  1  0.80863000  0.75019000  0.63756000  1.0 0.5607865292
C  C203  1  0.78412000  0.74399000  0.65915000  1.0 -0.0299340301
C  C204  1  0.80306000  0.74530000  0.69722000  1.0 -0.0893974171
C  C205  1  0.77947000  0.73179000  0.71296000  1.0 -0.1906760836
C  C206  1  0.73901000  0.72373000  0.69692000  1.0 0.1606592122
C  C207  1  0.71914000  0.72343000  0.65837000  1.0 -0.1974387167
C  C208  1  0.74331000  0.73295000  0.64154000  1.0 -0.0893974171
C  C209  1  0.51730000  0.29461000  0.26949000  1.0 0.0303755008
C  C210  1  0.49149000  0.26653000  0.27360000  1.0 0.0026823293
C  C211  1  0.91880000  0.59831000  0.24131000  1.0 0.5533315858
C  C212  1  0.94056000  0.57441000  0.24283000  1.0 -0.0299340301
C  C213  1  0.92345000  0.53582000  0.24053000  1.0 -0.0893974171
C  C214  1  0.94200000  0.51282000  0.23574000  1.0 -0.1792987675
C  C215  1  0.97477000  0.52396000  0.23041000  1.0 0.1606592122
C  C216  1  0.99069000  0.56078000  0.22927000  1.0 -0.1591663687
C  C217  1  0.97562000  0.58529000  0.23625000  1.0 -0.0893974171
C  C218  1  0.16665000  0.56934000  0.32381000  1.0 0.5654770043
C  C219  1  0.12022000  0.54747000  0.29849000  1.0 -0.0156684343
C  C220  1  0.09696000  0.51667000  0.25539000  1.0 -0.097910458
C  C221  1  0.05526000  0.50062000  0.23388000  1.0 -0.2073024154
C  C222  1  0.03762000  0.51693000  0.25297000  1.0 0.1395813409
C  C223  1  0.05762000  0.54977000  0.28869000  1.0 -0.1725701059
C  C224  1  0.09828000  0.56521000  0.31393000  1.0 -0.0832264913
C  C225  1  0.88806000  0.32645000  0.13453000  1.0 0.5256004081
C  C226  1  0.91431000  0.36918000  0.15875000  1.0 -0.0717098776
C  C227  1  0.90501000  0.39552000  0.14475000  1.0 -0.0832264913
C  C228  1  0.93301000  0.43600000  0.16587000  1.0 -0.1725701059
C  C229  1  0.96694000  0.45672000  0.20078000  1.0 0.1722444491
C  C230  1  0.97584000  0.43130000  0.21718000  1.0 -0.218143337
C  C231  1  0.94789000  0.38878000  0.19447000  1.0 -0.0717098776
C  C232  1  0.88737000  0.24981000  0.05844000  1.0 0.5607865292
C  C233  1  0.91516000  0.25601000  0.04013000  1.0 -0.0299340301
C  C234  1  0.95192000  0.25470000  0.05776000  1.0 -0.0893974171
C  C235  1  0.98117000  0.26821000  0.04768000  1.0 -0.1906760836
C  C236  1  0.97319000  0.27627000  0.01528000  1.0 0.1606592122
C  C237  1  0.93494000  0.27657000  0.99571000  1.0 -0.1974387167
C  C238  1  0.90859000  0.26705000  0.01036000  1.0 -0.0893974171
C  C239  1  0.97488000  0.70539000  0.22269000  1.0 0.0303755008
C  C240  1  0.00707000  0.73347000  0.22496000  1.0 0.0026823293
C  C241  1  0.67749000  0.75869000  0.35700000  1.0 0.5533315858
C  C242  1  0.69773000  0.75717000  0.33158000  1.0 -0.0299340301
C  C243  1  0.68292000  0.75947000  0.29529000  1.0 -0.0893974171
C  C244  1  0.70626000  0.76426000  0.27708000  1.0 -0.1792987675
C  C245  1  0.74436000  0.76959000  0.29355000  1.0 0.1606592122
C  C246  1  0.76142000  0.77073000  0.33151000  1.0 -0.1591663687
C  C247  1  0.73937000  0.76375000  0.34904000  1.0 -0.0893974171
C  C248  1  0.84284000  0.67619000  0.24553000  1.0 0.5654770043
C  C249  1  0.82173000  0.70151000  0.24898000  1.0 -0.0156684343
C  C250  1  0.84157000  0.74461000  0.26128000  1.0 -0.097910458
C  C251  1  0.82138000  0.76612000  0.26674000  1.0 -0.2073024154
C  C252  1  0.78465000  0.74703000  0.26396000  1.0 0.1395813409
C  C253  1  0.76893000  0.71131000  0.26108000  1.0 -0.1725701059
C  C254  1  0.78435000  0.68607000  0.25128000  1.0 -0.0893974171
C  C255  1  0.75353000  0.86547000  0.19192000  1.0 0.5256004081
C  C256  1  0.75556000  0.84125000  0.21043000  1.0 -0.0717098776
C  C257  1  0.76026000  0.85525000  0.25077000  1.0 -0.0832264913
C  C258  1  0.76714000  0.83413000  0.27013000  1.0 -0.1725701059
C  C259  1  0.76616000  0.79922000  0.25594000  1.0 0.1722444491
C  C260  1  0.75866000  0.78282000  0.21412000  1.0 -0.218143337
C  C261  1  0.75342000  0.80553000  0.19431000  1.0 -0.0717098776
C  C262  1  0.82893000  0.94156000  0.19137000  1.0 0.5607865292
C  C263  1  0.87503000  0.95987000  0.21588000  1.0 -0.0299340301
C  C264  1  0.89416000  0.94224000  0.19694000  1.0 -0.0893974171
C  C265  1  0.93349000  0.95232000  0.22053000  1.0 -0.1906760836
C  C266  1  0.95791000  0.98472000  0.26099000  1.0 0.1606592122
C  C267  1  0.93923000  0.00429000  0.28086000  1.0 -0.1974387167
C  C268  1  0.89823000  0.98964000  0.25669000  1.0 -0.0893974171
C  C269  1  0.75219000  0.77731000  0.48270000  1.0 0.0303755008
C  C270  1  0.78211000  0.77504000  0.50851000  1.0 0.0026823293
C  C271  1  0.32251000  0.67951000  0.08120000  1.0 0.5533315858
C  C272  1  0.30227000  0.63385000  0.05944000  1.0 -0.0299340301
C  C273  1  0.31708000  0.61237000  0.07655000  1.0 -0.0893974171
C  C274  1  0.29374000  0.57082000  0.05800000  1.0 -0.1792987675
C  C275  1  0.25564000  0.54919000  0.02523000  1.0 0.1606592122
C  C276  1  0.23858000  0.57009000  0.00931000  1.0 -0.1591663687
C  C277  1  0.26063000  0.60967000  0.02438000  1.0 -0.0893974171
C  C278  1  0.15716000  0.40269000  0.83335000  1.0 0.5654770043
C  C279  1  0.17827000  0.42725000  0.87978000  1.0 -0.0156684343
C  C280  1  0.15843000  0.41971000  0.90304000  1.0 -0.097910458
C  C281  1  0.17862000  0.44536000  0.94474000  1.0 -0.2073024154
C  C282  1  0.21535000  0.47931000  0.96238000  1.0 0.1395813409
C  C283  1  0.23107000  0.49215000  0.94238000  1.0 -0.1725701059
C  C284  1  0.21565000  0.46693000  0.90172000  1.0 -0.0832264913
C  C285  1  0.24647000  0.43839000  0.11194000  1.0 0.5256004081
C  C286  1  0.24444000  0.45487000  0.08569000  1.0 -0.0717098776
C  C287  1  0.23974000  0.49051000  0.09499000  1.0 -0.0832264913
C  C288  1  0.23286000  0.50299000  0.06699000  1.0 -0.1725701059
C  C289  1  0.23384000  0.48978000  0.03306000  1.0 0.1722444491
C  C290  1  0.24134000  0.45546000  0.02416000  1.0 -0.218143337
C  C291  1  0.24658000  0.44089000  0.05211000  1.0 -0.0717098776
C  C292  1  0.17107000  0.36244000  0.11263000  1.0 0.5607865292
C  C293  1  0.12497000  0.34085000  0.08484000  1.0 -0.0299340301
C  C294  1  0.10584000  0.30278000  0.04808000  1.0 -0.0893974171
C  C295  1  0.06651000  0.28704000  0.01883000  1.0 -0.1906760836
C  C296  1  0.04209000  0.30308000  0.02681000  1.0 0.1540409511
C  C297  1  0.06077000  0.34163000  0.06506000  1.0 -0.1974387167
C  C298  1  0.10177000  0.35846000  0.09141000  1.0 -0.0893974171
C  C299  1  0.24781000  0.73051000  0.02512000  1.0 0.0303755008
C  C300  1  0.21789000  0.72640000  0.99293000  1.0 0.0026823293
C  C301  1  0.59831000  0.24131000  0.91880000  1.0 0.5533315858
C  C302  1  0.57441000  0.24283000  0.94056000  1.0 -0.0299340301
C  C303  1  0.53582000  0.24053000  0.92345000  1.0 -0.0893974171
C  C304  1  0.51282000  0.23574000  0.94200000  1.0 -0.1792987675
C  C305  1  0.52396000  0.23041000  0.97477000  1.0 0.1606592122
C  C306  1  0.56078000  0.22927000  0.99069000  1.0 -0.1591663687
C  C307  1  0.58529000  0.23625000  0.97562000  1.0 -0.0893974171
C  C308  1  0.56934000  0.32381000  0.16665000  1.0 0.5654770043
C  C309  1  0.54747000  0.29849000  0.12022000  1.0 -0.0156684343
C  C310  1  0.51667000  0.25539000  0.09696000  1.0 -0.097910458
C  C311  1  0.50062000  0.23388000  0.05526000  1.0 -0.2073024154
C  C312  1  0.51693000  0.25297000  0.03762000  1.0 0.1395813409
C  C313  1  0.54977000  0.28869000  0.05762000  1.0 -0.1725701059
C  C314  1  0.56521000  0.31393000  0.09828000  1.0 -0.0893974171
C  C315  1  0.32645000  0.13453000  0.88806000  1.0 0.5256004081
C  C316  1  0.36918000  0.15875000  0.91431000  1.0 -0.0717098776
C  C317  1  0.39552000  0.14475000  0.90501000  1.0 -0.0832264913
C  C318  1  0.43600000  0.16587000  0.93301000  1.0 -0.1725701059
C  C319  1  0.45672000  0.20078000  0.96694000  1.0 0.1722444491
C  C320  1  0.43130000  0.21718000  0.97584000  1.0 -0.218143337
C  C321  1  0.38878000  0.19447000  0.94789000  1.0 -0.0717098776
C  C322  1  0.24981000  0.05844000  0.88737000  1.0 0.5607865292
C  C323  1  0.25601000  0.04013000  0.91516000  1.0 -0.0299340301
C  C324  1  0.25470000  0.05776000  0.95192000  1.0 -0.0893974171
C  C325  1  0.26821000  0.04768000  0.98117000  1.0 -0.1906760836
C  C326  1  0.27627000  0.01528000  0.97319000  1.0 0.1606592122
C  C327  1  0.27657000  0.99571000  0.93494000  1.0 -0.1974387167
C  C328  1  0.26705000  0.01036000  0.90859000  1.0 -0.0893974171
C  C329  1  0.70539000  0.22269000  0.97488000  1.0 0.0303755008
C  C330  1  0.73347000  0.22496000  0.00707000  1.0 0.0026823293
C  C331  1  0.40169000  0.32049000  0.64300000  1.0 0.5533315858
C  C332  1  0.42559000  0.36615000  0.66842000  1.0 -0.0299340301
C  C333  1  0.46418000  0.38763000  0.70471000  1.0 -0.0893974171
C  C334  1  0.48718000  0.42918000  0.72292000  1.0 -0.1792987675
C  C335  1  0.47604000  0.45081000  0.70645000  1.0 0.1606592122
C  C336  1  0.43922000  0.42991000  0.66849000  1.0 -0.1591663687
C  C337  1  0.41471000  0.39033000  0.65096000  1.0 -0.0893974171
C  C338  1  0.43066000  0.59731000  0.75447000  1.0 0.5654770043
C  C339  1  0.45253000  0.57275000  0.75102000  1.0 -0.0156684343
C  C340  1  0.48333000  0.58029000  0.73872000  1.0 -0.097910458
C  C341  1  0.49938000  0.55464000  0.73326000  1.0 -0.2073024154
C  C342  1  0.48307000  0.52069000  0.73604000  1.0 0.1395813409
C  C343  1  0.45023000  0.50785000  0.73892000  1.0 -0.1725701059
C  C344  1  0.43479000  0.53307000  0.74872000  1.0 -0.0832264913
C  C345  1  0.67355000  0.56161000  0.80808000  1.0 0.5256004081
C  C346  1  0.63082000  0.54513000  0.78957000  1.0 -0.0717098776
C  C347  1  0.60448000  0.50949000  0.74923000  1.0 -0.0832264913
C  C348  1  0.56400000  0.49701000  0.72987000  1.0 -0.1725701059
C  C349  1  0.54328000  0.51022000  0.74406000  1.0 0.1722444491
C  C350  1  0.56870000  0.54454000  0.78588000  1.0 -0.218143337
C  C351  1  0.61122000  0.55911000  0.80569000  1.0 -0.0717098776
C  C352  1  0.75019000  0.63756000  0.80863000  1.0 0.5607865292
C  C353  1  0.74399000  0.65915000  0.78412000  1.0 -0.0299340301
C  C354  1  0.74530000  0.69722000  0.80306000  1.0 -0.0893974171
C  C355  1  0.73179000  0.71296000  0.77947000  1.0 -0.1906760836
C  C356  1  0.72373000  0.69692000  0.73901000  1.0 0.1606592122
C  C357  1  0.72343000  0.65837000  0.71914000  1.0 -0.1974387167
C  C358  1  0.73295000  0.64154000  0.74331000  1.0 -0.0893974171
C  C359  1  0.29461000  0.26949000  0.51730000  1.0 0.0303755008
C  C360  1  0.26653000  0.27360000  0.49149000  1.0 0.0026823293
C  C361  1  0.75869000  0.08120000  0.40169000  1.0 0.5533315858
C  C362  1  0.75717000  0.05944000  0.42559000  1.0 -0.0299340301
C  C363  1  0.75947000  0.07655000  0.46418000  1.0 -0.0893974171
C  C364  1  0.76426000  0.05800000  0.48718000  1.0 -0.1792987675
C  C365  1  0.76959000  0.02523000  0.47604000  1.0 0.1606592122
C  C366  1  0.77073000  0.00931000  0.43922000  1.0 -0.1591663687
C  C367  1  0.76375000  0.02438000  0.41471000  1.0 -0.0893974171
C  C368  1  0.67619000  0.83335000  0.43066000  1.0 0.5654770043
C  C369  1  0.70151000  0.87978000  0.45253000  1.0 -0.0156684343
C  C370  1  0.74461000  0.90304000  0.48333000  1.0 -0.097910458
C  C371  1  0.76612000  0.94474000  0.49938000  1.0 -0.2073024154
C  C372  1  0.74703000  0.96238000  0.48307000  1.0 0.1395813409
C  C373  1  0.71131000  0.94238000  0.45023000  1.0 -0.1725701059
C  C374  1  0.68607000  0.90172000  0.43479000  1.0 -0.0832264913
C  C375  1  0.86547000  0.11194000  0.67355000  1.0 0.5256004081
C  C376  1  0.84125000  0.08569000  0.63082000  1.0 -0.0717098776
C  C377  1  0.85525000  0.09499000  0.60448000  1.0 -0.0832264913
C  C378  1  0.83413000  0.06699000  0.56400000  1.0 -0.1725701059
C  C379  1  0.79922000  0.03306000  0.54328000  1.0 0.1722444491
C  C380  1  0.78282000  0.02416000  0.56870000  1.0 -0.218143337
C  C381  1  0.80553000  0.05211000  0.61122000  1.0 -0.0717098776
C  C382  1  0.94156000  0.11263000  0.75019000  1.0 0.5607865292
C  C383  1  0.95987000  0.08484000  0.74399000  1.0 -0.0299340301
C  C384  1  0.94224000  0.04808000  0.74530000  1.0 -0.0893974171
C  C385  1  0.95232000  0.01883000  0.73179000  1.0 -0.1906760836
C  C386  1  0.98472000  0.02681000  0.72373000  1.0 0.1606592122
C  C387  1  0.00429000  0.06506000  0.72343000  1.0 -0.1974387167
C  C388  1  0.98964000  0.09141000  0.73295000  1.0 -0.0893974171
C  C389  1  0.77731000  0.02512000  0.29461000  1.0 0.0303755008
C  C390  1  0.77504000  0.99293000  0.26653000  1.0 0.0026823293
C  C391  1  0.67951000  0.35700000  0.59831000  1.0 0.5533315858
C  C392  1  0.63385000  0.33158000  0.57441000  1.0 -0.0299340301
C  C393  1  0.61237000  0.29529000  0.53582000  1.0 -0.0893974171
C  C394  1  0.57082000  0.27708000  0.51282000  1.0 -0.1792987675
C  C395  1  0.54919000  0.29355000  0.52396000  1.0 0.1606592122
C  C396  1  0.57009000  0.33151000  0.56078000  1.0 -0.1591663687
C  C397  1  0.60967000  0.34904000  0.58529000  1.0 -0.0893974171
C  C398  1  0.40269000  0.24553000  0.56934000  1.0 0.5654770043
C  C399  1  0.42725000  0.24898000  0.54747000  1.0 -0.0156684343
C  C400  1  0.41971000  0.26128000  0.51667000  1.0 -0.097910458
C  C401  1  0.44536000  0.26674000  0.50062000  1.0 -0.2073024154
C  C402  1  0.47931000  0.26396000  0.51693000  1.0 0.1395813409
C  C403  1  0.49215000  0.26108000  0.54977000  1.0 -0.1725701059
C  C404  1  0.46693000  0.25128000  0.56521000  1.0 -0.0832264913
C  C405  1  0.43839000  0.19192000  0.32645000  1.0 0.5256004081
C  C406  1  0.45487000  0.21043000  0.36918000  1.0 -0.0717098776
C  C407  1  0.49051000  0.25077000  0.39552000  1.0 -0.0832264913
C  C408  1  0.50299000  0.27013000  0.43600000  1.0 -0.1725701059
C  C409  1  0.48978000  0.25594000  0.45672000  1.0 0.1722444491
C  C410  1  0.45546000  0.21412000  0.43130000  1.0 -0.218143337
C  C411  1  0.44089000  0.19431000  0.38878000  1.0 -0.0717098776
C  C412  1  0.36244000  0.19137000  0.24981000  1.0 0.5607865292
C  C413  1  0.34085000  0.21588000  0.25601000  1.0 -0.0299340301
C  C414  1  0.30278000  0.19694000  0.25470000  1.0 -0.0893974171
C  C415  1  0.28704000  0.22053000  0.26821000  1.0 -0.1906760836
C  C416  1  0.30308000  0.26099000  0.27627000  1.0 0.1540409511
C  C417  1  0.34163000  0.28086000  0.27657000  1.0 -0.1974387167
C  C418  1  0.35846000  0.25669000  0.26705000  1.0 -0.0893974171
C  C419  1  0.73051000  0.48270000  0.70539000  1.0 0.0303755008
C  C420  1  0.72640000  0.50851000  0.73347000  1.0 0.0026823293
C  C421  1  0.24131000  0.64300000  0.32251000  1.0 0.5533315858
C  C422  1  0.24283000  0.66842000  0.30227000  1.0 -0.0299340301
C  C423  1  0.24053000  0.70471000  0.31708000  1.0 -0.0893974171
C  C424  1  0.23574000  0.72292000  0.29374000  1.0 -0.1792987675
C  C425  1  0.23041000  0.70645000  0.25564000  1.0 0.1606592122
C  C426  1  0.22927000  0.66849000  0.23858000  1.0 -0.1591663687
C  C427  1  0.23625000  0.65096000  0.26063000  1.0 -0.0893974171
C  C428  1  0.32381000  0.75447000  0.15716000  1.0 0.5654770043
C  C429  1  0.29849000  0.75102000  0.17827000  1.0 -0.0156684343
C  C430  1  0.25539000  0.73872000  0.15843000  1.0 -0.097910458
C  C431  1  0.23388000  0.73326000  0.17862000  1.0 -0.2073024154
C  C432  1  0.25297000  0.73604000  0.21535000  1.0 0.1395813409
C  C433  1  0.28869000  0.73892000  0.23107000  1.0 -0.1725701059
C  C434  1  0.31393000  0.74872000  0.21565000  1.0 -0.0832264913
C  C435  1  0.13453000  0.80808000  0.24647000  1.0 0.5256004081
C  C436  1  0.15875000  0.78957000  0.24444000  1.0 -0.0717098776
C  C437  1  0.14475000  0.74923000  0.23974000  1.0 -0.0832264913
C  C438  1  0.16587000  0.72987000  0.23286000  1.0 -0.1725701059
C  C439  1  0.20078000  0.74406000  0.23384000  1.0 0.1722444491
C  C440  1  0.21718000  0.78588000  0.24134000  1.0 -0.218143337
C  C441  1  0.19447000  0.80569000  0.24658000  1.0 -0.0717098776
C  C442  1  0.05844000  0.80863000  0.17107000  1.0 0.5607865292
C  C443  1  0.04013000  0.78412000  0.12497000  1.0 -0.0299340301
C  C444  1  0.05776000  0.80306000  0.10584000  1.0 -0.0893974171
C  C445  1  0.04768000  0.77947000  0.06651000  1.0 -0.1906760836
C  C446  1  0.01528000  0.73901000  0.04209000  1.0 0.1606592122
C  C447  1  0.99571000  0.71914000  0.06077000  1.0 -0.1974387167
C  C448  1  0.01036000  0.74331000  0.10177000  1.0 -0.0893974171
C  C449  1  0.22269000  0.51730000  0.24781000  1.0 0.0303755008
C  C450  1  0.22496000  0.49149000  0.21789000  1.0 0.0026823293
C  C451  1  0.32049000  0.91880000  0.67749000  1.0 0.5533315858
C  C452  1  0.36615000  0.94056000  0.69773000  1.0 -0.0299340301
C  C453  1  0.38763000  0.92345000  0.68292000  1.0 -0.0893974171
C  C454  1  0.42918000  0.94200000  0.70626000  1.0 -0.1792987675
C  C455  1  0.45081000  0.97477000  0.74436000  1.0 0.1606592122
C  C456  1  0.42991000  0.99069000  0.76142000  1.0 -0.1591663687
C  C457  1  0.39033000  0.97562000  0.73937000  1.0 -0.0893974171
C  C458  1  0.59731000  0.16665000  0.84284000  1.0 0.5654770043
C  C459  1  0.57275000  0.12022000  0.82173000  1.0 -0.0156684343
C  C460  1  0.58029000  0.09696000  0.84157000  1.0 -0.097910458
C  C461  1  0.55464000  0.05526000  0.82138000  1.0 -0.2073024154
C  C462  1  0.52069000  0.03762000  0.78465000  1.0 0.1395813409
C  C463  1  0.50785000  0.05762000  0.76893000  1.0 -0.1725701059
C  C464  1  0.53307000  0.09828000  0.78435000  1.0 -0.0893974171
C  C465  1  0.56161000  0.88806000  0.75353000  1.0 0.5256004081
C  C466  1  0.54513000  0.91431000  0.75556000  1.0 -0.0717098776
C  C467  1  0.50949000  0.90501000  0.76026000  1.0 -0.0832264913
C  C468  1  0.49701000  0.93301000  0.76714000  1.0 -0.1725701059
C  C469  1  0.51022000  0.96694000  0.76616000  1.0 0.1722444491
C  C470  1  0.54454000  0.97584000  0.75866000  1.0 -0.218143337
C  C471  1  0.55911000  0.94789000  0.75342000  1.0 -0.0717098776
C  C472  1  0.63756000  0.88737000  0.82893000  1.0 0.5607865292
C  C473  1  0.65915000  0.91516000  0.87503000  1.0 -0.0299340301
C  C474  1  0.69722000  0.95192000  0.89416000  1.0 -0.0893974171
C  C475  1  0.71296000  0.98117000  0.93349000  1.0 -0.1906760836
C  C476  1  0.69692000  0.97319000  0.95791000  1.0 0.1606592122
C  C477  1  0.65837000  0.93494000  0.93923000  1.0 -0.1974387167
C  C478  1  0.64154000  0.90859000  0.89823000  1.0 -0.0893974171
C  C479  1  0.26949000  0.97488000  0.75219000  1.0 0.0303755008
C  C480  1  0.27360000  0.00707000  0.78211000  1.0 0.0026823293
C  C481  1  0.91880000  0.67749000  0.32049000  1.0 0.5533315858
C  C482  1  0.94056000  0.69773000  0.36615000  1.0 -0.0299340301
C  C483  1  0.92345000  0.68292000  0.38763000  1.0 -0.0893974171
C  C484  1  0.94200000  0.70626000  0.42918000  1.0 -0.1792987675
C  C485  1  0.97477000  0.74436000  0.45081000  1.0 0.1606592122
C  C486  1  0.99069000  0.76142000  0.42991000  1.0 -0.1591663687
C  C487  1  0.97562000  0.73937000  0.39033000  1.0 -0.0893974171
C  C488  1  0.16665000  0.84284000  0.59731000  1.0 0.5654770043
C  C489  1  0.12022000  0.82173000  0.57275000  1.0 -0.0156684343
C  C490  1  0.09696000  0.84157000  0.58029000  1.0 -0.097910458
C  C491  1  0.05526000  0.82138000  0.55464000  1.0 -0.2073024154
C  C492  1  0.03762000  0.78465000  0.52069000  1.0 0.1395813409
C  C493  1  0.05762000  0.76893000  0.50785000  1.0 -0.1725701059
C  C494  1  0.09828000  0.78435000  0.53307000  1.0 -0.0893974171
C  C495  1  0.88806000  0.75353000  0.56161000  1.0 0.5256004081
C  C496  1  0.91431000  0.75556000  0.54513000  1.0 -0.0717098776
C  C497  1  0.90501000  0.76026000  0.50949000  1.0 -0.0832264913
C  C498  1  0.93301000  0.76714000  0.49701000  1.0 -0.1725701059
C  C499  1  0.96694000  0.76616000  0.51022000  1.0 0.1722444491
C  C500  1  0.97584000  0.75866000  0.54454000  1.0 -0.218143337
C  C501  1  0.94789000  0.75342000  0.55911000  1.0 -0.0717098776
C  C502  1  0.88737000  0.82893000  0.63756000  1.0 0.5607865292
C  C503  1  0.91516000  0.87503000  0.65915000  1.0 -0.0299340301
C  C504  1  0.95192000  0.89416000  0.69722000  1.0 -0.0893974171
C  C505  1  0.98117000  0.93349000  0.71296000  1.0 -0.1906760836
C  C506  1  0.97319000  0.95791000  0.69692000  1.0 0.1606592122
C  C507  1  0.93494000  0.93923000  0.65837000  1.0 -0.1974387167
C  C508  1  0.90859000  0.89823000  0.64154000  1.0 -0.0893974171
C  C509  1  0.97488000  0.75219000  0.26949000  1.0 0.0303755008
C  C510  1  0.00707000  0.78211000  0.27360000  1.0 0.0026823293
C  C511  1  0.64300000  0.32251000  0.24131000  1.0 0.5533315858
C  C512  1  0.66842000  0.30227000  0.24283000  1.0 -0.0299340301
C  C513  1  0.70471000  0.31708000  0.24053000  1.0 -0.0893974171
C  C514  1  0.72292000  0.29374000  0.23574000  1.0 -0.1792987675
C  C515  1  0.70645000  0.25564000  0.23041000  1.0 0.1606592122
C  C516  1  0.66849000  0.23858000  0.22927000  1.0 -0.1591663687
C  C517  1  0.65096000  0.26063000  0.23625000  1.0 -0.0893974171
C  C518  1  0.75447000  0.15716000  0.32381000  1.0 0.5654770043
C  C519  1  0.75102000  0.17827000  0.29849000  1.0 -0.0156684343
C  C520  1  0.73872000  0.15843000  0.25539000  1.0 -0.097910458
C  C521  1  0.73326000  0.17862000  0.23388000  1.0 -0.2073024154
C  C522  1  0.73604000  0.21535000  0.25297000  1.0 0.1395813409
C  C523  1  0.73892000  0.23107000  0.28869000  1.0 -0.1725701059
C  C524  1  0.74872000  0.21565000  0.31393000  1.0 -0.0893974171
C  C525  1  0.80808000  0.24647000  0.13453000  1.0 0.5256004081
C  C526  1  0.78957000  0.24444000  0.15875000  1.0 -0.0717098776
C  C527  1  0.74923000  0.23974000  0.14475000  1.0 -0.0832264913
C  C528  1  0.72987000  0.23286000  0.16587000  1.0 -0.1725701059
C  C529  1  0.74406000  0.23384000  0.20078000  1.0 0.1722444491
C  C530  1  0.78588000  0.24134000  0.21718000  1.0 -0.218143337
C  C531  1  0.80569000  0.24658000  0.19447000  1.0 -0.0717098776
C  C532  1  0.80863000  0.17107000  0.05844000  1.0 0.5607865292
C  C533  1  0.78412000  0.12497000  0.04013000  1.0 -0.0299340301
C  C534  1  0.80306000  0.10584000  0.05776000  1.0 -0.0893974171
C  C535  1  0.77947000  0.06651000  0.04768000  1.0 -0.1906760836
C  C536  1  0.73901000  0.04209000  0.01528000  1.0 0.1606592122
C  C537  1  0.71914000  0.06077000  0.99571000  1.0 -0.1974387167
C  C538  1  0.74331000  0.10177000  0.01036000  1.0 -0.0893974171
C  C539  1  0.51730000  0.24781000  0.22269000  1.0 0.0303755008
C  C540  1  0.49149000  0.21789000  0.22496000  1.0 0.0026823293
C  C541  1  0.35700000  0.59831000  0.67951000  1.0 0.5533315858
C  C542  1  0.33158000  0.57441000  0.63385000  1.0 -0.0299340301
C  C543  1  0.29529000  0.53582000  0.61237000  1.0 -0.0893974171
C  C544  1  0.27708000  0.51282000  0.57082000  1.0 -0.1792987675
C  C545  1  0.29355000  0.52396000  0.54919000  1.0 0.1606592122
C  C546  1  0.33151000  0.56078000  0.57009000  1.0 -0.1591663687
C  C547  1  0.34904000  0.58529000  0.60967000  1.0 -0.0893974171
C  C548  1  0.24553000  0.56934000  0.40269000  1.0 0.5607865292
C  C549  1  0.24898000  0.54747000  0.42725000  1.0 -0.0156684343
C  C550  1  0.26128000  0.51667000  0.41971000  1.0 -0.097910458
C  C551  1  0.26674000  0.50062000  0.44536000  1.0 -0.2073024154
C  C552  1  0.26396000  0.51693000  0.47931000  1.0 0.1395813409
C  C553  1  0.26108000  0.54977000  0.49215000  1.0 -0.1725701059
C  C554  1  0.25128000  0.56521000  0.46693000  1.0 -0.0832264913
C  C555  1  0.19192000  0.32645000  0.43839000  1.0 0.5256004081
C  C556  1  0.21043000  0.36918000  0.45487000  1.0 -0.0717098776
C  C557  1  0.25077000  0.39552000  0.49051000  1.0 -0.0832264913
C  C558  1  0.27013000  0.43600000  0.50299000  1.0 -0.1725701059
C  C559  1  0.25594000  0.45672000  0.48978000  1.0 0.1722444491
C  C560  1  0.21412000  0.43130000  0.45546000  1.0 -0.218143337
C  C561  1  0.19431000  0.38878000  0.44089000  1.0 -0.0717098776
C  C562  1  0.19137000  0.24981000  0.36244000  1.0 0.5607865292
C  C563  1  0.21588000  0.25601000  0.34085000  1.0 -0.0299340301
C  C564  1  0.19694000  0.25470000  0.30278000  1.0 -0.0893974171
C  C565  1  0.22053000  0.26821000  0.28704000  1.0 -0.1906760836
C  C566  1  0.26099000  0.27627000  0.30308000  1.0 0.1540409511
C  C567  1  0.28086000  0.27657000  0.34163000  1.0 -0.1974387167
C  C568  1  0.25669000  0.26705000  0.35846000  1.0 -0.0893974171
C  C569  1  0.48270000  0.70539000  0.73051000  1.0 0.0303755008
C  C570  1  0.50851000  0.73347000  0.72640000  1.0 0.0026823293
C  C571  1  0.08120000  0.40169000  0.75869000  1.0 0.5533315858
C  C572  1  0.05944000  0.42559000  0.75717000  1.0 -0.0299340301
C  C573  1  0.07655000  0.46418000  0.75947000  1.0 -0.0893974171
C  C574  1  0.05800000  0.48718000  0.76426000  1.0 -0.1792987675
C  C575  1  0.02523000  0.47604000  0.76959000  1.0 0.1606592122
C  C576  1  0.00931000  0.43922000  0.77073000  1.0 -0.1591663687
C  C577  1  0.02438000  0.41471000  0.76375000  1.0 -0.0893974171
C  C578  1  0.83335000  0.43066000  0.67619000  1.0 0.5654770043
C  C579  1  0.87978000  0.45253000  0.70151000  1.0 -0.0156684343
C  C580  1  0.90304000  0.48333000  0.74461000  1.0 -0.097910458
C  C581  1  0.94474000  0.49938000  0.76612000  1.0 -0.2073024154
C  C582  1  0.96238000  0.48307000  0.74703000  1.0 0.1395813409
C  C583  1  0.94238000  0.45023000  0.71131000  1.0 -0.1725701059
C  C584  1  0.90172000  0.43479000  0.68607000  1.0 -0.0832264913
C  C585  1  0.11194000  0.67355000  0.86547000  1.0 0.5256004081
C  C586  1  0.08569000  0.63082000  0.84125000  1.0 -0.0717098776
C  C587  1  0.09499000  0.60448000  0.85525000  1.0 -0.0832264913
C  C588  1  0.06699000  0.56400000  0.83413000  1.0 -0.1725701059
C  C589  1  0.03306000  0.54328000  0.79922000  1.0 0.1722444491
C  C590  1  0.02416000  0.56870000  0.78282000  1.0 -0.218143337
C  C591  1  0.05211000  0.61122000  0.80553000  1.0 -0.0717098776
C  C592  1  0.11263000  0.75019000  0.94156000  1.0 0.5607865292
C  C593  1  0.08484000  0.74399000  0.95987000  1.0 -0.0299340301
C  C594  1  0.04808000  0.74530000  0.94224000  1.0 -0.0893974171
C  C595  1  0.01883000  0.73179000  0.95232000  1.0 -0.1906760836
C  C596  1  0.02681000  0.72373000  0.98472000  1.0 0.1606592122
C  C597  1  0.06506000  0.72343000  0.00429000  1.0 -0.1974387167
C  C598  1  0.09141000  0.73295000  0.98964000  1.0 -0.0893974171
C  C599  1  0.02512000  0.29461000  0.77731000  1.0 0.0303755008
C  C600  1  0.99293000  0.26653000  0.77504000  1.0 0.0026823293
C  C601  1  0.32251000  0.24131000  0.64300000  1.0 0.5533315858
C  C602  1  0.30227000  0.24283000  0.66842000  1.0 -0.0299340301
C  C603  1  0.31708000  0.24053000  0.70471000  1.0 -0.0893974171
C  C604  1  0.29374000  0.23574000  0.72292000  1.0 -0.1792987675
C  C605  1  0.25564000  0.23041000  0.70645000  1.0 0.1606592122
C  C606  1  0.23858000  0.22927000  0.66849000  1.0 -0.1591663687
C  C607  1  0.26063000  0.23625000  0.65096000  1.0 -0.0893974171
C  C608  1  0.15716000  0.32381000  0.75447000  1.0 0.5654770043
C  C609  1  0.17827000  0.29849000  0.75102000  1.0 -0.0156684343
C  C610  1  0.15843000  0.25539000  0.73872000  1.0 -0.097910458
C  C611  1  0.17862000  0.23388000  0.73326000  1.0 -0.2073024154
C  C612  1  0.21535000  0.25297000  0.73604000  1.0 0.1395813409
C  C613  1  0.23107000  0.28869000  0.73892000  1.0 -0.1725701059
C  C614  1  0.21565000  0.31393000  0.74872000  1.0 -0.0832264913
C  C615  1  0.24647000  0.13453000  0.80808000  1.0 0.5256004081
C  C616  1  0.24444000  0.15875000  0.78957000  1.0 -0.0717098776
C  C617  1  0.23974000  0.14475000  0.74923000  1.0 -0.0832264913
C  C618  1  0.23286000  0.16587000  0.72987000  1.0 -0.1725701059
C  C619  1  0.23384000  0.20078000  0.74406000  1.0 0.1722444491
C  C620  1  0.24134000  0.21718000  0.78588000  1.0 -0.218143337
C  C621  1  0.24658000  0.19447000  0.80569000  1.0 -0.0717098776
C  C622  1  0.17107000  0.05844000  0.80863000  1.0 0.5607865292
C  C623  1  0.12497000  0.04013000  0.78412000  1.0 -0.0299340301
C  C624  1  0.10584000  0.05776000  0.80306000  1.0 -0.0893974171
C  C625  1  0.06651000  0.04768000  0.77947000  1.0 -0.1906760836
C  C626  1  0.04209000  0.01528000  0.73901000  1.0 0.1606592122
C  C627  1  0.06077000  0.99571000  0.71914000  1.0 -0.1974387167
C  C628  1  0.10177000  0.01036000  0.74331000  1.0 -0.0893974171
C  C629  1  0.24781000  0.22269000  0.51730000  1.0 0.0303755008
C  C630  1  0.21789000  0.22496000  0.49149000  1.0 0.0026823293
C  C631  1  0.67749000  0.32049000  0.91880000  1.0 0.5533315858
C  C632  1  0.69773000  0.36615000  0.94056000  1.0 -0.0299340301
C  C633  1  0.68292000  0.38763000  0.92345000  1.0 -0.0893974171
C  C634  1  0.70626000  0.42918000  0.94200000  1.0 -0.1792987675
C  C635  1  0.74436000  0.45081000  0.97477000  1.0 0.1606592122
C  C636  1  0.76142000  0.42991000  0.99069000  1.0 -0.1591663687
C  C637  1  0.73937000  0.39033000  0.97562000  1.0 -0.0893974171
C  C638  1  0.84284000  0.59731000  0.16665000  1.0 0.5654770043
C  C639  1  0.82173000  0.57275000  0.12022000  1.0 -0.0156684343
C  C640  1  0.84157000  0.58029000  0.09696000  1.0 -0.097910458
C  C641  1  0.82138000  0.55464000  0.05526000  1.0 -0.2073024154
C  C642  1  0.78465000  0.52069000  0.03762000  1.0 0.1395813409
C  C643  1  0.76893000  0.50785000  0.05762000  1.0 -0.1725701059
C  C644  1  0.78435000  0.53307000  0.09828000  1.0 -0.0832264913
C  C645  1  0.75353000  0.56161000  0.88806000  1.0 0.5256004081
C  C646  1  0.75556000  0.54513000  0.91431000  1.0 -0.0717098776
C  C647  1  0.76026000  0.50949000  0.90501000  1.0 -0.0832264913
C  C648  1  0.76714000  0.49701000  0.93301000  1.0 -0.1725701059
C  C649  1  0.76616000  0.51022000  0.96694000  1.0 0.1722444491
C  C650  1  0.75866000  0.54454000  0.97584000  1.0 -0.218143337
C  C651  1  0.75342000  0.55911000  0.94789000  1.0 -0.0717098776
C  C652  1  0.82893000  0.63756000  0.88737000  1.0 0.5607865292
C  C653  1  0.87503000  0.65915000  0.91516000  1.0 -0.0299340301
C  C654  1  0.89416000  0.69722000  0.95192000  1.0 -0.0893974171
C  C655  1  0.93349000  0.71296000  0.98117000  1.0 -0.1906760836
C  C656  1  0.95791000  0.69692000  0.97319000  1.0 0.1606592122
C  C657  1  0.93923000  0.65837000  0.93494000  1.0 -0.1974387167
C  C658  1  0.89823000  0.64154000  0.90859000  1.0 -0.0893974171
C  C659  1  0.75219000  0.26949000  0.97488000  1.0 0.0303755008
C  C660  1  0.78211000  0.27360000  0.00707000  1.0 0.0026823293
C  C661  1  0.40169000  0.75869000  0.08120000  1.0 0.5533315858
C  C662  1  0.42559000  0.75717000  0.05944000  1.0 -0.0299340301
C  C663  1  0.46418000  0.75947000  0.07655000  1.0 -0.0893974171
C  C664  1  0.48718000  0.76426000  0.05800000  1.0 -0.1792987675
C  C665  1  0.47604000  0.76959000  0.02523000  1.0 0.1606592122
C  C666  1  0.43922000  0.77073000  0.00931000  1.0 -0.1591663687
C  C667  1  0.41471000  0.76375000  0.02438000  1.0 -0.0893974171
C  C668  1  0.43066000  0.67619000  0.83335000  1.0 0.5654770043
C  C669  1  0.45253000  0.70151000  0.87978000  1.0 -0.0156684343
C  C670  1  0.48333000  0.74461000  0.90304000  1.0 -0.097910458
C  C671  1  0.49938000  0.76612000  0.94474000  1.0 -0.2073024154
C  C672  1  0.48307000  0.74703000  0.96238000  1.0 0.1395813409
C  C673  1  0.45023000  0.71131000  0.94238000  1.0 -0.1725701059
C  C674  1  0.43479000  0.68607000  0.90172000  1.0 -0.0832264913
C  C675  1  0.67355000  0.86547000  0.11194000  1.0 0.5256004081
C  C676  1  0.63082000  0.84125000  0.08569000  1.0 -0.0717098776
C  C677  1  0.60448000  0.85525000  0.09499000  1.0 -0.0832264913
C  C678  1  0.56400000  0.83413000  0.06699000  1.0 -0.1725701059
C  C679  1  0.54328000  0.79922000  0.03306000  1.0 0.1722444491
C  C680  1  0.56870000  0.78282000  0.02416000  1.0 -0.218143337
C  C681  1  0.61122000  0.80553000  0.05211000  1.0 -0.0717098776
C  C682  1  0.75019000  0.94156000  0.11263000  1.0 0.5607865292
C  C683  1  0.74399000  0.95987000  0.08484000  1.0 -0.0299340301
C  C684  1  0.74530000  0.94224000  0.04808000  1.0 -0.0893974171
C  C685  1  0.73179000  0.95232000  0.01883000  1.0 -0.1906760836
C  C686  1  0.72373000  0.98472000  0.02681000  1.0 0.1606592122
C  C687  1  0.72343000  0.00429000  0.06506000  1.0 -0.1974387167
C  C688  1  0.73295000  0.98964000  0.09141000  1.0 -0.0893974171
C  C689  1  0.29461000  0.77731000  0.02512000  1.0 0.0303755008
C  C690  1  0.26653000  0.77504000  0.99293000  1.0 0.0026823293
C  C691  1  0.59831000  0.67951000  0.35700000  1.0 0.5533315858
C  C692  1  0.57441000  0.63385000  0.33158000  1.0 -0.0299340301
C  C693  1  0.53582000  0.61237000  0.29529000  1.0 -0.0893974171
C  C694  1  0.51282000  0.57082000  0.27708000  1.0 -0.1792987675
C  C695  1  0.52396000  0.54919000  0.29355000  1.0 0.1606592122
C  C696  1  0.56078000  0.57009000  0.33151000  1.0 -0.1591663687
C  C697  1  0.58529000  0.60967000  0.34904000  1.0 -0.0893974171
C  C698  1  0.56934000  0.40269000  0.24553000  1.0 0.5654770043
C  C699  1  0.54747000  0.42725000  0.24898000  1.0 -0.0156684343
C  C700  1  0.51667000  0.41971000  0.26128000  1.0 -0.097910458
C  C701  1  0.50062000  0.44536000  0.26674000  1.0 -0.2073024154
C  C702  1  0.51693000  0.47931000  0.26396000  1.0 0.1395813409
C  C703  1  0.54977000  0.49215000  0.26108000  1.0 -0.1725701059
C  C704  1  0.56521000  0.46693000  0.25128000  1.0 -0.0832264913
C  C705  1  0.32645000  0.43839000  0.19192000  1.0 0.5256004081
C  C706  1  0.36918000  0.45487000  0.21043000  1.0 -0.0717098776
C  C707  1  0.39552000  0.49051000  0.25077000  1.0 -0.0832264913
C  C708  1  0.43600000  0.50299000  0.27013000  1.0 -0.1725701059
C  C709  1  0.45672000  0.48978000  0.25594000  1.0 0.1722444491
C  C710  1  0.43130000  0.45546000  0.21412000  1.0 -0.218143337
C  C711  1  0.38878000  0.44089000  0.19431000  1.0 -0.0717098776
C  C712  1  0.24981000  0.36244000  0.19137000  1.0 0.5607865292
C  C713  1  0.25601000  0.34085000  0.21588000  1.0 -0.0299340301
C  C714  1  0.25470000  0.30278000  0.19694000  1.0 -0.0893974171
C  C715  1  0.26821000  0.28704000  0.22053000  1.0 -0.1906760836
C  C716  1  0.27627000  0.30308000  0.26099000  1.0 0.1540409511
C  C717  1  0.27657000  0.34163000  0.28086000  1.0 -0.1974387167
C  C718  1  0.26705000  0.35846000  0.25669000  1.0 -0.0893974171
C  C719  1  0.70539000  0.73051000  0.48270000  1.0 0.0303755008
C  C720  1  0.73347000  0.72640000  0.50851000  1.0 0.0026823293
C  C721  1  0.21035000  0.94028000  0.27007000  1.0 0.0491661699
C  C722  1  0.23656000  0.96876000  0.26780000  1.0 -0.1792987675
C  C723  1  0.23135000  0.98526000  0.24609000  1.0 0.069279055
C  C724  1  0.19042000  0.96891000  0.22151000  1.0 -0.2073024154
C  C725  1  0.15901000  0.93871000  0.22030000  1.0 0.069279055
C  C726  1  0.67021000  0.94028000  0.72993000  1.0 0.0491661699
C  C727  1  0.70096000  0.96876000  0.73220000  1.0 -0.1792987675
C  C728  1  0.73917000  0.98526000  0.75391000  1.0 0.069279055
C  C729  1  0.74740000  0.96891000  0.77849000  1.0 -0.2073024154
C  C730  1  0.71841000  0.93871000  0.77970000  1.0 0.069279055
C  C731  1  0.78965000  0.05972000  0.72993000  1.0 0.0491661699
C  C732  1  0.76344000  0.03124000  0.73220000  1.0 -0.1792987675
C  C733  1  0.76865000  0.01474000  0.75391000  1.0 0.069279055
C  C734  1  0.80958000  0.03109000  0.77849000  1.0 -0.2073024154
C  C735  1  0.84099000  0.06129000  0.77970000  1.0 0.069279055
C  C736  1  0.32979000  0.05972000  0.27007000  1.0 0.0491661699
C  C737  1  0.29904000  0.03124000  0.26780000  1.0 -0.1792987675
C  C738  1  0.26083000  0.01474000  0.24609000  1.0 0.069279055
C  C739  1  0.25260000  0.03109000  0.22151000  1.0 -0.2073024154
C  C740  1  0.28159000  0.06129000  0.22030000  1.0 0.069279055
C  C741  1  0.05972000  0.27007000  0.32979000  1.0 0.0491661699
C  C742  1  0.03124000  0.26780000  0.29904000  1.0 -0.1792987675
C  C743  1  0.01474000  0.24609000  0.26083000  1.0 0.069279055
C  C744  1  0.03109000  0.22151000  0.25260000  1.0 -0.2073024154
C  C745  1  0.06129000  0.22030000  0.28159000  1.0 0.069279055
C  C746  1  0.05972000  0.72993000  0.78965000  1.0 0.0491661699
C  C747  1  0.03124000  0.73220000  0.76344000  1.0 -0.1792987675
C  C748  1  0.01474000  0.75391000  0.76865000  1.0 0.069279055
C  C749  1  0.03109000  0.77849000  0.80958000  1.0 -0.2073024154
C  C750  1  0.06129000  0.77970000  0.84099000  1.0 0.069279055
C  C751  1  0.94028000  0.72993000  0.67021000  1.0 0.0491661699
C  C752  1  0.96876000  0.73220000  0.70096000  1.0 -0.1792987675
C  C753  1  0.98526000  0.75391000  0.73917000  1.0 0.069279055
C  C754  1  0.96891000  0.77849000  0.74740000  1.0 -0.2073024154
C  C755  1  0.93871000  0.77970000  0.71841000  1.0 0.069279055
C  C756  1  0.94028000  0.27007000  0.21035000  1.0 0.0491661699
C  C757  1  0.96876000  0.26780000  0.23656000  1.0 -0.1792987675
C  C758  1  0.98526000  0.24609000  0.23135000  1.0 0.069279055
C  C759  1  0.96891000  0.22151000  0.19042000  1.0 -0.2073024154
C  C760  1  0.93871000  0.22030000  0.15901000  1.0 0.069279055
C  C761  1  0.72993000  0.78965000  0.05972000  1.0 0.0491661699
C  C762  1  0.73220000  0.76344000  0.03124000  1.0 -0.1792987675
C  C763  1  0.75391000  0.76865000  0.01474000  1.0 0.069279055
C  C764  1  0.77849000  0.80958000  0.03109000  1.0 -0.2073024154
C  C765  1  0.77970000  0.84099000  0.06129000  1.0 0.069279055
C  C766  1  0.27007000  0.32979000  0.05972000  1.0 0.0491661699
C  C767  1  0.26780000  0.29904000  0.03124000  1.0 -0.1792987675
C  C768  1  0.24609000  0.26083000  0.01474000  1.0 0.069279055
C  C769  1  0.22151000  0.25260000  0.03109000  1.0 -0.2073024154
C  C770  1  0.22030000  0.28159000  0.06129000  1.0 0.069279055
C  C771  1  0.27007000  0.21035000  0.94028000  1.0 0.0491661699
C  C772  1  0.26780000  0.23656000  0.96876000  1.0 -0.1792987675
C  C773  1  0.24609000  0.23135000  0.98526000  1.0 0.069279055
C  C774  1  0.22151000  0.19042000  0.96891000  1.0 -0.2073024154
C  C775  1  0.22030000  0.15901000  0.93871000  1.0 0.069279055
C  C776  1  0.72993000  0.67021000  0.94028000  1.0 0.0491661699
C  C777  1  0.73220000  0.70096000  0.96876000  1.0 -0.1792987675
C  C778  1  0.75391000  0.73917000  0.98526000  1.0 0.069279055
C  C779  1  0.77849000  0.74740000  0.96891000  1.0 -0.2073024154
C  C780  1  0.77970000  0.71841000  0.93871000  1.0 0.069279055
N  N1  1  0.22183000  0.99473000  0.49948000  1.0 -0.1725701059
N  N2  1  0.49525000  0.72235000  0.50052000  1.0 -0.1792987675
N  N3  1  0.77817000  0.27765000  0.77290000  1.0 -0.1792987675
N  N4  1  0.50475000  0.00527000  0.22710000  1.0 -0.1725701059
N  N5  1  0.00527000  0.22710000  0.50475000  1.0 -0.1725701059
N  N6  1  0.27765000  0.77290000  0.77817000  1.0 -0.1725701059
N  N7  1  0.72235000  0.50052000  0.49525000  1.0 -0.1792987675
N  N8  1  0.99473000  0.49948000  0.22183000  1.0 -0.1725701059
N  N9  1  0.77290000  0.77817000  0.27765000  1.0 -0.1725701059
N  N10  1  0.22710000  0.50475000  0.00527000  1.0 -0.1725701059
N  N11  1  0.49948000  0.22183000  0.99473000  1.0 -0.1792987675
N  N12  1  0.50052000  0.49525000  0.72235000  1.0 -0.1792987675
N  N13  1  0.77817000  0.00527000  0.50052000  1.0 -0.1792987675
N  N14  1  0.50475000  0.27765000  0.49948000  1.0 -0.1792987675
N  N15  1  0.22183000  0.72235000  0.22710000  1.0 -0.1725701059
N  N16  1  0.49525000  0.99473000  0.77290000  1.0 -0.1725701059
N  N17  1  0.99473000  0.77290000  0.49525000  1.0 -0.1792987675
N  N18  1  0.72235000  0.22710000  0.22183000  1.0 -0.1792987675
N  N19  1  0.27765000  0.49948000  0.50475000  1.0 -0.1725701059
N  N20  1  0.00527000  0.50052000  0.77817000  1.0 -0.1725701059
N  N21  1  0.22710000  0.22183000  0.72235000  1.0 -0.1792987675
N  N22  1  0.77290000  0.49525000  0.99473000  1.0 -0.1792987675
N  N23  1  0.50052000  0.77817000  0.00527000  1.0 -0.1725701059
N  N24  1  0.49948000  0.50475000  0.27765000  1.0 -0.1725701059
N  N25  1  0.24373000  0.95720000  0.71347000  1.0 -0.1906760836
N  N26  1  0.24823000  0.02158000  0.77335000  1.0 -0.1906760836
N  N27  1  0.24373000  0.53026000  0.28653000  1.0 -0.1906760836
N  N28  1  0.24823000  0.47488000  0.22665000  1.0 -0.1906760836
N  N29  1  0.75627000  0.46974000  0.71347000  1.0 -0.1906760836
N  N30  1  0.75177000  0.52512000  0.77335000  1.0 -0.1906760836
N  N31  1  0.75627000  0.04280000  0.28653000  1.0 -0.1906760836
N  N32  1  0.75177000  0.97842000  0.22665000  1.0 -0.1906760836
N  N33  1  0.04280000  0.28653000  0.75627000  1.0 -0.1906760836
N  N34  1  0.97842000  0.22665000  0.75177000  1.0 -0.1906760836
N  N35  1  0.46974000  0.71347000  0.75627000  1.0 -0.1906760836
N  N36  1  0.52512000  0.77335000  0.75177000  1.0 -0.1906760836
N  N37  1  0.53026000  0.28653000  0.24373000  1.0 -0.1906760836
N  N38  1  0.47488000  0.22665000  0.24823000  1.0 -0.1906760836
N  N39  1  0.95720000  0.71347000  0.24373000  1.0 -0.1906760836
N  N40  1  0.02158000  0.77335000  0.24823000  1.0 -0.1906760836
N  N41  1  0.71347000  0.75627000  0.46974000  1.0 -0.1906760836
N  N42  1  0.77335000  0.75177000  0.52512000  1.0 -0.1792987675
N  N43  1  0.28653000  0.75627000  0.04280000  1.0 -0.1906760836
N  N44  1  0.22665000  0.75177000  0.97842000  1.0 -0.1906760836
N  N45  1  0.71347000  0.24373000  0.95720000  1.0 -0.1906760836
N  N46  1  0.77335000  0.24823000  0.02158000  1.0 -0.1792987675
N  N47  1  0.28653000  0.24373000  0.53026000  1.0 -0.1906760836
N  N48  1  0.22665000  0.24823000  0.47488000  1.0 -0.1906760836
N  N49  1  0.16929000  0.92331000  0.24598000  1.0 -0.218143337
N  N50  1  0.67733000  0.92331000  0.75402000  1.0 -0.218143337
N  N51  1  0.83071000  0.07669000  0.75402000  1.0 -0.218143337
N  N52  1  0.32267000  0.07669000  0.24598000  1.0 -0.218143337
N  N53  1  0.07669000  0.24598000  0.32267000  1.0 -0.218143337
N  N54  1  0.07669000  0.75402000  0.83071000  1.0 -0.218143337
N  N55  1  0.92331000  0.75402000  0.67733000  1.0 -0.218143337
N  N56  1  0.92331000  0.24598000  0.16929000  1.0 -0.218143337
N  N57  1  0.75402000  0.83071000  0.07669000  1.0 -0.218143337
N  N58  1  0.24598000  0.32267000  0.07669000  1.0 -0.2073024154
N  N59  1  0.24598000  0.16929000  0.92331000  1.0 -0.218143337
N  N60  1  0.75402000  0.67733000  0.92331000  1.0 -0.218143337
N  N61  1  0.00000000  0.00000000  0.28300000  1.0 -0.1188626846
N  N62  1  0.71700000  0.71700000  0.71700000  1.0 -0.1188626846
N  N63  1  0.00000000  0.28300000  0.00000000  1.0 -0.1188626846
N  N64  1  0.28300000  0.00000000  0.00000000  1.0 -0.1188626846
N  N65  1  0.00000000  0.00000000  0.71700000  1.0 -0.1188626846
N  N66  1  0.28300000  0.28300000  0.28300000  1.0 -0.1188626846
N  N67  1  0.00000000  0.71700000  0.00000000  1.0 -0.1188626846
N  N68  1  0.71700000  0.00000000  0.00000000  1.0 -0.1188626846
O  O1  1  0.24328000  0.93465000  0.63177000  1.0 -0.4813147228
O  O2  1  0.24339000  0.88455000  0.58250000  1.0 -0.5400462088
O  O3  1  0.30630000  0.18248000  0.55094000  1.0 -0.5400462088
O  O4  1  0.35782000  0.18305000  0.60075000  1.0 -0.5037106653
O  O5  1  0.14648000  0.90205000  0.30319000  1.0 -0.5400462088
O  O6  1  0.10207000  0.85477000  0.30730000  1.0 -0.4648948825
O  O7  1  0.09009000  0.90238000  0.24609000  1.0 -0.5106567592
O  O8  1  0.04182000  0.85449000  0.24891000  1.0 -0.4852461049
O  O9  1  0.30288000  0.61151000  0.36823000  1.0 -0.4813147228
O  O10  1  0.30205000  0.66089000  0.41750000  1.0 -0.5400462088
O  O11  1  0.63154000  0.75536000  0.44906000  1.0 -0.5400462088
O  O12  1  0.58230000  0.75707000  0.39925000  1.0 -0.5037106653
O  O13  1  0.59886000  0.84329000  0.69681000  1.0 -0.5400462088
O  O14  1  0.54747000  0.79477000  0.69270000  1.0 -0.4648948825
O  O15  1  0.65629000  0.84400000  0.75391000  1.0 -0.5106567592
O  O16  1  0.60558000  0.79291000  0.75109000  1.0 -0.4852461049
O  O17  1  0.75672000  0.38849000  0.69137000  1.0 -0.4813147228
O  O18  1  0.75661000  0.33911000  0.64116000  1.0 -0.5400462088
O  O19  1  0.69370000  0.24464000  0.87618000  1.0 -0.5400462088
O  O20  1  0.64218000  0.24293000  0.82523000  1.0 -0.5037106653
O  O21  1  0.85352000  0.15671000  0.75557000  1.0 -0.5400462088
O  O22  1  0.89793000  0.20523000  0.75270000  1.0 -0.4648948825
O  O23  1  0.90991000  0.15600000  0.81229000  1.0 -0.5106567592
O  O24  1  0.95818000  0.20709000  0.81267000  1.0 -0.4852461049
O  O25  1  0.69712000  0.06535000  0.30863000  1.0 -0.4813147228
O  O26  1  0.69795000  0.11545000  0.35884000  1.0 -0.5400462088
O  O27  1  0.36846000  0.81752000  0.12382000  1.0 -0.5400462088
O  O28  1  0.41770000  0.81695000  0.17477000  1.0 -0.5037106653
O  O29  1  0.40114000  0.09795000  0.24443000  1.0 -0.5400462088
O  O30  1  0.45253000  0.14523000  0.24730000  1.0 -0.4648948825
O  O31  1  0.34371000  0.09762000  0.18771000  1.0 -0.5106567592
O  O32  1  0.39442000  0.14551000  0.18733000  1.0 -0.4852461049
O  O33  1  0.06535000  0.30863000  0.69712000  1.0 -0.4813147228
O  O34  1  0.11545000  0.35884000  0.69795000  1.0 -0.5400462088
O  O35  1  0.81752000  0.12382000  0.36846000  1.0 -0.5400462088
O  O36  1  0.81695000  0.17477000  0.41770000  1.0 -0.5037106653
O  O37  1  0.09795000  0.24443000  0.40114000  1.0 -0.5400462088
O  O38  1  0.14523000  0.24730000  0.45253000  1.0 -0.4648948825
O  O39  1  0.09762000  0.18771000  0.34371000  1.0 -0.5106567592
O  O40  1  0.14551000  0.18733000  0.39442000  1.0 -0.4852461049
O  O41  1  0.38849000  0.69137000  0.75672000  1.0 -0.4813147228
O  O42  1  0.33911000  0.64116000  0.75661000  1.0 -0.5400462088
O  O43  1  0.24464000  0.87618000  0.69370000  1.0 -0.5400462088
O  O44  1  0.24293000  0.82523000  0.64218000  1.0 -0.5037106653
O  O45  1  0.15671000  0.75557000  0.85352000  1.0 -0.5400462088
O  O46  1  0.20523000  0.75270000  0.89793000  1.0 -0.4648948825
O  O47  1  0.15600000  0.81229000  0.90991000  1.0 -0.5106567592
O  O48  1  0.20709000  0.81267000  0.95818000  1.0 -0.4852461049
O  O49  1  0.61151000  0.36823000  0.30288000  1.0 -0.4813147228
O  O50  1  0.66089000  0.41750000  0.30205000  1.0 -0.5400462088
O  O51  1  0.75536000  0.44906000  0.63154000  1.0 -0.5400462088
O  O52  1  0.75707000  0.39925000  0.58230000  1.0 -0.5037106653
O  O53  1  0.84329000  0.69681000  0.59886000  1.0 -0.5400462088
O  O54  1  0.79477000  0.69270000  0.54747000  1.0 -0.4648948825
O  O55  1  0.84400000  0.75391000  0.65629000  1.0 -0.5106567592
O  O56  1  0.79291000  0.75109000  0.60558000  1.0 -0.4852461049
O  O57  1  0.93465000  0.63177000  0.24328000  1.0 -0.4813147228
O  O58  1  0.88455000  0.58250000  0.24339000  1.0 -0.5400462088
O  O59  1  0.18248000  0.55094000  0.30630000  1.0 -0.5400462088
O  O60  1  0.18305000  0.60075000  0.35782000  1.0 -0.5037106653
O  O61  1  0.90205000  0.30319000  0.14648000  1.0 -0.5400462088
O  O62  1  0.85477000  0.30730000  0.10207000  1.0 -0.4648948825
O  O63  1  0.90238000  0.24609000  0.09009000  1.0 -0.5106567592
O  O64  1  0.85449000  0.24891000  0.04182000  1.0 -0.4852461049
O  O65  1  0.69137000  0.75672000  0.38849000  1.0 -0.4813147228
O  O66  1  0.64116000  0.75661000  0.33911000  1.0 -0.5400462088
O  O67  1  0.87618000  0.69370000  0.24464000  1.0 -0.5400462088
O  O68  1  0.82523000  0.64218000  0.24293000  1.0 -0.5037106653
O  O69  1  0.75557000  0.85352000  0.15671000  1.0 -0.5400462088
O  O70  1  0.75270000  0.89793000  0.20523000  1.0 -0.4648948825
O  O71  1  0.81229000  0.90991000  0.15600000  1.0 -0.5106567592
O  O72  1  0.81267000  0.95818000  0.20709000  1.0 -0.4852461049
O  O73  1  0.30863000  0.69712000  0.06535000  1.0 -0.4813147228
O  O74  1  0.35884000  0.69795000  0.11545000  1.0 -0.5400462088
O  O75  1  0.12382000  0.36846000  0.81752000  1.0 -0.5400462088
O  O76  1  0.17477000  0.41770000  0.81695000  1.0 -0.5037106653
O  O77  1  0.24443000  0.40114000  0.09795000  1.0 -0.5400462088
O  O78  1  0.24730000  0.45253000  0.14523000  1.0 -0.4648948825
O  O79  1  0.18771000  0.34371000  0.09762000  1.0 -0.5106567592
O  O80  1  0.18733000  0.39442000  0.14551000  1.0 -0.4852461049
O  O81  1  0.63177000  0.24328000  0.93465000  1.0 -0.4813147228
O  O82  1  0.58250000  0.24339000  0.88455000  1.0 -0.5400462088
O  O83  1  0.55094000  0.30630000  0.18248000  1.0 -0.5400462088
O  O84  1  0.60075000  0.35782000  0.18305000  1.0 -0.5037106653
O  O85  1  0.30319000  0.14648000  0.90205000  1.0 -0.5400462088
O  O86  1  0.30730000  0.10207000  0.85477000  1.0 -0.4648948825
O  O87  1  0.24609000  0.09009000  0.90238000  1.0 -0.5106567592
O  O88  1  0.24891000  0.04182000  0.85449000  1.0 -0.4852461049
O  O89  1  0.36823000  0.30288000  0.61151000  1.0 -0.4813147228
O  O90  1  0.41750000  0.30205000  0.66089000  1.0 -0.5400462088
O  O91  1  0.44906000  0.63154000  0.75536000  1.0 -0.5400462088
O  O92  1  0.39925000  0.58230000  0.75707000  1.0 -0.5037106653
O  O93  1  0.69681000  0.59886000  0.84329000  1.0 -0.5400462088
O  O94  1  0.69270000  0.54747000  0.79477000  1.0 -0.4648948825
O  O95  1  0.75391000  0.65629000  0.84400000  1.0 -0.5106567592
O  O96  1  0.75109000  0.60558000  0.79291000  1.0 -0.4852461049
O  O97  1  0.75672000  0.06535000  0.36823000  1.0 -0.4813147228
O  O98  1  0.75661000  0.11545000  0.41750000  1.0 -0.5400462088
O  O99  1  0.69370000  0.81752000  0.44906000  1.0 -0.5400462088
O  O100  1  0.64218000  0.81695000  0.39925000  1.0 -0.5037106653
O  O101  1  0.85352000  0.09795000  0.69681000  1.0 -0.5400462088
O  O102  1  0.89793000  0.14523000  0.69270000  1.0 -0.4648948825
O  O103  1  0.90991000  0.09762000  0.75391000  1.0 -0.5106567592
O  O104  1  0.95818000  0.14551000  0.75109000  1.0 -0.4852461049
O  O105  1  0.69712000  0.38849000  0.63177000  1.0 -0.4813147228
O  O106  1  0.69795000  0.33911000  0.58250000  1.0 -0.5400462088
O  O107  1  0.36846000  0.24464000  0.55094000  1.0 -0.5400462088
O  O108  1  0.41770000  0.24293000  0.60075000  1.0 -0.5037106653
O  O109  1  0.40114000  0.15671000  0.30319000  1.0 -0.5400462088
O  O110  1  0.45253000  0.20523000  0.30730000  1.0 -0.4648948825
O  O111  1  0.34371000  0.15600000  0.24609000  1.0 -0.5106567592
O  O112  1  0.39442000  0.20709000  0.24891000  1.0 -0.4852461049
O  O113  1  0.24328000  0.61151000  0.30863000  1.0 -0.4813147228
O  O114  1  0.24339000  0.66089000  0.35884000  1.0 -0.5400462088
O  O115  1  0.30630000  0.75536000  0.12382000  1.0 -0.5400462088
O  O116  1  0.35782000  0.75707000  0.17477000  1.0 -0.5037106653
O  O117  1  0.14648000  0.84329000  0.24443000  1.0 -0.5400462088
O  O118  1  0.10207000  0.79477000  0.24730000  1.0 -0.4648948825
O  O119  1  0.09009000  0.84400000  0.18771000  1.0 -0.5106567592
O  O120  1  0.04182000  0.79291000  0.18733000  1.0 -0.4852461049
O  O121  1  0.30288000  0.93465000  0.69137000  1.0 -0.4813147228
O  O122  1  0.30205000  0.88455000  0.64116000  1.0 -0.5400462088
O  O123  1  0.63154000  0.18248000  0.87618000  1.0 -0.5400462088
O  O124  1  0.58230000  0.18305000  0.82523000  1.0 -0.5037106653
O  O125  1  0.59886000  0.90205000  0.75557000  1.0 -0.5400462088
O  O126  1  0.54747000  0.85477000  0.75270000  1.0 -0.4648948825
O  O127  1  0.65629000  0.90238000  0.81229000  1.0 -0.5106567592
O  O128  1  0.60558000  0.85449000  0.81267000  1.0 -0.4852461049
O  O129  1  0.93465000  0.69137000  0.30288000  1.0 -0.4813147228
O  O130  1  0.88455000  0.64116000  0.30205000  1.0 -0.5400462088
O  O131  1  0.18248000  0.87618000  0.63154000  1.0 -0.5400462088
O  O132  1  0.18305000  0.82523000  0.58230000  1.0 -0.5037106653
O  O133  1  0.90205000  0.75557000  0.59886000  1.0 -0.5400462088
O  O134  1  0.85477000  0.75270000  0.54747000  1.0 -0.4648948825
O  O135  1  0.90238000  0.81229000  0.65629000  1.0 -0.5106567592
O  O136  1  0.85449000  0.81267000  0.60558000  1.0 -0.4852461049
O  O137  1  0.61151000  0.30863000  0.24328000  1.0 -0.4813147228
O  O138  1  0.66089000  0.35884000  0.24339000  1.0 -0.5400462088
O  O139  1  0.75536000  0.12382000  0.30630000  1.0 -0.5400462088
O  O140  1  0.75707000  0.17477000  0.35782000  1.0 -0.5037106653
O  O141  1  0.84329000  0.24443000  0.14648000  1.0 -0.5400462088
O  O142  1  0.79477000  0.24730000  0.10207000  1.0 -0.4648948825
O  O143  1  0.84400000  0.18771000  0.09009000  1.0 -0.5106567592
O  O144  1  0.79291000  0.18733000  0.04182000  1.0 -0.4852461049
O  O145  1  0.38849000  0.63177000  0.69712000  1.0 -0.4813147228
O  O146  1  0.33911000  0.58250000  0.69795000  1.0 -0.5400462088
O  O147  1  0.24464000  0.55094000  0.36846000  1.0 -0.5400462088
O  O148  1  0.24293000  0.60075000  0.41770000  1.0 -0.5037106653
O  O149  1  0.15671000  0.30319000  0.40114000  1.0 -0.5400462088
O  O150  1  0.20523000  0.30730000  0.45253000  1.0 -0.4648948825
O  O151  1  0.15600000  0.24609000  0.34371000  1.0 -0.5106567592
O  O152  1  0.20709000  0.24891000  0.39442000  1.0 -0.4852461049
O  O153  1  0.06535000  0.36823000  0.75672000  1.0 -0.4813147228
O  O154  1  0.11545000  0.41750000  0.75661000  1.0 -0.5400462088
O  O155  1  0.81752000  0.44906000  0.69370000  1.0 -0.5400462088
O  O156  1  0.81695000  0.39925000  0.64218000  1.0 -0.5037106653
O  O157  1  0.09795000  0.69681000  0.85352000  1.0 -0.5400462088
O  O158  1  0.14523000  0.69270000  0.89793000  1.0 -0.4648948825
O  O159  1  0.09762000  0.75391000  0.90991000  1.0 -0.5106567592
O  O160  1  0.14551000  0.75109000  0.95818000  1.0 -0.4852461049
O  O161  1  0.30863000  0.24328000  0.61151000  1.0 -0.4813147228
O  O162  1  0.35884000  0.24339000  0.66089000  1.0 -0.5400462088
O  O163  1  0.12382000  0.30630000  0.75536000  1.0 -0.5400462088
O  O164  1  0.17477000  0.35782000  0.75707000  1.0 -0.5037106653
O  O165  1  0.24443000  0.14648000  0.84329000  1.0 -0.5400462088
O  O166  1  0.24730000  0.10207000  0.79477000  1.0 -0.4648948825
O  O167  1  0.18771000  0.09009000  0.84400000  1.0 -0.5106567592
O  O168  1  0.18733000  0.04182000  0.79291000  1.0 -0.4852461049
O  O169  1  0.69137000  0.30288000  0.93465000  1.0 -0.4813147228
O  O170  1  0.64116000  0.30205000  0.88455000  1.0 -0.5400462088
O  O171  1  0.87618000  0.63154000  0.18248000  1.0 -0.5400462088
O  O172  1  0.82523000  0.58230000  0.18305000  1.0 -0.5037106653
O  O173  1  0.75557000  0.59886000  0.90205000  1.0 -0.5400462088
O  O174  1  0.75270000  0.54747000  0.85477000  1.0 -0.4648948825
O  O175  1  0.81229000  0.65629000  0.90238000  1.0 -0.5106567592
O  O176  1  0.81267000  0.60558000  0.85449000  1.0 -0.4852461049
O  O177  1  0.36823000  0.75672000  0.06535000  1.0 -0.4813147228
O  O178  1  0.41750000  0.75661000  0.11545000  1.0 -0.5400462088
O  O179  1  0.44906000  0.69370000  0.81752000  1.0 -0.5400462088
O  O180  1  0.39925000  0.64218000  0.81695000  1.0 -0.5037106653
O  O181  1  0.69681000  0.85352000  0.09795000  1.0 -0.5400462088
O  O182  1  0.69270000  0.89793000  0.14523000  1.0 -0.4648948825
O  O183  1  0.75391000  0.90991000  0.09762000  1.0 -0.5106567592
O  O184  1  0.75109000  0.95818000  0.14551000  1.0 -0.4852461049
O  O185  1  0.63177000  0.69712000  0.38849000  1.0 -0.4813147228
O  O186  1  0.58250000  0.69795000  0.33911000  1.0 -0.5400462088
O  O187  1  0.55094000  0.36846000  0.24464000  1.0 -0.5400462088
O  O188  1  0.60075000  0.41770000  0.24293000  1.0 -0.5106567592
O  O189  1  0.30319000  0.40114000  0.15671000  1.0 -0.5400462088
O  O190  1  0.30730000  0.45253000  0.20523000  1.0 -0.4648948825
O  O191  1  0.24609000  0.34371000  0.15600000  1.0 -0.5106567592
O  O192  1  0.24891000  0.39442000  0.20709000  1.0 -0.4852461049
