# DDEC6 charges by PACMAN v1.1 (https://github.com/mtap-research/PACMAN-charge/)
data_DEKLEN_ASR_pacman
_symmetry_space_group_name_H-M   'P 1'
_cell_length_a   32.66690000
_cell_length_b   32.66690000
_cell_length_c   32.66690000
_cell_angle_alpha   60.00000000
_cell_angle_beta   60.00000000
_cell_angle_gamma   60.00000000
_symmetry_Int_Tables_number   1
_chemical_formula_structural   CuH16C31O4
_chemical_formula_sum   'Cu24 H384 C744 O96'
_cell_volume   24649.53729307
_cell_formula_units_Z   24
loop_
 _symmetry_equiv_pos_site_id
 _symmetry_equiv_pos_as_xyz
  1  'x, y, z'
loop_
 _atom_site_type_symbol
 _atom_site_label
 _atom_site_symmetry_multiplicity
 _atom_site_fract_x
 _atom_site_fract_y
 _atom_site_fract_z
 _atom_site_occupancy
 _atom_site_charge
Cu  Cu1  1  0.50000000  0.17664000  0.50000000  1.0 0.840990751
Cu  Cu2  1  0.50000000  0.25828000  0.50000000  1.0 0.8784435233
Cu  Cu3  1  0.17664000  0.50000000  0.82336000  1.0 0.840990751
Cu  Cu4  1  0.25828000  0.50000000  0.74172000  1.0 0.8784435233
Cu  Cu5  1  0.50000000  0.82336000  0.50000000  1.0 0.840990751
Cu  Cu6  1  0.50000000  0.74172000  0.50000000  1.0 0.8784435233
Cu  Cu7  1  0.82336000  0.50000000  0.17664000  1.0 0.840990751
Cu  Cu8  1  0.74172000  0.50000000  0.25828000  1.0 0.8784435233
Cu  Cu9  1  0.50000000  0.50000000  0.17664000  1.0 0.840990751
Cu  Cu10  1  0.50000000  0.50000000  0.25828000  1.0 0.8784435233
Cu  Cu11  1  0.82336000  0.17664000  0.50000000  1.0 0.840990751
Cu  Cu12  1  0.74172000  0.25828000  0.50000000  1.0 0.8784435233
Cu  Cu13  1  0.50000000  0.50000000  0.82336000  1.0 0.840990751
Cu  Cu14  1  0.50000000  0.50000000  0.74172000  1.0 0.8784435233
Cu  Cu15  1  0.17664000  0.82336000  0.50000000  1.0 0.840990751
Cu  Cu16  1  0.25828000  0.74172000  0.50000000  1.0 0.8784435233
Cu  Cu17  1  0.17664000  0.50000000  0.50000000  1.0 0.840990751
Cu  Cu18  1  0.25828000  0.50000000  0.50000000  1.0 0.8784435233
Cu  Cu19  1  0.50000000  0.82336000  0.17664000  1.0 0.840990751
Cu  Cu20  1  0.50000000  0.74172000  0.25828000  1.0 0.8784435233
Cu  Cu21  1  0.82336000  0.50000000  0.50000000  1.0 0.840990751
Cu  Cu22  1  0.74172000  0.50000000  0.50000000  1.0 0.8784435233
Cu  Cu23  1  0.50000000  0.17664000  0.82336000  1.0 0.840990751
Cu  Cu24  1  0.50000000  0.25828000  0.74172000  1.0 0.8784435233
H  H1  1  0.66170000  0.10390000  0.45330000  1.0 0.1304610211
H  H2  1  0.69460000  0.03020000  0.52920000  1.0 0.1007959287
H  H3  1  0.69650000  0.95190000  0.59150000  1.0 0.1007959287
H  H4  1  0.74960000  0.87960000  0.56920000  1.0 0.1007959287
H  H5  1  0.79500000  0.88580000  0.48620000  1.0 0.0783036669
H  H6  1  0.10390000  0.66170000  0.78110000  1.0 0.1304610211
H  H7  1  0.03020000  0.69460000  0.74600000  1.0 0.1007959287
H  H8  1  0.95190000  0.69650000  0.76010000  1.0 0.1007959287
H  H9  1  0.87960000  0.74960000  0.80160000  1.0 0.1007959287
H  H10  1  0.88580000  0.79500000  0.83300000  1.0 0.0783036669
H  H11  1  0.45330000  0.78110000  0.66170000  1.0 0.1304610211
H  H12  1  0.52920000  0.74600000  0.69460000  1.0 0.1007959287
H  H13  1  0.59150000  0.76010000  0.69650000  1.0 0.1007959287
H  H14  1  0.56920000  0.80160000  0.74960000  1.0 0.1007959287
H  H15  1  0.48620000  0.83300000  0.79500000  1.0 0.0783036669
H  H16  1  0.78110000  0.45330000  0.10390000  1.0 0.1304610211
H  H17  1  0.74600000  0.52920000  0.03020000  1.0 0.1007959287
H  H18  1  0.76010000  0.59150000  0.95190000  1.0 0.1007959287
H  H19  1  0.80160000  0.56920000  0.87960000  1.0 0.1007959287
H  H20  1  0.83300000  0.48620000  0.88580000  1.0 0.0783036669
H  H21  1  0.45330000  0.66170000  0.10390000  1.0 0.1304610211
H  H22  1  0.52920000  0.69460000  0.03020000  1.0 0.1007959287
H  H23  1  0.59150000  0.69650000  0.95190000  1.0 0.1007959287
H  H24  1  0.56920000  0.74960000  0.87960000  1.0 0.1007959287
H  H25  1  0.48620000  0.79500000  0.88580000  1.0 0.0783036669
H  H26  1  0.78110000  0.10390000  0.66170000  1.0 0.1304610211
H  H27  1  0.74600000  0.03020000  0.69460000  1.0 0.1007959287
H  H28  1  0.76010000  0.95190000  0.69650000  1.0 0.1007959287
H  H29  1  0.80160000  0.87960000  0.74960000  1.0 0.1007959287
H  H30  1  0.83300000  0.88580000  0.79500000  1.0 0.0783036669
H  H31  1  0.66170000  0.45330000  0.78110000  1.0 0.1304610211
H  H32  1  0.69460000  0.52920000  0.74600000  1.0 0.1007959287
H  H33  1  0.69650000  0.59150000  0.76010000  1.0 0.1007959287
H  H34  1  0.74960000  0.56920000  0.80160000  1.0 0.1007959287
H  H35  1  0.79500000  0.48620000  0.83300000  1.0 0.0783036669
H  H36  1  0.10390000  0.78110000  0.45330000  1.0 0.1304610211
H  H37  1  0.03020000  0.74600000  0.52920000  1.0 0.1007959287
H  H38  1  0.95190000  0.76010000  0.59150000  1.0 0.1007959287
H  H39  1  0.87960000  0.80160000  0.56920000  1.0 0.1007959287
H  H40  1  0.88580000  0.83300000  0.48620000  1.0 0.0783036669
H  H41  1  0.10390000  0.45330000  0.66170000  1.0 0.1304610211
H  H42  1  0.03020000  0.52920000  0.69460000  1.0 0.1007959287
H  H43  1  0.95190000  0.59150000  0.69650000  1.0 0.1007959287
H  H44  1  0.87960000  0.56920000  0.74960000  1.0 0.1007959287
H  H45  1  0.88580000  0.48620000  0.79500000  1.0 0.0783036669
H  H46  1  0.66170000  0.78110000  0.10390000  1.0 0.1304610211
H  H47  1  0.69460000  0.74600000  0.03020000  1.0 0.1007959287
H  H48  1  0.69650000  0.76010000  0.95190000  1.0 0.1007959287
H  H49  1  0.74960000  0.80160000  0.87960000  1.0 0.1007959287
H  H50  1  0.79500000  0.83300000  0.88580000  1.0 0.0783036669
H  H51  1  0.78110000  0.66170000  0.45330000  1.0 0.1304610211
H  H52  1  0.74600000  0.69460000  0.52920000  1.0 0.1007959287
H  H53  1  0.76010000  0.69650000  0.59150000  1.0 0.1007959287
H  H54  1  0.80160000  0.74960000  0.56920000  1.0 0.1007959287
H  H55  1  0.83300000  0.79500000  0.48620000  1.0 0.0783036669
H  H56  1  0.45330000  0.10390000  0.78110000  1.0 0.1304610211
H  H57  1  0.52920000  0.03020000  0.74600000  1.0 0.1007959287
H  H58  1  0.59150000  0.95190000  0.76010000  1.0 0.1007959287
H  H59  1  0.56920000  0.87960000  0.80160000  1.0 0.1007959287
H  H60  1  0.48620000  0.88580000  0.83300000  1.0 0.0783036669
H  H61  1  0.33830000  0.89610000  0.21890000  1.0 0.1304610211
H  H62  1  0.30540000  0.96980000  0.25400000  1.0 0.1007959287
H  H63  1  0.30350000  0.04810000  0.23990000  1.0 0.1007959287
H  H64  1  0.25040000  0.12040000  0.19840000  1.0 0.1007959287
H  H65  1  0.20500000  0.11420000  0.16700000  1.0 0.0783036669
H  H66  1  0.89610000  0.33830000  0.54670000  1.0 0.1304610211
H  H67  1  0.96980000  0.30540000  0.47080000  1.0 0.1007959287
H  H68  1  0.04810000  0.30350000  0.40850000  1.0 0.1007959287
H  H69  1  0.12040000  0.25040000  0.43080000  1.0 0.1007959287
H  H70  1  0.11420000  0.20500000  0.51380000  1.0 0.0783036669
H  H71  1  0.54670000  0.21890000  0.89610000  1.0 0.1304610211
H  H72  1  0.47080000  0.25400000  0.96980000  1.0 0.1007959287
H  H73  1  0.40850000  0.23990000  0.04810000  1.0 0.1007959287
H  H74  1  0.43080000  0.19840000  0.12040000  1.0 0.1007959287
H  H75  1  0.51380000  0.16700000  0.11420000  1.0 0.0783036669
H  H76  1  0.21890000  0.54670000  0.33830000  1.0 0.1304610211
H  H77  1  0.25400000  0.47080000  0.30540000  1.0 0.1007959287
H  H78  1  0.23990000  0.40850000  0.30350000  1.0 0.1007959287
H  H79  1  0.19840000  0.43080000  0.25040000  1.0 0.1007959287
H  H80  1  0.16700000  0.51380000  0.20500000  1.0 0.0783036669
H  H81  1  0.54670000  0.33830000  0.21890000  1.0 0.1304610211
H  H82  1  0.47080000  0.30540000  0.25400000  1.0 0.1007959287
H  H83  1  0.40850000  0.30350000  0.23990000  1.0 0.1007959287
H  H84  1  0.43080000  0.25040000  0.19840000  1.0 0.1007959287
H  H85  1  0.51380000  0.20500000  0.16700000  1.0 0.0783036669
H  H86  1  0.21890000  0.89610000  0.54670000  1.0 0.1304610211
H  H87  1  0.25400000  0.96980000  0.47080000  1.0 0.1007959287
H  H88  1  0.23990000  0.04810000  0.40850000  1.0 0.1007959287
H  H89  1  0.19840000  0.12040000  0.43080000  1.0 0.1007959287
H  H90  1  0.16700000  0.11420000  0.51380000  1.0 0.0783036669
H  H91  1  0.33830000  0.54670000  0.89610000  1.0 0.1304610211
H  H92  1  0.30540000  0.47080000  0.96980000  1.0 0.1007959287
H  H93  1  0.30350000  0.40850000  0.04810000  1.0 0.1007959287
H  H94  1  0.25040000  0.43080000  0.12040000  1.0 0.1007959287
H  H95  1  0.20500000  0.51380000  0.11420000  1.0 0.0783036669
H  H96  1  0.89610000  0.21890000  0.33830000  1.0 0.1304610211
H  H97  1  0.96980000  0.25400000  0.30540000  1.0 0.1007959287
H  H98  1  0.04810000  0.23990000  0.30350000  1.0 0.1007959287
H  H99  1  0.12040000  0.19840000  0.25040000  1.0 0.1007959287
H  H100  1  0.11420000  0.16700000  0.20500000  1.0 0.0783036669
H  H101  1  0.89610000  0.54670000  0.21890000  1.0 0.1304610211
H  H102  1  0.96980000  0.47080000  0.25400000  1.0 0.1007959287
H  H103  1  0.04810000  0.40850000  0.23990000  1.0 0.1007959287
H  H104  1  0.12040000  0.43080000  0.19840000  1.0 0.1007959287
H  H105  1  0.11420000  0.51380000  0.16700000  1.0 0.0783036669
H  H106  1  0.33830000  0.21890000  0.54670000  1.0 0.1304610211
H  H107  1  0.30540000  0.25400000  0.47080000  1.0 0.1007959287
H  H108  1  0.30350000  0.23990000  0.40850000  1.0 0.1007959287
H  H109  1  0.25040000  0.19840000  0.43080000  1.0 0.1007959287
H  H110  1  0.20500000  0.16700000  0.51380000  1.0 0.0783036669
H  H111  1  0.21890000  0.33830000  0.89610000  1.0 0.1304610211
H  H112  1  0.25400000  0.30540000  0.96980000  1.0 0.1007959287
H  H113  1  0.23990000  0.30350000  0.04810000  1.0 0.1007959287
H  H114  1  0.19840000  0.25040000  0.12040000  1.0 0.1007959287
H  H115  1  0.16700000  0.20500000  0.11420000  1.0 0.0783036669
H  H116  1  0.54670000  0.89610000  0.33830000  1.0 0.1304610211
H  H117  1  0.47080000  0.96980000  0.30540000  1.0 0.1007959287
H  H118  1  0.40850000  0.04810000  0.30350000  1.0 0.1007959287
H  H119  1  0.43080000  0.12040000  0.25040000  1.0 0.1007959287
H  H120  1  0.51380000  0.11420000  0.20500000  1.0 0.0783036669
H  H121  1  0.33830000  0.89610000  0.54670000  1.0 0.1304610211
H  H122  1  0.30540000  0.96980000  0.47080000  1.0 0.1007959287
H  H123  1  0.30350000  0.04810000  0.40850000  1.0 0.1007959287
H  H124  1  0.25040000  0.12040000  0.43080000  1.0 0.1007959287
H  H125  1  0.20500000  0.11420000  0.51380000  1.0 0.0783036669
H  H126  1  0.89610000  0.33830000  0.21890000  1.0 0.1304610211
H  H127  1  0.96980000  0.30540000  0.25400000  1.0 0.1007959287
H  H128  1  0.04810000  0.30350000  0.23990000  1.0 0.1007959287
H  H129  1  0.12040000  0.25040000  0.19840000  1.0 0.1007959287
H  H130  1  0.11420000  0.20500000  0.16700000  1.0 0.0783036669
H  H131  1  0.54670000  0.21890000  0.33830000  1.0 0.1304610211
H  H132  1  0.47080000  0.25400000  0.30540000  1.0 0.1007959287
H  H133  1  0.40850000  0.23990000  0.30350000  1.0 0.1007959287
H  H134  1  0.43080000  0.19840000  0.25040000  1.0 0.1007959287
H  H135  1  0.51380000  0.16700000  0.20500000  1.0 0.0783036669
H  H136  1  0.21890000  0.54670000  0.89610000  1.0 0.1304610211
H  H137  1  0.25400000  0.47080000  0.96980000  1.0 0.1007959287
H  H138  1  0.23990000  0.40850000  0.04810000  1.0 0.1007959287
H  H139  1  0.19840000  0.43080000  0.12040000  1.0 0.1007959287
H  H140  1  0.16700000  0.51380000  0.11420000  1.0 0.0783036669
H  H141  1  0.54670000  0.33830000  0.89610000  1.0 0.1304610211
H  H142  1  0.47080000  0.30540000  0.96980000  1.0 0.1007959287
H  H143  1  0.40850000  0.30350000  0.04810000  1.0 0.1007959287
H  H144  1  0.43080000  0.25040000  0.12040000  1.0 0.1007959287
H  H145  1  0.51380000  0.20500000  0.11420000  1.0 0.0783036669
H  H146  1  0.21890000  0.89610000  0.33830000  1.0 0.1304610211
H  H147  1  0.25400000  0.96980000  0.30540000  1.0 0.1007959287
H  H148  1  0.23990000  0.04810000  0.30350000  1.0 0.1007959287
H  H149  1  0.19840000  0.12040000  0.25040000  1.0 0.1007959287
H  H150  1  0.16700000  0.11420000  0.20500000  1.0 0.0783036669
H  H151  1  0.33830000  0.54670000  0.21890000  1.0 0.1304610211
H  H152  1  0.30540000  0.47080000  0.25400000  1.0 0.1007959287
H  H153  1  0.30350000  0.40850000  0.23990000  1.0 0.1007959287
H  H154  1  0.25040000  0.43080000  0.19840000  1.0 0.1007959287
H  H155  1  0.20500000  0.51380000  0.16700000  1.0 0.0783036669
H  H156  1  0.89610000  0.21890000  0.54670000  1.0 0.1304610211
H  H157  1  0.96980000  0.25400000  0.47080000  1.0 0.1007959287
H  H158  1  0.04810000  0.23990000  0.40850000  1.0 0.1007959287
H  H159  1  0.12040000  0.19840000  0.43080000  1.0 0.1007959287
H  H160  1  0.11420000  0.16700000  0.51380000  1.0 0.0783036669
H  H161  1  0.89610000  0.54670000  0.33830000  1.0 0.1304610211
H  H162  1  0.96980000  0.47080000  0.30540000  1.0 0.1007959287
H  H163  1  0.04810000  0.40850000  0.30350000  1.0 0.1007959287
H  H164  1  0.12040000  0.43080000  0.25040000  1.0 0.1007959287
H  H165  1  0.11420000  0.51380000  0.20500000  1.0 0.0783036669
H  H166  1  0.33830000  0.21890000  0.89610000  1.0 0.1304610211
H  H167  1  0.30540000  0.25400000  0.96980000  1.0 0.1007959287
H  H168  1  0.30350000  0.23990000  0.04810000  1.0 0.1007959287
H  H169  1  0.25040000  0.19840000  0.12040000  1.0 0.1007959287
H  H170  1  0.20500000  0.16700000  0.11420000  1.0 0.0783036669
H  H171  1  0.21890000  0.33830000  0.54670000  1.0 0.1304610211
H  H172  1  0.25400000  0.30540000  0.47080000  1.0 0.1007959287
H  H173  1  0.23990000  0.30350000  0.40850000  1.0 0.1007959287
H  H174  1  0.19840000  0.25040000  0.43080000  1.0 0.1007959287
H  H175  1  0.16700000  0.20500000  0.51380000  1.0 0.0783036669
H  H176  1  0.54670000  0.89610000  0.21890000  1.0 0.1304610211
H  H177  1  0.47080000  0.96980000  0.25400000  1.0 0.1007959287
H  H178  1  0.40850000  0.04810000  0.23990000  1.0 0.1007959287
H  H179  1  0.43080000  0.12040000  0.19840000  1.0 0.1007959287
H  H180  1  0.51380000  0.11420000  0.16700000  1.0 0.0783036669
H  H181  1  0.66170000  0.10390000  0.78110000  1.0 0.1304610211
H  H182  1  0.69460000  0.03020000  0.74600000  1.0 0.1007959287
H  H183  1  0.69650000  0.95190000  0.76010000  1.0 0.1007959287
H  H184  1  0.74960000  0.87960000  0.80160000  1.0 0.1007959287
H  H185  1  0.79500000  0.88580000  0.83300000  1.0 0.0783036669
H  H186  1  0.10390000  0.66170000  0.45330000  1.0 0.1304610211
H  H187  1  0.03020000  0.69460000  0.52920000  1.0 0.1007959287
H  H188  1  0.95190000  0.69650000  0.59150000  1.0 0.1007959287
H  H189  1  0.87960000  0.74960000  0.56920000  1.0 0.1007959287
H  H190  1  0.88580000  0.79500000  0.48620000  1.0 0.0783036669
H  H191  1  0.45330000  0.78110000  0.10390000  1.0 0.1304610211
H  H192  1  0.52920000  0.74600000  0.03020000  1.0 0.1007959287
H  H193  1  0.59150000  0.76010000  0.95190000  1.0 0.1007959287
H  H194  1  0.56920000  0.80160000  0.87960000  1.0 0.1007959287
H  H195  1  0.48620000  0.83300000  0.88580000  1.0 0.0783036669
H  H196  1  0.78110000  0.45330000  0.66170000  1.0 0.1304610211
H  H197  1  0.74600000  0.52920000  0.69460000  1.0 0.1007959287
H  H198  1  0.76010000  0.59150000  0.69650000  1.0 0.1007959287
H  H199  1  0.80160000  0.56920000  0.74960000  1.0 0.1007959287
H  H200  1  0.83300000  0.48620000  0.79500000  1.0 0.0783036669
H  H201  1  0.45330000  0.66170000  0.78110000  1.0 0.1304610211
H  H202  1  0.52920000  0.69460000  0.74600000  1.0 0.1007959287
H  H203  1  0.59150000  0.69650000  0.76010000  1.0 0.1007959287
H  H204  1  0.56920000  0.74960000  0.80160000  1.0 0.1007959287
H  H205  1  0.48620000  0.79500000  0.83300000  1.0 0.0783036669
H  H206  1  0.78110000  0.10390000  0.45330000  1.0 0.1304610211
H  H207  1  0.74600000  0.03020000  0.52920000  1.0 0.1007959287
H  H208  1  0.76010000  0.95190000  0.59150000  1.0 0.1007959287
H  H209  1  0.80160000  0.87960000  0.56920000  1.0 0.1007959287
H  H210  1  0.83300000  0.88580000  0.48620000  1.0 0.0783036669
H  H211  1  0.66170000  0.45330000  0.10390000  1.0 0.1304610211
H  H212  1  0.69460000  0.52920000  0.03020000  1.0 0.1007959287
H  H213  1  0.69650000  0.59150000  0.95190000  1.0 0.1007959287
H  H214  1  0.74960000  0.56920000  0.87960000  1.0 0.1007959287
H  H215  1  0.79500000  0.48620000  0.88580000  1.0 0.0783036669
H  H216  1  0.10390000  0.78110000  0.66170000  1.0 0.1304610211
H  H217  1  0.03020000  0.74600000  0.69460000  1.0 0.1007959287
H  H218  1  0.95190000  0.76010000  0.69650000  1.0 0.1007959287
H  H219  1  0.87960000  0.80160000  0.74960000  1.0 0.1007959287
H  H220  1  0.88580000  0.83300000  0.79500000  1.0 0.0783036669
H  H221  1  0.10390000  0.45330000  0.78110000  1.0 0.1304610211
H  H222  1  0.03020000  0.52920000  0.74600000  1.0 0.1007959287
H  H223  1  0.95190000  0.59150000  0.76010000  1.0 0.1007959287
H  H224  1  0.87960000  0.56920000  0.80160000  1.0 0.1007959287
H  H225  1  0.88580000  0.48620000  0.83300000  1.0 0.0783036669
H  H226  1  0.66170000  0.78110000  0.45330000  1.0 0.1304610211
H  H227  1  0.69460000  0.74600000  0.52920000  1.0 0.1007959287
H  H228  1  0.69650000  0.76010000  0.59150000  1.0 0.1007959287
H  H229  1  0.74960000  0.80160000  0.56920000  1.0 0.1007959287
H  H230  1  0.79500000  0.83300000  0.48620000  1.0 0.0783036669
H  H231  1  0.78110000  0.66170000  0.10390000  1.0 0.1304610211
H  H232  1  0.74600000  0.69460000  0.03020000  1.0 0.1007959287
H  H233  1  0.76010000  0.69650000  0.95190000  1.0 0.1007959287
H  H234  1  0.80160000  0.74960000  0.87960000  1.0 0.1007959287
H  H235  1  0.83300000  0.79500000  0.88580000  1.0 0.0783036669
H  H236  1  0.45330000  0.10390000  0.66170000  1.0 0.1304610211
H  H237  1  0.52920000  0.03020000  0.69460000  1.0 0.1007959287
H  H238  1  0.59150000  0.95190000  0.69650000  1.0 0.1007959287
H  H239  1  0.56920000  0.87960000  0.74960000  1.0 0.1007959287
H  H240  1  0.48620000  0.88580000  0.79500000  1.0 0.0783036669
H  H241  1  0.65060000  0.20880000  0.49000000  1.0 0.1477783272
H  H242  1  0.75730000  0.13090000  0.35450000  1.0 0.1136534974
H  H243  1  0.79570000  0.13750000  0.27110000  1.0 0.1183570091
H  H244  1  0.84170000  0.06670000  0.24990000  1.0 0.1183570091
H  H245  1  0.85230000  0.98670000  0.30870000  1.0 0.1304610211
H  H246  1  0.20880000  0.65060000  0.65060000  1.0 0.1477783272
H  H247  1  0.13090000  0.75730000  0.75730000  1.0 0.1136534974
H  H248  1  0.13750000  0.79570000  0.79570000  1.0 0.1183570091
H  H249  1  0.06670000  0.84170000  0.84170000  1.0 0.1183570091
H  H250  1  0.98670000  0.85230000  0.85230000  1.0 0.1304610211
H  H251  1  0.49000000  0.65060000  0.65060000  1.0 0.1477783272
H  H252  1  0.35450000  0.75730000  0.75730000  1.0 0.1136534974
H  H253  1  0.27110000  0.79570000  0.79570000  1.0 0.1183570091
H  H254  1  0.24990000  0.84170000  0.84170000  1.0 0.1183570091
H  H255  1  0.30870000  0.85230000  0.85230000  1.0 0.1304610211
H  H256  1  0.65060000  0.49000000  0.20880000  1.0 0.1477783272
H  H257  1  0.75730000  0.35450000  0.13090000  1.0 0.1136534974
H  H258  1  0.79570000  0.27110000  0.13750000  1.0 0.1183570091
H  H259  1  0.84170000  0.24990000  0.06670000  1.0 0.1183570091
H  H260  1  0.85230000  0.30870000  0.98670000  1.0 0.1304610211
H  H261  1  0.49000000  0.65060000  0.20880000  1.0 0.1477783272
H  H262  1  0.35450000  0.75730000  0.13090000  1.0 0.1136534974
H  H263  1  0.27110000  0.79570000  0.13750000  1.0 0.1183570091
H  H264  1  0.24990000  0.84170000  0.06670000  1.0 0.1183570091
H  H265  1  0.30870000  0.85230000  0.98670000  1.0 0.1304610211
H  H266  1  0.65060000  0.20880000  0.65060000  1.0 0.1477783272
H  H267  1  0.75730000  0.13090000  0.75730000  1.0 0.1136534974
H  H268  1  0.79570000  0.13750000  0.79570000  1.0 0.1183570091
H  H269  1  0.84170000  0.06670000  0.84170000  1.0 0.1183570091
H  H270  1  0.85230000  0.98670000  0.85230000  1.0 0.1304610211
H  H271  1  0.65060000  0.49000000  0.65060000  1.0 0.1477783272
H  H272  1  0.75730000  0.35450000  0.75730000  1.0 0.1136534974
H  H273  1  0.79570000  0.27110000  0.79570000  1.0 0.1183570091
H  H274  1  0.84170000  0.24990000  0.84170000  1.0 0.1183570091
H  H275  1  0.85230000  0.30870000  0.85230000  1.0 0.1304610211
H  H276  1  0.20880000  0.65060000  0.49000000  1.0 0.1477783272
H  H277  1  0.13090000  0.75730000  0.35450000  1.0 0.1136534974
H  H278  1  0.13750000  0.79570000  0.27110000  1.0 0.1183570091
H  H279  1  0.06670000  0.84170000  0.24990000  1.0 0.1183570091
H  H280  1  0.98670000  0.85230000  0.30870000  1.0 0.1304610211
H  H281  1  0.20880000  0.49000000  0.65060000  1.0 0.1477783272
H  H282  1  0.13090000  0.35450000  0.75730000  1.0 0.1136534974
H  H283  1  0.13750000  0.27110000  0.79570000  1.0 0.1183570091
H  H284  1  0.06670000  0.24990000  0.84170000  1.0 0.1183570091
H  H285  1  0.98670000  0.30870000  0.85230000  1.0 0.1304610211
H  H286  1  0.65060000  0.65060000  0.20880000  1.0 0.1477783272
H  H287  1  0.75730000  0.75730000  0.13090000  1.0 0.1136534974
H  H288  1  0.79570000  0.79570000  0.13750000  1.0 0.1183570091
H  H289  1  0.84170000  0.84170000  0.06670000  1.0 0.1183570091
H  H290  1  0.85230000  0.85230000  0.98670000  1.0 0.1304610211
H  H291  1  0.65060000  0.65060000  0.49000000  1.0 0.1477783272
H  H292  1  0.75730000  0.75730000  0.35450000  1.0 0.1136534974
H  H293  1  0.79570000  0.79570000  0.27110000  1.0 0.1183570091
H  H294  1  0.84170000  0.84170000  0.24990000  1.0 0.1183570091
H  H295  1  0.85230000  0.85230000  0.30870000  1.0 0.1304610211
H  H296  1  0.49000000  0.20880000  0.65060000  1.0 0.1477783272
H  H297  1  0.35450000  0.13090000  0.75730000  1.0 0.1136534974
H  H298  1  0.27110000  0.13750000  0.79570000  1.0 0.1183570091
H  H299  1  0.24990000  0.06670000  0.84170000  1.0 0.1183570091
H  H300  1  0.30870000  0.98670000  0.85230000  1.0 0.1304610211
H  H301  1  0.34940000  0.79120000  0.34940000  1.0 0.1477783272
H  H302  1  0.24270000  0.86910000  0.24270000  1.0 0.1136534974
H  H303  1  0.20430000  0.86250000  0.20430000  1.0 0.1183570091
H  H304  1  0.15830000  0.93330000  0.15830000  1.0 0.1183570091
H  H305  1  0.14770000  0.01330000  0.14770000  1.0 0.1304610211
H  H306  1  0.79120000  0.34940000  0.51000000  1.0 0.1477783272
H  H307  1  0.86910000  0.24270000  0.64550000  1.0 0.1136534974
H  H308  1  0.86250000  0.20430000  0.72890000  1.0 0.1183570091
H  H309  1  0.93330000  0.15830000  0.75010000  1.0 0.1183570091
H  H310  1  0.01330000  0.14770000  0.69130000  1.0 0.1304610211
H  H311  1  0.51000000  0.34940000  0.79120000  1.0 0.1477783272
H  H312  1  0.64550000  0.24270000  0.86910000  1.0 0.1136534974
H  H313  1  0.72890000  0.20430000  0.86250000  1.0 0.1183570091
H  H314  1  0.75010000  0.15830000  0.93330000  1.0 0.1183570091
H  H315  1  0.69130000  0.14770000  0.01330000  1.0 0.1304610211
H  H316  1  0.34940000  0.51000000  0.34940000  1.0 0.1477783272
H  H317  1  0.24270000  0.64550000  0.24270000  1.0 0.1136534974
H  H318  1  0.20430000  0.72890000  0.20430000  1.0 0.1183570091
H  H319  1  0.15830000  0.75010000  0.15830000  1.0 0.1183570091
H  H320  1  0.14770000  0.69130000  0.14770000  1.0 0.1304610211
H  H321  1  0.51000000  0.34940000  0.34940000  1.0 0.1477783272
H  H322  1  0.64550000  0.24270000  0.24270000  1.0 0.1136534974
H  H323  1  0.72890000  0.20430000  0.20430000  1.0 0.1183570091
H  H324  1  0.75010000  0.15830000  0.15830000  1.0 0.1183570091
H  H325  1  0.69130000  0.14770000  0.14770000  1.0 0.1304610211
H  H326  1  0.34940000  0.79120000  0.51000000  1.0 0.1477783272
H  H327  1  0.24270000  0.86910000  0.64550000  1.0 0.1136534974
H  H328  1  0.20430000  0.86250000  0.72890000  1.0 0.1183570091
H  H329  1  0.15830000  0.93330000  0.75010000  1.0 0.1183570091
H  H330  1  0.14770000  0.01330000  0.69130000  1.0 0.1304610211
H  H331  1  0.34940000  0.51000000  0.79120000  1.0 0.1477783272
H  H332  1  0.24270000  0.64550000  0.86910000  1.0 0.1136534974
H  H333  1  0.20430000  0.72890000  0.86250000  1.0 0.1183570091
H  H334  1  0.15830000  0.75010000  0.93330000  1.0 0.1183570091
H  H335  1  0.14770000  0.69130000  0.01330000  1.0 0.1304610211
H  H336  1  0.79120000  0.34940000  0.34940000  1.0 0.1477783272
H  H337  1  0.86910000  0.24270000  0.24270000  1.0 0.1136534974
H  H338  1  0.86250000  0.20430000  0.20430000  1.0 0.1183570091
H  H339  1  0.93330000  0.15830000  0.15830000  1.0 0.1183570091
H  H340  1  0.01330000  0.14770000  0.14770000  1.0 0.1304610211
H  H341  1  0.79120000  0.51000000  0.34940000  1.0 0.1477783272
H  H342  1  0.86910000  0.64550000  0.24270000  1.0 0.1136534974
H  H343  1  0.86250000  0.72890000  0.20430000  1.0 0.1183570091
H  H344  1  0.93330000  0.75010000  0.15830000  1.0 0.1183570091
H  H345  1  0.01330000  0.69130000  0.14770000  1.0 0.1304610211
H  H346  1  0.34940000  0.34940000  0.51000000  1.0 0.1477783272
H  H347  1  0.24270000  0.24270000  0.64550000  1.0 0.1136534974
H  H348  1  0.20430000  0.20430000  0.72890000  1.0 0.1183570091
H  H349  1  0.15830000  0.15830000  0.75010000  1.0 0.1183570091
H  H350  1  0.14770000  0.14770000  0.69130000  1.0 0.1304610211
H  H351  1  0.34940000  0.34940000  0.79120000  1.0 0.1477783272
H  H352  1  0.24270000  0.24270000  0.86910000  1.0 0.1136534974
H  H353  1  0.20430000  0.20430000  0.86250000  1.0 0.1183570091
H  H354  1  0.15830000  0.15830000  0.93330000  1.0 0.1183570091
H  H355  1  0.14770000  0.14770000  0.01330000  1.0 0.1304610211
H  H356  1  0.51000000  0.79120000  0.34940000  1.0 0.1477783272
H  H357  1  0.64550000  0.86910000  0.24270000  1.0 0.1136534974
H  H358  1  0.72890000  0.86250000  0.20430000  1.0 0.1183570091
H  H359  1  0.75010000  0.93330000  0.15830000  1.0 0.1183570091
H  H360  1  0.69130000  0.01330000  0.14770000  1.0 0.1304610211
H  H361  1  0.79020000  0.91000000  0.38980000  1.0 0.1477783272
H  H362  1  0.91000000  0.79020000  0.91000000  1.0 0.1477783272
H  H363  1  0.38980000  0.91000000  0.79020000  1.0 0.1477783272
H  H364  1  0.91000000  0.38980000  0.91000000  1.0 0.1477783272
H  H365  1  0.38980000  0.79020000  0.91000000  1.0 0.1477783272
H  H366  1  0.91000000  0.91000000  0.79020000  1.0 0.1477783272
H  H367  1  0.79020000  0.38980000  0.91000000  1.0 0.1477783272
H  H368  1  0.91000000  0.91000000  0.38980000  1.0 0.1477783272
H  H369  1  0.91000000  0.38980000  0.79020000  1.0 0.1477783272
H  H370  1  0.79020000  0.91000000  0.91000000  1.0 0.1477783272
H  H371  1  0.91000000  0.79020000  0.38980000  1.0 0.1477783272
H  H372  1  0.38980000  0.91000000  0.91000000  1.0 0.1477783272
H  H373  1  0.20980000  0.09000000  0.09000000  1.0 0.1477783272
H  H374  1  0.09000000  0.20980000  0.61020000  1.0 0.1477783272
H  H375  1  0.61020000  0.09000000  0.09000000  1.0 0.1477783272
H  H376  1  0.09000000  0.61020000  0.20980000  1.0 0.1477783272
H  H377  1  0.61020000  0.20980000  0.09000000  1.0 0.1477783272
H  H378  1  0.09000000  0.09000000  0.61020000  1.0 0.1477783272
H  H379  1  0.20980000  0.61020000  0.09000000  1.0 0.1477783272
H  H380  1  0.09000000  0.09000000  0.20980000  1.0 0.1477783272
H  H381  1  0.09000000  0.61020000  0.09000000  1.0 0.1477783272
H  H382  1  0.20980000  0.09000000  0.61020000  1.0 0.1477783272
H  H383  1  0.09000000  0.20980000  0.09000000  1.0 0.1477783272
H  H384  1  0.61020000  0.09000000  0.20980000  1.0 0.1477783272
C  C1  1  0.59330000  0.18070000  0.48390000  1.0 0.5857590166
C  C2  1  0.64890000  0.15790000  0.47290000  1.0 -0.0108095251
C  C3  1  0.67750000  0.11730000  0.45830000  1.0 -0.1502996801
C  C4  1  0.75320000  0.05100000  0.43640000  1.0 -0.0516118175
C  C5  1  0.77590000  0.96130000  0.45790000  1.0 0.0479031916
C  C6  1  0.74690000  0.00450000  0.47170000  1.0 0.0619347848
C  C7  1  0.71580000  0.00120000  0.52100000  1.0 -0.1047445332
C  C8  1  0.71650000  0.95430000  0.55830000  1.0 -0.1502996801
C  C9  1  0.74780000  0.91100000  0.54460000  1.0 -0.0917357542
C  C10  1  0.77580000  0.91480000  0.49500000  1.0 -0.0917357542
C  C11  1  0.18070000  0.59330000  0.74210000  1.0 0.5857590166
C  C12  1  0.15790000  0.64890000  0.72030000  1.0 -0.0108095251
C  C13  1  0.11730000  0.67750000  0.74690000  1.0 -0.1502996801
C  C14  1  0.05100000  0.75320000  0.75940000  1.0 -0.0516118175
C  C15  1  0.96130000  0.77590000  0.80490000  1.0 0.0479031916
C  C16  1  0.00450000  0.74690000  0.77690000  1.0 0.0619347848
C  C17  1  0.00120000  0.71580000  0.76200000  1.0 -0.1047445332
C  C18  1  0.95430000  0.71650000  0.77090000  1.0 -0.1502996801
C  C19  1  0.91100000  0.74780000  0.79660000  1.0 -0.0917357542
C  C20  1  0.91480000  0.77580000  0.81440000  1.0 -0.0917357542
C  C21  1  0.48390000  0.74210000  0.59330000  1.0 0.5857590166
C  C22  1  0.47290000  0.72030000  0.64890000  1.0 -0.0108095251
C  C23  1  0.45830000  0.74690000  0.67750000  1.0 -0.1502996801
C  C24  1  0.43640000  0.75940000  0.75320000  1.0 -0.0516118175
C  C25  1  0.45790000  0.80490000  0.77590000  1.0 0.0479031916
C  C26  1  0.47170000  0.77690000  0.74690000  1.0 0.0619347848
C  C27  1  0.52100000  0.76200000  0.71580000  1.0 -0.1047445332
C  C28  1  0.55830000  0.77090000  0.71650000  1.0 -0.1427432014
C  C29  1  0.54460000  0.79660000  0.74780000  1.0 -0.0917357542
C  C30  1  0.49500000  0.81440000  0.77580000  1.0 -0.0917357542
C  C31  1  0.74210000  0.48390000  0.18070000  1.0 0.5857590166
C  C32  1  0.72030000  0.47290000  0.15790000  1.0 -0.0108095251
C  C33  1  0.74690000  0.45830000  0.11730000  1.0 -0.1502996801
C  C34  1  0.75940000  0.43640000  0.05100000  1.0 -0.0516118175
C  C35  1  0.80490000  0.45790000  0.96130000  1.0 0.0479031916
C  C36  1  0.77690000  0.47170000  0.00450000  1.0 0.0619347848
C  C37  1  0.76200000  0.52100000  0.00120000  1.0 -0.1061534393
C  C38  1  0.77090000  0.55830000  0.95430000  1.0 -0.1502996801
C  C39  1  0.79660000  0.54460000  0.91100000  1.0 -0.0917357542
C  C40  1  0.81440000  0.49500000  0.91480000  1.0 -0.0917357542
C  C41  1  0.48390000  0.59330000  0.18070000  1.0 0.5857590166
C  C42  1  0.47290000  0.64890000  0.15790000  1.0 -0.0108095251
C  C43  1  0.45830000  0.67750000  0.11730000  1.0 -0.1502996801
C  C44  1  0.43640000  0.75320000  0.05100000  1.0 -0.0516118175
C  C45  1  0.45790000  0.77590000  0.96130000  1.0 0.0479031916
C  C46  1  0.47170000  0.74690000  0.00450000  1.0 0.0619347848
C  C47  1  0.52100000  0.71580000  0.00120000  1.0 -0.1047445332
C  C48  1  0.55830000  0.71650000  0.95430000  1.0 -0.1502996801
C  C49  1  0.54460000  0.74780000  0.91100000  1.0 -0.0917357542
C  C50  1  0.49500000  0.77580000  0.91480000  1.0 -0.0917357542
C  C51  1  0.74210000  0.18070000  0.59330000  1.0 0.5857590166
C  C52  1  0.72030000  0.15790000  0.64890000  1.0 -0.0108095251
C  C53  1  0.74690000  0.11730000  0.67750000  1.0 -0.1502996801
C  C54  1  0.75940000  0.05100000  0.75320000  1.0 -0.0516118175
C  C55  1  0.80490000  0.96130000  0.77590000  1.0 0.0479031916
C  C56  1  0.77690000  0.00450000  0.74690000  1.0 0.0619347848
C  C57  1  0.76200000  0.00120000  0.71580000  1.0 -0.1047445332
C  C58  1  0.77090000  0.95430000  0.71650000  1.0 -0.1427432014
C  C59  1  0.79660000  0.91100000  0.74780000  1.0 -0.0917357542
C  C60  1  0.81440000  0.91480000  0.77580000  1.0 -0.0917357542
C  C61  1  0.59330000  0.48390000  0.74210000  1.0 0.5857590166
C  C62  1  0.64890000  0.47290000  0.72030000  1.0 -0.0108095251
C  C63  1  0.67750000  0.45830000  0.74690000  1.0 -0.1502996801
C  C64  1  0.75320000  0.43640000  0.75940000  1.0 -0.0516118175
C  C65  1  0.77590000  0.45790000  0.80490000  1.0 0.0479031916
C  C66  1  0.74690000  0.47170000  0.77690000  1.0 0.0619347848
C  C67  1  0.71580000  0.52100000  0.76200000  1.0 -0.1061534393
C  C68  1  0.71650000  0.55830000  0.77090000  1.0 -0.1427432014
C  C69  1  0.74780000  0.54460000  0.79660000  1.0 -0.0917357542
C  C70  1  0.77580000  0.49500000  0.81440000  1.0 -0.0917357542
C  C71  1  0.18070000  0.74210000  0.48390000  1.0 0.5857590166
C  C72  1  0.15790000  0.72030000  0.47290000  1.0 -0.0108095251
C  C73  1  0.11730000  0.74690000  0.45830000  1.0 -0.1502996801
C  C74  1  0.05100000  0.75940000  0.43640000  1.0 -0.0516118175
C  C75  1  0.96130000  0.80490000  0.45790000  1.0 0.0479031916
C  C76  1  0.00450000  0.77690000  0.47170000  1.0 0.0619347848
C  C77  1  0.00120000  0.76200000  0.52100000  1.0 -0.1061534393
C  C78  1  0.95430000  0.77090000  0.55830000  1.0 -0.1502996801
C  C79  1  0.91100000  0.79660000  0.54460000  1.0 -0.0917357542
C  C80  1  0.91480000  0.81440000  0.49500000  1.0 -0.0917357542
C  C81  1  0.18070000  0.48390000  0.59330000  1.0 0.5857590166
C  C82  1  0.15790000  0.47290000  0.64890000  1.0 -0.0108095251
C  C83  1  0.11730000  0.45830000  0.67750000  1.0 -0.1502996801
C  C84  1  0.05100000  0.43640000  0.75320000  1.0 -0.0516118175
C  C85  1  0.96130000  0.45790000  0.77590000  1.0 0.0479031916
C  C86  1  0.00450000  0.47170000  0.74690000  1.0 0.0619347848
C  C87  1  0.00120000  0.52100000  0.71580000  1.0 -0.1047445332
C  C88  1  0.95430000  0.55830000  0.71650000  1.0 -0.1427432014
C  C89  1  0.91100000  0.54460000  0.74780000  1.0 -0.0917357542
C  C90  1  0.91480000  0.49500000  0.77580000  1.0 -0.0917357542
C  C91  1  0.59330000  0.74210000  0.18070000  1.0 0.5857590166
C  C92  1  0.64890000  0.72030000  0.15790000  1.0 -0.0108095251
C  C93  1  0.67750000  0.74690000  0.11730000  1.0 -0.1502996801
C  C94  1  0.75320000  0.75940000  0.05100000  1.0 -0.0516118175
C  C95  1  0.77590000  0.80490000  0.96130000  1.0 0.0479031916
C  C96  1  0.74690000  0.77690000  0.00450000  1.0 0.0619347848
C  C97  1  0.71580000  0.76200000  0.00120000  1.0 -0.1061534393
C  C98  1  0.71650000  0.77090000  0.95430000  1.0 -0.1502996801
C  C99  1  0.74780000  0.79660000  0.91100000  1.0 -0.0917357542
C  C100  1  0.77580000  0.81440000  0.91480000  1.0 -0.0917357542
C  C101  1  0.74210000  0.59330000  0.48390000  1.0 0.5857590166
C  C102  1  0.72030000  0.64890000  0.47290000  1.0 -0.0108095251
C  C103  1  0.74690000  0.67750000  0.45830000  1.0 -0.1502996801
C  C104  1  0.75940000  0.75320000  0.43640000  1.0 -0.0516118175
C  C105  1  0.80490000  0.77590000  0.45790000  1.0 0.0479031916
C  C106  1  0.77690000  0.74690000  0.47170000  1.0 0.0619347848
C  C107  1  0.76200000  0.71580000  0.52100000  1.0 -0.1061534393
C  C108  1  0.77090000  0.71650000  0.55830000  1.0 -0.1427432014
C  C109  1  0.79660000  0.74780000  0.54460000  1.0 -0.0917357542
C  C110  1  0.81440000  0.77580000  0.49500000  1.0 -0.0917357542
C  C111  1  0.48390000  0.18070000  0.74210000  1.0 0.5857590166
C  C112  1  0.47290000  0.15790000  0.72030000  1.0 -0.0108095251
C  C113  1  0.45830000  0.11730000  0.74690000  1.0 -0.1502996801
C  C114  1  0.43640000  0.05100000  0.75940000  1.0 -0.0516118175
C  C115  1  0.45790000  0.96130000  0.80490000  1.0 0.0479031916
C  C116  1  0.47170000  0.00450000  0.77690000  1.0 0.0619347848
C  C117  1  0.52100000  0.00120000  0.76200000  1.0 -0.1047445332
C  C118  1  0.55830000  0.95430000  0.77090000  1.0 -0.1427432014
C  C119  1  0.54460000  0.91100000  0.79660000  1.0 -0.0917357542
C  C120  1  0.49500000  0.91480000  0.81440000  1.0 -0.0917357542
C  C121  1  0.40670000  0.81930000  0.25790000  1.0 0.5857590166
C  C122  1  0.35110000  0.84210000  0.27970000  1.0 -0.0108095251
C  C123  1  0.32250000  0.88270000  0.25310000  1.0 -0.1502996801
C  C124  1  0.24680000  0.94900000  0.24060000  1.0 -0.0516118175
C  C125  1  0.22410000  0.03870000  0.19510000  1.0 0.0479031916
C  C126  1  0.25310000  0.99550000  0.22310000  1.0 0.0619347848
C  C127  1  0.28420000  0.99880000  0.23800000  1.0 -0.1061534393
C  C128  1  0.28350000  0.04570000  0.22910000  1.0 -0.1427432014
C  C129  1  0.25220000  0.08900000  0.20340000  1.0 -0.0917357542
C  C130  1  0.22420000  0.08520000  0.18560000  1.0 -0.0917357542
C  C131  1  0.81930000  0.40670000  0.51610000  1.0 0.5857590166
C  C132  1  0.84210000  0.35110000  0.52710000  1.0 -0.0108095251
C  C133  1  0.88270000  0.32250000  0.54170000  1.0 -0.1502996801
C  C134  1  0.94900000  0.24680000  0.56360000  1.0 -0.0516118175
C  C135  1  0.03870000  0.22410000  0.54210000  1.0 0.0479031916
C  C136  1  0.99550000  0.25310000  0.52830000  1.0 0.0619347848
C  C137  1  0.99880000  0.28420000  0.47900000  1.0 -0.1061534393
C  C138  1  0.04570000  0.28350000  0.44170000  1.0 -0.1502996801
C  C139  1  0.08900000  0.25220000  0.45540000  1.0 -0.0917357542
C  C140  1  0.08520000  0.22420000  0.50500000  1.0 -0.0917357542
C  C141  1  0.51610000  0.25790000  0.81930000  1.0 0.5857590166
C  C142  1  0.52710000  0.27970000  0.84210000  1.0 -0.0108095251
C  C143  1  0.54170000  0.25310000  0.88270000  1.0 -0.1502996801
C  C144  1  0.56360000  0.24060000  0.94900000  1.0 -0.0516118175
C  C145  1  0.54210000  0.19510000  0.03870000  1.0 0.0479031916
C  C146  1  0.52830000  0.22310000  0.99550000  1.0 0.0619347848
C  C147  1  0.47900000  0.23800000  0.99880000  1.0 -0.1047445332
C  C148  1  0.44170000  0.22910000  0.04570000  1.0 -0.1427432014
C  C149  1  0.45540000  0.20340000  0.08900000  1.0 -0.0917357542
C  C150  1  0.50500000  0.18560000  0.08520000  1.0 -0.0917357542
C  C151  1  0.25790000  0.51610000  0.40670000  1.0 0.5857590166
C  C152  1  0.27970000  0.52710000  0.35110000  1.0 -0.0108095251
C  C153  1  0.25310000  0.54170000  0.32250000  1.0 -0.1502996801
C  C154  1  0.24060000  0.56360000  0.24680000  1.0 -0.0516118175
C  C155  1  0.19510000  0.54210000  0.22410000  1.0 0.0479031916
C  C156  1  0.22310000  0.52830000  0.25310000  1.0 0.0619347848
C  C157  1  0.23800000  0.47900000  0.28420000  1.0 -0.1061534393
C  C158  1  0.22910000  0.44170000  0.28350000  1.0 -0.1427432014
C  C159  1  0.20340000  0.45540000  0.25220000  1.0 -0.0917357542
C  C160  1  0.18560000  0.50500000  0.22420000  1.0 -0.0917357542
C  C161  1  0.51610000  0.40670000  0.25790000  1.0 0.5857590166
C  C162  1  0.52710000  0.35110000  0.27970000  1.0 -0.0108095251
C  C163  1  0.54170000  0.32250000  0.25310000  1.0 -0.1502996801
C  C164  1  0.56360000  0.24680000  0.24060000  1.0 -0.0516118175
C  C165  1  0.54210000  0.22410000  0.19510000  1.0 0.0479031916
C  C166  1  0.52830000  0.25310000  0.22310000  1.0 0.0619347848
C  C167  1  0.47900000  0.28420000  0.23800000  1.0 -0.1061534393
C  C168  1  0.44170000  0.28350000  0.22910000  1.0 -0.1502996801
C  C169  1  0.45540000  0.25220000  0.20340000  1.0 -0.0917357542
C  C170  1  0.50500000  0.22420000  0.18560000  1.0 -0.0917357542
C  C171  1  0.25790000  0.81930000  0.51610000  1.0 0.5857590166
C  C172  1  0.27970000  0.84210000  0.52710000  1.0 -0.0108095251
C  C173  1  0.25310000  0.88270000  0.54170000  1.0 -0.1502996801
C  C174  1  0.24060000  0.94900000  0.56360000  1.0 -0.0516118175
C  C175  1  0.19510000  0.03870000  0.54210000  1.0 0.0479031916
C  C176  1  0.22310000  0.99550000  0.52830000  1.0 0.0619347848
C  C177  1  0.23800000  0.99880000  0.47900000  1.0 -0.1047445332
C  C178  1  0.22910000  0.04570000  0.44170000  1.0 -0.1502996801
C  C179  1  0.20340000  0.08900000  0.45540000  1.0 -0.0917357542
C  C180  1  0.18560000  0.08520000  0.50500000  1.0 -0.0917357542
C  C181  1  0.40670000  0.51610000  0.81930000  1.0 0.5857590166
C  C182  1  0.35110000  0.52710000  0.84210000  1.0 -0.0108095251
C  C183  1  0.32250000  0.54170000  0.88270000  1.0 -0.1502996801
C  C184  1  0.24680000  0.56360000  0.94900000  1.0 -0.0516118175
C  C185  1  0.22410000  0.54210000  0.03870000  1.0 0.0479031916
C  C186  1  0.25310000  0.52830000  0.99550000  1.0 0.0619347848
C  C187  1  0.28420000  0.47900000  0.99880000  1.0 -0.1047445332
C  C188  1  0.28350000  0.44170000  0.04570000  1.0 -0.1427432014
C  C189  1  0.25220000  0.45540000  0.08900000  1.0 -0.0917357542
C  C190  1  0.22420000  0.50500000  0.08520000  1.0 -0.0917357542
C  C191  1  0.81930000  0.25790000  0.40670000  1.0 0.5857590166
C  C192  1  0.84210000  0.27970000  0.35110000  1.0 -0.0108095251
C  C193  1  0.88270000  0.25310000  0.32250000  1.0 -0.1502996801
C  C194  1  0.94900000  0.24060000  0.24680000  1.0 -0.0516118175
C  C195  1  0.03870000  0.19510000  0.22410000  1.0 0.0479031916
C  C196  1  0.99550000  0.22310000  0.25310000  1.0 0.0619347848
C  C197  1  0.99880000  0.23800000  0.28420000  1.0 -0.1061534393
C  C198  1  0.04570000  0.22910000  0.28350000  1.0 -0.1502996801
C  C199  1  0.08900000  0.20340000  0.25220000  1.0 -0.0917357542
C  C200  1  0.08520000  0.18560000  0.22420000  1.0 -0.0917357542
C  C201  1  0.81930000  0.51610000  0.25790000  1.0 0.5857590166
C  C202  1  0.84210000  0.52710000  0.27970000  1.0 -0.0108095251
C  C203  1  0.88270000  0.54170000  0.25310000  1.0 -0.1502996801
C  C204  1  0.94900000  0.56360000  0.24060000  1.0 -0.0516118175
C  C205  1  0.03870000  0.54210000  0.19510000  1.0 0.0479031916
C  C206  1  0.99550000  0.52830000  0.22310000  1.0 0.0619347848
C  C207  1  0.99880000  0.47900000  0.23800000  1.0 -0.1061534393
C  C208  1  0.04570000  0.44170000  0.22910000  1.0 -0.1427432014
C  C209  1  0.08900000  0.45540000  0.20340000  1.0 -0.0917357542
C  C210  1  0.08520000  0.50500000  0.18560000  1.0 -0.0917357542
C  C211  1  0.40670000  0.25790000  0.51610000  1.0 0.5857590166
C  C212  1  0.35110000  0.27970000  0.52710000  1.0 -0.0108095251
C  C213  1  0.32250000  0.25310000  0.54170000  1.0 -0.1502996801
C  C214  1  0.24680000  0.24060000  0.56360000  1.0 -0.0516118175
C  C215  1  0.22410000  0.19510000  0.54210000  1.0 0.0479031916
C  C216  1  0.25310000  0.22310000  0.52830000  1.0 0.0619347848
C  C217  1  0.28420000  0.23800000  0.47900000  1.0 -0.1047445332
C  C218  1  0.28350000  0.22910000  0.44170000  1.0 -0.1502996801
C  C219  1  0.25220000  0.20340000  0.45540000  1.0 -0.0917357542
C  C220  1  0.22420000  0.18560000  0.50500000  1.0 -0.0917357542
C  C221  1  0.25790000  0.40670000  0.81930000  1.0 0.5857590166
C  C222  1  0.27970000  0.35110000  0.84210000  1.0 -0.0108095251
C  C223  1  0.25310000  0.32250000  0.88270000  1.0 -0.1502996801
C  C224  1  0.24060000  0.24680000  0.94900000  1.0 -0.0516118175
C  C225  1  0.19510000  0.22410000  0.03870000  1.0 0.0479031916
C  C226  1  0.22310000  0.25310000  0.99550000  1.0 0.0619347848
C  C227  1  0.23800000  0.28420000  0.99880000  1.0 -0.1061534393
C  C228  1  0.22910000  0.28350000  0.04570000  1.0 -0.1427432014
C  C229  1  0.20340000  0.25220000  0.08900000  1.0 -0.0917357542
C  C230  1  0.18560000  0.22420000  0.08520000  1.0 -0.0917357542
C  C231  1  0.51610000  0.81930000  0.40670000  1.0 0.5857590166
C  C232  1  0.52710000  0.84210000  0.35110000  1.0 -0.0108095251
C  C233  1  0.54170000  0.88270000  0.32250000  1.0 -0.1502996801
C  C234  1  0.56360000  0.94900000  0.24680000  1.0 -0.0516118175
C  C235  1  0.54210000  0.03870000  0.22410000  1.0 0.0479031916
C  C236  1  0.52830000  0.99550000  0.25310000  1.0 0.0619347848
C  C237  1  0.47900000  0.99880000  0.28420000  1.0 -0.1061534393
C  C238  1  0.44170000  0.04570000  0.28350000  1.0 -0.1427432014
C  C239  1  0.45540000  0.08900000  0.25220000  1.0 -0.0917357542
C  C240  1  0.50500000  0.08520000  0.22420000  1.0 -0.0917357542
C  C241  1  0.40670000  0.81930000  0.51610000  1.0 0.5857590166
C  C242  1  0.35110000  0.84210000  0.52710000  1.0 -0.0108095251
C  C243  1  0.32250000  0.88270000  0.54170000  1.0 -0.1502996801
C  C244  1  0.24680000  0.94900000  0.56360000  1.0 -0.0516118175
C  C245  1  0.22410000  0.03870000  0.54210000  1.0 0.0479031916
C  C246  1  0.25310000  0.99550000  0.52830000  1.0 0.0619347848
C  C247  1  0.28420000  0.99880000  0.47900000  1.0 -0.1047445332
C  C248  1  0.28350000  0.04570000  0.44170000  1.0 -0.1502996801
C  C249  1  0.25220000  0.08900000  0.45540000  1.0 -0.0917357542
C  C250  1  0.22420000  0.08520000  0.50500000  1.0 -0.0917357542
C  C251  1  0.81930000  0.40670000  0.25790000  1.0 0.5857590166
C  C252  1  0.84210000  0.35110000  0.27970000  1.0 -0.0108095251
C  C253  1  0.88270000  0.32250000  0.25310000  1.0 -0.1502996801
C  C254  1  0.94900000  0.24680000  0.24060000  1.0 -0.0516118175
C  C255  1  0.03870000  0.22410000  0.19510000  1.0 0.0479031916
C  C256  1  0.99550000  0.25310000  0.22310000  1.0 0.0619347848
C  C257  1  0.99880000  0.28420000  0.23800000  1.0 -0.1047445332
C  C258  1  0.04570000  0.28350000  0.22910000  1.0 -0.1502996801
C  C259  1  0.08900000  0.25220000  0.20340000  1.0 -0.0917357542
C  C260  1  0.08520000  0.22420000  0.18560000  1.0 -0.0917357542
C  C261  1  0.51610000  0.25790000  0.40670000  1.0 0.5857590166
C  C262  1  0.52710000  0.27970000  0.35110000  1.0 -0.0108095251
C  C263  1  0.54170000  0.25310000  0.32250000  1.0 -0.1502996801
C  C264  1  0.56360000  0.24060000  0.24680000  1.0 -0.0516118175
C  C265  1  0.54210000  0.19510000  0.22410000  1.0 0.0479031916
C  C266  1  0.52830000  0.22310000  0.25310000  1.0 0.0619347848
C  C267  1  0.47900000  0.23800000  0.28420000  1.0 -0.1047445332
C  C268  1  0.44170000  0.22910000  0.28350000  1.0 -0.1502996801
C  C269  1  0.45540000  0.20340000  0.25220000  1.0 -0.0917357542
C  C270  1  0.50500000  0.18560000  0.22420000  1.0 -0.0917357542
C  C271  1  0.25790000  0.51610000  0.81930000  1.0 0.5857590166
C  C272  1  0.27970000  0.52710000  0.84210000  1.0 -0.0108095251
C  C273  1  0.25310000  0.54170000  0.88270000  1.0 -0.1502996801
C  C274  1  0.24060000  0.56360000  0.94900000  1.0 -0.0516118175
C  C275  1  0.19510000  0.54210000  0.03870000  1.0 0.0479031916
C  C276  1  0.22310000  0.52830000  0.99550000  1.0 0.0619347848
C  C277  1  0.23800000  0.47900000  0.99880000  1.0 -0.1061534393
C  C278  1  0.22910000  0.44170000  0.04570000  1.0 -0.1502996801
C  C279  1  0.20340000  0.45540000  0.08900000  1.0 -0.0917357542
C  C280  1  0.18560000  0.50500000  0.08520000  1.0 -0.0917357542
C  C281  1  0.51610000  0.40670000  0.81930000  1.0 0.5857590166
C  C282  1  0.52710000  0.35110000  0.84210000  1.0 -0.0108095251
C  C283  1  0.54170000  0.32250000  0.88270000  1.0 -0.1502996801
C  C284  1  0.56360000  0.24680000  0.94900000  1.0 -0.0516118175
C  C285  1  0.54210000  0.22410000  0.03870000  1.0 0.0479031916
C  C286  1  0.52830000  0.25310000  0.99550000  1.0 0.0619347848
C  C287  1  0.47900000  0.28420000  0.99880000  1.0 -0.1061534393
C  C288  1  0.44170000  0.28350000  0.04570000  1.0 -0.1427432014
C  C289  1  0.45540000  0.25220000  0.08900000  1.0 -0.0917357542
C  C290  1  0.50500000  0.22420000  0.08520000  1.0 -0.0917357542
C  C291  1  0.25790000  0.81930000  0.40670000  1.0 0.5857590166
C  C292  1  0.27970000  0.84210000  0.35110000  1.0 -0.0108095251
C  C293  1  0.25310000  0.88270000  0.32250000  1.0 -0.1502996801
C  C294  1  0.24060000  0.94900000  0.24680000  1.0 -0.0516118175
C  C295  1  0.19510000  0.03870000  0.22410000  1.0 0.0479031916
C  C296  1  0.22310000  0.99550000  0.25310000  1.0 0.0619347848
C  C297  1  0.23800000  0.99880000  0.28420000  1.0 -0.1061534393
C  C298  1  0.22910000  0.04570000  0.28350000  1.0 -0.1502996801
C  C299  1  0.20340000  0.08900000  0.25220000  1.0 -0.0917357542
C  C300  1  0.18560000  0.08520000  0.22420000  1.0 -0.0917357542
C  C301  1  0.40670000  0.51610000  0.25790000  1.0 0.5857590166
C  C302  1  0.35110000  0.52710000  0.27970000  1.0 -0.0108095251
C  C303  1  0.32250000  0.54170000  0.25310000  1.0 -0.1502996801
C  C304  1  0.24680000  0.56360000  0.24060000  1.0 -0.0516118175
C  C305  1  0.22410000  0.54210000  0.19510000  1.0 0.0479031916
C  C306  1  0.25310000  0.52830000  0.22310000  1.0 0.0619347848
C  C307  1  0.28420000  0.47900000  0.23800000  1.0 -0.1047445332
C  C308  1  0.28350000  0.44170000  0.22910000  1.0 -0.1502996801
C  C309  1  0.25220000  0.45540000  0.20340000  1.0 -0.0917357542
C  C310  1  0.22420000  0.50500000  0.18560000  1.0 -0.0917357542
C  C311  1  0.81930000  0.25790000  0.51610000  1.0 0.5857590166
C  C312  1  0.84210000  0.27970000  0.52710000  1.0 -0.0108095251
C  C313  1  0.88270000  0.25310000  0.54170000  1.0 -0.1502996801
C  C314  1  0.94900000  0.24060000  0.56360000  1.0 -0.0516118175
C  C315  1  0.03870000  0.19510000  0.54210000  1.0 0.0479031916
C  C316  1  0.99550000  0.22310000  0.52830000  1.0 0.0619347848
C  C317  1  0.99880000  0.23800000  0.47900000  1.0 -0.1061534393
C  C318  1  0.04570000  0.22910000  0.44170000  1.0 -0.1427432014
C  C319  1  0.08900000  0.20340000  0.45540000  1.0 -0.0917357542
C  C320  1  0.08520000  0.18560000  0.50500000  1.0 -0.0917357542
C  C321  1  0.81930000  0.51610000  0.40670000  1.0 0.5857590166
C  C322  1  0.84210000  0.52710000  0.35110000  1.0 -0.0108095251
C  C323  1  0.88270000  0.54170000  0.32250000  1.0 -0.1502996801
C  C324  1  0.94900000  0.56360000  0.24680000  1.0 -0.0516118175
C  C325  1  0.03870000  0.54210000  0.22410000  1.0 0.0479031916
C  C326  1  0.99550000  0.52830000  0.25310000  1.0 0.0619347848
C  C327  1  0.99880000  0.47900000  0.28420000  1.0 -0.1061534393
C  C328  1  0.04570000  0.44170000  0.28350000  1.0 -0.1427432014
C  C329  1  0.08900000  0.45540000  0.25220000  1.0 -0.0917357542
C  C330  1  0.08520000  0.50500000  0.22420000  1.0 -0.0917357542
C  C331  1  0.40670000  0.25790000  0.81930000  1.0 0.5857590166
C  C332  1  0.35110000  0.27970000  0.84210000  1.0 -0.0108095251
C  C333  1  0.32250000  0.25310000  0.88270000  1.0 -0.1502996801
C  C334  1  0.24680000  0.24060000  0.94900000  1.0 -0.0516118175
C  C335  1  0.22410000  0.19510000  0.03870000  1.0 0.0479031916
C  C336  1  0.25310000  0.22310000  0.99550000  1.0 0.0619347848
C  C337  1  0.28420000  0.23800000  0.99880000  1.0 -0.1047445332
C  C338  1  0.28350000  0.22910000  0.04570000  1.0 -0.1502996801
C  C339  1  0.25220000  0.20340000  0.08900000  1.0 -0.0917357542
C  C340  1  0.22420000  0.18560000  0.08520000  1.0 -0.0917357542
C  C341  1  0.25790000  0.40670000  0.51610000  1.0 0.5857590166
C  C342  1  0.27970000  0.35110000  0.52710000  1.0 -0.0108095251
C  C343  1  0.25310000  0.32250000  0.54170000  1.0 -0.1502996801
C  C344  1  0.24060000  0.24680000  0.56360000  1.0 -0.0516118175
C  C345  1  0.19510000  0.22410000  0.54210000  1.0 0.0479031916
C  C346  1  0.22310000  0.25310000  0.52830000  1.0 0.0619347848
C  C347  1  0.23800000  0.28420000  0.47900000  1.0 -0.1061534393
C  C348  1  0.22910000  0.28350000  0.44170000  1.0 -0.1502996801
C  C349  1  0.20340000  0.25220000  0.45540000  1.0 -0.0917357542
C  C350  1  0.18560000  0.22420000  0.50500000  1.0 -0.0917357542
C  C351  1  0.51610000  0.81930000  0.25790000  1.0 0.5857590166
C  C352  1  0.52710000  0.84210000  0.27970000  1.0 -0.0108095251
C  C353  1  0.54170000  0.88270000  0.25310000  1.0 -0.1502996801
C  C354  1  0.56360000  0.94900000  0.24060000  1.0 -0.0516118175
C  C355  1  0.54210000  0.03870000  0.19510000  1.0 0.0479031916
C  C356  1  0.52830000  0.99550000  0.22310000  1.0 0.0619347848
C  C357  1  0.47900000  0.99880000  0.23800000  1.0 -0.1061534393
C  C358  1  0.44170000  0.04570000  0.22910000  1.0 -0.1502996801
C  C359  1  0.45540000  0.08900000  0.20340000  1.0 -0.0917357542
C  C360  1  0.50500000  0.08520000  0.18560000  1.0 -0.0917357542
C  C361  1  0.59330000  0.18070000  0.74210000  1.0 0.5857590166
C  C362  1  0.64890000  0.15790000  0.72030000  1.0 -0.0108095251
C  C363  1  0.67750000  0.11730000  0.74690000  1.0 -0.1502996801
C  C364  1  0.75320000  0.05100000  0.75940000  1.0 -0.0516118175
C  C365  1  0.77590000  0.96130000  0.80490000  1.0 0.0479031916
C  C366  1  0.74690000  0.00450000  0.77690000  1.0 0.0619347848
C  C367  1  0.71580000  0.00120000  0.76200000  1.0 -0.1047445332
C  C368  1  0.71650000  0.95430000  0.77090000  1.0 -0.1502996801
C  C369  1  0.74780000  0.91100000  0.79660000  1.0 -0.0917357542
C  C370  1  0.77580000  0.91480000  0.81440000  1.0 -0.0917357542
C  C371  1  0.18070000  0.59330000  0.48390000  1.0 0.5857590166
C  C372  1  0.15790000  0.64890000  0.47290000  1.0 -0.0108095251
C  C373  1  0.11730000  0.67750000  0.45830000  1.0 -0.1502996801
C  C374  1  0.05100000  0.75320000  0.43640000  1.0 -0.0516118175
C  C375  1  0.96130000  0.77590000  0.45790000  1.0 0.0479031916
C  C376  1  0.00450000  0.74690000  0.47170000  1.0 0.0619347848
C  C377  1  0.00120000  0.71580000  0.52100000  1.0 -0.1061534393
C  C378  1  0.95430000  0.71650000  0.55830000  1.0 -0.1427432014
C  C379  1  0.91100000  0.74780000  0.54460000  1.0 -0.0917357542
C  C380  1  0.91480000  0.77580000  0.49500000  1.0 -0.0917357542
C  C381  1  0.48390000  0.74210000  0.18070000  1.0 0.5857590166
C  C382  1  0.47290000  0.72030000  0.15790000  1.0 -0.0108095251
C  C383  1  0.45830000  0.74690000  0.11730000  1.0 -0.1502996801
C  C384  1  0.43640000  0.75940000  0.05100000  1.0 -0.0516118175
C  C385  1  0.45790000  0.80490000  0.96130000  1.0 0.0479031916
C  C386  1  0.47170000  0.77690000  0.00450000  1.0 0.0619347848
C  C387  1  0.52100000  0.76200000  0.00120000  1.0 -0.1061534393
C  C388  1  0.55830000  0.77090000  0.95430000  1.0 -0.1502996801
C  C389  1  0.54460000  0.79660000  0.91100000  1.0 -0.0917357542
C  C390  1  0.49500000  0.81440000  0.91480000  1.0 -0.0917357542
C  C391  1  0.74210000  0.48390000  0.59330000  1.0 0.5857590166
C  C392  1  0.72030000  0.47290000  0.64890000  1.0 -0.0108095251
C  C393  1  0.74690000  0.45830000  0.67750000  1.0 -0.1502996801
C  C394  1  0.75940000  0.43640000  0.75320000  1.0 -0.0516118175
C  C395  1  0.80490000  0.45790000  0.77590000  1.0 0.0479031916
C  C396  1  0.77690000  0.47170000  0.74690000  1.0 0.0619347848
C  C397  1  0.76200000  0.52100000  0.71580000  1.0 -0.1061534393
C  C398  1  0.77090000  0.55830000  0.71650000  1.0 -0.1502996801
C  C399  1  0.79660000  0.54460000  0.74780000  1.0 -0.0917357542
C  C400  1  0.81440000  0.49500000  0.77580000  1.0 -0.0917357542
C  C401  1  0.48390000  0.59330000  0.74210000  1.0 0.5857590166
C  C402  1  0.47290000  0.64890000  0.72030000  1.0 -0.0108095251
C  C403  1  0.45830000  0.67750000  0.74690000  1.0 -0.1502996801
C  C404  1  0.43640000  0.75320000  0.75940000  1.0 -0.0516118175
C  C405  1  0.45790000  0.77590000  0.80490000  1.0 0.0479031916
C  C406  1  0.47170000  0.74690000  0.77690000  1.0 0.0619347848
C  C407  1  0.52100000  0.71580000  0.76200000  1.0 -0.1061534393
C  C408  1  0.55830000  0.71650000  0.77090000  1.0 -0.1502996801
C  C409  1  0.54460000  0.74780000  0.79660000  1.0 -0.0917357542
C  C410  1  0.49500000  0.77580000  0.81440000  1.0 -0.0917357542
C  C411  1  0.74210000  0.18070000  0.48390000  1.0 0.5857590166
C  C412  1  0.72030000  0.15790000  0.47290000  1.0 -0.0108095251
C  C413  1  0.74690000  0.11730000  0.45830000  1.0 -0.1502996801
C  C414  1  0.75940000  0.05100000  0.43640000  1.0 -0.0516118175
C  C415  1  0.80490000  0.96130000  0.45790000  1.0 0.0479031916
C  C416  1  0.77690000  0.00450000  0.47170000  1.0 0.0619347848
C  C417  1  0.76200000  0.00120000  0.52100000  1.0 -0.1047445332
C  C418  1  0.77090000  0.95430000  0.55830000  1.0 -0.1502996801
C  C419  1  0.79660000  0.91100000  0.54460000  1.0 -0.0917357542
C  C420  1  0.81440000  0.91480000  0.49500000  1.0 -0.0917357542
C  C421  1  0.59330000  0.48390000  0.18070000  1.0 0.5857590166
C  C422  1  0.64890000  0.47290000  0.15790000  1.0 -0.0108095251
C  C423  1  0.67750000  0.45830000  0.11730000  1.0 -0.1502996801
C  C424  1  0.75320000  0.43640000  0.05100000  1.0 -0.0516118175
C  C425  1  0.77590000  0.45790000  0.96130000  1.0 0.0479031916
C  C426  1  0.74690000  0.47170000  0.00450000  1.0 0.0619347848
C  C427  1  0.71580000  0.52100000  0.00120000  1.0 -0.1047445332
C  C428  1  0.71650000  0.55830000  0.95430000  1.0 -0.1502996801
C  C429  1  0.74780000  0.54460000  0.91100000  1.0 -0.0917357542
C  C430  1  0.77580000  0.49500000  0.91480000  1.0 -0.0917357542
C  C431  1  0.18070000  0.74210000  0.59330000  1.0 0.5857590166
C  C432  1  0.15790000  0.72030000  0.64890000  1.0 -0.0108095251
C  C433  1  0.11730000  0.74690000  0.67750000  1.0 -0.1502996801
C  C434  1  0.05100000  0.75940000  0.75320000  1.0 -0.0516118175
C  C435  1  0.96130000  0.80490000  0.77590000  1.0 0.0479031916
C  C436  1  0.00450000  0.77690000  0.74690000  1.0 0.0619347848
C  C437  1  0.00120000  0.76200000  0.71580000  1.0 -0.1047445332
C  C438  1  0.95430000  0.77090000  0.71650000  1.0 -0.1427432014
C  C439  1  0.91100000  0.79660000  0.74780000  1.0 -0.0917357542
C  C440  1  0.91480000  0.81440000  0.77580000  1.0 -0.0917357542
C  C441  1  0.18070000  0.48390000  0.74210000  1.0 0.5857590166
C  C442  1  0.15790000  0.47290000  0.72030000  1.0 -0.0108095251
C  C443  1  0.11730000  0.45830000  0.74690000  1.0 -0.1502996801
C  C444  1  0.05100000  0.43640000  0.75940000  1.0 -0.0516118175
C  C445  1  0.96130000  0.45790000  0.80490000  1.0 0.0479031916
C  C446  1  0.00450000  0.47170000  0.77690000  1.0 0.0619347848
C  C447  1  0.00120000  0.52100000  0.76200000  1.0 -0.1047445332
C  C448  1  0.95430000  0.55830000  0.77090000  1.0 -0.1502996801
C  C449  1  0.91100000  0.54460000  0.79660000  1.0 -0.0917357542
C  C450  1  0.91480000  0.49500000  0.81440000  1.0 -0.0917357542
C  C451  1  0.59330000  0.74210000  0.48390000  1.0 0.5857590166
C  C452  1  0.64890000  0.72030000  0.47290000  1.0 -0.0108095251
C  C453  1  0.67750000  0.74690000  0.45830000  1.0 -0.1502996801
C  C454  1  0.75320000  0.75940000  0.43640000  1.0 -0.0516118175
C  C455  1  0.77590000  0.80490000  0.45790000  1.0 0.0479031916
C  C456  1  0.74690000  0.77690000  0.47170000  1.0 0.0619347848
C  C457  1  0.71580000  0.76200000  0.52100000  1.0 -0.1061534393
C  C458  1  0.71650000  0.77090000  0.55830000  1.0 -0.1427432014
C  C459  1  0.74780000  0.79660000  0.54460000  1.0 -0.0917357542
C  C460  1  0.77580000  0.81440000  0.49500000  1.0 -0.0917357542
C  C461  1  0.74210000  0.59330000  0.18070000  1.0 0.5857590166
C  C462  1  0.72030000  0.64890000  0.15790000  1.0 -0.0108095251
C  C463  1  0.74690000  0.67750000  0.11730000  1.0 -0.1502996801
C  C464  1  0.75940000  0.75320000  0.05100000  1.0 -0.0516118175
C  C465  1  0.80490000  0.77590000  0.96130000  1.0 0.0479031916
C  C466  1  0.77690000  0.74690000  0.00450000  1.0 0.0619347848
C  C467  1  0.76200000  0.71580000  0.00120000  1.0 -0.1061534393
C  C468  1  0.77090000  0.71650000  0.95430000  1.0 -0.1502996801
C  C469  1  0.79660000  0.74780000  0.91100000  1.0 -0.0917357542
C  C470  1  0.81440000  0.77580000  0.91480000  1.0 -0.0917357542
C  C471  1  0.48390000  0.18070000  0.59330000  1.0 0.5857590166
C  C472  1  0.47290000  0.15790000  0.64890000  1.0 -0.0108095251
C  C473  1  0.45830000  0.11730000  0.67750000  1.0 -0.1502996801
C  C474  1  0.43640000  0.05100000  0.75320000  1.0 -0.0516118175
C  C475  1  0.45790000  0.96130000  0.77590000  1.0 0.0479031916
C  C476  1  0.47170000  0.00450000  0.74690000  1.0 0.0619347848
C  C477  1  0.52100000  0.00120000  0.71580000  1.0 -0.1047445332
C  C478  1  0.55830000  0.95430000  0.71650000  1.0 -0.1427432014
C  C479  1  0.54460000  0.91100000  0.74780000  1.0 -0.0917357542
C  C480  1  0.49500000  0.91480000  0.77580000  1.0 -0.0917357542
C  C481  1  0.66960000  0.18040000  0.48040000  1.0 -0.1047445332
C  C482  1  0.72800000  0.09380000  0.45020000  1.0 0.0707709891
C  C483  1  0.77960000  0.05540000  0.38540000  1.0 0.0372406497
C  C484  1  0.77600000  0.10160000  0.34640000  1.0 -0.1427432014
C  C485  1  0.79900000  0.10620000  0.29580000  1.0 -0.1282158243
C  C486  1  0.82650000  0.06330000  0.28370000  1.0 -0.0917357542
C  C487  1  0.83332000  0.01488000  0.31848000  1.0 -0.1588558627
C  C488  1  0.80900000  0.01160000  0.37040000  1.0 -0.0217605794
C  C489  1  0.81370000  0.96350000  0.40910000  1.0 -0.0217605794
C  C490  1  0.84400000  0.91760000  0.39440000  1.0 0.0783036669
C  C491  1  0.18040000  0.66960000  0.66960000  1.0 -0.1047445332
C  C492  1  0.09380000  0.72800000  0.72800000  1.0 0.0707709891
C  C493  1  0.05540000  0.77960000  0.77960000  1.0 0.0372406497
C  C494  1  0.10160000  0.77600000  0.77600000  1.0 -0.1427432014
C  C495  1  0.10620000  0.79900000  0.79900000  1.0 -0.1282158243
C  C496  1  0.06330000  0.82650000  0.82650000  1.0 -0.0917357542
C  C497  1  0.01488000  0.83332000  0.83332000  1.0 -0.1588558627
C  C498  1  0.01160000  0.80900000  0.80900000  1.0 -0.0217605794
C  C499  1  0.96350000  0.81370000  0.81370000  1.0 -0.0217605794
C  C500  1  0.91760000  0.84400000  0.84400000  1.0 0.0783036669
C  C501  1  0.48040000  0.66960000  0.66960000  1.0 -0.1047445332
C  C502  1  0.45020000  0.72800000  0.72800000  1.0 0.0707709891
C  C503  1  0.38540000  0.77960000  0.77960000  1.0 0.0372406497
C  C504  1  0.34640000  0.77600000  0.77600000  1.0 -0.1427432014
C  C505  1  0.29580000  0.79900000  0.79900000  1.0 -0.1282158243
C  C506  1  0.28370000  0.82650000  0.82650000  1.0 -0.0917357542
C  C507  1  0.31848000  0.83332000  0.83332000  1.0 -0.1588558627
C  C508  1  0.37040000  0.80900000  0.80900000  1.0 -0.0217605794
C  C509  1  0.40910000  0.81370000  0.81370000  1.0 -0.0217605794
C  C510  1  0.39440000  0.84400000  0.84400000  1.0 0.0783036669
C  C511  1  0.66960000  0.48040000  0.18040000  1.0 -0.1047445332
C  C512  1  0.72800000  0.45020000  0.09380000  1.0 0.0707709891
C  C513  1  0.77960000  0.38540000  0.05540000  1.0 0.0372406497
C  C514  1  0.77600000  0.34640000  0.10160000  1.0 -0.1427432014
C  C515  1  0.79900000  0.29580000  0.10620000  1.0 -0.1282158243
C  C516  1  0.82650000  0.28370000  0.06330000  1.0 -0.0917357542
C  C517  1  0.83332000  0.31848000  0.01488000  1.0 -0.1588558627
C  C518  1  0.80900000  0.37040000  0.01160000  1.0 -0.0217605794
C  C519  1  0.81370000  0.40910000  0.96350000  1.0 -0.0217605794
C  C520  1  0.84400000  0.39440000  0.91760000  1.0 0.0783036669
C  C521  1  0.48040000  0.66960000  0.18040000  1.0 -0.1047445332
C  C522  1  0.45020000  0.72800000  0.09380000  1.0 0.0707709891
C  C523  1  0.38540000  0.77960000  0.05540000  1.0 0.0372406497
C  C524  1  0.34640000  0.77600000  0.10160000  1.0 -0.1427432014
C  C525  1  0.29580000  0.79900000  0.10620000  1.0 -0.1282158243
C  C526  1  0.28370000  0.82650000  0.06330000  1.0 -0.0917357542
C  C527  1  0.31848000  0.83332000  0.01488000  1.0 -0.1588558627
C  C528  1  0.37040000  0.80900000  0.01160000  1.0 -0.0217605794
C  C529  1  0.40910000  0.81370000  0.96350000  1.0 -0.0217605794
C  C530  1  0.39440000  0.84400000  0.91760000  1.0 0.0783036669
C  C531  1  0.66960000  0.18040000  0.66960000  1.0 -0.1047445332
C  C532  1  0.72800000  0.09380000  0.72800000  1.0 0.0707709891
C  C533  1  0.77960000  0.05540000  0.77960000  1.0 0.0372406497
C  C534  1  0.77600000  0.10160000  0.77600000  1.0 -0.1427432014
C  C535  1  0.79900000  0.10620000  0.79900000  1.0 -0.1282158243
C  C536  1  0.82650000  0.06330000  0.82650000  1.0 -0.0917357542
C  C537  1  0.83332000  0.01488000  0.83332000  1.0 -0.1588558627
C  C538  1  0.80900000  0.01160000  0.80900000  1.0 -0.0217605794
C  C539  1  0.81370000  0.96350000  0.81370000  1.0 -0.0217605794
C  C540  1  0.84400000  0.91760000  0.84400000  1.0 0.0783036669
C  C541  1  0.66960000  0.48040000  0.66960000  1.0 -0.1047445332
C  C542  1  0.72800000  0.45020000  0.72800000  1.0 0.0707709891
C  C543  1  0.77960000  0.38540000  0.77960000  1.0 0.0372406497
C  C544  1  0.77600000  0.34640000  0.77600000  1.0 -0.1427432014
C  C545  1  0.79900000  0.29580000  0.79900000  1.0 -0.1282158243
C  C546  1  0.82650000  0.28370000  0.82650000  1.0 -0.0917357542
C  C547  1  0.83332000  0.31848000  0.83332000  1.0 -0.1588558627
C  C548  1  0.80900000  0.37040000  0.80900000  1.0 -0.0217605794
C  C549  1  0.81370000  0.40910000  0.81370000  1.0 -0.0217605794
C  C550  1  0.84400000  0.39440000  0.84400000  1.0 0.0783036669
C  C551  1  0.18040000  0.66960000  0.48040000  1.0 -0.1047445332
C  C552  1  0.09380000  0.72800000  0.45020000  1.0 0.0707709891
C  C553  1  0.05540000  0.77960000  0.38540000  1.0 0.0372406497
C  C554  1  0.10160000  0.77600000  0.34640000  1.0 -0.1427432014
C  C555  1  0.10620000  0.79900000  0.29580000  1.0 -0.1282158243
C  C556  1  0.06330000  0.82650000  0.28370000  1.0 -0.0917357542
C  C557  1  0.01488000  0.83332000  0.31848000  1.0 -0.1588558627
C  C558  1  0.01160000  0.80900000  0.37040000  1.0 -0.0217605794
C  C559  1  0.96350000  0.81370000  0.40910000  1.0 -0.0217605794
C  C560  1  0.91760000  0.84400000  0.39440000  1.0 0.0783036669
C  C561  1  0.18040000  0.48040000  0.66960000  1.0 -0.1047445332
C  C562  1  0.09380000  0.45020000  0.72800000  1.0 0.0707709891
C  C563  1  0.05540000  0.38540000  0.77960000  1.0 0.0372406497
C  C564  1  0.10160000  0.34640000  0.77600000  1.0 -0.1427432014
C  C565  1  0.10620000  0.29580000  0.79900000  1.0 -0.1282158243
C  C566  1  0.06330000  0.28370000  0.82650000  1.0 -0.0917357542
C  C567  1  0.01488000  0.31848000  0.83332000  1.0 -0.1588558627
C  C568  1  0.01160000  0.37040000  0.80900000  1.0 -0.0217605794
C  C569  1  0.96350000  0.40910000  0.81370000  1.0 -0.0217605794
C  C570  1  0.91760000  0.39440000  0.84400000  1.0 0.0783036669
C  C571  1  0.66960000  0.66960000  0.18040000  1.0 -0.1047445332
C  C572  1  0.72800000  0.72800000  0.09380000  1.0 0.0707709891
C  C573  1  0.77960000  0.77960000  0.05540000  1.0 0.0372406497
C  C574  1  0.77600000  0.77600000  0.10160000  1.0 -0.1427432014
C  C575  1  0.79900000  0.79900000  0.10620000  1.0 -0.1282158243
C  C576  1  0.82650000  0.82650000  0.06330000  1.0 -0.0917357542
C  C577  1  0.83332000  0.83332000  0.01488000  1.0 -0.1588558627
C  C578  1  0.80900000  0.80900000  0.01160000  1.0 -0.0217605794
C  C579  1  0.81370000  0.81370000  0.96350000  1.0 -0.0217605794
C  C580  1  0.84400000  0.84400000  0.91760000  1.0 0.0783036669
C  C581  1  0.66960000  0.66960000  0.48040000  1.0 -0.1047445332
C  C582  1  0.72800000  0.72800000  0.45020000  1.0 0.0707709891
C  C583  1  0.77960000  0.77960000  0.38540000  1.0 0.0372406497
C  C584  1  0.77600000  0.77600000  0.34640000  1.0 -0.1427432014
C  C585  1  0.79900000  0.79900000  0.29580000  1.0 -0.1282158243
C  C586  1  0.82650000  0.82650000  0.28370000  1.0 -0.0917357542
C  C587  1  0.83332000  0.83332000  0.31848000  1.0 -0.1588558627
C  C588  1  0.80900000  0.80900000  0.37040000  1.0 -0.0217605794
C  C589  1  0.81370000  0.81370000  0.40910000  1.0 -0.0217605794
C  C590  1  0.84400000  0.84400000  0.39440000  1.0 0.0783036669
C  C591  1  0.48040000  0.18040000  0.66960000  1.0 -0.1047445332
C  C592  1  0.45020000  0.09380000  0.72800000  1.0 0.0707709891
C  C593  1  0.38540000  0.05540000  0.77960000  1.0 0.0372406497
C  C594  1  0.34640000  0.10160000  0.77600000  1.0 -0.1427432014
C  C595  1  0.29580000  0.10620000  0.79900000  1.0 -0.1282158243
C  C596  1  0.28370000  0.06330000  0.82650000  1.0 -0.0917357542
C  C597  1  0.31848000  0.01488000  0.83332000  1.0 -0.1588558627
C  C598  1  0.37040000  0.01160000  0.80900000  1.0 -0.0217605794
C  C599  1  0.40910000  0.96350000  0.81370000  1.0 -0.0217605794
C  C600  1  0.39440000  0.91760000  0.84400000  1.0 0.0783036669
C  C601  1  0.33040000  0.81960000  0.33040000  1.0 -0.1047445332
C  C602  1  0.27200000  0.90620000  0.27200000  1.0 0.0707709891
C  C603  1  0.22040000  0.94460000  0.22040000  1.0 0.0372406497
C  C604  1  0.22400000  0.89840000  0.22400000  1.0 -0.1427432014
C  C605  1  0.20100000  0.89380000  0.20100000  1.0 -0.1282158243
C  C606  1  0.17350000  0.93670000  0.17350000  1.0 -0.0917357542
C  C607  1  0.16668000  0.98512000  0.16668000  1.0 -0.1588558627
C  C608  1  0.19100000  0.98840000  0.19100000  1.0 -0.0217605794
C  C609  1  0.18630000  0.03650000  0.18630000  1.0 -0.0217605794
C  C610  1  0.15600000  0.08240000  0.15600000  1.0 0.0783036669
C  C611  1  0.81960000  0.33040000  0.51960000  1.0 -0.1047445332
C  C612  1  0.90620000  0.27200000  0.54980000  1.0 0.0707709891
C  C613  1  0.94460000  0.22040000  0.61460000  1.0 0.0372406497
C  C614  1  0.89840000  0.22400000  0.65360000  1.0 -0.1427432014
C  C615  1  0.89380000  0.20100000  0.70420000  1.0 -0.1282158243
C  C616  1  0.93670000  0.17350000  0.71630000  1.0 -0.0917357542
C  C617  1  0.98512000  0.16668000  0.68152000  1.0 -0.1588558627
C  C618  1  0.98840000  0.19100000  0.62960000  1.0 -0.0217605794
C  C619  1  0.03650000  0.18630000  0.59090000  1.0 -0.0217605794
C  C620  1  0.08240000  0.15600000  0.60560000  1.0 0.0783036669
C  C621  1  0.51960000  0.33040000  0.81960000  1.0 -0.1047445332
C  C622  1  0.54980000  0.27200000  0.90620000  1.0 0.0707709891
C  C623  1  0.61460000  0.22040000  0.94460000  1.0 0.0372406497
C  C624  1  0.65360000  0.22400000  0.89840000  1.0 -0.1427432014
C  C625  1  0.70420000  0.20100000  0.89380000  1.0 -0.1282158243
C  C626  1  0.71630000  0.17350000  0.93670000  1.0 -0.0917357542
C  C627  1  0.68152000  0.16668000  0.98512000  1.0 -0.1588558627
C  C628  1  0.62960000  0.19100000  0.98840000  1.0 -0.0217605794
C  C629  1  0.59090000  0.18630000  0.03650000  1.0 -0.0217605794
C  C630  1  0.60560000  0.15600000  0.08240000  1.0 0.0783036669
C  C631  1  0.33040000  0.51960000  0.33040000  1.0 -0.1047445332
C  C632  1  0.27200000  0.54980000  0.27200000  1.0 0.0707709891
C  C633  1  0.22040000  0.61460000  0.22040000  1.0 0.0372406497
C  C634  1  0.22400000  0.65360000  0.22400000  1.0 -0.1427432014
C  C635  1  0.20100000  0.70420000  0.20100000  1.0 -0.1282158243
C  C636  1  0.17350000  0.71630000  0.17350000  1.0 -0.0917357542
C  C637  1  0.16668000  0.68152000  0.16668000  1.0 -0.1588558627
C  C638  1  0.19100000  0.62960000  0.19100000  1.0 -0.0217605794
C  C639  1  0.18630000  0.59090000  0.18630000  1.0 -0.0217605794
C  C640  1  0.15600000  0.60560000  0.15600000  1.0 0.0783036669
C  C641  1  0.51960000  0.33040000  0.33040000  1.0 -0.1047445332
C  C642  1  0.54980000  0.27200000  0.27200000  1.0 0.0707709891
C  C643  1  0.61460000  0.22040000  0.22040000  1.0 0.0372406497
C  C644  1  0.65360000  0.22400000  0.22400000  1.0 -0.1427432014
C  C645  1  0.70420000  0.20100000  0.20100000  1.0 -0.1282158243
C  C646  1  0.71630000  0.17350000  0.17350000  1.0 -0.0917357542
C  C647  1  0.68152000  0.16668000  0.16668000  1.0 -0.1588558627
C  C648  1  0.62960000  0.19100000  0.19100000  1.0 -0.0217605794
C  C649  1  0.59090000  0.18630000  0.18630000  1.0 -0.0217605794
C  C650  1  0.60560000  0.15600000  0.15600000  1.0 0.0783036669
C  C651  1  0.33040000  0.81960000  0.51960000  1.0 -0.1047445332
C  C652  1  0.27200000  0.90620000  0.54980000  1.0 0.0707709891
C  C653  1  0.22040000  0.94460000  0.61460000  1.0 0.0372406497
C  C654  1  0.22400000  0.89840000  0.65360000  1.0 -0.1427432014
C  C655  1  0.20100000  0.89380000  0.70420000  1.0 -0.1282158243
C  C656  1  0.17350000  0.93670000  0.71630000  1.0 -0.0917357542
C  C657  1  0.16668000  0.98512000  0.68152000  1.0 -0.1588558627
C  C658  1  0.19100000  0.98840000  0.62960000  1.0 -0.0217605794
C  C659  1  0.18630000  0.03650000  0.59090000  1.0 -0.0217605794
C  C660  1  0.15600000  0.08240000  0.60560000  1.0 0.0783036669
C  C661  1  0.33040000  0.51960000  0.81960000  1.0 -0.1047445332
C  C662  1  0.27200000  0.54980000  0.90620000  1.0 0.0707709891
C  C663  1  0.22040000  0.61460000  0.94460000  1.0 0.0372406497
C  C664  1  0.22400000  0.65360000  0.89840000  1.0 -0.1427432014
C  C665  1  0.20100000  0.70420000  0.89380000  1.0 -0.1282158243
C  C666  1  0.17350000  0.71630000  0.93670000  1.0 -0.0917357542
C  C667  1  0.16668000  0.68152000  0.98512000  1.0 -0.1588558627
C  C668  1  0.19100000  0.62960000  0.98840000  1.0 -0.0217605794
C  C669  1  0.18630000  0.59090000  0.03650000  1.0 -0.0217605794
C  C670  1  0.15600000  0.60560000  0.08240000  1.0 0.0783036669
C  C671  1  0.81960000  0.33040000  0.33040000  1.0 -0.1047445332
C  C672  1  0.90620000  0.27200000  0.27200000  1.0 0.0707709891
C  C673  1  0.94460000  0.22040000  0.22040000  1.0 0.0372406497
C  C674  1  0.89840000  0.22400000  0.22400000  1.0 -0.1427432014
C  C675  1  0.89380000  0.20100000  0.20100000  1.0 -0.1282158243
C  C676  1  0.93670000  0.17350000  0.17350000  1.0 -0.0917357542
C  C677  1  0.98512000  0.16668000  0.16668000  1.0 -0.1588558627
C  C678  1  0.98840000  0.19100000  0.19100000  1.0 -0.0217605794
C  C679  1  0.03650000  0.18630000  0.18630000  1.0 -0.0217605794
C  C680  1  0.08240000  0.15600000  0.15600000  1.0 0.0783036669
C  C681  1  0.81960000  0.51960000  0.33040000  1.0 -0.1047445332
C  C682  1  0.90620000  0.54980000  0.27200000  1.0 0.0707709891
C  C683  1  0.94460000  0.61460000  0.22040000  1.0 0.0372406497
C  C684  1  0.89840000  0.65360000  0.22400000  1.0 -0.1427432014
C  C685  1  0.89380000  0.70420000  0.20100000  1.0 -0.1282158243
C  C686  1  0.93670000  0.71630000  0.17350000  1.0 -0.0917357542
C  C687  1  0.98512000  0.68152000  0.16668000  1.0 -0.1588558627
C  C688  1  0.98840000  0.62960000  0.19100000  1.0 -0.0217605794
C  C689  1  0.03650000  0.59090000  0.18630000  1.0 -0.0217605794
C  C690  1  0.08240000  0.60560000  0.15600000  1.0 0.0783036669
C  C691  1  0.33040000  0.33040000  0.51960000  1.0 -0.1047445332
C  C692  1  0.27200000  0.27200000  0.54980000  1.0 0.0707709891
C  C693  1  0.22040000  0.22040000  0.61460000  1.0 0.0372406497
C  C694  1  0.22400000  0.22400000  0.65360000  1.0 -0.1427432014
C  C695  1  0.20100000  0.20100000  0.70420000  1.0 -0.1282158243
C  C696  1  0.17350000  0.17350000  0.71630000  1.0 -0.0917357542
C  C697  1  0.16668000  0.16668000  0.68152000  1.0 -0.1588558627
C  C698  1  0.19100000  0.19100000  0.62960000  1.0 -0.0217605794
C  C699  1  0.18630000  0.18630000  0.59090000  1.0 -0.0217605794
C  C700  1  0.15600000  0.15600000  0.60560000  1.0 0.0783036669
C  C701  1  0.33040000  0.33040000  0.81960000  1.0 -0.1047445332
C  C702  1  0.27200000  0.27200000  0.90620000  1.0 0.0707709891
C  C703  1  0.22040000  0.22040000  0.94460000  1.0 0.0372406497
C  C704  1  0.22400000  0.22400000  0.89840000  1.0 -0.1427432014
C  C705  1  0.20100000  0.20100000  0.89380000  1.0 -0.1282158243
C  C706  1  0.17350000  0.17350000  0.93670000  1.0 -0.0917357542
C  C707  1  0.16668000  0.16668000  0.98512000  1.0 -0.1588558627
C  C708  1  0.19100000  0.19100000  0.98840000  1.0 -0.0217605794
C  C709  1  0.18630000  0.18630000  0.03650000  1.0 -0.0217605794
C  C710  1  0.15600000  0.15600000  0.08240000  1.0 0.0783036669
C  C711  1  0.51960000  0.81960000  0.33040000  1.0 -0.1047445332
C  C712  1  0.54980000  0.90620000  0.27200000  1.0 0.0707709891
C  C713  1  0.61460000  0.94460000  0.22040000  1.0 0.0372406497
C  C714  1  0.65360000  0.89840000  0.22400000  1.0 -0.1427432014
C  C715  1  0.70420000  0.89380000  0.20100000  1.0 -0.1282158243
C  C716  1  0.71630000  0.93670000  0.17350000  1.0 -0.0917357542
C  C717  1  0.68152000  0.98512000  0.16668000  1.0 -0.1588558627
C  C718  1  0.62960000  0.98840000  0.19100000  1.0 -0.0217605794
C  C719  1  0.59090000  0.03650000  0.18630000  1.0 -0.0217605794
C  C720  1  0.60560000  0.08240000  0.15600000  1.0 0.0783036669
C  C721  1  0.82210000  0.89270000  0.39250000  1.0 -0.2268504765
C  C722  1  0.89270000  0.82210000  0.89270000  1.0 -0.2268504765
C  C723  1  0.39250000  0.89270000  0.82210000  1.0 -0.2268504765
C  C724  1  0.89270000  0.39250000  0.89270000  1.0 -0.2268504765
C  C725  1  0.39250000  0.82210000  0.89270000  1.0 -0.2268504765
C  C726  1  0.89270000  0.89270000  0.82210000  1.0 -0.2268504765
C  C727  1  0.82210000  0.39250000  0.89270000  1.0 -0.2268504765
C  C728  1  0.89270000  0.89270000  0.39250000  1.0 -0.2268504765
C  C729  1  0.89270000  0.39250000  0.82210000  1.0 -0.2268504765
C  C730  1  0.82210000  0.89270000  0.89270000  1.0 -0.2268504765
C  C731  1  0.89270000  0.82210000  0.39250000  1.0 -0.2268504765
C  C732  1  0.39250000  0.89270000  0.89270000  1.0 -0.2268504765
C  C733  1  0.17790000  0.10730000  0.10730000  1.0 -0.2268504765
C  C734  1  0.10730000  0.17790000  0.60750000  1.0 -0.2268504765
C  C735  1  0.60750000  0.10730000  0.10730000  1.0 -0.2268504765
C  C736  1  0.10730000  0.60750000  0.17790000  1.0 -0.2268504765
C  C737  1  0.60750000  0.17790000  0.10730000  1.0 -0.2268504765
C  C738  1  0.10730000  0.10730000  0.60750000  1.0 -0.2268504765
C  C739  1  0.17790000  0.60750000  0.10730000  1.0 -0.2268504765
C  C740  1  0.10730000  0.10730000  0.17790000  1.0 -0.2268504765
C  C741  1  0.10730000  0.60750000  0.10730000  1.0 -0.2268504765
C  C742  1  0.17790000  0.10730000  0.60750000  1.0 -0.2268504765
C  C743  1  0.10730000  0.17790000  0.10730000  1.0 -0.2268504765
C  C744  1  0.60750000  0.10730000  0.17790000  1.0 -0.2268504765
O  O1  1  0.57348000  0.15392000  0.48802000  1.0 -0.5103867548
O  O2  1  0.57117000  0.22377000  0.48685000  1.0 -0.5103867548
O  O3  1  0.15392000  0.57348000  0.78458000  1.0 -0.5103867548
O  O4  1  0.22377000  0.57117000  0.71821000  1.0 -0.5103867548
O  O5  1  0.48802000  0.78458000  0.57348000  1.0 -0.5103867548
O  O6  1  0.48685000  0.71821000  0.57117000  1.0 -0.5103867548
O  O7  1  0.78458000  0.48802000  0.15392000  1.0 -0.5103867548
O  O8  1  0.71821000  0.48685000  0.22377000  1.0 -0.5103867548
O  O9  1  0.48802000  0.57348000  0.15392000  1.0 -0.5103867548
O  O10  1  0.48685000  0.57117000  0.22377000  1.0 -0.5103867548
O  O11  1  0.78458000  0.15392000  0.57348000  1.0 -0.5103867548
O  O12  1  0.71821000  0.22377000  0.57117000  1.0 -0.5103867548
O  O13  1  0.57348000  0.48802000  0.78458000  1.0 -0.5103867548
O  O14  1  0.57117000  0.48685000  0.71821000  1.0 -0.5103867548
O  O15  1  0.15392000  0.78458000  0.48802000  1.0 -0.5103867548
O  O16  1  0.22377000  0.71821000  0.48685000  1.0 -0.5103867548
O  O17  1  0.15392000  0.48802000  0.57348000  1.0 -0.5103867548
O  O18  1  0.22377000  0.48685000  0.57117000  1.0 -0.5103867548
O  O19  1  0.57348000  0.78458000  0.15392000  1.0 -0.5103867548
O  O20  1  0.57117000  0.71821000  0.22377000  1.0 -0.5103867548
O  O21  1  0.78458000  0.57348000  0.48802000  1.0 -0.5103867548
O  O22  1  0.71821000  0.57117000  0.48685000  1.0 -0.5103867548
O  O23  1  0.48802000  0.15392000  0.78458000  1.0 -0.5103867548
O  O24  1  0.48685000  0.22377000  0.71821000  1.0 -0.5103867548
O  O25  1  0.42652000  0.84608000  0.21542000  1.0 -0.5103867548
O  O26  1  0.42883000  0.77623000  0.28179000  1.0 -0.5103867548
O  O27  1  0.84608000  0.42652000  0.51198000  1.0 -0.5103867548
O  O28  1  0.77623000  0.42883000  0.51315000  1.0 -0.5103867548
O  O29  1  0.51198000  0.21542000  0.84608000  1.0 -0.5103867548
O  O30  1  0.51315000  0.28179000  0.77623000  1.0 -0.5103867548
O  O31  1  0.21542000  0.51198000  0.42652000  1.0 -0.5103867548
O  O32  1  0.28179000  0.51315000  0.42883000  1.0 -0.5103867548
O  O33  1  0.51198000  0.42652000  0.21542000  1.0 -0.5103867548
O  O34  1  0.51315000  0.42883000  0.28179000  1.0 -0.5103867548
O  O35  1  0.21542000  0.84608000  0.51198000  1.0 -0.5103867548
O  O36  1  0.28179000  0.77623000  0.51315000  1.0 -0.5103867548
O  O37  1  0.42652000  0.51198000  0.84608000  1.0 -0.5103867548
O  O38  1  0.42883000  0.51315000  0.77623000  1.0 -0.5103867548
O  O39  1  0.84608000  0.21542000  0.42652000  1.0 -0.5103867548
O  O40  1  0.77623000  0.28179000  0.42883000  1.0 -0.5103867548
O  O41  1  0.84608000  0.51198000  0.21542000  1.0 -0.5103867548
O  O42  1  0.77623000  0.51315000  0.28179000  1.0 -0.5103867548
O  O43  1  0.42652000  0.21542000  0.51198000  1.0 -0.5103867548
O  O44  1  0.42883000  0.28179000  0.51315000  1.0 -0.5103867548
O  O45  1  0.21542000  0.42652000  0.84608000  1.0 -0.5103867548
O  O46  1  0.28179000  0.42883000  0.77623000  1.0 -0.5103867548
O  O47  1  0.51198000  0.84608000  0.42652000  1.0 -0.5103867548
O  O48  1  0.51315000  0.77623000  0.42883000  1.0 -0.5103867548
O  O49  1  0.42652000  0.84608000  0.51198000  1.0 -0.5103867548
O  O50  1  0.42883000  0.77623000  0.51315000  1.0 -0.5103867548
O  O51  1  0.84608000  0.42652000  0.21542000  1.0 -0.5103867548
O  O52  1  0.77623000  0.42883000  0.28179000  1.0 -0.5103867548
O  O53  1  0.51198000  0.21542000  0.42652000  1.0 -0.5103867548
O  O54  1  0.51315000  0.28179000  0.42883000  1.0 -0.5103867548
O  O55  1  0.21542000  0.51198000  0.84608000  1.0 -0.5103867548
O  O56  1  0.28179000  0.51315000  0.77623000  1.0 -0.5103867548
O  O57  1  0.51198000  0.42652000  0.84608000  1.0 -0.5103867548
O  O58  1  0.51315000  0.42883000  0.77623000  1.0 -0.5103867548
O  O59  1  0.21542000  0.84608000  0.42652000  1.0 -0.5103867548
O  O60  1  0.28179000  0.77623000  0.42883000  1.0 -0.5103867548
O  O61  1  0.42652000  0.51198000  0.21542000  1.0 -0.5103867548
O  O62  1  0.42883000  0.51315000  0.28179000  1.0 -0.5103867548
O  O63  1  0.84608000  0.21542000  0.51198000  1.0 -0.5103867548
O  O64  1  0.77623000  0.28179000  0.51315000  1.0 -0.5103867548
O  O65  1  0.84608000  0.51198000  0.42652000  1.0 -0.5103867548
O  O66  1  0.77623000  0.51315000  0.42883000  1.0 -0.5103867548
O  O67  1  0.42652000  0.21542000  0.84608000  1.0 -0.5103867548
O  O68  1  0.42883000  0.28179000  0.77623000  1.0 -0.5103867548
O  O69  1  0.21542000  0.42652000  0.51198000  1.0 -0.5103867548
O  O70  1  0.28179000  0.42883000  0.51315000  1.0 -0.5103867548
O  O71  1  0.51198000  0.84608000  0.21542000  1.0 -0.5103867548
O  O72  1  0.51315000  0.77623000  0.28179000  1.0 -0.5103867548
O  O73  1  0.57348000  0.15392000  0.78458000  1.0 -0.5103867548
O  O74  1  0.57117000  0.22377000  0.71821000  1.0 -0.5103867548
O  O75  1  0.15392000  0.57348000  0.48802000  1.0 -0.5103867548
O  O76  1  0.22377000  0.57117000  0.48685000  1.0 -0.5103867548
O  O77  1  0.48802000  0.78458000  0.15392000  1.0 -0.5103867548
O  O78  1  0.48685000  0.71821000  0.22377000  1.0 -0.5103867548
O  O79  1  0.78458000  0.48802000  0.57348000  1.0 -0.5103867548
O  O80  1  0.71821000  0.48685000  0.57117000  1.0 -0.5103867548
O  O81  1  0.48802000  0.57348000  0.78458000  1.0 -0.5103867548
O  O82  1  0.48685000  0.57117000  0.71821000  1.0 -0.5103867548
O  O83  1  0.78458000  0.15392000  0.48802000  1.0 -0.5103867548
O  O84  1  0.71821000  0.22377000  0.48685000  1.0 -0.5103867548
O  O85  1  0.57348000  0.48802000  0.15392000  1.0 -0.5103867548
O  O86  1  0.57117000  0.48685000  0.22377000  1.0 -0.5103867548
O  O87  1  0.15392000  0.78458000  0.57348000  1.0 -0.5103867548
O  O88  1  0.22377000  0.71821000  0.57117000  1.0 -0.5103867548
O  O89  1  0.15392000  0.48802000  0.78458000  1.0 -0.5103867548
O  O90  1  0.22377000  0.48685000  0.71821000  1.0 -0.5103867548
O  O91  1  0.57348000  0.78458000  0.48802000  1.0 -0.5103867548
O  O92  1  0.57117000  0.71821000  0.48685000  1.0 -0.5103867548
O  O93  1  0.78458000  0.57348000  0.15392000  1.0 -0.5103867548
O  O94  1  0.71821000  0.57117000  0.22377000  1.0 -0.5103867548
O  O95  1  0.48802000  0.15392000  0.57348000  1.0 -0.5103867548
O  O96  1  0.48685000  0.22377000  0.57117000  1.0 -0.5103867548
