# DDEC6 charges by PACMAN v1.1 (https://github.com/mtap-research/PACMAN-charge/)
data_DEKLEN01_ASR_pacman
_symmetry_space_group_name_H-M   'P 1'
_cell_length_a   33.19510000
_cell_length_b   33.19510000
_cell_length_c   33.19510000
_cell_angle_alpha   60.00000000
_cell_angle_beta   60.00000000
_cell_angle_gamma   60.00000000
_symmetry_Int_Tables_number   1
_chemical_formula_structural   CuH20C38O5
_chemical_formula_sum   'Cu24 H480 C912 O120'
_cell_volume   25864.67025666
_cell_formula_units_Z   24
loop_
 _symmetry_equiv_pos_site_id
 _symmetry_equiv_pos_as_xyz
  1  'x, y, z'
loop_
 _atom_site_type_symbol
 _atom_site_label
 _atom_site_symmetry_multiplicity
 _atom_site_fract_x
 _atom_site_fract_y
 _atom_site_fract_z
 _atom_site_occupancy
 _atom_site_charge
Cu  Cu1  1  0.81868000  0.18132000  0.50000000  1.0 0.8196637867
Cu  Cu2  1  0.73846000  0.26154000  0.50000000  1.0 0.8611621099
Cu  Cu3  1  0.18132000  0.81868000  0.50000000  1.0 0.8196637867
Cu  Cu4  1  0.26154000  0.73846000  0.50000000  1.0 0.8611621099
Cu  Cu5  1  0.50000000  0.50000000  0.81868000  1.0 0.8196637867
Cu  Cu6  1  0.50000000  0.50000000  0.73846000  1.0 0.8611621099
Cu  Cu7  1  0.50000000  0.50000000  0.18132000  1.0 0.8196637867
Cu  Cu8  1  0.50000000  0.50000000  0.26154000  1.0 0.8611621099
Cu  Cu9  1  0.50000000  0.81868000  0.18132000  1.0 0.8196637867
Cu  Cu10  1  0.50000000  0.73846000  0.26154000  1.0 0.8611621099
Cu  Cu11  1  0.50000000  0.18132000  0.81868000  1.0 0.8196637867
Cu  Cu12  1  0.50000000  0.26154000  0.73846000  1.0 0.8611621099
Cu  Cu13  1  0.81868000  0.50000000  0.50000000  1.0 0.8196637867
Cu  Cu14  1  0.73846000  0.50000000  0.50000000  1.0 0.8611621099
Cu  Cu15  1  0.18132000  0.50000000  0.50000000  1.0 0.8196637867
Cu  Cu16  1  0.26154000  0.50000000  0.50000000  1.0 0.8611621099
Cu  Cu17  1  0.18132000  0.50000000  0.81868000  1.0 0.8196637867
Cu  Cu18  1  0.26154000  0.50000000  0.73846000  1.0 0.8611621099
Cu  Cu19  1  0.81868000  0.50000000  0.18132000  1.0 0.8196637867
Cu  Cu20  1  0.73846000  0.50000000  0.26154000  1.0 0.8611621099
Cu  Cu21  1  0.50000000  0.81868000  0.50000000  1.0 0.8196637867
Cu  Cu22  1  0.50000000  0.73846000  0.50000000  1.0 0.8611621099
Cu  Cu23  1  0.50000000  0.18132000  0.50000000  1.0 0.8196637867
Cu  Cu24  1  0.50000000  0.26154000  0.50000000  1.0 0.8611621099
H  H1  1  0.90060000  0.22500000  0.34400000  1.0 0.1195182887
H  H2  1  0.89020000  0.17800000  0.22900000  1.0 0.0878066529
H  H3  1  0.97050000  0.12750000  0.19010000  1.0 0.081027655
H  H4  1  0.04270000  0.13430000  0.17950000  1.0 0.0980609035
H  H5  1  0.03760000  0.32360000  0.26300000  1.0 0.0878066529
H  H6  1  0.11550000  0.27390000  0.22350000  1.0 0.0878066529
H  H7  1  0.88660000  0.23540000  0.25500000  1.0 0.081027655
H  H8  1  0.96510000  0.31630000  0.27450000  1.0 0.0980609035
H  H9  1  0.12010000  0.21490000  0.20070000  1.0 0.081027655
H  H10  1  0.22500000  0.90060000  0.53040000  1.0 0.1195182887
H  H11  1  0.17800000  0.89020000  0.70280000  1.0 0.0878066529
H  H12  1  0.12750000  0.97050000  0.71190000  1.0 0.081027655
H  H13  1  0.13430000  0.04270000  0.64350000  1.0 0.0980609035
H  H14  1  0.32360000  0.03760000  0.37580000  1.0 0.0878066529
H  H15  1  0.27390000  0.11550000  0.38710000  1.0 0.0878066529
H  H16  1  0.23540000  0.88660000  0.62300000  1.0 0.081027655
H  H17  1  0.31630000  0.96510000  0.44410000  1.0 0.0980609035
H  H18  1  0.21490000  0.12010000  0.46430000  1.0 0.081027655
H  H19  1  0.34400000  0.53040000  0.90060000  1.0 0.1195182887
H  H20  1  0.22900000  0.70280000  0.89020000  1.0 0.0878066529
H  H21  1  0.19010000  0.71190000  0.97050000  1.0 0.081027655
H  H22  1  0.17950000  0.64350000  0.04270000  1.0 0.0980609035
H  H23  1  0.26300000  0.37580000  0.03760000  1.0 0.0878066529
H  H24  1  0.22350000  0.38710000  0.11550000  1.0 0.0878066529
H  H25  1  0.25500000  0.62300000  0.88660000  1.0 0.081027655
H  H26  1  0.27450000  0.44410000  0.96510000  1.0 0.0980609035
H  H27  1  0.20070000  0.46430000  0.12010000  1.0 0.081027655
H  H28  1  0.53040000  0.34400000  0.22500000  1.0 0.1195182887
H  H29  1  0.70280000  0.22900000  0.17800000  1.0 0.0878066529
H  H30  1  0.71190000  0.19010000  0.12750000  1.0 0.081027655
H  H31  1  0.64350000  0.17950000  0.13430000  1.0 0.0980609035
H  H32  1  0.37580000  0.26300000  0.32360000  1.0 0.0878066529
H  H33  1  0.38710000  0.22350000  0.27390000  1.0 0.081027655
H  H34  1  0.62300000  0.25500000  0.23540000  1.0 0.081027655
H  H35  1  0.44410000  0.27450000  0.31630000  1.0 0.0980609035
H  H36  1  0.46430000  0.20070000  0.21490000  1.0 0.081027655
H  H37  1  0.34400000  0.90060000  0.22500000  1.0 0.1195182887
H  H38  1  0.22900000  0.89020000  0.17800000  1.0 0.0878066529
H  H39  1  0.19010000  0.97050000  0.12750000  1.0 0.081027655
H  H40  1  0.17950000  0.04270000  0.13430000  1.0 0.0980609035
H  H41  1  0.26300000  0.03760000  0.32360000  1.0 0.0878066529
H  H42  1  0.22350000  0.11550000  0.27390000  1.0 0.0878066529
H  H43  1  0.25500000  0.88660000  0.23540000  1.0 0.081027655
H  H44  1  0.27450000  0.96510000  0.31630000  1.0 0.0980609035
H  H45  1  0.20070000  0.12010000  0.21490000  1.0 0.081027655
H  H46  1  0.53040000  0.22500000  0.90060000  1.0 0.1195182887
H  H47  1  0.70280000  0.17800000  0.89020000  1.0 0.0878066529
H  H48  1  0.71190000  0.12750000  0.97050000  1.0 0.081027655
H  H49  1  0.64350000  0.13430000  0.04270000  1.0 0.0980609035
H  H50  1  0.37580000  0.32360000  0.03760000  1.0 0.0878066529
H  H51  1  0.38710000  0.27390000  0.11550000  1.0 0.0878066529
H  H52  1  0.62300000  0.23540000  0.88660000  1.0 0.081027655
H  H53  1  0.44410000  0.31630000  0.96510000  1.0 0.0980609035
H  H54  1  0.46430000  0.21490000  0.12010000  1.0 0.081027655
H  H55  1  0.90060000  0.34400000  0.53040000  1.0 0.1195182887
H  H56  1  0.89020000  0.22900000  0.70280000  1.0 0.0878066529
H  H57  1  0.97050000  0.19010000  0.71190000  1.0 0.081027655
H  H58  1  0.04270000  0.17950000  0.64350000  1.0 0.0980609035
H  H59  1  0.03760000  0.26300000  0.37580000  1.0 0.0878066529
H  H60  1  0.11550000  0.22350000  0.38710000  1.0 0.0878066529
H  H61  1  0.88660000  0.25500000  0.62300000  1.0 0.081027655
H  H62  1  0.96510000  0.27450000  0.44410000  1.0 0.0980609035
H  H63  1  0.12010000  0.20070000  0.46430000  1.0 0.081027655
H  H64  1  0.22500000  0.53040000  0.34400000  1.0 0.1195182887
H  H65  1  0.17800000  0.70280000  0.22900000  1.0 0.0878066529
H  H66  1  0.12750000  0.71190000  0.19010000  1.0 0.081027655
H  H67  1  0.13430000  0.64350000  0.17950000  1.0 0.0980609035
H  H68  1  0.32360000  0.37580000  0.26300000  1.0 0.0878066529
H  H69  1  0.27390000  0.38710000  0.22350000  1.0 0.0878066529
H  H70  1  0.23540000  0.62300000  0.25500000  1.0 0.081027655
H  H71  1  0.31630000  0.44410000  0.27450000  1.0 0.0980609035
H  H72  1  0.21490000  0.46430000  0.20070000  1.0 0.081027655
H  H73  1  0.22500000  0.34400000  0.90060000  1.0 0.1195182887
H  H74  1  0.17800000  0.22900000  0.89020000  1.0 0.0878066529
H  H75  1  0.12750000  0.19010000  0.97050000  1.0 0.081027655
H  H76  1  0.13430000  0.17950000  0.04270000  1.0 0.0980609035
H  H77  1  0.32360000  0.26300000  0.03760000  1.0 0.0878066529
H  H78  1  0.27390000  0.22350000  0.11550000  1.0 0.0878066529
H  H79  1  0.23540000  0.25500000  0.88660000  1.0 0.081027655
H  H80  1  0.31630000  0.27450000  0.96510000  1.0 0.0980609035
H  H81  1  0.21490000  0.20070000  0.12010000  1.0 0.081027655
H  H82  1  0.90060000  0.53040000  0.22500000  1.0 0.1195182887
H  H83  1  0.89020000  0.70280000  0.17800000  1.0 0.0878066529
H  H84  1  0.97050000  0.71190000  0.12750000  1.0 0.081027655
H  H85  1  0.04270000  0.64350000  0.13430000  1.0 0.0980609035
H  H86  1  0.03760000  0.37580000  0.32360000  1.0 0.0878066529
H  H87  1  0.11550000  0.38710000  0.27390000  1.0 0.0878066529
H  H88  1  0.88660000  0.62300000  0.23540000  1.0 0.081027655
H  H89  1  0.96510000  0.44410000  0.31630000  1.0 0.0980609035
H  H90  1  0.12010000  0.46430000  0.21490000  1.0 0.081027655
H  H91  1  0.53040000  0.90060000  0.34400000  1.0 0.1195182887
H  H92  1  0.70280000  0.89020000  0.22900000  1.0 0.0878066529
H  H93  1  0.71190000  0.97050000  0.19010000  1.0 0.081027655
H  H94  1  0.64350000  0.04270000  0.17950000  1.0 0.0980609035
H  H95  1  0.37580000  0.03760000  0.26300000  1.0 0.0878066529
H  H96  1  0.38710000  0.11550000  0.22350000  1.0 0.0878066529
H  H97  1  0.62300000  0.88660000  0.25500000  1.0 0.081027655
H  H98  1  0.44410000  0.96510000  0.27450000  1.0 0.0980609035
H  H99  1  0.46430000  0.12010000  0.20070000  1.0 0.081027655
H  H100  1  0.34400000  0.22500000  0.53040000  1.0 0.1195182887
H  H101  1  0.22900000  0.17800000  0.70280000  1.0 0.0878066529
H  H102  1  0.19010000  0.12750000  0.71190000  1.0 0.081027655
H  H103  1  0.17950000  0.13430000  0.64350000  1.0 0.0980609035
H  H104  1  0.26300000  0.32360000  0.37580000  1.0 0.0878066529
H  H105  1  0.22350000  0.27390000  0.38710000  1.0 0.081027655
H  H106  1  0.25500000  0.23540000  0.62300000  1.0 0.081027655
H  H107  1  0.27450000  0.31630000  0.44410000  1.0 0.0980609035
H  H108  1  0.20070000  0.21490000  0.46430000  1.0 0.081027655
H  H109  1  0.09940000  0.77500000  0.46960000  1.0 0.1195182887
H  H110  1  0.10980000  0.82200000  0.29720000  1.0 0.0878066529
H  H111  1  0.02950000  0.87250000  0.28810000  1.0 0.081027655
H  H112  1  0.95730000  0.86570000  0.35650000  1.0 0.0980609035
H  H113  1  0.96240000  0.67640000  0.62420000  1.0 0.0878066529
H  H114  1  0.88450000  0.72610000  0.61290000  1.0 0.0878066529
H  H115  1  0.11340000  0.76460000  0.37700000  1.0 0.081027655
H  H116  1  0.03490000  0.68370000  0.55590000  1.0 0.0980609035
H  H117  1  0.87990000  0.78510000  0.53570000  1.0 0.081027655
H  H118  1  0.77500000  0.09940000  0.65600000  1.0 0.1195182887
H  H119  1  0.82200000  0.10980000  0.77100000  1.0 0.0878066529
H  H120  1  0.87250000  0.02950000  0.80990000  1.0 0.081027655
H  H121  1  0.86570000  0.95730000  0.82050000  1.0 0.0980609035
H  H122  1  0.67640000  0.96240000  0.73700000  1.0 0.0878066529
H  H123  1  0.72610000  0.88450000  0.77650000  1.0 0.0878066529
H  H124  1  0.76460000  0.11340000  0.74500000  1.0 0.081027655
H  H125  1  0.68370000  0.03490000  0.72550000  1.0 0.0980609035
H  H126  1  0.78510000  0.87990000  0.79930000  1.0 0.081027655
H  H127  1  0.65600000  0.46960000  0.77500000  1.0 0.1195182887
H  H128  1  0.77100000  0.29720000  0.82200000  1.0 0.0878066529
H  H129  1  0.80990000  0.28810000  0.87250000  1.0 0.081027655
H  H130  1  0.82050000  0.35650000  0.86570000  1.0 0.0980609035
H  H131  1  0.73700000  0.62420000  0.67640000  1.0 0.0878066529
H  H132  1  0.77650000  0.61290000  0.72610000  1.0 0.0878066529
H  H133  1  0.74500000  0.37700000  0.76460000  1.0 0.081027655
H  H134  1  0.72550000  0.55590000  0.68370000  1.0 0.0980609035
H  H135  1  0.79930000  0.53570000  0.78510000  1.0 0.081027655
H  H136  1  0.46960000  0.65600000  0.09940000  1.0 0.1195182887
H  H137  1  0.29720000  0.77100000  0.10980000  1.0 0.0878066529
H  H138  1  0.28810000  0.80990000  0.02950000  1.0 0.081027655
H  H139  1  0.35650000  0.82050000  0.95730000  1.0 0.0980609035
H  H140  1  0.62420000  0.73700000  0.96240000  1.0 0.0878066529
H  H141  1  0.61290000  0.77650000  0.88450000  1.0 0.0878066529
H  H142  1  0.37700000  0.74500000  0.11340000  1.0 0.081027655
H  H143  1  0.55590000  0.72550000  0.03490000  1.0 0.0980609035
H  H144  1  0.53570000  0.79930000  0.87990000  1.0 0.081027655
H  H145  1  0.65600000  0.09940000  0.46960000  1.0 0.1195182887
H  H146  1  0.77100000  0.10980000  0.29720000  1.0 0.0878066529
H  H147  1  0.80990000  0.02950000  0.28810000  1.0 0.081027655
H  H148  1  0.82050000  0.95730000  0.35650000  1.0 0.0980609035
H  H149  1  0.73700000  0.96240000  0.62420000  1.0 0.0878066529
H  H150  1  0.77650000  0.88450000  0.61290000  1.0 0.0878066529
H  H151  1  0.74500000  0.11340000  0.37700000  1.0 0.081027655
H  H152  1  0.72550000  0.03490000  0.55590000  1.0 0.0980609035
H  H153  1  0.79930000  0.87990000  0.53570000  1.0 0.081027655
H  H154  1  0.46960000  0.77500000  0.65600000  1.0 0.1195182887
H  H155  1  0.29720000  0.82200000  0.77100000  1.0 0.0878066529
H  H156  1  0.28810000  0.87250000  0.80990000  1.0 0.081027655
H  H157  1  0.35650000  0.86570000  0.82050000  1.0 0.0980609035
H  H158  1  0.62420000  0.67640000  0.73700000  1.0 0.0878066529
H  H159  1  0.61290000  0.72610000  0.77650000  1.0 0.081027655
H  H160  1  0.37700000  0.76460000  0.74500000  1.0 0.081027655
H  H161  1  0.55590000  0.68370000  0.72550000  1.0 0.0980609035
H  H162  1  0.53570000  0.78510000  0.79930000  1.0 0.081027655
H  H163  1  0.09940000  0.65600000  0.77500000  1.0 0.1195182887
H  H164  1  0.10980000  0.77100000  0.82200000  1.0 0.0878066529
H  H165  1  0.02950000  0.80990000  0.87250000  1.0 0.081027655
H  H166  1  0.95730000  0.82050000  0.86570000  1.0 0.0980609035
H  H167  1  0.96240000  0.73700000  0.67640000  1.0 0.0878066529
H  H168  1  0.88450000  0.77650000  0.72610000  1.0 0.0878066529
H  H169  1  0.11340000  0.74500000  0.76460000  1.0 0.081027655
H  H170  1  0.03490000  0.72550000  0.68370000  1.0 0.0980609035
H  H171  1  0.87990000  0.79930000  0.78510000  1.0 0.081027655
H  H172  1  0.77500000  0.46960000  0.09940000  1.0 0.1195182887
H  H173  1  0.82200000  0.29720000  0.10980000  1.0 0.0878066529
H  H174  1  0.87250000  0.28810000  0.02950000  1.0 0.081027655
H  H175  1  0.86570000  0.35650000  0.95730000  1.0 0.0980609035
H  H176  1  0.67640000  0.62420000  0.96240000  1.0 0.0878066529
H  H177  1  0.72610000  0.61290000  0.88450000  1.0 0.0878066529
H  H178  1  0.76460000  0.37700000  0.11340000  1.0 0.081027655
H  H179  1  0.68370000  0.55590000  0.03490000  1.0 0.0980609035
H  H180  1  0.78510000  0.53570000  0.87990000  1.0 0.081027655
H  H181  1  0.77500000  0.65600000  0.46960000  1.0 0.1195182887
H  H182  1  0.82200000  0.77100000  0.29720000  1.0 0.0878066529
H  H183  1  0.87250000  0.80990000  0.28810000  1.0 0.081027655
H  H184  1  0.86570000  0.82050000  0.35650000  1.0 0.0980609035
H  H185  1  0.67640000  0.73700000  0.62420000  1.0 0.0878066529
H  H186  1  0.72610000  0.77650000  0.61290000  1.0 0.0878066529
H  H187  1  0.76460000  0.74500000  0.37700000  1.0 0.081027655
H  H188  1  0.68370000  0.72550000  0.55590000  1.0 0.0980609035
H  H189  1  0.78510000  0.79930000  0.53570000  1.0 0.081027655
H  H190  1  0.09940000  0.46960000  0.65600000  1.0 0.1195182887
H  H191  1  0.10980000  0.29720000  0.77100000  1.0 0.0878066529
H  H192  1  0.02950000  0.28810000  0.80990000  1.0 0.081027655
H  H193  1  0.95730000  0.35650000  0.82050000  1.0 0.0980609035
H  H194  1  0.96240000  0.62420000  0.73700000  1.0 0.0878066529
H  H195  1  0.88450000  0.61290000  0.77650000  1.0 0.0878066529
H  H196  1  0.11340000  0.37700000  0.74500000  1.0 0.081027655
H  H197  1  0.03490000  0.55590000  0.72550000  1.0 0.0980609035
H  H198  1  0.87990000  0.53570000  0.79930000  1.0 0.081027655
H  H199  1  0.46960000  0.09940000  0.77500000  1.0 0.1195182887
H  H200  1  0.29720000  0.10980000  0.82200000  1.0 0.0878066529
H  H201  1  0.28810000  0.02950000  0.87250000  1.0 0.081027655
H  H202  1  0.35650000  0.95730000  0.86570000  1.0 0.0980609035
H  H203  1  0.62420000  0.96240000  0.67640000  1.0 0.0878066529
H  H204  1  0.61290000  0.88450000  0.72610000  1.0 0.0878066529
H  H205  1  0.37700000  0.11340000  0.76460000  1.0 0.081027655
H  H206  1  0.55590000  0.03490000  0.68370000  1.0 0.0980609035
H  H207  1  0.53570000  0.87990000  0.78510000  1.0 0.081027655
H  H208  1  0.65600000  0.77500000  0.09940000  1.0 0.1195182887
H  H209  1  0.77100000  0.82200000  0.10980000  1.0 0.0878066529
H  H210  1  0.80990000  0.87250000  0.02950000  1.0 0.081027655
H  H211  1  0.82050000  0.86570000  0.95730000  1.0 0.0980609035
H  H212  1  0.73700000  0.67640000  0.96240000  1.0 0.0878066529
H  H213  1  0.77650000  0.72610000  0.88450000  1.0 0.081027655
H  H214  1  0.74500000  0.76460000  0.11340000  1.0 0.081027655
H  H215  1  0.72550000  0.68370000  0.03490000  1.0 0.0980609035
H  H216  1  0.79930000  0.78510000  0.87990000  1.0 0.081027655
H  H217  1  0.09940000  0.77500000  0.65600000  1.0 0.1195182887
H  H218  1  0.10980000  0.82200000  0.77100000  1.0 0.0878066529
H  H219  1  0.02950000  0.87250000  0.80990000  1.0 0.081027655
H  H220  1  0.95730000  0.86570000  0.82050000  1.0 0.0980609035
H  H221  1  0.96240000  0.67640000  0.73700000  1.0 0.0878066529
H  H222  1  0.88450000  0.72610000  0.77650000  1.0 0.0878066529
H  H223  1  0.11340000  0.76460000  0.74500000  1.0 0.081027655
H  H224  1  0.03490000  0.68370000  0.72550000  1.0 0.0980609035
H  H225  1  0.87990000  0.78510000  0.79930000  1.0 0.081027655
H  H226  1  0.77500000  0.09940000  0.46960000  1.0 0.1195182887
H  H227  1  0.82200000  0.10980000  0.29720000  1.0 0.0878066529
H  H228  1  0.87250000  0.02950000  0.28810000  1.0 0.081027655
H  H229  1  0.86570000  0.95730000  0.35650000  1.0 0.0980609035
H  H230  1  0.67640000  0.96240000  0.62420000  1.0 0.0878066529
H  H231  1  0.72610000  0.88450000  0.61290000  1.0 0.0878066529
H  H232  1  0.76460000  0.11340000  0.37700000  1.0 0.081027655
H  H233  1  0.68370000  0.03490000  0.55590000  1.0 0.0980609035
H  H234  1  0.78510000  0.87990000  0.53570000  1.0 0.081027655
H  H235  1  0.65600000  0.46960000  0.09940000  1.0 0.1195182887
H  H236  1  0.77100000  0.29720000  0.10980000  1.0 0.0878066529
H  H237  1  0.80990000  0.28810000  0.02950000  1.0 0.081027655
H  H238  1  0.82050000  0.35650000  0.95730000  1.0 0.0980609035
H  H239  1  0.73700000  0.62420000  0.96240000  1.0 0.0878066529
H  H240  1  0.77650000  0.61290000  0.88450000  1.0 0.0878066529
H  H241  1  0.74500000  0.37700000  0.11340000  1.0 0.081027655
H  H242  1  0.72550000  0.55590000  0.03490000  1.0 0.0980609035
H  H243  1  0.79930000  0.53570000  0.87990000  1.0 0.081027655
H  H244  1  0.46960000  0.65600000  0.77500000  1.0 0.1195182887
H  H245  1  0.29720000  0.77100000  0.82200000  1.0 0.0878066529
H  H246  1  0.28810000  0.80990000  0.87250000  1.0 0.081027655
H  H247  1  0.35650000  0.82050000  0.86570000  1.0 0.0980609035
H  H248  1  0.62420000  0.73700000  0.67640000  1.0 0.0878066529
H  H249  1  0.61290000  0.77650000  0.72610000  1.0 0.0878066529
H  H250  1  0.37700000  0.74500000  0.76460000  1.0 0.081027655
H  H251  1  0.55590000  0.72550000  0.68370000  1.0 0.0980609035
H  H252  1  0.53570000  0.79930000  0.78510000  1.0 0.081027655
H  H253  1  0.65600000  0.09940000  0.77500000  1.0 0.1195182887
H  H254  1  0.77100000  0.10980000  0.82200000  1.0 0.0878066529
H  H255  1  0.80990000  0.02950000  0.87250000  1.0 0.081027655
H  H256  1  0.82050000  0.95730000  0.86570000  1.0 0.0980609035
H  H257  1  0.73700000  0.96240000  0.67640000  1.0 0.0878066529
H  H258  1  0.77650000  0.88450000  0.72610000  1.0 0.0878066529
H  H259  1  0.74500000  0.11340000  0.76460000  1.0 0.081027655
H  H260  1  0.72550000  0.03490000  0.68370000  1.0 0.0980609035
H  H261  1  0.79930000  0.87990000  0.78510000  1.0 0.081027655
H  H262  1  0.46960000  0.77500000  0.09940000  1.0 0.1195182887
H  H263  1  0.29720000  0.82200000  0.10980000  1.0 0.0878066529
H  H264  1  0.28810000  0.87250000  0.02950000  1.0 0.081027655
H  H265  1  0.35650000  0.86570000  0.95730000  1.0 0.0980609035
H  H266  1  0.62420000  0.67640000  0.96240000  1.0 0.0878066529
H  H267  1  0.61290000  0.72610000  0.88450000  1.0 0.0878066529
H  H268  1  0.37700000  0.76460000  0.11340000  1.0 0.081027655
H  H269  1  0.55590000  0.68370000  0.03490000  1.0 0.0980609035
H  H270  1  0.53570000  0.78510000  0.87990000  1.0 0.081027655
H  H271  1  0.09940000  0.65600000  0.46960000  1.0 0.1195182887
H  H272  1  0.10980000  0.77100000  0.29720000  1.0 0.0878066529
H  H273  1  0.02950000  0.80990000  0.28810000  1.0 0.081027655
H  H274  1  0.95730000  0.82050000  0.35650000  1.0 0.0980609035
H  H275  1  0.96240000  0.73700000  0.62420000  1.0 0.0878066529
H  H276  1  0.88450000  0.77650000  0.61290000  1.0 0.0878066529
H  H277  1  0.11340000  0.74500000  0.37700000  1.0 0.081027655
H  H278  1  0.03490000  0.72550000  0.55590000  1.0 0.0980609035
H  H279  1  0.87990000  0.79930000  0.53570000  1.0 0.081027655
H  H280  1  0.77500000  0.46960000  0.65600000  1.0 0.1195182887
H  H281  1  0.82200000  0.29720000  0.77100000  1.0 0.0878066529
H  H282  1  0.87250000  0.28810000  0.80990000  1.0 0.081027655
H  H283  1  0.86570000  0.35650000  0.82050000  1.0 0.0980609035
H  H284  1  0.67640000  0.62420000  0.73700000  1.0 0.0878066529
H  H285  1  0.72610000  0.61290000  0.77650000  1.0 0.0878066529
H  H286  1  0.76460000  0.37700000  0.74500000  1.0 0.081027655
H  H287  1  0.68370000  0.55590000  0.72550000  1.0 0.0980609035
H  H288  1  0.78510000  0.53570000  0.79930000  1.0 0.081027655
H  H289  1  0.77500000  0.65600000  0.09940000  1.0 0.1195182887
H  H290  1  0.82200000  0.77100000  0.10980000  1.0 0.0878066529
H  H291  1  0.87250000  0.80990000  0.02950000  1.0 0.081027655
H  H292  1  0.86570000  0.82050000  0.95730000  1.0 0.0980609035
H  H293  1  0.67640000  0.73700000  0.96240000  1.0 0.0878066529
H  H294  1  0.72610000  0.77650000  0.88450000  1.0 0.0878066529
H  H295  1  0.76460000  0.74500000  0.11340000  1.0 0.081027655
H  H296  1  0.68370000  0.72550000  0.03490000  1.0 0.0980609035
H  H297  1  0.78510000  0.79930000  0.87990000  1.0 0.081027655
H  H298  1  0.09940000  0.46960000  0.77500000  1.0 0.1195182887
H  H299  1  0.10980000  0.29720000  0.82200000  1.0 0.0878066529
H  H300  1  0.02950000  0.28810000  0.87250000  1.0 0.081027655
H  H301  1  0.95730000  0.35650000  0.86570000  1.0 0.0980609035
H  H302  1  0.96240000  0.62420000  0.67640000  1.0 0.0878066529
H  H303  1  0.88450000  0.61290000  0.72610000  1.0 0.0878066529
H  H304  1  0.11340000  0.37700000  0.76460000  1.0 0.081027655
H  H305  1  0.03490000  0.55590000  0.68370000  1.0 0.0980609035
H  H306  1  0.87990000  0.53570000  0.78510000  1.0 0.081027655
H  H307  1  0.46960000  0.09940000  0.65600000  1.0 0.1195182887
H  H308  1  0.29720000  0.10980000  0.77100000  1.0 0.0878066529
H  H309  1  0.28810000  0.02950000  0.80990000  1.0 0.081027655
H  H310  1  0.35650000  0.95730000  0.82050000  1.0 0.0980609035
H  H311  1  0.62420000  0.96240000  0.73700000  1.0 0.0878066529
H  H312  1  0.61290000  0.88450000  0.77650000  1.0 0.081027655
H  H313  1  0.37700000  0.11340000  0.74500000  1.0 0.081027655
H  H314  1  0.55590000  0.03490000  0.72550000  1.0 0.0980609035
H  H315  1  0.53570000  0.87990000  0.79930000  1.0 0.081027655
H  H316  1  0.65600000  0.77500000  0.46960000  1.0 0.1195182887
H  H317  1  0.77100000  0.82200000  0.29720000  1.0 0.0878066529
H  H318  1  0.80990000  0.87250000  0.28810000  1.0 0.081027655
H  H319  1  0.82050000  0.86570000  0.35650000  1.0 0.0980609035
H  H320  1  0.73700000  0.67640000  0.62420000  1.0 0.0878066529
H  H321  1  0.77650000  0.72610000  0.61290000  1.0 0.0878066529
H  H322  1  0.74500000  0.76460000  0.37700000  1.0 0.081027655
H  H323  1  0.72550000  0.68370000  0.55590000  1.0 0.0980609035
H  H324  1  0.79930000  0.78510000  0.53570000  1.0 0.081027655
H  H325  1  0.90060000  0.22500000  0.53040000  1.0 0.1195182887
H  H326  1  0.89020000  0.17800000  0.70280000  1.0 0.0878066529
H  H327  1  0.97050000  0.12750000  0.71190000  1.0 0.081027655
H  H328  1  0.04270000  0.13430000  0.64350000  1.0 0.0980609035
H  H329  1  0.03760000  0.32360000  0.37580000  1.0 0.0878066529
H  H330  1  0.11550000  0.27390000  0.38710000  1.0 0.0878066529
H  H331  1  0.88660000  0.23540000  0.62300000  1.0 0.081027655
H  H332  1  0.96510000  0.31630000  0.44410000  1.0 0.0980609035
H  H333  1  0.12010000  0.21490000  0.46430000  1.0 0.081027655
H  H334  1  0.22500000  0.90060000  0.34400000  1.0 0.1195182887
H  H335  1  0.17800000  0.89020000  0.22900000  1.0 0.0878066529
H  H336  1  0.12750000  0.97050000  0.19010000  1.0 0.081027655
H  H337  1  0.13430000  0.04270000  0.17950000  1.0 0.0980609035
H  H338  1  0.32360000  0.03760000  0.26300000  1.0 0.0878066529
H  H339  1  0.27390000  0.11550000  0.22350000  1.0 0.0878066529
H  H340  1  0.23540000  0.88660000  0.25500000  1.0 0.081027655
H  H341  1  0.31630000  0.96510000  0.27450000  1.0 0.0980609035
H  H342  1  0.21490000  0.12010000  0.20070000  1.0 0.081027655
H  H343  1  0.34400000  0.53040000  0.22500000  1.0 0.1195182887
H  H344  1  0.22900000  0.70280000  0.17800000  1.0 0.0878066529
H  H345  1  0.19010000  0.71190000  0.12750000  1.0 0.081027655
H  H346  1  0.17950000  0.64350000  0.13430000  1.0 0.0980609035
H  H347  1  0.26300000  0.37580000  0.32360000  1.0 0.0878066529
H  H348  1  0.22350000  0.38710000  0.27390000  1.0 0.0878066529
H  H349  1  0.25500000  0.62300000  0.23540000  1.0 0.081027655
H  H350  1  0.27450000  0.44410000  0.31630000  1.0 0.0980609035
H  H351  1  0.20070000  0.46430000  0.21490000  1.0 0.081027655
H  H352  1  0.53040000  0.34400000  0.90060000  1.0 0.1195182887
H  H353  1  0.70280000  0.22900000  0.89020000  1.0 0.0878066529
H  H354  1  0.71190000  0.19010000  0.97050000  1.0 0.081027655
H  H355  1  0.64350000  0.17950000  0.04270000  1.0 0.0980609035
H  H356  1  0.37580000  0.26300000  0.03760000  1.0 0.0878066529
H  H357  1  0.38710000  0.22350000  0.11550000  1.0 0.0878066529
H  H358  1  0.62300000  0.25500000  0.88660000  1.0 0.081027655
H  H359  1  0.44410000  0.27450000  0.96510000  1.0 0.0980609035
H  H360  1  0.46430000  0.20070000  0.12010000  1.0 0.081027655
H  H361  1  0.34400000  0.90060000  0.53040000  1.0 0.1195182887
H  H362  1  0.22900000  0.89020000  0.70280000  1.0 0.0878066529
H  H363  1  0.19010000  0.97050000  0.71190000  1.0 0.081027655
H  H364  1  0.17950000  0.04270000  0.64350000  1.0 0.0980609035
H  H365  1  0.26300000  0.03760000  0.37580000  1.0 0.0878066529
H  H366  1  0.22350000  0.11550000  0.38710000  1.0 0.0878066529
H  H367  1  0.25500000  0.88660000  0.62300000  1.0 0.081027655
H  H368  1  0.27450000  0.96510000  0.44410000  1.0 0.0980609035
H  H369  1  0.20070000  0.12010000  0.46430000  1.0 0.081027655
H  H370  1  0.53040000  0.22500000  0.34400000  1.0 0.1195182887
H  H371  1  0.70280000  0.17800000  0.22900000  1.0 0.0878066529
H  H372  1  0.71190000  0.12750000  0.19010000  1.0 0.081027655
H  H373  1  0.64350000  0.13430000  0.17950000  1.0 0.0980609035
H  H374  1  0.37580000  0.32360000  0.26300000  1.0 0.0878066529
H  H375  1  0.38710000  0.27390000  0.22350000  1.0 0.0878066529
H  H376  1  0.62300000  0.23540000  0.25500000  1.0 0.081027655
H  H377  1  0.44410000  0.31630000  0.27450000  1.0 0.0980609035
H  H378  1  0.46430000  0.21490000  0.20070000  1.0 0.081027655
H  H379  1  0.90060000  0.34400000  0.22500000  1.0 0.1195182887
H  H380  1  0.89020000  0.22900000  0.17800000  1.0 0.0878066529
H  H381  1  0.97050000  0.19010000  0.12750000  1.0 0.081027655
H  H382  1  0.04270000  0.17950000  0.13430000  1.0 0.0980609035
H  H383  1  0.03760000  0.26300000  0.32360000  1.0 0.0878066529
H  H384  1  0.11550000  0.22350000  0.27390000  1.0 0.0878066529
H  H385  1  0.88660000  0.25500000  0.23540000  1.0 0.081027655
H  H386  1  0.96510000  0.27450000  0.31630000  1.0 0.0980609035
H  H387  1  0.12010000  0.20070000  0.21490000  1.0 0.081027655
H  H388  1  0.22500000  0.53040000  0.90060000  1.0 0.1195182887
H  H389  1  0.17800000  0.70280000  0.89020000  1.0 0.0878066529
H  H390  1  0.12750000  0.71190000  0.97050000  1.0 0.081027655
H  H391  1  0.13430000  0.64350000  0.04270000  1.0 0.0980609035
H  H392  1  0.32360000  0.37580000  0.03760000  1.0 0.0878066529
H  H393  1  0.27390000  0.38710000  0.11550000  1.0 0.0878066529
H  H394  1  0.23540000  0.62300000  0.88660000  1.0 0.081027655
H  H395  1  0.31630000  0.44410000  0.96510000  1.0 0.0980609035
H  H396  1  0.21490000  0.46430000  0.12010000  1.0 0.081027655
H  H397  1  0.22500000  0.34400000  0.53040000  1.0 0.1195182887
H  H398  1  0.17800000  0.22900000  0.70280000  1.0 0.0878066529
H  H399  1  0.12750000  0.19010000  0.71190000  1.0 0.081027655
H  H400  1  0.13430000  0.17950000  0.64350000  1.0 0.0980609035
H  H401  1  0.32360000  0.26300000  0.37580000  1.0 0.0878066529
H  H402  1  0.27390000  0.22350000  0.38710000  1.0 0.0878066529
H  H403  1  0.23540000  0.25500000  0.62300000  1.0 0.081027655
H  H404  1  0.31630000  0.27450000  0.44410000  1.0 0.0980609035
H  H405  1  0.21490000  0.20070000  0.46430000  1.0 0.081027655
H  H406  1  0.90060000  0.53040000  0.34400000  1.0 0.1195182887
H  H407  1  0.89020000  0.70280000  0.22900000  1.0 0.0878066529
H  H408  1  0.97050000  0.71190000  0.19010000  1.0 0.081027655
H  H409  1  0.04270000  0.64350000  0.17950000  1.0 0.0980609035
H  H410  1  0.03760000  0.37580000  0.26300000  1.0 0.0878066529
H  H411  1  0.11550000  0.38710000  0.22350000  1.0 0.0878066529
H  H412  1  0.88660000  0.62300000  0.25500000  1.0 0.081027655
H  H413  1  0.96510000  0.44410000  0.27450000  1.0 0.0980609035
H  H414  1  0.12010000  0.46430000  0.20070000  1.0 0.081027655
H  H415  1  0.53040000  0.90060000  0.22500000  1.0 0.1195182887
H  H416  1  0.70280000  0.89020000  0.17800000  1.0 0.0878066529
H  H417  1  0.71190000  0.97050000  0.12750000  1.0 0.081027655
H  H418  1  0.64350000  0.04270000  0.13430000  1.0 0.0980609035
H  H419  1  0.37580000  0.03760000  0.32360000  1.0 0.0878066529
H  H420  1  0.38710000  0.11550000  0.27390000  1.0 0.081027655
H  H421  1  0.62300000  0.88660000  0.23540000  1.0 0.081027655
H  H422  1  0.44410000  0.96510000  0.31630000  1.0 0.0980609035
H  H423  1  0.46430000  0.12010000  0.21490000  1.0 0.081027655
H  H424  1  0.34400000  0.22500000  0.90060000  1.0 0.1195182887
H  H425  1  0.22900000  0.17800000  0.89020000  1.0 0.0878066529
H  H426  1  0.19010000  0.12750000  0.97050000  1.0 0.081027655
H  H427  1  0.17950000  0.13430000  0.04270000  1.0 0.0980609035
H  H428  1  0.26300000  0.32360000  0.03760000  1.0 0.0878066529
H  H429  1  0.22350000  0.27390000  0.11550000  1.0 0.0878066529
H  H430  1  0.25500000  0.23540000  0.88660000  1.0 0.081027655
H  H431  1  0.27450000  0.31630000  0.96510000  1.0 0.0980609035
H  H432  1  0.20070000  0.21490000  0.12010000  1.0 0.081027655
H  H433  1  0.78560000  0.34860000  0.34860000  1.0 0.1358292481
H  H434  1  0.34860000  0.78560000  0.51720000  1.0 0.1358292481
H  H435  1  0.34860000  0.51720000  0.78560000  1.0 0.1358292481
H  H436  1  0.51720000  0.34860000  0.34860000  1.0 0.1358292481
H  H437  1  0.34860000  0.78560000  0.34860000  1.0 0.1358292481
H  H438  1  0.51720000  0.34860000  0.78560000  1.0 0.1358292481
H  H439  1  0.78560000  0.34860000  0.51720000  1.0 0.1358292481
H  H440  1  0.34860000  0.51720000  0.34860000  1.0 0.1358292481
H  H441  1  0.34860000  0.34860000  0.78560000  1.0 0.1358292481
H  H442  1  0.78560000  0.51720000  0.34860000  1.0 0.1358292481
H  H443  1  0.51720000  0.78560000  0.34860000  1.0 0.1358292481
H  H444  1  0.34860000  0.34860000  0.51720000  1.0 0.1358292481
H  H445  1  0.21440000  0.65140000  0.48280000  1.0 0.1358292481
H  H446  1  0.65140000  0.21440000  0.65140000  1.0 0.1358292481
H  H447  1  0.65140000  0.48280000  0.65140000  1.0 0.1358292481
H  H448  1  0.48280000  0.65140000  0.21440000  1.0 0.1358292481
H  H449  1  0.65140000  0.21440000  0.48280000  1.0 0.1358292481
H  H450  1  0.48280000  0.65140000  0.65140000  1.0 0.1358292481
H  H451  1  0.21440000  0.65140000  0.65140000  1.0 0.1358292481
H  H452  1  0.65140000  0.48280000  0.21440000  1.0 0.1358292481
H  H453  1  0.65140000  0.65140000  0.48280000  1.0 0.1358292481
H  H454  1  0.21440000  0.48280000  0.65140000  1.0 0.1358292481
H  H455  1  0.48280000  0.21440000  0.65140000  1.0 0.1358292481
H  H456  1  0.65140000  0.65140000  0.21440000  1.0 0.1358292481
H  H457  1  0.11280000  0.23040000  0.11280000  1.0 0.128175466
H  H458  1  0.23040000  0.11280000  0.54400000  1.0 0.128175466
H  H459  1  0.11280000  0.54400000  0.11280000  1.0 0.128175466
H  H460  1  0.54400000  0.11280000  0.23040000  1.0 0.128175466
H  H461  1  0.11280000  0.11280000  0.23040000  1.0 0.128175466
H  H462  1  0.54400000  0.23040000  0.11280000  1.0 0.128175466
H  H463  1  0.11280000  0.11280000  0.54400000  1.0 0.128175466
H  H464  1  0.23040000  0.54400000  0.11280000  1.0 0.128175466
H  H465  1  0.23040000  0.11280000  0.11280000  1.0 0.128175466
H  H466  1  0.11280000  0.54400000  0.23040000  1.0 0.128175466
H  H467  1  0.54400000  0.11280000  0.11280000  1.0 0.128175466
H  H468  1  0.11280000  0.23040000  0.54400000  1.0 0.128175466
H  H469  1  0.88720000  0.76960000  0.45600000  1.0 0.128175466
H  H470  1  0.76960000  0.88720000  0.88720000  1.0 0.128175466
H  H471  1  0.88720000  0.45600000  0.76960000  1.0 0.128175466
H  H472  1  0.45600000  0.88720000  0.88720000  1.0 0.128175466
H  H473  1  0.88720000  0.88720000  0.45600000  1.0 0.128175466
H  H474  1  0.45600000  0.76960000  0.88720000  1.0 0.128175466
H  H475  1  0.88720000  0.88720000  0.76960000  1.0 0.128175466
H  H476  1  0.76960000  0.45600000  0.88720000  1.0 0.128175466
H  H477  1  0.76960000  0.88720000  0.45600000  1.0 0.128175466
H  H478  1  0.88720000  0.45600000  0.88720000  1.0 0.128175466
H  H479  1  0.45600000  0.88720000  0.76960000  1.0 0.128175466
H  H480  1  0.88720000  0.76960000  0.88720000  1.0 0.128175466
C  C1  1  0.81498000  0.26138000  0.40990000  1.0 0.5868100388
C  C2  1  0.83923000  0.28341000  0.35581000  1.0 0.0037292871
C  C3  1  0.88520000  0.25814000  0.32866000  1.0 -0.1890846814
C  C4  1  0.95650000  0.25450000  0.24910000  1.0 -0.0996139477
C  C5  1  0.96080000  0.22020000  0.23320000  1.0 0.0379950305
C  C6  1  0.91710000  0.21550000  0.24010000  1.0 -0.0597153902
C  C7  1  0.91880000  0.18080000  0.22440000  1.0 -0.0883714385
C  C8  1  0.96800000  0.15000000  0.20080000  1.0 -0.1359059686
C  C9  1  0.01210000  0.15450000  0.19410000  1.0 -0.1083791947
C  C10  1  0.00970000  0.18970000  0.20970000  1.0 0.0658689809
C  C11  1  0.05210000  0.19630000  0.20410000  1.0 -0.05395077
C  C12  1  0.04670000  0.23110000  0.22030000  1.0 0.0148626858
C  C13  1  0.99840000  0.26160000  0.24360000  1.0 0.081027655
C  C14  1  0.99580000  0.29660000  0.25940000  1.0 -0.0883714385
C  C15  1  0.03950000  0.30130000  0.25250000  1.0 -0.1238656302
C  C16  1  0.08670000  0.27070000  0.22910000  1.0 -0.0883714385
C  C17  1  0.08940000  0.23540000  0.21440000  1.0 -0.0258556212
C  C18  1  0.26138000  0.81498000  0.51374000  1.0 0.5868100388
C  C19  1  0.28341000  0.83923000  0.52155000  1.0 0.0037292871
C  C20  1  0.25814000  0.88520000  0.52800000  1.0 -0.1890846814
C  C21  1  0.25450000  0.95650000  0.53990000  1.0 -0.0996139477
C  C22  1  0.22020000  0.96080000  0.58580000  1.0 0.0379950305
C  C23  1  0.21550000  0.91710000  0.62730000  1.0 -0.0597153902
C  C24  1  0.18080000  0.91880000  0.67600000  1.0 -0.0996139477
C  C25  1  0.15000000  0.96800000  0.68120000  1.0 -0.1359059686
C  C26  1  0.15450000  0.01210000  0.63930000  1.0 -0.1083791947
C  C27  1  0.18970000  0.00970000  0.59090000  1.0 0.0658689809
C  C28  1  0.19630000  0.05210000  0.54750000  1.0 -0.05395077
C  C29  1  0.23110000  0.04670000  0.50190000  1.0 0.015330003
C  C30  1  0.26160000  0.99840000  0.49640000  1.0 0.081027655
C  C31  1  0.29660000  0.99580000  0.44820000  1.0 -0.0883714385
C  C32  1  0.30130000  0.03950000  0.40670000  1.0 -0.1238656302
C  C33  1  0.27070000  0.08670000  0.41350000  1.0 -0.0883714385
C  C34  1  0.23540000  0.08940000  0.46080000  1.0 -0.0258556212
C  C35  1  0.40990000  0.51374000  0.81498000  1.0 0.5868100388
C  C36  1  0.35581000  0.52155000  0.83923000  1.0 0.0037292871
C  C37  1  0.32866000  0.52800000  0.88520000  1.0 -0.1890846814
C  C38  1  0.24910000  0.53990000  0.95650000  1.0 -0.0996139477
C  C39  1  0.23320000  0.58580000  0.96080000  1.0 0.0379950305
C  C40  1  0.24010000  0.62730000  0.91710000  1.0 -0.0597153902
C  C41  1  0.22440000  0.67600000  0.91880000  1.0 -0.0996139477
C  C42  1  0.20080000  0.68120000  0.96800000  1.0 -0.1359059686
C  C43  1  0.19410000  0.63930000  0.01210000  1.0 -0.1083791947
C  C44  1  0.20970000  0.59090000  0.00970000  1.0 0.0658689809
C  C45  1  0.20410000  0.54750000  0.05210000  1.0 -0.05395077
C  C46  1  0.22030000  0.50190000  0.04670000  1.0 0.0148626858
C  C47  1  0.24360000  0.49640000  0.99840000  1.0 0.081027655
C  C48  1  0.25940000  0.44820000  0.99580000  1.0 -0.0883714385
C  C49  1  0.25250000  0.40670000  0.03950000  1.0 -0.1238656302
C  C50  1  0.22910000  0.41350000  0.08670000  1.0 -0.0883714385
C  C51  1  0.21440000  0.46080000  0.08940000  1.0 -0.0258556212
C  C52  1  0.51374000  0.40990000  0.26138000  1.0 0.5868100388
C  C53  1  0.52155000  0.35581000  0.28341000  1.0 0.0037292871
C  C54  1  0.52800000  0.32866000  0.25814000  1.0 -0.1890846814
C  C55  1  0.53990000  0.24910000  0.25450000  1.0 -0.0996139477
C  C56  1  0.58580000  0.23320000  0.22020000  1.0 0.0379950305
C  C57  1  0.62730000  0.24010000  0.21550000  1.0 -0.0597153902
C  C58  1  0.67600000  0.22440000  0.18080000  1.0 -0.0996139477
C  C59  1  0.68120000  0.20080000  0.15000000  1.0 -0.1359059686
C  C60  1  0.63930000  0.19410000  0.15450000  1.0 -0.1083791947
C  C61  1  0.59090000  0.20970000  0.18970000  1.0 0.0658689809
C  C62  1  0.54750000  0.20410000  0.19630000  1.0 -0.05395077
C  C63  1  0.50190000  0.22030000  0.23110000  1.0 0.0148626858
C  C64  1  0.49640000  0.24360000  0.26160000  1.0 0.081027655
C  C65  1  0.44820000  0.25940000  0.29660000  1.0 -0.0883714385
C  C66  1  0.40670000  0.25250000  0.30130000  1.0 -0.1238656302
C  C67  1  0.41350000  0.22910000  0.27070000  1.0 -0.084481618
C  C68  1  0.46080000  0.21440000  0.23540000  1.0 -0.0258556212
C  C69  1  0.40990000  0.81498000  0.26138000  1.0 0.5868100388
C  C70  1  0.35581000  0.83923000  0.28341000  1.0 0.0037292871
C  C71  1  0.32866000  0.88520000  0.25814000  1.0 -0.1890846814
C  C72  1  0.24910000  0.95650000  0.25450000  1.0 -0.0996139477
C  C73  1  0.23320000  0.96080000  0.22020000  1.0 0.0379950305
C  C74  1  0.24010000  0.91710000  0.21550000  1.0 -0.0597153902
C  C75  1  0.22440000  0.91880000  0.18080000  1.0 -0.0996139477
C  C76  1  0.20080000  0.96800000  0.15000000  1.0 -0.1359059686
C  C77  1  0.19410000  0.01210000  0.15450000  1.0 -0.1083791947
C  C78  1  0.20970000  0.00970000  0.18970000  1.0 0.0649654878
C  C79  1  0.20410000  0.05210000  0.19630000  1.0 -0.05395077
C  C80  1  0.22030000  0.04670000  0.23110000  1.0 0.0148626858
C  C81  1  0.24360000  0.99840000  0.26160000  1.0 0.081027655
C  C82  1  0.25940000  0.99580000  0.29660000  1.0 -0.0883714385
C  C83  1  0.25250000  0.03950000  0.30130000  1.0 -0.1238656302
C  C84  1  0.22910000  0.08670000  0.27070000  1.0 -0.084481618
C  C85  1  0.21440000  0.08940000  0.23540000  1.0 -0.0258556212
C  C86  1  0.51374000  0.26138000  0.81498000  1.0 0.5868100388
C  C87  1  0.52155000  0.28341000  0.83923000  1.0 0.0037292871
C  C88  1  0.52800000  0.25814000  0.88520000  1.0 -0.1890846814
C  C89  1  0.53990000  0.25450000  0.95650000  1.0 -0.0996139477
C  C90  1  0.58580000  0.22020000  0.96080000  1.0 0.0379950305
C  C91  1  0.62730000  0.21550000  0.91710000  1.0 -0.0597153902
C  C92  1  0.67600000  0.18080000  0.91880000  1.0 -0.0883714385
C  C93  1  0.68120000  0.15000000  0.96800000  1.0 -0.1359059686
C  C94  1  0.63930000  0.15450000  0.01210000  1.0 -0.1083791947
C  C95  1  0.59090000  0.18970000  0.00970000  1.0 0.0658689809
C  C96  1  0.54750000  0.19630000  0.05210000  1.0 -0.05395077
C  C97  1  0.50190000  0.23110000  0.04670000  1.0 0.0148626858
C  C98  1  0.49640000  0.26160000  0.99840000  1.0 0.081027655
C  C99  1  0.44820000  0.29660000  0.99580000  1.0 -0.0883714385
C  C100  1  0.40670000  0.30130000  0.03950000  1.0 -0.1238656302
C  C101  1  0.41350000  0.27070000  0.08670000  1.0 -0.0883714385
C  C102  1  0.46080000  0.23540000  0.08940000  1.0 -0.0258556212
C  C103  1  0.81498000  0.40990000  0.51374000  1.0 0.5868100388
C  C104  1  0.83923000  0.35581000  0.52155000  1.0 0.0037292871
C  C105  1  0.88520000  0.32866000  0.52800000  1.0 -0.1890846814
C  C106  1  0.95650000  0.24910000  0.53990000  1.0 -0.0996139477
C  C107  1  0.96080000  0.23320000  0.58580000  1.0 0.0379950305
C  C108  1  0.91710000  0.24010000  0.62730000  1.0 -0.0597153902
C  C109  1  0.91880000  0.22440000  0.67600000  1.0 -0.0996139477
C  C110  1  0.96800000  0.20080000  0.68120000  1.0 -0.1359059686
C  C111  1  0.01210000  0.19410000  0.63930000  1.0 -0.1083791947
C  C112  1  0.00970000  0.20970000  0.59090000  1.0 0.0649654878
C  C113  1  0.05210000  0.20410000  0.54750000  1.0 -0.05395077
C  C114  1  0.04670000  0.22030000  0.50190000  1.0 0.0148626858
C  C115  1  0.99840000  0.24360000  0.49640000  1.0 0.081027655
C  C116  1  0.99580000  0.25940000  0.44820000  1.0 -0.0883714385
C  C117  1  0.03950000  0.25250000  0.40670000  1.0 -0.1238656302
C  C118  1  0.08670000  0.22910000  0.41350000  1.0 -0.0883714385
C  C119  1  0.08940000  0.21440000  0.46080000  1.0 -0.0258556212
C  C120  1  0.26138000  0.51374000  0.40990000  1.0 0.5868100388
C  C121  1  0.28341000  0.52155000  0.35581000  1.0 0.0037292871
C  C122  1  0.25814000  0.52800000  0.32866000  1.0 -0.1890846814
C  C123  1  0.25450000  0.53990000  0.24910000  1.0 -0.0996139477
C  C124  1  0.22020000  0.58580000  0.23320000  1.0 0.0379950305
C  C125  1  0.21550000  0.62730000  0.24010000  1.0 -0.0597153902
C  C126  1  0.18080000  0.67600000  0.22440000  1.0 -0.0996139477
C  C127  1  0.15000000  0.68120000  0.20080000  1.0 -0.1359059686
C  C128  1  0.15450000  0.63930000  0.19410000  1.0 -0.1083791947
C  C129  1  0.18970000  0.59090000  0.20970000  1.0 0.0658689809
C  C130  1  0.19630000  0.54750000  0.20410000  1.0 -0.05395077
C  C131  1  0.23110000  0.50190000  0.22030000  1.0 0.0148626858
C  C132  1  0.26160000  0.49640000  0.24360000  1.0 0.081027655
C  C133  1  0.29660000  0.44820000  0.25940000  1.0 -0.0883714385
C  C134  1  0.30130000  0.40670000  0.25250000  1.0 -0.1238656302
C  C135  1  0.27070000  0.41350000  0.22910000  1.0 -0.0883714385
C  C136  1  0.23540000  0.46080000  0.21440000  1.0 -0.0258556212
C  C137  1  0.26138000  0.40990000  0.81498000  1.0 0.5868100388
C  C138  1  0.28341000  0.35581000  0.83923000  1.0 0.0037292871
C  C139  1  0.25814000  0.32866000  0.88520000  1.0 -0.1890846814
C  C140  1  0.25450000  0.24910000  0.95650000  1.0 -0.0996139477
C  C141  1  0.22020000  0.23320000  0.96080000  1.0 0.0379950305
C  C142  1  0.21550000  0.24010000  0.91710000  1.0 -0.0597153902
C  C143  1  0.18080000  0.22440000  0.91880000  1.0 -0.0883714385
C  C144  1  0.15000000  0.20080000  0.96800000  1.0 -0.1359059686
C  C145  1  0.15450000  0.19410000  0.01210000  1.0 -0.1083791947
C  C146  1  0.18970000  0.20970000  0.00970000  1.0 0.0658689809
C  C147  1  0.19630000  0.20410000  0.05210000  1.0 -0.05395077
C  C148  1  0.23110000  0.22030000  0.04670000  1.0 0.0148626858
C  C149  1  0.26160000  0.24360000  0.99840000  1.0 0.081027655
C  C150  1  0.29660000  0.25940000  0.99580000  1.0 -0.0883714385
C  C151  1  0.30130000  0.25250000  0.03950000  1.0 -0.1238656302
C  C152  1  0.27070000  0.22910000  0.08670000  1.0 -0.0883714385
C  C153  1  0.23540000  0.21440000  0.08940000  1.0 -0.0258556212
C  C154  1  0.81498000  0.51374000  0.26138000  1.0 0.5868100388
C  C155  1  0.83923000  0.52155000  0.28341000  1.0 0.0037292871
C  C156  1  0.88520000  0.52800000  0.25814000  1.0 -0.1890846814
C  C157  1  0.95650000  0.53990000  0.25450000  1.0 -0.0996139477
C  C158  1  0.96080000  0.58580000  0.22020000  1.0 0.0379950305
C  C159  1  0.91710000  0.62730000  0.21550000  1.0 -0.0597153902
C  C160  1  0.91880000  0.67600000  0.18080000  1.0 -0.0996139477
C  C161  1  0.96800000  0.68120000  0.15000000  1.0 -0.1359059686
C  C162  1  0.01210000  0.63930000  0.15450000  1.0 -0.1083791947
C  C163  1  0.00970000  0.59090000  0.18970000  1.0 0.0649654878
C  C164  1  0.05210000  0.54750000  0.19630000  1.0 -0.05395077
C  C165  1  0.04670000  0.50190000  0.23110000  1.0 0.0148626858
C  C166  1  0.99840000  0.49640000  0.26160000  1.0 0.081027655
C  C167  1  0.99580000  0.44820000  0.29660000  1.0 -0.0883714385
C  C168  1  0.03950000  0.40670000  0.30130000  1.0 -0.1238656302
C  C169  1  0.08670000  0.41350000  0.27070000  1.0 -0.0883714385
C  C170  1  0.08940000  0.46080000  0.23540000  1.0 -0.0258556212
C  C171  1  0.51374000  0.81498000  0.40990000  1.0 0.5868100388
C  C172  1  0.52155000  0.83923000  0.35581000  1.0 0.0037292871
C  C173  1  0.52800000  0.88520000  0.32866000  1.0 -0.1890846814
C  C174  1  0.53990000  0.95650000  0.24910000  1.0 -0.0996139477
C  C175  1  0.58580000  0.96080000  0.23320000  1.0 0.0379950305
C  C176  1  0.62730000  0.91710000  0.24010000  1.0 -0.0597153902
C  C177  1  0.67600000  0.91880000  0.22440000  1.0 -0.0996139477
C  C178  1  0.68120000  0.96800000  0.20080000  1.0 -0.1359059686
C  C179  1  0.63930000  0.01210000  0.19410000  1.0 -0.1083791947
C  C180  1  0.59090000  0.00970000  0.20970000  1.0 0.0658689809
C  C181  1  0.54750000  0.05210000  0.20410000  1.0 -0.05395077
C  C182  1  0.50190000  0.04670000  0.22030000  1.0 0.0148626858
C  C183  1  0.49640000  0.99840000  0.24360000  1.0 0.081027655
C  C184  1  0.44820000  0.99580000  0.25940000  1.0 -0.0883714385
C  C185  1  0.40670000  0.03950000  0.25250000  1.0 -0.1238656302
C  C186  1  0.41350000  0.08670000  0.22910000  1.0 -0.0883714385
C  C187  1  0.46080000  0.08940000  0.21440000  1.0 -0.0258556212
C  C188  1  0.40990000  0.26138000  0.51374000  1.0 0.5868100388
C  C189  1  0.35581000  0.28341000  0.52155000  1.0 0.0037292871
C  C190  1  0.32866000  0.25814000  0.52800000  1.0 -0.1890846814
C  C191  1  0.24910000  0.25450000  0.53990000  1.0 -0.0996139477
C  C192  1  0.23320000  0.22020000  0.58580000  1.0 0.0379950305
C  C193  1  0.24010000  0.21550000  0.62730000  1.0 -0.0597153902
C  C194  1  0.22440000  0.18080000  0.67600000  1.0 -0.0883714385
C  C195  1  0.20080000  0.15000000  0.68120000  1.0 -0.1359059686
C  C196  1  0.19410000  0.15450000  0.63930000  1.0 -0.1083791947
C  C197  1  0.20970000  0.18970000  0.59090000  1.0 0.0658689809
C  C198  1  0.20410000  0.19630000  0.54750000  1.0 -0.05395077
C  C199  1  0.22030000  0.23110000  0.50190000  1.0 0.015330003
C  C200  1  0.24360000  0.26160000  0.49640000  1.0 0.081027655
C  C201  1  0.25940000  0.29660000  0.44820000  1.0 -0.0883714385
C  C202  1  0.25250000  0.30130000  0.40670000  1.0 -0.1238656302
C  C203  1  0.22910000  0.27070000  0.41350000  1.0 -0.0883714385
C  C204  1  0.21440000  0.23540000  0.46080000  1.0 -0.0258556212
C  C205  1  0.18502000  0.73862000  0.48626000  1.0 0.5868100388
C  C206  1  0.16077000  0.71659000  0.47845000  1.0 0.0037292871
C  C207  1  0.11480000  0.74186000  0.47200000  1.0 -0.1890846814
C  C208  1  0.04350000  0.74550000  0.46010000  1.0 -0.0996139477
C  C209  1  0.03920000  0.77980000  0.41420000  1.0 0.0379950305
C  C210  1  0.08290000  0.78450000  0.37270000  1.0 -0.0597153902
C  C211  1  0.08120000  0.81920000  0.32400000  1.0 -0.0996139477
C  C212  1  0.03200000  0.85000000  0.31880000  1.0 -0.1359059686
C  C213  1  0.98790000  0.84550000  0.36070000  1.0 -0.1083791947
C  C214  1  0.99030000  0.81030000  0.40910000  1.0 0.0658689809
C  C215  1  0.94790000  0.80370000  0.45250000  1.0 -0.05395077
C  C216  1  0.95330000  0.76890000  0.49810000  1.0 0.015330003
C  C217  1  0.00160000  0.73840000  0.50360000  1.0 0.081027655
C  C218  1  0.00420000  0.70340000  0.55180000  1.0 -0.0883714385
C  C219  1  0.96050000  0.69870000  0.59330000  1.0 -0.1238656302
C  C220  1  0.91330000  0.72930000  0.58650000  1.0 -0.0883714385
C  C221  1  0.91060000  0.76460000  0.53920000  1.0 -0.0243172018
C  C222  1  0.73862000  0.18502000  0.59010000  1.0 0.5868100388
C  C223  1  0.71659000  0.16077000  0.64419000  1.0 0.0037292871
C  C224  1  0.74186000  0.11480000  0.67134000  1.0 -0.1890846814
C  C225  1  0.74550000  0.04350000  0.75090000  1.0 -0.0996139477
C  C226  1  0.77980000  0.03920000  0.76680000  1.0 0.0379950305
C  C227  1  0.78450000  0.08290000  0.75990000  1.0 -0.0597153902
C  C228  1  0.81920000  0.08120000  0.77560000  1.0 -0.0996139477
C  C229  1  0.85000000  0.03200000  0.79920000  1.0 -0.1340708403
C  C230  1  0.84550000  0.98790000  0.80590000  1.0 -0.1083791947
C  C231  1  0.81030000  0.99030000  0.79030000  1.0 0.0658689809
C  C232  1  0.80370000  0.94790000  0.79590000  1.0 -0.05395077
C  C233  1  0.76890000  0.95330000  0.77970000  1.0 0.015330003
C  C234  1  0.73840000  0.00160000  0.75640000  1.0 0.081027655
C  C235  1  0.70340000  0.00420000  0.74060000  1.0 -0.0883714385
C  C236  1  0.69870000  0.96050000  0.74750000  1.0 -0.1238656302
C  C237  1  0.72930000  0.91330000  0.77090000  1.0 -0.0883714385
C  C238  1  0.76460000  0.91060000  0.78560000  1.0 -0.0243172018
C  C239  1  0.59010000  0.48626000  0.73862000  1.0 0.5868100388
C  C240  1  0.64419000  0.47845000  0.71659000  1.0 0.0037292871
C  C241  1  0.67134000  0.47200000  0.74186000  1.0 -0.1890846814
C  C242  1  0.75090000  0.46010000  0.74550000  1.0 -0.0996139477
C  C243  1  0.76680000  0.41420000  0.77980000  1.0 0.0379950305
C  C244  1  0.75990000  0.37270000  0.78450000  1.0 -0.0597153902
C  C245  1  0.77560000  0.32400000  0.81920000  1.0 -0.0883714385
C  C246  1  0.79920000  0.31880000  0.85000000  1.0 -0.1340708403
C  C247  1  0.80590000  0.36070000  0.84550000  1.0 -0.1083791947
C  C248  1  0.79030000  0.40910000  0.81030000  1.0 0.0658689809
C  C249  1  0.79590000  0.45250000  0.80370000  1.0 -0.05395077
C  C250  1  0.77970000  0.49810000  0.76890000  1.0 0.015330003
C  C251  1  0.75640000  0.50360000  0.73840000  1.0 0.081027655
C  C252  1  0.74060000  0.55180000  0.70340000  1.0 -0.0883714385
C  C253  1  0.74750000  0.59330000  0.69870000  1.0 -0.1238656302
C  C254  1  0.77090000  0.58650000  0.72930000  1.0 -0.0883714385
C  C255  1  0.78560000  0.53920000  0.76460000  1.0 -0.0243172018
C  C256  1  0.48626000  0.59010000  0.18502000  1.0 0.5868100388
C  C257  1  0.47845000  0.64419000  0.16077000  1.0 0.0037292871
C  C258  1  0.47200000  0.67134000  0.11480000  1.0 -0.1890846814
C  C259  1  0.46010000  0.75090000  0.04350000  1.0 -0.0996139477
C  C260  1  0.41420000  0.76680000  0.03920000  1.0 0.0379950305
C  C261  1  0.37270000  0.75990000  0.08290000  1.0 -0.0597153902
C  C262  1  0.32400000  0.77560000  0.08120000  1.0 -0.0996139477
C  C263  1  0.31880000  0.79920000  0.03200000  1.0 -0.1340708403
C  C264  1  0.36070000  0.80590000  0.98790000  1.0 -0.1083791947
C  C265  1  0.40910000  0.79030000  0.99030000  1.0 0.0649654878
C  C266  1  0.45250000  0.79590000  0.94790000  1.0 -0.05395077
C  C267  1  0.49810000  0.77970000  0.95330000  1.0 0.015330003
C  C268  1  0.50360000  0.75640000  0.00160000  1.0 0.081027655
C  C269  1  0.55180000  0.74060000  0.00420000  1.0 -0.0883714385
C  C270  1  0.59330000  0.74750000  0.96050000  1.0 -0.1238656302
C  C271  1  0.58650000  0.77090000  0.91330000  1.0 -0.0883714385
C  C272  1  0.53920000  0.78560000  0.91060000  1.0 -0.0243172018
C  C273  1  0.59010000  0.18502000  0.48626000  1.0 0.5868100388
C  C274  1  0.64419000  0.16077000  0.47845000  1.0 0.0037292871
C  C275  1  0.67134000  0.11480000  0.47200000  1.0 -0.1890846814
C  C276  1  0.75090000  0.04350000  0.46010000  1.0 -0.0996139477
C  C277  1  0.76680000  0.03920000  0.41420000  1.0 0.0379950305
C  C278  1  0.75990000  0.08290000  0.37270000  1.0 -0.0597153902
C  C279  1  0.77560000  0.08120000  0.32400000  1.0 -0.0996139477
C  C280  1  0.79920000  0.03200000  0.31880000  1.0 -0.1359059686
C  C281  1  0.80590000  0.98790000  0.36070000  1.0 -0.1083791947
C  C282  1  0.79030000  0.99030000  0.40910000  1.0 0.0658689809
C  C283  1  0.79590000  0.94790000  0.45250000  1.0 -0.05395077
C  C284  1  0.77970000  0.95330000  0.49810000  1.0 0.0148626858
C  C285  1  0.75640000  0.00160000  0.50360000  1.0 0.081027655
C  C286  1  0.74060000  0.00420000  0.55180000  1.0 -0.0883714385
C  C287  1  0.74750000  0.96050000  0.59330000  1.0 -0.1238656302
C  C288  1  0.77090000  0.91330000  0.58650000  1.0 -0.0883714385
C  C289  1  0.78560000  0.91060000  0.53920000  1.0 -0.0243172018
C  C290  1  0.48626000  0.73862000  0.59010000  1.0 0.5868100388
C  C291  1  0.47845000  0.71659000  0.64419000  1.0 0.0037292871
C  C292  1  0.47200000  0.74186000  0.67134000  1.0 -0.1890846814
C  C293  1  0.46010000  0.74550000  0.75090000  1.0 -0.0996139477
C  C294  1  0.41420000  0.77980000  0.76680000  1.0 0.0379950305
C  C295  1  0.37270000  0.78450000  0.75990000  1.0 -0.0597153902
C  C296  1  0.32400000  0.81920000  0.77560000  1.0 -0.0996139477
C  C297  1  0.31880000  0.85000000  0.79920000  1.0 -0.1359059686
C  C298  1  0.36070000  0.84550000  0.80590000  1.0 -0.1083791947
C  C299  1  0.40910000  0.81030000  0.79030000  1.0 0.0658689809
C  C300  1  0.45250000  0.80370000  0.79590000  1.0 -0.05395077
C  C301  1  0.49810000  0.76890000  0.77970000  1.0 0.015330003
C  C302  1  0.50360000  0.73840000  0.75640000  1.0 0.081027655
C  C303  1  0.55180000  0.70340000  0.74060000  1.0 -0.0883714385
C  C304  1  0.59330000  0.69870000  0.74750000  1.0 -0.1238656302
C  C305  1  0.58650000  0.72930000  0.77090000  1.0 -0.084481618
C  C306  1  0.53920000  0.76460000  0.78560000  1.0 -0.0258556212
C  C307  1  0.18502000  0.59010000  0.73862000  1.0 0.5868100388
C  C308  1  0.16077000  0.64419000  0.71659000  1.0 0.0037292871
C  C309  1  0.11480000  0.67134000  0.74186000  1.0 -0.1890846814
C  C310  1  0.04350000  0.75090000  0.74550000  1.0 -0.0996139477
C  C311  1  0.03920000  0.76680000  0.77980000  1.0 0.0379950305
C  C312  1  0.08290000  0.75990000  0.78450000  1.0 -0.0597153902
C  C313  1  0.08120000  0.77560000  0.81920000  1.0 -0.0996139477
C  C314  1  0.03200000  0.79920000  0.85000000  1.0 -0.1340708403
C  C315  1  0.98790000  0.80590000  0.84550000  1.0 -0.1083791947
C  C316  1  0.99030000  0.79030000  0.81030000  1.0 0.0658689809
C  C317  1  0.94790000  0.79590000  0.80370000  1.0 -0.05395077
C  C318  1  0.95330000  0.77970000  0.76890000  1.0 0.015330003
C  C319  1  0.00160000  0.75640000  0.73840000  1.0 0.081027655
C  C320  1  0.00420000  0.74060000  0.70340000  1.0 -0.0883714385
C  C321  1  0.96050000  0.74750000  0.69870000  1.0 -0.1238656302
C  C322  1  0.91330000  0.77090000  0.72930000  1.0 -0.0883714385
C  C323  1  0.91060000  0.78560000  0.76460000  1.0 -0.0243172018
C  C324  1  0.73862000  0.48626000  0.18502000  1.0 0.5868100388
C  C325  1  0.71659000  0.47845000  0.16077000  1.0 0.0037292871
C  C326  1  0.74186000  0.47200000  0.11480000  1.0 -0.1890846814
C  C327  1  0.74550000  0.46010000  0.04350000  1.0 -0.0996139477
C  C328  1  0.77980000  0.41420000  0.03920000  1.0 0.0379950305
C  C329  1  0.78450000  0.37270000  0.08290000  1.0 -0.0597153902
C  C330  1  0.81920000  0.32400000  0.08120000  1.0 -0.0883714385
C  C331  1  0.85000000  0.31880000  0.03200000  1.0 -0.1359059686
C  C332  1  0.84550000  0.36070000  0.98790000  1.0 -0.1083791947
C  C333  1  0.81030000  0.40910000  0.99030000  1.0 0.0649654878
C  C334  1  0.80370000  0.45250000  0.94790000  1.0 -0.05395077
C  C335  1  0.76890000  0.49810000  0.95330000  1.0 0.015330003
C  C336  1  0.73840000  0.50360000  0.00160000  1.0 0.081027655
C  C337  1  0.70340000  0.55180000  0.00420000  1.0 -0.0883714385
C  C338  1  0.69870000  0.59330000  0.96050000  1.0 -0.1238656302
C  C339  1  0.72930000  0.58650000  0.91330000  1.0 -0.0883714385
C  C340  1  0.76460000  0.53920000  0.91060000  1.0 -0.0258556212
C  C341  1  0.73862000  0.59010000  0.48626000  1.0 0.5868100388
C  C342  1  0.71659000  0.64419000  0.47845000  1.0 0.0037292871
C  C343  1  0.74186000  0.67134000  0.47200000  1.0 -0.1890846814
C  C344  1  0.74550000  0.75090000  0.46010000  1.0 -0.0996139477
C  C345  1  0.77980000  0.76680000  0.41420000  1.0 0.0379950305
C  C346  1  0.78450000  0.75990000  0.37270000  1.0 -0.0597153902
C  C347  1  0.81920000  0.77560000  0.32400000  1.0 -0.0996139477
C  C348  1  0.85000000  0.79920000  0.31880000  1.0 -0.1359059686
C  C349  1  0.84550000  0.80590000  0.36070000  1.0 -0.1083791947
C  C350  1  0.81030000  0.79030000  0.40910000  1.0 0.0658689809
C  C351  1  0.80370000  0.79590000  0.45250000  1.0 -0.05395077
C  C352  1  0.76890000  0.77970000  0.49810000  1.0 0.015330003
C  C353  1  0.73840000  0.75640000  0.50360000  1.0 0.081027655
C  C354  1  0.70340000  0.74060000  0.55180000  1.0 -0.0883714385
C  C355  1  0.69870000  0.74750000  0.59330000  1.0 -0.1238656302
C  C356  1  0.72930000  0.77090000  0.58650000  1.0 -0.0883714385
C  C357  1  0.76460000  0.78560000  0.53920000  1.0 -0.0243172018
C  C358  1  0.18502000  0.48626000  0.59010000  1.0 0.5868100388
C  C359  1  0.16077000  0.47845000  0.64419000  1.0 0.0037292871
C  C360  1  0.11480000  0.47200000  0.67134000  1.0 -0.1890846814
C  C361  1  0.04350000  0.46010000  0.75090000  1.0 -0.0996139477
C  C362  1  0.03920000  0.41420000  0.76680000  1.0 0.0379950305
C  C363  1  0.08290000  0.37270000  0.75990000  1.0 -0.0597153902
C  C364  1  0.08120000  0.32400000  0.77560000  1.0 -0.0996139477
C  C365  1  0.03200000  0.31880000  0.79920000  1.0 -0.1359059686
C  C366  1  0.98790000  0.36070000  0.80590000  1.0 -0.1083791947
C  C367  1  0.99030000  0.40910000  0.79030000  1.0 0.0658689809
C  C368  1  0.94790000  0.45250000  0.79590000  1.0 -0.05395077
C  C369  1  0.95330000  0.49810000  0.77970000  1.0 0.015330003
C  C370  1  0.00160000  0.50360000  0.75640000  1.0 0.081027655
C  C371  1  0.00420000  0.55180000  0.74060000  1.0 -0.0883714385
C  C372  1  0.96050000  0.59330000  0.74750000  1.0 -0.1238656302
C  C373  1  0.91330000  0.58650000  0.77090000  1.0 -0.0883714385
C  C374  1  0.91060000  0.53920000  0.78560000  1.0 -0.0243172018
C  C375  1  0.48626000  0.18502000  0.73862000  1.0 0.5868100388
C  C376  1  0.47845000  0.16077000  0.71659000  1.0 0.0037292871
C  C377  1  0.47200000  0.11480000  0.74186000  1.0 -0.1890846814
C  C378  1  0.46010000  0.04350000  0.74550000  1.0 -0.0996139477
C  C379  1  0.41420000  0.03920000  0.77980000  1.0 0.0379950305
C  C380  1  0.37270000  0.08290000  0.78450000  1.0 -0.0597153902
C  C381  1  0.32400000  0.08120000  0.81920000  1.0 -0.0883714385
C  C382  1  0.31880000  0.03200000  0.85000000  1.0 -0.1340708403
C  C383  1  0.36070000  0.98790000  0.84550000  1.0 -0.1083791947
C  C384  1  0.40910000  0.99030000  0.81030000  1.0 0.0658689809
C  C385  1  0.45250000  0.94790000  0.80370000  1.0 -0.05395077
C  C386  1  0.49810000  0.95330000  0.76890000  1.0 0.015330003
C  C387  1  0.50360000  0.00160000  0.73840000  1.0 0.081027655
C  C388  1  0.55180000  0.00420000  0.70340000  1.0 -0.0883714385
C  C389  1  0.59330000  0.96050000  0.69870000  1.0 -0.1238656302
C  C390  1  0.58650000  0.91330000  0.72930000  1.0 -0.0883714385
C  C391  1  0.53920000  0.91060000  0.76460000  1.0 -0.0243172018
C  C392  1  0.59010000  0.73862000  0.18502000  1.0 0.5868100388
C  C393  1  0.64419000  0.71659000  0.16077000  1.0 0.0037292871
C  C394  1  0.67134000  0.74186000  0.11480000  1.0 -0.1890846814
C  C395  1  0.75090000  0.74550000  0.04350000  1.0 -0.0996139477
C  C396  1  0.76680000  0.77980000  0.03920000  1.0 0.0379950305
C  C397  1  0.75990000  0.78450000  0.08290000  1.0 -0.0597153902
C  C398  1  0.77560000  0.81920000  0.08120000  1.0 -0.0996139477
C  C399  1  0.79920000  0.85000000  0.03200000  1.0 -0.1340708403
C  C400  1  0.80590000  0.84550000  0.98790000  1.0 -0.1083791947
C  C401  1  0.79030000  0.81030000  0.99030000  1.0 0.0658689809
C  C402  1  0.79590000  0.80370000  0.94790000  1.0 -0.05395077
C  C403  1  0.77970000  0.76890000  0.95330000  1.0 0.015330003
C  C404  1  0.75640000  0.73840000  0.00160000  1.0 0.081027655
C  C405  1  0.74060000  0.70340000  0.00420000  1.0 -0.0883714385
C  C406  1  0.74750000  0.69870000  0.96050000  1.0 -0.1238656302
C  C407  1  0.77090000  0.72930000  0.91330000  1.0 -0.0883714385
C  C408  1  0.78560000  0.76460000  0.91060000  1.0 -0.0243172018
C  C409  1  0.18502000  0.73862000  0.59010000  1.0 0.5868100388
C  C410  1  0.16077000  0.71659000  0.64419000  1.0 0.0037292871
C  C411  1  0.11480000  0.74186000  0.67134000  1.0 -0.1890846814
C  C412  1  0.04350000  0.74550000  0.75090000  1.0 -0.0996139477
C  C413  1  0.03920000  0.77980000  0.76680000  1.0 0.0379950305
C  C414  1  0.08290000  0.78450000  0.75990000  1.0 -0.0597153902
C  C415  1  0.08120000  0.81920000  0.77560000  1.0 -0.0996139477
C  C416  1  0.03200000  0.85000000  0.79920000  1.0 -0.1359059686
C  C417  1  0.98790000  0.84550000  0.80590000  1.0 -0.1083791947
C  C418  1  0.99030000  0.81030000  0.79030000  1.0 0.0658689809
C  C419  1  0.94790000  0.80370000  0.79590000  1.0 -0.05395077
C  C420  1  0.95330000  0.76890000  0.77970000  1.0 0.015330003
C  C421  1  0.00160000  0.73840000  0.75640000  1.0 0.081027655
C  C422  1  0.00420000  0.70340000  0.74060000  1.0 -0.0883714385
C  C423  1  0.96050000  0.69870000  0.74750000  1.0 -0.1238656302
C  C424  1  0.91330000  0.72930000  0.77090000  1.0 -0.0883714385
C  C425  1  0.91060000  0.76460000  0.78560000  1.0 -0.0243172018
C  C426  1  0.73862000  0.18502000  0.48626000  1.0 0.5868100388
C  C427  1  0.71659000  0.16077000  0.47845000  1.0 0.0037292871
C  C428  1  0.74186000  0.11480000  0.47200000  1.0 -0.1890846814
C  C429  1  0.74550000  0.04350000  0.46010000  1.0 -0.0996139477
C  C430  1  0.77980000  0.03920000  0.41420000  1.0 0.0379950305
C  C431  1  0.78450000  0.08290000  0.37270000  1.0 -0.0597153902
C  C432  1  0.81920000  0.08120000  0.32400000  1.0 -0.0996139477
C  C433  1  0.85000000  0.03200000  0.31880000  1.0 -0.1359059686
C  C434  1  0.84550000  0.98790000  0.36070000  1.0 -0.1083791947
C  C435  1  0.81030000  0.99030000  0.40910000  1.0 0.0658689809
C  C436  1  0.80370000  0.94790000  0.45250000  1.0 -0.05395077
C  C437  1  0.76890000  0.95330000  0.49810000  1.0 0.0148626858
C  C438  1  0.73840000  0.00160000  0.50360000  1.0 0.081027655
C  C439  1  0.70340000  0.00420000  0.55180000  1.0 -0.0883714385
C  C440  1  0.69870000  0.96050000  0.59330000  1.0 -0.1238656302
C  C441  1  0.72930000  0.91330000  0.58650000  1.0 -0.0883714385
C  C442  1  0.76460000  0.91060000  0.53920000  1.0 -0.0243172018
C  C443  1  0.59010000  0.48626000  0.18502000  1.0 0.5868100388
C  C444  1  0.64419000  0.47845000  0.16077000  1.0 0.0037292871
C  C445  1  0.67134000  0.47200000  0.11480000  1.0 -0.1890846814
C  C446  1  0.75090000  0.46010000  0.04350000  1.0 -0.0996139477
C  C447  1  0.76680000  0.41420000  0.03920000  1.0 0.0379950305
C  C448  1  0.75990000  0.37270000  0.08290000  1.0 -0.0597153902
C  C449  1  0.77560000  0.32400000  0.08120000  1.0 -0.0996139477
C  C450  1  0.79920000  0.31880000  0.03200000  1.0 -0.1359059686
C  C451  1  0.80590000  0.36070000  0.98790000  1.0 -0.1083791947
C  C452  1  0.79030000  0.40910000  0.99030000  1.0 0.0649654878
C  C453  1  0.79590000  0.45250000  0.94790000  1.0 -0.05395077
C  C454  1  0.77970000  0.49810000  0.95330000  1.0 0.015330003
C  C455  1  0.75640000  0.50360000  0.00160000  1.0 0.081027655
C  C456  1  0.74060000  0.55180000  0.00420000  1.0 -0.0883714385
C  C457  1  0.74750000  0.59330000  0.96050000  1.0 -0.1238656302
C  C458  1  0.77090000  0.58650000  0.91330000  1.0 -0.0883714385
C  C459  1  0.78560000  0.53920000  0.91060000  1.0 -0.0258556212
C  C460  1  0.48626000  0.59010000  0.73862000  1.0 0.5868100388
C  C461  1  0.47845000  0.64419000  0.71659000  1.0 0.0037292871
C  C462  1  0.47200000  0.67134000  0.74186000  1.0 -0.1890846814
C  C463  1  0.46010000  0.75090000  0.74550000  1.0 -0.0996139477
C  C464  1  0.41420000  0.76680000  0.77980000  1.0 0.0379950305
C  C465  1  0.37270000  0.75990000  0.78450000  1.0 -0.0597153902
C  C466  1  0.32400000  0.77560000  0.81920000  1.0 -0.0996139477
C  C467  1  0.31880000  0.79920000  0.85000000  1.0 -0.1340708403
C  C468  1  0.36070000  0.80590000  0.84550000  1.0 -0.1083791947
C  C469  1  0.40910000  0.79030000  0.81030000  1.0 0.0658689809
C  C470  1  0.45250000  0.79590000  0.80370000  1.0 -0.05395077
C  C471  1  0.49810000  0.77970000  0.76890000  1.0 0.015330003
C  C472  1  0.50360000  0.75640000  0.73840000  1.0 0.081027655
C  C473  1  0.55180000  0.74060000  0.70340000  1.0 -0.0883714385
C  C474  1  0.59330000  0.74750000  0.69870000  1.0 -0.1238656302
C  C475  1  0.58650000  0.77090000  0.72930000  1.0 -0.0883714385
C  C476  1  0.53920000  0.78560000  0.76460000  1.0 -0.0258556212
C  C477  1  0.59010000  0.18502000  0.73862000  1.0 0.5868100388
C  C478  1  0.64419000  0.16077000  0.71659000  1.0 0.0037292871
C  C479  1  0.67134000  0.11480000  0.74186000  1.0 -0.1890846814
C  C480  1  0.75090000  0.04350000  0.74550000  1.0 -0.0996139477
C  C481  1  0.76680000  0.03920000  0.77980000  1.0 0.0379950305
C  C482  1  0.75990000  0.08290000  0.78450000  1.0 -0.0597153902
C  C483  1  0.77560000  0.08120000  0.81920000  1.0 -0.0883714385
C  C484  1  0.79920000  0.03200000  0.85000000  1.0 -0.1359059686
C  C485  1  0.80590000  0.98790000  0.84550000  1.0 -0.1083791947
C  C486  1  0.79030000  0.99030000  0.81030000  1.0 0.0658689809
C  C487  1  0.79590000  0.94790000  0.80370000  1.0 -0.05395077
C  C488  1  0.77970000  0.95330000  0.76890000  1.0 0.015330003
C  C489  1  0.75640000  0.00160000  0.73840000  1.0 0.081027655
C  C490  1  0.74060000  0.00420000  0.70340000  1.0 -0.0883714385
C  C491  1  0.74750000  0.96050000  0.69870000  1.0 -0.1238656302
C  C492  1  0.77090000  0.91330000  0.72930000  1.0 -0.0883714385
C  C493  1  0.78560000  0.91060000  0.76460000  1.0 -0.0243172018
C  C494  1  0.48626000  0.73862000  0.18502000  1.0 0.5868100388
C  C495  1  0.47845000  0.71659000  0.16077000  1.0 0.0037292871
C  C496  1  0.47200000  0.74186000  0.11480000  1.0 -0.1890846814
C  C497  1  0.46010000  0.74550000  0.04350000  1.0 -0.0996139477
C  C498  1  0.41420000  0.77980000  0.03920000  1.0 0.0379950305
C  C499  1  0.37270000  0.78450000  0.08290000  1.0 -0.0597153902
C  C500  1  0.32400000  0.81920000  0.08120000  1.0 -0.0996139477
C  C501  1  0.31880000  0.85000000  0.03200000  1.0 -0.1359059686
C  C502  1  0.36070000  0.84550000  0.98790000  1.0 -0.1083791947
C  C503  1  0.40910000  0.81030000  0.99030000  1.0 0.0658689809
C  C504  1  0.45250000  0.80370000  0.94790000  1.0 -0.05395077
C  C505  1  0.49810000  0.76890000  0.95330000  1.0 0.015330003
C  C506  1  0.50360000  0.73840000  0.00160000  1.0 0.081027655
C  C507  1  0.55180000  0.70340000  0.00420000  1.0 -0.0883714385
C  C508  1  0.59330000  0.69870000  0.96050000  1.0 -0.1238656302
C  C509  1  0.58650000  0.72930000  0.91330000  1.0 -0.0883714385
C  C510  1  0.53920000  0.76460000  0.91060000  1.0 -0.0243172018
C  C511  1  0.18502000  0.59010000  0.48626000  1.0 0.5868100388
C  C512  1  0.16077000  0.64419000  0.47845000  1.0 0.0037292871
C  C513  1  0.11480000  0.67134000  0.47200000  1.0 -0.1890846814
C  C514  1  0.04350000  0.75090000  0.46010000  1.0 -0.0996139477
C  C515  1  0.03920000  0.76680000  0.41420000  1.0 0.0379950305
C  C516  1  0.08290000  0.75990000  0.37270000  1.0 -0.0597153902
C  C517  1  0.08120000  0.77560000  0.32400000  1.0 -0.0996139477
C  C518  1  0.03200000  0.79920000  0.31880000  1.0 -0.1359059686
C  C519  1  0.98790000  0.80590000  0.36070000  1.0 -0.1083791947
C  C520  1  0.99030000  0.79030000  0.40910000  1.0 0.0658689809
C  C521  1  0.94790000  0.79590000  0.45250000  1.0 -0.05395077
C  C522  1  0.95330000  0.77970000  0.49810000  1.0 0.015330003
C  C523  1  0.00160000  0.75640000  0.50360000  1.0 0.081027655
C  C524  1  0.00420000  0.74060000  0.55180000  1.0 -0.0883714385
C  C525  1  0.96050000  0.74750000  0.59330000  1.0 -0.1238656302
C  C526  1  0.91330000  0.77090000  0.58650000  1.0 -0.0883714385
C  C527  1  0.91060000  0.78560000  0.53920000  1.0 -0.0243172018
C  C528  1  0.73862000  0.48626000  0.59010000  1.0 0.5868100388
C  C529  1  0.71659000  0.47845000  0.64419000  1.0 0.0037292871
C  C530  1  0.74186000  0.47200000  0.67134000  1.0 -0.1890846814
C  C531  1  0.74550000  0.46010000  0.75090000  1.0 -0.0996139477
C  C532  1  0.77980000  0.41420000  0.76680000  1.0 0.0379950305
C  C533  1  0.78450000  0.37270000  0.75990000  1.0 -0.0597153902
C  C534  1  0.81920000  0.32400000  0.77560000  1.0 -0.0996139477
C  C535  1  0.85000000  0.31880000  0.79920000  1.0 -0.1359059686
C  C536  1  0.84550000  0.36070000  0.80590000  1.0 -0.1083791947
C  C537  1  0.81030000  0.40910000  0.79030000  1.0 0.0658689809
C  C538  1  0.80370000  0.45250000  0.79590000  1.0 -0.05395077
C  C539  1  0.76890000  0.49810000  0.77970000  1.0 0.015330003
C  C540  1  0.73840000  0.50360000  0.75640000  1.0 0.081027655
C  C541  1  0.70340000  0.55180000  0.74060000  1.0 -0.0883714385
C  C542  1  0.69870000  0.59330000  0.74750000  1.0 -0.1238656302
C  C543  1  0.72930000  0.58650000  0.77090000  1.0 -0.0883714385
C  C544  1  0.76460000  0.53920000  0.78560000  1.0 -0.0243172018
C  C545  1  0.73862000  0.59010000  0.18502000  1.0 0.5868100388
C  C546  1  0.71659000  0.64419000  0.16077000  1.0 0.0037292871
C  C547  1  0.74186000  0.67134000  0.11480000  1.0 -0.1890846814
C  C548  1  0.74550000  0.75090000  0.04350000  1.0 -0.0996139477
C  C549  1  0.77980000  0.76680000  0.03920000  1.0 0.0379950305
C  C550  1  0.78450000  0.75990000  0.08290000  1.0 -0.0597153902
C  C551  1  0.81920000  0.77560000  0.08120000  1.0 -0.0996139477
C  C552  1  0.85000000  0.79920000  0.03200000  1.0 -0.1340708403
C  C553  1  0.84550000  0.80590000  0.98790000  1.0 -0.1083791947
C  C554  1  0.81030000  0.79030000  0.99030000  1.0 0.0658689809
C  C555  1  0.80370000  0.79590000  0.94790000  1.0 -0.05395077
C  C556  1  0.76890000  0.77970000  0.95330000  1.0 0.015330003
C  C557  1  0.73840000  0.75640000  0.00160000  1.0 0.081027655
C  C558  1  0.70340000  0.74060000  0.00420000  1.0 -0.0883714385
C  C559  1  0.69870000  0.74750000  0.96050000  1.0 -0.1238656302
C  C560  1  0.72930000  0.77090000  0.91330000  1.0 -0.0883714385
C  C561  1  0.76460000  0.78560000  0.91060000  1.0 -0.0243172018
C  C562  1  0.18502000  0.48626000  0.73862000  1.0 0.5868100388
C  C563  1  0.16077000  0.47845000  0.71659000  1.0 0.0037292871
C  C564  1  0.11480000  0.47200000  0.74186000  1.0 -0.1890846814
C  C565  1  0.04350000  0.46010000  0.74550000  1.0 -0.0996139477
C  C566  1  0.03920000  0.41420000  0.77980000  1.0 0.0379950305
C  C567  1  0.08290000  0.37270000  0.78450000  1.0 -0.0597153902
C  C568  1  0.08120000  0.32400000  0.81920000  1.0 -0.0883714385
C  C569  1  0.03200000  0.31880000  0.85000000  1.0 -0.1359059686
C  C570  1  0.98790000  0.36070000  0.84550000  1.0 -0.1083791947
C  C571  1  0.99030000  0.40910000  0.81030000  1.0 0.0658689809
C  C572  1  0.94790000  0.45250000  0.80370000  1.0 -0.05395077
C  C573  1  0.95330000  0.49810000  0.76890000  1.0 0.015330003
C  C574  1  0.00160000  0.50360000  0.73840000  1.0 0.081027655
C  C575  1  0.00420000  0.55180000  0.70340000  1.0 -0.0883714385
C  C576  1  0.96050000  0.59330000  0.69870000  1.0 -0.1238656302
C  C577  1  0.91330000  0.58650000  0.72930000  1.0 -0.0883714385
C  C578  1  0.91060000  0.53920000  0.76460000  1.0 -0.0243172018
C  C579  1  0.48626000  0.18502000  0.59010000  1.0 0.5868100388
C  C580  1  0.47845000  0.16077000  0.64419000  1.0 0.0037292871
C  C581  1  0.47200000  0.11480000  0.67134000  1.0 -0.1890846814
C  C582  1  0.46010000  0.04350000  0.75090000  1.0 -0.0996139477
C  C583  1  0.41420000  0.03920000  0.76680000  1.0 0.0379950305
C  C584  1  0.37270000  0.08290000  0.75990000  1.0 -0.0597153902
C  C585  1  0.32400000  0.08120000  0.77560000  1.0 -0.0996139477
C  C586  1  0.31880000  0.03200000  0.79920000  1.0 -0.1359059686
C  C587  1  0.36070000  0.98790000  0.80590000  1.0 -0.1083791947
C  C588  1  0.40910000  0.99030000  0.79030000  1.0 0.0658689809
C  C589  1  0.45250000  0.94790000  0.79590000  1.0 -0.05395077
C  C590  1  0.49810000  0.95330000  0.77970000  1.0 0.015330003
C  C591  1  0.50360000  0.00160000  0.75640000  1.0 0.081027655
C  C592  1  0.55180000  0.00420000  0.74060000  1.0 -0.0883714385
C  C593  1  0.59330000  0.96050000  0.74750000  1.0 -0.1238656302
C  C594  1  0.58650000  0.91330000  0.77090000  1.0 -0.0883714385
C  C595  1  0.53920000  0.91060000  0.78560000  1.0 -0.0243172018
C  C596  1  0.59010000  0.73862000  0.48626000  1.0 0.5868100388
C  C597  1  0.64419000  0.71659000  0.47845000  1.0 0.0037292871
C  C598  1  0.67134000  0.74186000  0.47200000  1.0 -0.1890846814
C  C599  1  0.75090000  0.74550000  0.46010000  1.0 -0.0996139477
C  C600  1  0.76680000  0.77980000  0.41420000  1.0 0.0379950305
C  C601  1  0.75990000  0.78450000  0.37270000  1.0 -0.0597153902
C  C602  1  0.77560000  0.81920000  0.32400000  1.0 -0.0996139477
C  C603  1  0.79920000  0.85000000  0.31880000  1.0 -0.1359059686
C  C604  1  0.80590000  0.84550000  0.36070000  1.0 -0.1083791947
C  C605  1  0.79030000  0.81030000  0.40910000  1.0 0.0658689809
C  C606  1  0.79590000  0.80370000  0.45250000  1.0 -0.05395077
C  C607  1  0.77970000  0.76890000  0.49810000  1.0 0.015330003
C  C608  1  0.75640000  0.73840000  0.50360000  1.0 0.081027655
C  C609  1  0.74060000  0.70340000  0.55180000  1.0 -0.0883714385
C  C610  1  0.74750000  0.69870000  0.59330000  1.0 -0.1238656302
C  C611  1  0.77090000  0.72930000  0.58650000  1.0 -0.0883714385
C  C612  1  0.78560000  0.76460000  0.53920000  1.0 -0.0243172018
C  C613  1  0.81498000  0.26138000  0.51374000  1.0 0.5868100388
C  C614  1  0.83923000  0.28341000  0.52155000  1.0 0.0037292871
C  C615  1  0.88520000  0.25814000  0.52800000  1.0 -0.1890846814
C  C616  1  0.95650000  0.25450000  0.53990000  1.0 -0.0996139477
C  C617  1  0.96080000  0.22020000  0.58580000  1.0 0.0379950305
C  C618  1  0.91710000  0.21550000  0.62730000  1.0 -0.0597153902
C  C619  1  0.91880000  0.18080000  0.67600000  1.0 -0.0883714385
C  C620  1  0.96800000  0.15000000  0.68120000  1.0 -0.1359059686
C  C621  1  0.01210000  0.15450000  0.63930000  1.0 -0.1083791947
C  C622  1  0.00970000  0.18970000  0.59090000  1.0 0.0649654878
C  C623  1  0.05210000  0.19630000  0.54750000  1.0 -0.05395077
C  C624  1  0.04670000  0.23110000  0.50190000  1.0 0.015330003
C  C625  1  0.99840000  0.26160000  0.49640000  1.0 0.081027655
C  C626  1  0.99580000  0.29660000  0.44820000  1.0 -0.0883714385
C  C627  1  0.03950000  0.30130000  0.40670000  1.0 -0.1238656302
C  C628  1  0.08670000  0.27070000  0.41350000  1.0 -0.0883714385
C  C629  1  0.08940000  0.23540000  0.46080000  1.0 -0.0258556212
C  C630  1  0.26138000  0.81498000  0.40990000  1.0 0.5868100388
C  C631  1  0.28341000  0.83923000  0.35581000  1.0 0.0037292871
C  C632  1  0.25814000  0.88520000  0.32866000  1.0 -0.1890846814
C  C633  1  0.25450000  0.95650000  0.24910000  1.0 -0.0996139477
C  C634  1  0.22020000  0.96080000  0.23320000  1.0 0.0379950305
C  C635  1  0.21550000  0.91710000  0.24010000  1.0 -0.0597153902
C  C636  1  0.18080000  0.91880000  0.22440000  1.0 -0.0996139477
C  C637  1  0.15000000  0.96800000  0.20080000  1.0 -0.1359059686
C  C638  1  0.15450000  0.01210000  0.19410000  1.0 -0.1083791947
C  C639  1  0.18970000  0.00970000  0.20970000  1.0 0.0658689809
C  C640  1  0.19630000  0.05210000  0.20410000  1.0 -0.05395077
C  C641  1  0.23110000  0.04670000  0.22030000  1.0 0.0148626858
C  C642  1  0.26160000  0.99840000  0.24360000  1.0 0.081027655
C  C643  1  0.29660000  0.99580000  0.25940000  1.0 -0.0883714385
C  C644  1  0.30130000  0.03950000  0.25250000  1.0 -0.1238656302
C  C645  1  0.27070000  0.08670000  0.22910000  1.0 -0.0883714385
C  C646  1  0.23540000  0.08940000  0.21440000  1.0 -0.0258556212
C  C647  1  0.40990000  0.51374000  0.26138000  1.0 0.5868100388
C  C648  1  0.35581000  0.52155000  0.28341000  1.0 0.0037292871
C  C649  1  0.32866000  0.52800000  0.25814000  1.0 -0.1890846814
C  C650  1  0.24910000  0.53990000  0.25450000  1.0 -0.0996139477
C  C651  1  0.23320000  0.58580000  0.22020000  1.0 0.0379950305
C  C652  1  0.24010000  0.62730000  0.21550000  1.0 -0.0597153902
C  C653  1  0.22440000  0.67600000  0.18080000  1.0 -0.0883714385
C  C654  1  0.20080000  0.68120000  0.15000000  1.0 -0.1359059686
C  C655  1  0.19410000  0.63930000  0.15450000  1.0 -0.1083791947
C  C656  1  0.20970000  0.59090000  0.18970000  1.0 0.0658689809
C  C657  1  0.20410000  0.54750000  0.19630000  1.0 -0.05395077
C  C658  1  0.22030000  0.50190000  0.23110000  1.0 0.0148626858
C  C659  1  0.24360000  0.49640000  0.26160000  1.0 0.081027655
C  C660  1  0.25940000  0.44820000  0.29660000  1.0 -0.0883714385
C  C661  1  0.25250000  0.40670000  0.30130000  1.0 -0.1238656302
C  C662  1  0.22910000  0.41350000  0.27070000  1.0 -0.0883714385
C  C663  1  0.21440000  0.46080000  0.23540000  1.0 -0.0258556212
C  C664  1  0.51374000  0.40990000  0.81498000  1.0 0.5868100388
C  C665  1  0.52155000  0.35581000  0.83923000  1.0 0.0037292871
C  C666  1  0.52800000  0.32866000  0.88520000  1.0 -0.1890846814
C  C667  1  0.53990000  0.24910000  0.95650000  1.0 -0.0996139477
C  C668  1  0.58580000  0.23320000  0.96080000  1.0 0.0379950305
C  C669  1  0.62730000  0.24010000  0.91710000  1.0 -0.0597153902
C  C670  1  0.67600000  0.22440000  0.91880000  1.0 -0.0883714385
C  C671  1  0.68120000  0.20080000  0.96800000  1.0 -0.1359059686
C  C672  1  0.63930000  0.19410000  0.01210000  1.0 -0.1083791947
C  C673  1  0.59090000  0.20970000  0.00970000  1.0 0.0658689809
C  C674  1  0.54750000  0.20410000  0.05210000  1.0 -0.05395077
C  C675  1  0.50190000  0.22030000  0.04670000  1.0 0.0148626858
C  C676  1  0.49640000  0.24360000  0.99840000  1.0 0.081027655
C  C677  1  0.44820000  0.25940000  0.99580000  1.0 -0.0883714385
C  C678  1  0.40670000  0.25250000  0.03950000  1.0 -0.1238656302
C  C679  1  0.41350000  0.22910000  0.08670000  1.0 -0.0883714385
C  C680  1  0.46080000  0.21440000  0.08940000  1.0 -0.0258556212
C  C681  1  0.40990000  0.81498000  0.51374000  1.0 0.5868100388
C  C682  1  0.35581000  0.83923000  0.52155000  1.0 0.0037292871
C  C683  1  0.32866000  0.88520000  0.52800000  1.0 -0.1890846814
C  C684  1  0.24910000  0.95650000  0.53990000  1.0 -0.0996139477
C  C685  1  0.23320000  0.96080000  0.58580000  1.0 0.0379950305
C  C686  1  0.24010000  0.91710000  0.62730000  1.0 -0.0597153902
C  C687  1  0.22440000  0.91880000  0.67600000  1.0 -0.0996139477
C  C688  1  0.20080000  0.96800000  0.68120000  1.0 -0.1359059686
C  C689  1  0.19410000  0.01210000  0.63930000  1.0 -0.1083791947
C  C690  1  0.20970000  0.00970000  0.59090000  1.0 0.0658689809
C  C691  1  0.20410000  0.05210000  0.54750000  1.0 -0.05395077
C  C692  1  0.22030000  0.04670000  0.50190000  1.0 0.015330003
C  C693  1  0.24360000  0.99840000  0.49640000  1.0 0.081027655
C  C694  1  0.25940000  0.99580000  0.44820000  1.0 -0.0883714385
C  C695  1  0.25250000  0.03950000  0.40670000  1.0 -0.1238656302
C  C696  1  0.22910000  0.08670000  0.41350000  1.0 -0.0883714385
C  C697  1  0.21440000  0.08940000  0.46080000  1.0 -0.0258556212
C  C698  1  0.51374000  0.26138000  0.40990000  1.0 0.5868100388
C  C699  1  0.52155000  0.28341000  0.35581000  1.0 0.0037292871
C  C700  1  0.52800000  0.25814000  0.32866000  1.0 -0.1890846814
C  C701  1  0.53990000  0.25450000  0.24910000  1.0 -0.0996139477
C  C702  1  0.58580000  0.22020000  0.23320000  1.0 0.0379950305
C  C703  1  0.62730000  0.21550000  0.24010000  1.0 -0.0597153902
C  C704  1  0.67600000  0.18080000  0.22440000  1.0 -0.0883714385
C  C705  1  0.68120000  0.15000000  0.20080000  1.0 -0.1359059686
C  C706  1  0.63930000  0.15450000  0.19410000  1.0 -0.1083791947
C  C707  1  0.59090000  0.18970000  0.20970000  1.0 0.0658689809
C  C708  1  0.54750000  0.19630000  0.20410000  1.0 -0.05395077
C  C709  1  0.50190000  0.23110000  0.22030000  1.0 0.0148626858
C  C710  1  0.49640000  0.26160000  0.24360000  1.0 0.081027655
C  C711  1  0.44820000  0.29660000  0.25940000  1.0 -0.0883714385
C  C712  1  0.40670000  0.30130000  0.25250000  1.0 -0.1238656302
C  C713  1  0.41350000  0.27070000  0.22910000  1.0 -0.0883714385
C  C714  1  0.46080000  0.23540000  0.21440000  1.0 -0.0258556212
C  C715  1  0.81498000  0.40990000  0.26138000  1.0 0.5868100388
C  C716  1  0.83923000  0.35581000  0.28341000  1.0 0.0037292871
C  C717  1  0.88520000  0.32866000  0.25814000  1.0 -0.1890846814
C  C718  1  0.95650000  0.24910000  0.25450000  1.0 -0.0996139477
C  C719  1  0.96080000  0.23320000  0.22020000  1.0 0.0379950305
C  C720  1  0.91710000  0.24010000  0.21550000  1.0 -0.0597153902
C  C721  1  0.91880000  0.22440000  0.18080000  1.0 -0.0996139477
C  C722  1  0.96800000  0.20080000  0.15000000  1.0 -0.1359059686
C  C723  1  0.01210000  0.19410000  0.15450000  1.0 -0.1083791947
C  C724  1  0.00970000  0.20970000  0.18970000  1.0 0.0658689809
C  C725  1  0.05210000  0.20410000  0.19630000  1.0 -0.05395077
C  C726  1  0.04670000  0.22030000  0.23110000  1.0 0.0148626858
C  C727  1  0.99840000  0.24360000  0.26160000  1.0 0.081027655
C  C728  1  0.99580000  0.25940000  0.29660000  1.0 -0.0883714385
C  C729  1  0.03950000  0.25250000  0.30130000  1.0 -0.1238656302
C  C730  1  0.08670000  0.22910000  0.27070000  1.0 -0.0883714385
C  C731  1  0.08940000  0.21440000  0.23540000  1.0 -0.0258556212
C  C732  1  0.26138000  0.51374000  0.81498000  1.0 0.5868100388
C  C733  1  0.28341000  0.52155000  0.83923000  1.0 0.0037292871
C  C734  1  0.25814000  0.52800000  0.88520000  1.0 -0.1890846814
C  C735  1  0.25450000  0.53990000  0.95650000  1.0 -0.0996139477
C  C736  1  0.22020000  0.58580000  0.96080000  1.0 0.0379950305
C  C737  1  0.21550000  0.62730000  0.91710000  1.0 -0.0597153902
C  C738  1  0.18080000  0.67600000  0.91880000  1.0 -0.0996139477
C  C739  1  0.15000000  0.68120000  0.96800000  1.0 -0.1359059686
C  C740  1  0.15450000  0.63930000  0.01210000  1.0 -0.1083791947
C  C741  1  0.18970000  0.59090000  0.00970000  1.0 0.0658689809
C  C742  1  0.19630000  0.54750000  0.05210000  1.0 -0.05395077
C  C743  1  0.23110000  0.50190000  0.04670000  1.0 0.0148626858
C  C744  1  0.26160000  0.49640000  0.99840000  1.0 0.081027655
C  C745  1  0.29660000  0.44820000  0.99580000  1.0 -0.0883714385
C  C746  1  0.30130000  0.40670000  0.03950000  1.0 -0.1238656302
C  C747  1  0.27070000  0.41350000  0.08670000  1.0 -0.0883714385
C  C748  1  0.23540000  0.46080000  0.08940000  1.0 -0.0258556212
C  C749  1  0.26138000  0.40990000  0.51374000  1.0 0.5868100388
C  C750  1  0.28341000  0.35581000  0.52155000  1.0 0.0037292871
C  C751  1  0.25814000  0.32866000  0.52800000  1.0 -0.1890846814
C  C752  1  0.25450000  0.24910000  0.53990000  1.0 -0.0996139477
C  C753  1  0.22020000  0.23320000  0.58580000  1.0 0.0379950305
C  C754  1  0.21550000  0.24010000  0.62730000  1.0 -0.0597153902
C  C755  1  0.18080000  0.22440000  0.67600000  1.0 -0.0996139477
C  C756  1  0.15000000  0.20080000  0.68120000  1.0 -0.1359059686
C  C757  1  0.15450000  0.19410000  0.63930000  1.0 -0.1083791947
C  C758  1  0.18970000  0.20970000  0.59090000  1.0 0.0658689809
C  C759  1  0.19630000  0.20410000  0.54750000  1.0 -0.05395077
C  C760  1  0.23110000  0.22030000  0.50190000  1.0 0.015330003
C  C761  1  0.26160000  0.24360000  0.49640000  1.0 0.081027655
C  C762  1  0.29660000  0.25940000  0.44820000  1.0 -0.0883714385
C  C763  1  0.30130000  0.25250000  0.40670000  1.0 -0.1238656302
C  C764  1  0.27070000  0.22910000  0.41350000  1.0 -0.0883714385
C  C765  1  0.23540000  0.21440000  0.46080000  1.0 -0.0258556212
C  C766  1  0.81498000  0.51374000  0.40990000  1.0 0.5868100388
C  C767  1  0.83923000  0.52155000  0.35581000  1.0 0.0037292871
C  C768  1  0.88520000  0.52800000  0.32866000  1.0 -0.1890846814
C  C769  1  0.95650000  0.53990000  0.24910000  1.0 -0.0996139477
C  C770  1  0.96080000  0.58580000  0.23320000  1.0 0.0379950305
C  C771  1  0.91710000  0.62730000  0.24010000  1.0 -0.0597153902
C  C772  1  0.91880000  0.67600000  0.22440000  1.0 -0.0996139477
C  C773  1  0.96800000  0.68120000  0.20080000  1.0 -0.1359059686
C  C774  1  0.01210000  0.63930000  0.19410000  1.0 -0.1083791947
C  C775  1  0.00970000  0.59090000  0.20970000  1.0 0.0649654878
C  C776  1  0.05210000  0.54750000  0.20410000  1.0 -0.05395077
C  C777  1  0.04670000  0.50190000  0.22030000  1.0 0.0148626858
C  C778  1  0.99840000  0.49640000  0.24360000  1.0 0.081027655
C  C779  1  0.99580000  0.44820000  0.25940000  1.0 -0.0883714385
C  C780  1  0.03950000  0.40670000  0.25250000  1.0 -0.1238656302
C  C781  1  0.08670000  0.41350000  0.22910000  1.0 -0.0883714385
C  C782  1  0.08940000  0.46080000  0.21440000  1.0 -0.0258556212
C  C783  1  0.51374000  0.81498000  0.26138000  1.0 0.5868100388
C  C784  1  0.52155000  0.83923000  0.28341000  1.0 0.0037292871
C  C785  1  0.52800000  0.88520000  0.25814000  1.0 -0.1890846814
C  C786  1  0.53990000  0.95650000  0.25450000  1.0 -0.0996139477
C  C787  1  0.58580000  0.96080000  0.22020000  1.0 0.0379950305
C  C788  1  0.62730000  0.91710000  0.21550000  1.0 -0.0597153902
C  C789  1  0.67600000  0.91880000  0.18080000  1.0 -0.0996139477
C  C790  1  0.68120000  0.96800000  0.15000000  1.0 -0.1359059686
C  C791  1  0.63930000  0.01210000  0.15450000  1.0 -0.1083791947
C  C792  1  0.59090000  0.00970000  0.18970000  1.0 0.0658689809
C  C793  1  0.54750000  0.05210000  0.19630000  1.0 -0.05395077
C  C794  1  0.50190000  0.04670000  0.23110000  1.0 0.0148626858
C  C795  1  0.49640000  0.99840000  0.26160000  1.0 0.081027655
C  C796  1  0.44820000  0.99580000  0.29660000  1.0 -0.0883714385
C  C797  1  0.40670000  0.03950000  0.30130000  1.0 -0.1238656302
C  C798  1  0.41350000  0.08670000  0.27070000  1.0 -0.084481618
C  C799  1  0.46080000  0.08940000  0.23540000  1.0 -0.0258556212
C  C800  1  0.40990000  0.26138000  0.81498000  1.0 0.5868100388
C  C801  1  0.35581000  0.28341000  0.83923000  1.0 0.0037292871
C  C802  1  0.32866000  0.25814000  0.88520000  1.0 -0.1890846814
C  C803  1  0.24910000  0.25450000  0.95650000  1.0 -0.0996139477
C  C804  1  0.23320000  0.22020000  0.96080000  1.0 0.0379950305
C  C805  1  0.24010000  0.21550000  0.91710000  1.0 -0.0597153902
C  C806  1  0.22440000  0.18080000  0.91880000  1.0 -0.0996139477
C  C807  1  0.20080000  0.15000000  0.96800000  1.0 -0.1359059686
C  C808  1  0.19410000  0.15450000  0.01210000  1.0 -0.1083791947
C  C809  1  0.20970000  0.18970000  0.00970000  1.0 0.0658689809
C  C810  1  0.20410000  0.19630000  0.05210000  1.0 -0.05395077
C  C811  1  0.22030000  0.23110000  0.04670000  1.0 0.0148626858
C  C812  1  0.24360000  0.26160000  0.99840000  1.0 0.081027655
C  C813  1  0.25940000  0.29660000  0.99580000  1.0 -0.0883714385
C  C814  1  0.25250000  0.30130000  0.03950000  1.0 -0.1238656302
C  C815  1  0.22910000  0.27070000  0.08670000  1.0 -0.0883714385
C  C816  1  0.21440000  0.23540000  0.08940000  1.0 -0.0258556212
C  C817  1  0.81690000  0.33170000  0.33170000  1.0 -0.1083791947
C  C818  1  0.90820000  0.28050000  0.28050000  1.0 0.081027655
C  C819  1  0.10290000  0.17510000  0.17510000  1.0 0.081027655
C  C820  1  0.33170000  0.81690000  0.51970000  1.0 -0.1083791947
C  C821  1  0.28050000  0.90820000  0.53080000  1.0 0.081027655
C  C822  1  0.17510000  0.10290000  0.54690000  1.0 0.081027655
C  C823  1  0.33170000  0.51970000  0.81690000  1.0 -0.1083791947
C  C824  1  0.28050000  0.53080000  0.90820000  1.0 0.081027655
C  C825  1  0.17510000  0.54690000  0.10290000  1.0 0.081027655
C  C826  1  0.51970000  0.33170000  0.33170000  1.0 -0.1083791947
C  C827  1  0.53080000  0.28050000  0.28050000  1.0 0.081027655
C  C828  1  0.54690000  0.17510000  0.17510000  1.0 0.081027655
C  C829  1  0.33170000  0.81690000  0.33170000  1.0 -0.1083791947
C  C830  1  0.28050000  0.90820000  0.28050000  1.0 0.081027655
C  C831  1  0.17510000  0.10290000  0.17510000  1.0 0.081027655
C  C832  1  0.51970000  0.33170000  0.81690000  1.0 -0.1083791947
C  C833  1  0.53080000  0.28050000  0.90820000  1.0 0.081027655
C  C834  1  0.54690000  0.17510000  0.10290000  1.0 0.081027655
C  C835  1  0.81690000  0.33170000  0.51970000  1.0 -0.1083791947
C  C836  1  0.90820000  0.28050000  0.53080000  1.0 0.081027655
C  C837  1  0.10290000  0.17510000  0.54690000  1.0 0.081027655
C  C838  1  0.33170000  0.51970000  0.33170000  1.0 -0.1083791947
C  C839  1  0.28050000  0.53080000  0.28050000  1.0 0.081027655
C  C840  1  0.17510000  0.54690000  0.17510000  1.0 0.081027655
C  C841  1  0.33170000  0.33170000  0.81690000  1.0 -0.1083791947
C  C842  1  0.28050000  0.28050000  0.90820000  1.0 0.081027655
C  C843  1  0.17510000  0.17510000  0.10290000  1.0 0.081027655
C  C844  1  0.81690000  0.51970000  0.33170000  1.0 -0.1083791947
C  C845  1  0.90820000  0.53080000  0.28050000  1.0 0.081027655
C  C846  1  0.10290000  0.54690000  0.17510000  1.0 0.081027655
C  C847  1  0.51970000  0.81690000  0.33170000  1.0 -0.1083791947
C  C848  1  0.53080000  0.90820000  0.28050000  1.0 0.081027655
C  C849  1  0.54690000  0.10290000  0.17510000  1.0 0.081027655
C  C850  1  0.33170000  0.33170000  0.51970000  1.0 -0.1083791947
C  C851  1  0.28050000  0.28050000  0.53080000  1.0 0.081027655
C  C852  1  0.17510000  0.17510000  0.54690000  1.0 0.081027655
C  C853  1  0.18310000  0.66830000  0.48030000  1.0 -0.1083791947
C  C854  1  0.09180000  0.71950000  0.46920000  1.0 0.081027655
C  C855  1  0.89710000  0.82490000  0.45310000  1.0 0.081027655
C  C856  1  0.66830000  0.18310000  0.66830000  1.0 -0.1083791947
C  C857  1  0.71950000  0.09180000  0.71950000  1.0 0.081027655
C  C858  1  0.82490000  0.89710000  0.82490000  1.0 0.081027655
C  C859  1  0.66830000  0.48030000  0.66830000  1.0 -0.1083791947
C  C860  1  0.71950000  0.46920000  0.71950000  1.0 0.081027655
C  C861  1  0.82490000  0.45310000  0.82490000  1.0 0.081027655
C  C862  1  0.48030000  0.66830000  0.18310000  1.0 -0.1083791947
C  C863  1  0.46920000  0.71950000  0.09180000  1.0 0.081027655
C  C864  1  0.45310000  0.82490000  0.89710000  1.0 0.081027655
C  C865  1  0.66830000  0.18310000  0.48030000  1.0 -0.1083791947
C  C866  1  0.71950000  0.09180000  0.46920000  1.0 0.081027655
C  C867  1  0.82490000  0.89710000  0.45310000  1.0 0.081027655
C  C868  1  0.48030000  0.66830000  0.66830000  1.0 -0.1083791947
C  C869  1  0.46920000  0.71950000  0.71950000  1.0 0.081027655
C  C870  1  0.45310000  0.82490000  0.82490000  1.0 0.081027655
C  C871  1  0.18310000  0.66830000  0.66830000  1.0 -0.1083791947
C  C872  1  0.09180000  0.71950000  0.71950000  1.0 0.081027655
C  C873  1  0.89710000  0.82490000  0.82490000  1.0 0.081027655
C  C874  1  0.66830000  0.48030000  0.18310000  1.0 -0.1083791947
C  C875  1  0.71950000  0.46920000  0.09180000  1.0 0.081027655
C  C876  1  0.82490000  0.45310000  0.89710000  1.0 0.081027655
C  C877  1  0.66830000  0.66830000  0.48030000  1.0 -0.1083791947
C  C878  1  0.71950000  0.71950000  0.46920000  1.0 0.081027655
C  C879  1  0.82490000  0.82490000  0.45310000  1.0 0.081027655
C  C880  1  0.18310000  0.48030000  0.66830000  1.0 -0.1083791947
C  C881  1  0.09180000  0.46920000  0.71950000  1.0 0.081027655
C  C882  1  0.89710000  0.45310000  0.82490000  1.0 0.081027655
C  C883  1  0.48030000  0.18310000  0.66830000  1.0 -0.1083791947
C  C884  1  0.46920000  0.09180000  0.71950000  1.0 0.081027655
C  C885  1  0.45310000  0.89710000  0.82490000  1.0 0.081027655
C  C886  1  0.66830000  0.66830000  0.18310000  1.0 -0.1083791947
C  C887  1  0.71950000  0.71950000  0.09180000  1.0 0.081027655
C  C888  1  0.82490000  0.82490000  0.89710000  1.0 0.081027655
C  C889  1  0.12840000  0.19760000  0.12840000  1.0 -0.3185238105
C  C890  1  0.19760000  0.12840000  0.54560000  1.0 -0.3185238105
C  C891  1  0.12840000  0.54560000  0.12840000  1.0 -0.3185238105
C  C892  1  0.54560000  0.12840000  0.19760000  1.0 -0.3185238105
C  C893  1  0.12840000  0.12840000  0.19760000  1.0 -0.3185238105
C  C894  1  0.54560000  0.19760000  0.12840000  1.0 -0.3185238105
C  C895  1  0.12840000  0.12840000  0.54560000  1.0 -0.3185238105
C  C896  1  0.19760000  0.54560000  0.12840000  1.0 -0.3185238105
C  C897  1  0.19760000  0.12840000  0.12840000  1.0 -0.3185238105
C  C898  1  0.12840000  0.54560000  0.19760000  1.0 -0.3185238105
C  C899  1  0.54560000  0.12840000  0.12840000  1.0 -0.3185238105
C  C900  1  0.12840000  0.19760000  0.54560000  1.0 -0.3185238105
C  C901  1  0.87160000  0.80240000  0.45440000  1.0 -0.3185238105
C  C902  1  0.80240000  0.87160000  0.87160000  1.0 -0.3185238105
C  C903  1  0.87160000  0.45440000  0.80240000  1.0 -0.3185238105
C  C904  1  0.45440000  0.87160000  0.87160000  1.0 -0.3185238105
C  C905  1  0.87160000  0.87160000  0.45440000  1.0 -0.3185238105
C  C906  1  0.45440000  0.80240000  0.87160000  1.0 -0.3185238105
C  C907  1  0.87160000  0.87160000  0.80240000  1.0 -0.3185238105
C  C908  1  0.80240000  0.45440000  0.87160000  1.0 -0.3185238105
C  C909  1  0.80240000  0.87160000  0.45440000  1.0 -0.3185238105
C  C910  1  0.87160000  0.45440000  0.87160000  1.0 -0.3185238105
C  C911  1  0.45440000  0.87160000  0.80240000  1.0 -0.3185238105
C  C912  1  0.87160000  0.80240000  0.87160000  1.0 -0.3185238105
O  O1  1  0.84110000  0.21680000  0.43070000  1.0 -0.5671897146
O  O2  1  0.77321000  0.28479000  0.43087000  1.0 -0.4868471453
O  O3  1  0.21680000  0.84110000  0.51140000  1.0 -0.5671897146
O  O4  1  0.28479000  0.77321000  0.51113000  1.0 -0.4868471453
O  O5  1  0.43070000  0.51140000  0.84110000  1.0 -0.5671897146
O  O6  1  0.43087000  0.51113000  0.77321000  1.0 -0.4868471453
O  O7  1  0.51140000  0.43070000  0.21680000  1.0 -0.5671897146
O  O8  1  0.51113000  0.43087000  0.28479000  1.0 -0.4868471453
O  O9  1  0.43070000  0.84110000  0.21680000  1.0 -0.5671897146
O  O10  1  0.43087000  0.77321000  0.28479000  1.0 -0.4868471453
O  O11  1  0.51140000  0.21680000  0.84110000  1.0 -0.5671897146
O  O12  1  0.51113000  0.28479000  0.77321000  1.0 -0.4868471453
O  O13  1  0.84110000  0.43070000  0.51140000  1.0 -0.5671897146
O  O14  1  0.77321000  0.43087000  0.51113000  1.0 -0.4868471453
O  O15  1  0.21680000  0.51140000  0.43070000  1.0 -0.5671897146
O  O16  1  0.28479000  0.51113000  0.43087000  1.0 -0.4868471453
O  O17  1  0.21680000  0.43070000  0.84110000  1.0 -0.5671897146
O  O18  1  0.28479000  0.43087000  0.77321000  1.0 -0.4868471453
O  O19  1  0.84110000  0.51140000  0.21680000  1.0 -0.5671897146
O  O20  1  0.77321000  0.51113000  0.28479000  1.0 -0.4868471453
O  O21  1  0.51140000  0.84110000  0.43070000  1.0 -0.5671897146
O  O22  1  0.51113000  0.77321000  0.43087000  1.0 -0.4868471453
O  O23  1  0.43070000  0.21680000  0.51140000  1.0 -0.5671897146
O  O24  1  0.43087000  0.28479000  0.51113000  1.0 -0.4868471453
O  O25  1  0.15890000  0.78320000  0.48860000  1.0 -0.5671897146
O  O26  1  0.22679000  0.71521000  0.48887000  1.0 -0.4868471453
O  O27  1  0.78320000  0.15890000  0.56930000  1.0 -0.5671897146
O  O28  1  0.71521000  0.22679000  0.56913000  1.0 -0.4868471453
O  O29  1  0.56930000  0.48860000  0.78320000  1.0 -0.5671897146
O  O30  1  0.56913000  0.48887000  0.71521000  1.0 -0.4868471453
O  O31  1  0.48860000  0.56930000  0.15890000  1.0 -0.5671897146
O  O32  1  0.48887000  0.56913000  0.22679000  1.0 -0.4868471453
O  O33  1  0.56930000  0.15890000  0.48860000  1.0 -0.5671897146
O  O34  1  0.56913000  0.22679000  0.48887000  1.0 -0.4868471453
O  O35  1  0.48860000  0.78320000  0.56930000  1.0 -0.5671897146
O  O36  1  0.48887000  0.71521000  0.56913000  1.0 -0.4868471453
O  O37  1  0.15890000  0.56930000  0.78320000  1.0 -0.5671897146
O  O38  1  0.22679000  0.56913000  0.71521000  1.0 -0.4868471453
O  O39  1  0.78320000  0.48860000  0.15890000  1.0 -0.5671897146
O  O40  1  0.71521000  0.48887000  0.22679000  1.0 -0.4868471453
O  O41  1  0.78320000  0.56930000  0.48860000  1.0 -0.5671897146
O  O42  1  0.71521000  0.56913000  0.48887000  1.0 -0.4868471453
O  O43  1  0.15890000  0.48860000  0.56930000  1.0 -0.5671897146
O  O44  1  0.22679000  0.48887000  0.56913000  1.0 -0.4868471453
O  O45  1  0.48860000  0.15890000  0.78320000  1.0 -0.5671897146
O  O46  1  0.48887000  0.22679000  0.71521000  1.0 -0.4848196568
O  O47  1  0.56930000  0.78320000  0.15890000  1.0 -0.5671897146
O  O48  1  0.56913000  0.71521000  0.22679000  1.0 -0.4868471453
O  O49  1  0.15890000  0.78320000  0.56930000  1.0 -0.5671897146
O  O50  1  0.22679000  0.71521000  0.56913000  1.0 -0.4868471453
O  O51  1  0.78320000  0.15890000  0.48860000  1.0 -0.5671897146
O  O52  1  0.71521000  0.22679000  0.48887000  1.0 -0.4868471453
O  O53  1  0.56930000  0.48860000  0.15890000  1.0 -0.5671897146
O  O54  1  0.56913000  0.48887000  0.22679000  1.0 -0.4868471453
O  O55  1  0.48860000  0.56930000  0.78320000  1.0 -0.5671897146
O  O56  1  0.48887000  0.56913000  0.71521000  1.0 -0.4868471453
O  O57  1  0.56930000  0.15890000  0.78320000  1.0 -0.5671897146
O  O58  1  0.56913000  0.22679000  0.71521000  1.0 -0.4868471453
O  O59  1  0.48860000  0.78320000  0.15890000  1.0 -0.5671897146
O  O60  1  0.48887000  0.71521000  0.22679000  1.0 -0.4868471453
O  O61  1  0.15890000  0.56930000  0.48860000  1.0 -0.5671897146
O  O62  1  0.22679000  0.56913000  0.48887000  1.0 -0.4868471453
O  O63  1  0.78320000  0.48860000  0.56930000  1.0 -0.5671897146
O  O64  1  0.71521000  0.48887000  0.56913000  1.0 -0.4868471453
O  O65  1  0.78320000  0.56930000  0.15890000  1.0 -0.5671897146
O  O66  1  0.71521000  0.56913000  0.22679000  1.0 -0.4868471453
O  O67  1  0.15890000  0.48860000  0.78320000  1.0 -0.5671897146
O  O68  1  0.22679000  0.48887000  0.71521000  1.0 -0.4868471453
O  O69  1  0.48860000  0.15890000  0.56930000  1.0 -0.5671897146
O  O70  1  0.48887000  0.22679000  0.56913000  1.0 -0.4868471453
O  O71  1  0.56930000  0.78320000  0.48860000  1.0 -0.5671897146
O  O72  1  0.56913000  0.71521000  0.48887000  1.0 -0.4868471453
O  O73  1  0.84110000  0.21680000  0.51140000  1.0 -0.5671897146
O  O74  1  0.77321000  0.28479000  0.51113000  1.0 -0.4868471453
O  O75  1  0.21680000  0.84110000  0.43070000  1.0 -0.5671897146
O  O76  1  0.28479000  0.77321000  0.43087000  1.0 -0.4868471453
O  O77  1  0.43070000  0.51140000  0.21680000  1.0 -0.5671897146
O  O78  1  0.43087000  0.51113000  0.28479000  1.0 -0.4848196568
O  O79  1  0.51140000  0.43070000  0.84110000  1.0 -0.5671897146
O  O80  1  0.51113000  0.43087000  0.77321000  1.0 -0.4868471453
O  O81  1  0.43070000  0.84110000  0.51140000  1.0 -0.5671897146
O  O82  1  0.43087000  0.77321000  0.51113000  1.0 -0.4868471453
O  O83  1  0.51140000  0.21680000  0.43070000  1.0 -0.5671897146
O  O84  1  0.51113000  0.28479000  0.43087000  1.0 -0.4868471453
O  O85  1  0.84110000  0.43070000  0.21680000  1.0 -0.5671897146
O  O86  1  0.77321000  0.43087000  0.28479000  1.0 -0.4868471453
O  O87  1  0.21680000  0.51140000  0.84110000  1.0 -0.5671897146
O  O88  1  0.28479000  0.51113000  0.77321000  1.0 -0.4868471453
O  O89  1  0.21680000  0.43070000  0.51140000  1.0 -0.5671897146
O  O90  1  0.28479000  0.43087000  0.51113000  1.0 -0.4868471453
O  O91  1  0.84110000  0.51140000  0.43070000  1.0 -0.5671897146
O  O92  1  0.77321000  0.51113000  0.43087000  1.0 -0.4848196568
O  O93  1  0.51140000  0.84110000  0.21680000  1.0 -0.5671897146
O  O94  1  0.51113000  0.77321000  0.28479000  1.0 -0.4868471453
O  O95  1  0.43070000  0.21680000  0.84110000  1.0 -0.5671897146
O  O96  1  0.43087000  0.28479000  0.77321000  1.0 -0.4868471453
O  O97  1  0.88380000  0.11620000  0.49300000  1.0 0.1815001086
O  O98  1  0.11620000  0.88380000  0.50700000  1.0 0.1815001086
O  O99  1  0.49300000  0.50700000  0.88380000  1.0 0.1815001086
O  O100  1  0.50700000  0.49300000  0.11620000  1.0 0.1815001086
O  O101  1  0.49300000  0.88380000  0.11620000  1.0 0.1815001086
O  O102  1  0.50700000  0.11620000  0.88380000  1.0 0.1815001086
O  O103  1  0.88380000  0.49300000  0.50700000  1.0 0.1815001086
O  O104  1  0.11620000  0.50700000  0.49300000  1.0 0.1815001086
O  O105  1  0.11620000  0.49300000  0.88380000  1.0 0.1815001086
O  O106  1  0.88380000  0.50700000  0.11620000  1.0 0.1815001086
O  O107  1  0.50700000  0.88380000  0.49300000  1.0 0.1815001086
O  O108  1  0.49300000  0.11620000  0.50700000  1.0 0.1815001086
O  O109  1  0.11620000  0.88380000  0.49300000  1.0 0.1815001086
O  O110  1  0.88380000  0.11620000  0.50700000  1.0 0.1815001086
O  O111  1  0.50700000  0.49300000  0.88380000  1.0 0.1815001086
O  O112  1  0.49300000  0.50700000  0.11620000  1.0 0.1815001086
O  O113  1  0.50700000  0.11620000  0.49300000  1.0 0.1815001086
O  O114  1  0.49300000  0.88380000  0.50700000  1.0 0.1815001086
O  O115  1  0.11620000  0.50700000  0.88380000  1.0 0.1815001086
O  O116  1  0.88380000  0.49300000  0.11620000  1.0 0.1815001086
O  O117  1  0.88380000  0.50700000  0.49300000  1.0 0.1815001086
O  O118  1  0.11620000  0.49300000  0.50700000  1.0 0.1856120465
O  O119  1  0.49300000  0.11620000  0.88380000  1.0 0.1815001086
O  O120  1  0.50700000  0.88380000  0.11620000  1.0 0.1815001086
